# generated using pymatgen
data_Ca2Al2SiO7
_symmetry_space_group_name_H-M   'P 1'
_cell_length_a   15.45893635
_cell_length_b   15.45928797
_cell_length_c   15.28444693
_cell_angle_alpha   89.99434167
_cell_angle_beta   89.99395613
_cell_angle_gamma   89.98029376
_symmetry_Int_Tables_number   1
_chemical_formula_structural   Ca2Al2SiO7
_chemical_formula_sum   'Ca48 Al48 Si24 O168'
_cell_volume   3652.74028365
_cell_formula_units_Z   24
loop_
 _symmetry_equiv_pos_site_id
 _symmetry_equiv_pos_as_xyz
  1  'x, y, z'
loop_
 _atom_type_symbol
 _atom_type_oxidation_number
  Ca2+  2.0
  Al0+  0.0
  Si0+  0.0
  O2-  -2.0
loop_
 _atom_site_type_symbol
 _atom_site_label
 _atom_site_symmetry_multiplicity
 _atom_site_fract_x
 _atom_site_fract_y
 _atom_site_fract_z
 _atom_site_occupancy
  Ca2+  Ca0  1  0.17556536  0.09375731  0.17077004  1
  Ca2+  Ca1  1  0.17411080  0.08323992  0.50485452  1
  Ca2+  Ca2  1  0.17539373  0.08133926  0.84023747  1
  Ca2+  Ca3  1  0.17890418  0.58438375  0.17332065  1
  Ca2+  Ca4  1  0.16884216  0.58853267  0.49919859  1
  Ca2+  Ca5  1  0.17431779  0.57924106  0.84170142  1
  Ca2+  Ca6  1  0.65948085  0.07881117  0.17519623  1
  Ca2+  Ca7  1  0.66234340  0.07130811  0.50159367  1
  Ca2+  Ca8  1  0.66235382  0.07989007  0.83698664  1
  Ca2+  Ca9  1  0.65694659  0.57644529  0.16979896  1
  Ca2+  Ca10  1  0.67420206  0.58542301  0.50380513  1
  Ca2+  Ca11  1  0.67090291  0.57848171  0.84228174  1
  Ca2+  Ca12  1  0.07580891  0.32523283  0.16282513  1
  Ca2+  Ca13  1  0.07318705  0.32920470  0.49178512  1
  Ca2+  Ca14  1  0.07795814  0.32902613  0.83106702  1
  Ca2+  Ca15  1  0.08141543  0.83179173  0.16788937  1
  Ca2+  Ca16  1  0.07918011  0.83178734  0.49259288  1
  Ca2+  Ca17  1  0.08677812  0.83296092  0.82834998  1
  Ca2+  Ca18  1  0.58099873  0.32156981  0.15639286  1
  Ca2+  Ca19  1  0.58152663  0.32280044  0.49299515  1
  Ca2+  Ca20  1  0.58159769  0.33198645  0.83977849  1
  Ca2+  Ca21  1  0.58000754  0.82265111  0.16214609  1
  Ca2+  Ca22  1  0.58224163  0.83350626  0.49484295  1
  Ca2+  Ca23  1  0.56995662  0.83619865  0.83071810  1
  Ca2+  Ca24  1  0.34545642  0.42740052  0.16842726  1
  Ca2+  Ca25  1  0.33316645  0.42531396  0.49962645  1
  Ca2+  Ca26  1  0.33787692  0.42223191  0.84589717  1
  Ca2+  Ca27  1  0.33978166  0.92738891  0.16970567  1
  Ca2+  Ca28  1  0.33010449  0.92762268  0.50904134  1
  Ca2+  Ca29  1  0.33481495  0.92121419  0.83589846  1
  Ca2+  Ca30  1  0.83044105  0.40807603  0.16729136  1
  Ca2+  Ca31  1  0.83877327  0.41979986  0.50644009  1
  Ca2+  Ca32  1  0.83260573  0.41609584  0.83859122  1
  Ca2+  Ca33  1  0.82625466  0.91730993  0.17637721  1
  Ca2+  Ca34  1  0.82162256  0.90804229  0.50192743  1
  Ca2+  Ca35  1  0.82306405  0.91548031  0.83705154  1
  Ca2+  Ca36  1  0.42285208  0.16460778  0.15873318  1
  Ca2+  Ca37  1  0.41752806  0.16038611  0.49384470  1
  Ca2+  Ca38  1  0.41605932  0.16148686  0.83564391  1
  Ca2+  Ca39  1  0.42285166  0.66721604  0.15703896  1
  Ca2+  Ca40  1  0.42013393  0.67650953  0.49148168  1
  Ca2+  Ca41  1  0.41798654  0.67504098  0.83312312  1
  Ca2+  Ca42  1  0.92677368  0.17319892  0.15987805  1
  Ca2+  Ca43  1  0.92108020  0.17694358  0.48934492  1
  Ca2+  Ca44  1  0.91881469  0.17787959  0.83147522  1
  Ca2+  Ca45  1  0.92083040  0.67193305  0.16984964  1
  Ca2+  Ca46  1  0.92150647  0.67051581  0.49061572  1
  Ca2+  Ca47  1  0.91705550  0.66292676  0.82795916  1
  Al0+  Al48  1  -0.00071212  -0.00095444  -0.00412374  1
  Al0+  Al49  1  -0.00059011  0.00197084  0.32646352  1
  Al0+  Al50  1  -0.00015681  -0.00034971  0.66877861  1
  Al0+  Al51  1  -0.00009481  0.50198319  -0.00084381  1
  Al0+  Al52  1  0.00004198  0.50109603  0.32494319  1
  Al0+  Al53  1  0.00074752  0.50006663  0.66704570  1
  Al0+  Al54  1  0.49879108  -0.00227305  -0.00210930  1
  Al0+  Al55  1  0.49968465  -0.00065136  0.33923208  1
  Al0+  Al56  1  0.49977099  -0.00086101  0.66984833  1
  Al0+  Al57  1  0.50393086  0.49877946  0.00026708  1
  Al0+  Al58  1  0.50095401  0.50076143  0.34026627  1
  Al0+  Al59  1  0.50206000  0.49880450  0.66514614  1
  Al0+  Al60  1  0.24902234  0.24969911  -0.00264664  1
  Al0+  Al61  1  0.24941636  0.25458642  0.33664608  1
  Al0+  Al62  1  0.25077036  0.25163640  0.66892018  1
  Al0+  Al63  1  0.24871965  0.75011208  0.00133313  1
  Al0+  Al64  1  0.25025258  0.75218907  0.33445348  1
  Al0+  Al65  1  0.25173060  0.75117910  0.66484216  1
  Al0+  Al66  1  0.75118488  0.24959126  -0.00389066  1
  Al0+  Al67  1  0.74758989  0.24861806  0.32859570  1
  Al0+  Al68  1  0.74873040  0.25047967  0.66143832  1
  Al0+  Al69  1  0.75112784  0.74871308  -0.00163794  1
  Al0+  Al70  1  0.74838482  0.74851776  0.32945006  1
  Al0+  Al71  1  0.75038730  0.74833772  0.67718234  1
  Al0+  Al72  1  0.32041107  0.07241285  0.68401402  1
  Al0+  Al73  1  0.92958926  0.32188261  0.98288457  1
  Al0+  Al74  1  0.42994496  0.82065358  0.65022868  1
  Al0+  Al75  1  0.31972612  0.06985436  0.01540331  1
  Al0+  Al76  1  0.32108295  0.57007740  0.01263414  1
  Al0+  Al77  1  0.42965531  0.32073815  0.98719432  1
  Al0+  Al78  1  0.68245225  0.42906210  0.01464886  1
  Al0+  Al79  1  0.17730634  0.92765329  0.68098515  1
  Al0+  Al80  1  0.07249145  0.17719510  0.98211459  1
  Al0+  Al81  1  0.82144464  0.56867128  0.67928993  1
  Al0+  Al82  1  0.56992113  0.67841777  0.32163391  1
  Al0+  Al83  1  0.32260219  0.57314849  0.34851367  1
  Al0+  Al84  1  0.57118934  0.17622469  0.98414921  1
  Al0+  Al85  1  0.42753080  0.81987132  0.98565612  1
  Al0+  Al86  1  0.92715375  0.82169550  0.31977225  1
  Al0+  Al87  1  0.57258606  0.67716425  0.98374575  1
  Al0+  Al88  1  0.68059341  0.92776052  0.34604487  1
  Al0+  Al89  1  0.92691859  0.32185156  0.31689775  1
  Al0+  Al90  1  0.92985237  0.32056170  0.65156607  1
  Al0+  Al91  1  0.31942219  0.07243349  0.34664045  1
  Al0+  Al92  1  0.07393225  0.67986418  0.31759772  1
  Al0+  Al93  1  0.56694514  0.17730752  0.32181456  1
  Al0+  Al94  1  0.68011347  0.92898170  0.68264110  1
  Al0+  Al95  1  0.07398568  0.17922958  0.31927066  1
  Si0+  Si96  1  0.67923368  0.42644345  0.34972459  1
  Si0+  Si97  1  0.42723897  0.32407312  0.65012821  1
  Si0+  Si98  1  0.82079399  0.56934031  0.34626623  1
  Si0+  Si99  1  0.17617498  0.42814627  0.01699237  1
  Si0+  Si100  1  0.57318345  0.67745147  0.65041040  1
  Si0+  Si101  1  0.17628416  0.43170552  0.35058225  1
  Si0+  Si102  1  0.07308839  0.17779506  0.64968365  1
  Si0+  Si103  1  0.82247856  0.07287852  0.34841267  1
  Si0+  Si104  1  0.82146254  0.07432365  0.68194185  1
  Si0+  Si105  1  0.56899999  0.17935194  0.65081260  1
  Si0+  Si106  1  0.07051576  0.68066289  0.98402221  1
  Si0+  Si107  1  0.67733662  0.42549785  0.68324891  1
  Si0+  Si108  1  0.42838660  0.82262710  0.31826967  1
  Si0+  Si109  1  0.17516502  0.92751324  0.01878858  1
  Si0+  Si110  1  0.17973740  0.43117581  0.68114556  1
  Si0+  Si111  1  0.92837048  0.82090464  0.98286095  1
  Si0+  Si112  1  0.07111308  0.67965773  0.65311719  1
  Si0+  Si113  1  0.82438710  0.57407348  0.02074255  1
  Si0+  Si114  1  0.92692000  0.82086327  0.65429117  1
  Si0+  Si115  1  0.32273647  0.57078553  0.68107044  1
  Si0+  Si116  1  0.67914457  0.92851616  0.01608681  1
  Si0+  Si117  1  0.42841418  0.32381536  0.31987315  1
  Si0+  Si118  1  0.17519579  0.92880745  0.34875102  1
  Si0+  Si119  1  0.82127452  0.06950366  0.01424930  1
  O2-  O120  1  0.24288677  -0.00294468  0.06259484  1
  O2-  O121  1  0.24174319  -0.00008905  0.39237680  1
  O2-  O122  1  0.24649615  0.00117470  0.73210010  1
  O2-  O123  1  0.24941926  0.49261048  0.06044356  1
  O2-  O124  1  0.24464104  0.50126650  0.39563400  1
  O2-  O125  1  0.25416383  0.49816925  0.72416532  1
  O2-  O126  1  0.74835024  0.00112956  0.05823193  1
  O2-  O127  1  0.75727415  0.00106325  0.39358348  1
  O2-  O128  1  0.75542424  0.00397492  0.72830158  1
  O2-  O129  1  0.75623334  0.50436932  0.06353641  1
  O2-  O130  1  0.75309322  0.49564984  0.39042266  1
  O2-  O131  1  0.74681611  0.49423441  0.72550816  1
  O2-  O132  1  -0.00160841  0.24800827  0.27022648  1
  O2-  O133  1  0.00178062  0.24355824  0.60488481  1
  O2-  O134  1  0.00247622  0.25136921  0.93238148  1
  O2-  O135  1  0.00303384  0.75393138  0.26902691  1
  O2-  O136  1  0.00110562  0.75274058  0.61266057  1
  O2-  O137  1  -0.00075052  0.75021023  0.94002172  1
  O2-  O138  1  0.49174220  0.25089574  0.27579584  1
  O2-  O139  1  0.49607604  0.24981302  0.60971148  1
  O2-  O140  1  0.49731456  0.24639121  0.93381099  1
  O2-  O141  1  0.49179547  0.74888507  0.27489262  1
  O2-  O142  1  0.50500047  0.74538247  0.60448389  1
  O2-  O143  1  0.49998240  0.74842688  0.93439973  1
  O2-  O144  1  0.06984430  0.17741361  0.09550096  1
  O2-  O145  1  0.07262108  0.18156412  0.43350476  1
  O2-  O146  1  0.07300150  0.18067327  0.75481619  1
  O2-  O147  1  0.07042288  0.68200987  0.08861779  1
  O2-  O148  1  0.07053996  0.67962996  0.43205258  1
  O2-  O149  1  0.07043955  0.67797489  0.75842114  1
  O2-  O150  1  0.57030788  0.17561245  0.09781094  1
  O2-  O151  1  0.56702867  0.17826438  0.43556670  1
  O2-  O152  1  0.57136648  0.18068276  0.75544301  1
  O2-  O153  1  0.57196830  0.67925568  0.09765553  1
  O2-  O154  1  0.57177096  0.67986230  0.43510850  1
  O2-  O155  1  0.57066812  0.67578350  0.75544317  1
  O2-  O156  1  0.17688851  0.43170237  0.24553357  1
  O2-  O157  1  0.17900592  0.43354986  0.57603706  1
  O2-  O158  1  0.17419665  0.43369660  0.91066235  1
  O2-  O159  1  0.17743978  0.92623275  0.24341188  1
  O2-  O160  1  0.17668601  0.92753404  0.56734484  1
  O2-  O161  1  0.17463715  0.92639845  0.91313061  1
  O2-  O162  1  0.67692496  0.42695321  0.24516379  1
  O2-  O163  1  0.67611532  0.42521869  0.57729876  1
  O2-  O164  1  0.68431583  0.43037001  0.90115779  1
  O2-  O165  1  0.68029423  0.92874860  0.23296291  1
  O2-  O166  1  0.68145807  0.92769545  0.56937431  1
  O2-  O167  1  0.68187427  0.92877401  0.91069629  1
  O2-  O168  1  0.43345641  0.32178746  0.10083142  1
  O2-  O169  1  0.43163921  0.32484672  0.42627829  1
  O2-  O170  1  0.42799523  0.32980980  0.75432518  1
  O2-  O171  1  0.42992511  0.82004027  0.09946699  1
  O2-  O172  1  0.43103491  0.82238866  0.42420439  1
  O2-  O173  1  0.42905199  0.81790735  0.76291756  1
  O2-  O174  1  0.93019514  0.31908908  0.09607336  1
  O2-  O175  1  0.92876149  0.32259844  0.43119124  1
  O2-  O176  1  0.93217275  0.32121856  0.76402279  1
  O2-  O177  1  0.92766389  0.82084974  0.08762844  1
  O2-  O178  1  0.92559779  0.81704358  0.43399461  1
  O2-  O179  1  0.92635408  0.81807740  0.75951109  1
  O2-  O180  1  0.32226385  0.07051100  0.23385236  1
  O2-  O181  1  0.31929790  0.07252022  0.56992498  1
  O2-  O182  1  0.31952544  0.06689337  0.90266368  1
  O2-  O183  1  0.32456208  0.56998437  0.23574716  1
  O2-  O184  1  0.32102667  0.56981032  0.57585887  1
  O2-  O185  1  0.31684389  0.57014266  0.89874430  1
  O2-  O186  1  0.81949461  0.07266764  0.24280855  1
  O2-  O187  1  0.81930780  0.07440916  0.57636028  1
  O2-  O188  1  0.82111118  0.06549998  0.90875405  1
  O2-  O189  1  0.81915617  0.57056335  0.24169012  1
  O2-  O190  1  0.82160351  0.56956616  0.56569172  1
  O2-  O191  1  0.82515290  0.57437174  0.91474851  1
  O2-  O192  1  0.05150892  0.08057051  0.26529145  1
  O2-  O193  1  0.05045367  0.08222666  0.60618010  1
  O2-  O194  1  0.04141982  0.07912847  0.92924714  1
  O2-  O195  1  0.04414142  0.58394617  0.26213782  1
  O2-  O196  1  0.04155190  0.58912500  0.60456856  1
  O2-  O197  1  0.04359381  0.58901581  0.93552576  1
  O2-  O198  1  0.53748304  0.08040300  0.26888035  1
  O2-  O199  1  0.54173577  0.08700461  0.60460601  1
  O2-  O200  1  0.54377872  0.07803082  0.93111978  1
  O2-  O201  1  0.54123345  0.58000577  0.27073489  1
  O2-  O202  1  0.55036445  0.58264128  0.60420398  1
  O2-  O203  1  0.54646641  0.57894097  0.93112596  1
  O2-  O204  1  0.17088706  0.21366663  0.26680072  1
  O2-  O205  1  0.16621842  0.20761389  0.60433927  1
  O2-  O206  1  0.17029855  0.20475444  0.92864861  1
  O2-  O207  1  0.17268365  0.70734170  0.26511823  1
  O2-  O208  1  0.16294718  0.70546206  0.60496523  1
  O2-  O209  1  0.16143481  0.70852184  0.93493168  1
  O2-  O210  1  0.66287309  0.20645150  0.26712634  1
  O2-  O211  1  0.65959277  0.20813381  0.60096397  1
  O2-  O212  1  0.66880457  0.20576015  0.93075640  1
  O2-  O213  1  0.66400723  0.70919883  0.26468346  1
  O2-  O214  1  0.66834957  0.70470026  0.60820365  1
  O2-  O215  1  0.67217365  0.70466822  0.93239093  1
  O2-  O216  1  0.08478007  0.45997760  0.06391380  1
  O2-  O217  1  0.08219997  0.45881510  0.39617729  1
  O2-  O218  1  0.09045319  0.46337181  0.73067135  1
  O2-  O219  1  0.07976830  0.95087635  0.06255214  1
  O2-  O220  1  0.07938066  0.95079740  0.39284206  1
  O2-  O221  1  0.07661435  0.94944250  0.73397252  1
  O2-  O222  1  0.58641968  0.45898599  0.07007321  1
  O2-  O223  1  0.58974527  0.45618252  0.40125786  1
  O2-  O224  1  0.58377446  0.45183733  0.72939160  1
  O2-  O225  1  0.58661152  0.95361277  0.06200305  1
  O2-  O226  1  0.58623408  0.96083086  0.40343412  1
  O2-  O227  1  0.58479286  0.96182421  0.73639846  1
  O2-  O228  1  0.19553469  0.33247412  0.05937813  1
  O2-  O229  1  0.20274012  0.33994659  0.40076194  1
  O2-  O230  1  0.20337477  0.33855637  0.72812558  1
  O2-  O231  1  0.20037868  0.83368387  0.06442520  1
  O2-  O232  1  0.20084228  0.83571956  0.39651622  1
  O2-  O233  1  0.20738418  0.82884564  0.73388529  1
  O2-  O234  1  0.71297819  0.33109747  0.06732308  1
  O2-  O235  1  0.70499352  0.33364218  0.39712789  1
  O2-  O236  1  0.70309844  0.33194954  0.72852547  1
  O2-  O237  1  0.71057261  0.83668816  0.06145499  1
  O2-  O238  1  0.71201511  0.83089275  0.40059196  1
  O2-  O239  1  0.71158577  0.83443555  0.73986277  1
  O2-  O240  1  0.45994865  0.41577568  0.27519378  1
  O2-  O241  1  0.45814461  0.41430604  0.59958590  1
  O2-  O242  1  0.46292036  0.41684154  0.93187147  1
  O2-  O243  1  0.46058171  0.91374613  0.27245427  1
  O2-  O244  1  0.46174420  0.91803395  0.59854112  1
  O2-  O245  1  0.45891898  0.91590465  0.93048173  1
  O2-  O246  1  0.95434437  0.41919737  0.26307333  1
  O2-  O247  1  0.96454202  0.41701476  0.59865157  1
  O2-  O248  1  0.95586123  0.42261782  0.93281047  1
  O2-  O249  1  0.94886939  0.92084031  0.26582967  1
  O2-  O250  1  0.94903480  0.91440090  0.60756998  1
  O2-  O251  1  0.95432407  0.91192754  0.93352056  1
  O2-  O252  1  0.33239970  0.30779601  0.27753132  1
  O2-  O253  1  0.33395374  0.29996207  0.60330425  1
  O2-  O254  1  0.32927572  0.30068090  0.93517977  1
  O2-  O255  1  0.33303691  0.80430411  0.27478404  1
  O2-  O256  1  0.33364809  0.78884651  0.59550903  1
  O2-  O257  1  0.32855279  0.79163528  0.93325875  1
  O2-  O258  1  0.82842385  0.29378198  0.26532064  1
  O2-  O259  1  0.83159188  0.29413858  0.59788771  1
  O2-  O260  1  0.83302340  0.29059503  0.92846499  1
  O2-  O261  1  0.83238955  0.78723821  0.26347102  1
  O2-  O262  1  0.83580974  0.78834995  0.60817617  1
  O2-  O263  1  0.83729396  0.79214329  0.93444699  1
  O2-  O264  1  0.41692698  0.03623043  0.06794221  1
  O2-  O265  1  0.41360690  0.03740380  0.40353558  1
  O2-  O266  1  0.41845338  0.04240553  0.73526538  1
  O2-  O267  1  0.41854283  0.54069116  0.06498621  1
  O2-  O268  1  0.41655208  0.53887794  0.40726526  1
  O2-  O269  1  0.41581551  0.54401789  0.72607001  1
  O2-  O270  1  0.91221441  0.03824656  0.06147573  1
  O2-  O271  1  0.91814205  0.05250803  0.39254674  1
  O2-  O272  1  0.91596299  0.05213594  0.72724767  1
  O2-  O273  1  0.91913930  0.55048744  0.06528241  1
  O2-  O274  1  0.91460114  0.54514280  0.39225045  1
  O2-  O275  1  0.91818388  0.53886652  0.73457676  1
  O2-  O276  1  0.29232822  0.16907498  0.06638691  1
  O2-  O277  1  0.29389238  0.17126919  0.40050307  1
  O2-  O278  1  0.29582817  0.17302935  0.73496374  1
  O2-  O279  1  0.28659101  0.66534899  0.06685981  1
  O2-  O280  1  0.29301907  0.67062340  0.40237208  1
  O2-  O281  1  0.29253215  0.66185460  0.72731493  1
  O2-  O282  1  0.79744505  0.16271020  0.05915343  1
  O2-  O283  1  0.79277710  0.16541926  0.39541525  1
  O2-  O284  1  0.79189104  0.16709586  0.72790284  1
  O2-  O285  1  0.79910104  0.66852267  0.06536106  1
  O2-  O286  1  0.78941781  0.65977045  0.39473778  1
  O2-  O287  1  0.79294041  0.66312124  0.73844317  1
