# generated using pymatgen
data_Ca2Al2SiO7
_symmetry_space_group_name_H-M   'P 1'
_cell_length_a   15.46171330
_cell_length_b   15.46205637
_cell_length_c   15.28627870
_cell_angle_alpha   90.00829702
_cell_angle_beta   90.00830448
_cell_angle_gamma   90.02575410
_symmetry_Int_Tables_number   1
_chemical_formula_structural   Ca2Al2SiO7
_chemical_formula_sum   'Ca48 Al48 Si24 O168'
_cell_volume   3654.48840896
_cell_formula_units_Z   24
loop_
 _symmetry_equiv_pos_site_id
 _symmetry_equiv_pos_as_xyz
  1  'x, y, z'
loop_
 _atom_type_symbol
 _atom_type_oxidation_number
  Ca2+  2.0
  Al0+  0.0
  Si0+  0.0
  O2-  -2.0
loop_
 _atom_site_type_symbol
 _atom_site_label
 _atom_site_symmetry_multiplicity
 _atom_site_fract_x
 _atom_site_fract_y
 _atom_site_fract_z
 _atom_site_occupancy
  Ca2+  Ca0  1  0.15643996  0.07385313  0.16594582  1
  Ca2+  Ca1  1  0.16379017  0.07993440  0.50260494  1
  Ca2+  Ca2  1  0.16074332  0.08317665  0.84107099  1
  Ca2+  Ca3  1  0.17133833  0.57180479  0.17450661  1
  Ca2+  Ca4  1  0.17579515  0.57304853  0.50352864  1
  Ca2+  Ca5  1  0.17053457  0.57230354  0.83507440  1
  Ca2+  Ca6  1  0.66955256  0.08571410  0.16314439  1
  Ca2+  Ca7  1  0.67380526  0.07693208  0.51242973  1
  Ca2+  Ca8  1  0.67558168  0.07801442  0.84214641  1
  Ca2+  Ca9  1  0.66756397  0.58376771  0.16932874  1
  Ca2+  Ca10  1  0.67025919  0.58295864  0.50217522  1
  Ca2+  Ca11  1  0.66332120  0.57248866  0.83904292  1
  Ca2+  Ca12  1  0.07499160  0.33646378  0.15710206  1
  Ca2+  Ca13  1  0.07700990  0.33795205  0.49605951  1
  Ca2+  Ca14  1  0.07508346  0.32969196  0.82524174  1
  Ca2+  Ca15  1  0.08807114  0.83436093  0.16176114  1
  Ca2+  Ca16  1  0.08327930  0.83202268  0.49359872  1
  Ca2+  Ca17  1  0.08479985  0.83486616  0.83009527  1
  Ca2+  Ca18  1  0.58232384  0.33106860  0.15579363  1
  Ca2+  Ca19  1  0.58723189  0.33507588  0.49954259  1
  Ca2+  Ca20  1  0.59427105  0.32958529  0.83180486  1
  Ca2+  Ca21  1  0.58297181  0.82132809  0.15985966  1
  Ca2+  Ca22  1  0.57246423  0.83050726  0.49170864  1
  Ca2+  Ca23  1  0.58550123  0.83107113  0.82755177  1
  Ca2+  Ca24  1  0.32018651  0.41784320  0.17441377  1
  Ca2+  Ca25  1  0.32742809  0.42831395  0.50841379  1
  Ca2+  Ca26  1  0.32191537  0.41651284  0.83687664  1
  Ca2+  Ca27  1  0.32566462  0.91475397  0.17100753  1
  Ca2+  Ca28  1  0.33289807  0.90902992  0.50113184  1
  Ca2+  Ca29  1  0.32995189  0.91585155  0.83649318  1
  Ca2+  Ca30  1  0.83114953  0.41483397  0.16993622  1
  Ca2+  Ca31  1  0.83399455  0.41727837  0.50261617  1
  Ca2+  Ca32  1  0.82839023  0.40798115  0.83635428  1
  Ca2+  Ca33  1  0.82968084  0.92456267  0.16509979  1
  Ca2+  Ca34  1  0.82463766  0.92429404  0.51158531  1
  Ca2+  Ca35  1  0.82632364  0.92953230  0.83954621  1
  Ca2+  Ca36  1  0.42372574  0.16788913  0.16057817  1
  Ca2+  Ca37  1  0.41938779  0.16940014  0.49778489  1
  Ca2+  Ca38  1  0.42384846  0.16571578  0.83344843  1
  Ca2+  Ca39  1  0.42239015  0.66548980  0.16557228  1
  Ca2+  Ca40  1  0.41651057  0.67028811  0.49253200  1
  Ca2+  Ca41  1  0.41956587  0.67105314  0.82703846  1
  Ca2+  Ca42  1  0.92000187  0.17835864  0.15609782  1
  Ca2+  Ca43  1  0.91725253  0.17682330  0.50111010  1
  Ca2+  Ca44  1  0.92080355  0.17062262  0.82912113  1
  Ca2+  Ca45  1  0.91467185  0.66610616  0.16459185  1
  Ca2+  Ca46  1  0.91595042  0.66499277  0.49281025  1
  Ca2+  Ca47  1  0.91861931  0.66886018  0.83141846  1
  Al0+  Al48  1  -0.00141493  0.00058795  0.00521367  1
  Al0+  Al49  1  -0.00087355  0.00086660  0.33833313  1
  Al0+  Al50  1  0.00021204  0.00032082  0.66512884  1
  Al0+  Al51  1  0.00040371  0.50219545  -0.00219826  1
  Al0+  Al52  1  -0.00307042  0.50079920  0.33578450  1
  Al0+  Al53  1  0.00059275  0.50050721  0.66577686  1
  Al0+  Al54  1  0.49878151  -0.00056546  0.00026055  1
  Al0+  Al55  1  0.49858151  -0.00061344  0.32879526  1
  Al0+  Al56  1  0.49809075  -0.00202956  0.66506570  1
  Al0+  Al57  1  0.50036859  0.50231939  -0.00108205  1
  Al0+  Al58  1  0.49982365  0.49823826  0.33197917  1
  Al0+  Al59  1  0.50120865  0.50112297  0.67356605  1
  Al0+  Al60  1  0.25001489  0.24974481  0.00244468  1
  Al0+  Al61  1  0.24903785  0.24514363  0.33587742  1
  Al0+  Al62  1  0.25113209  0.24784541  0.66554000  1
  Al0+  Al63  1  0.25058455  0.75033869  0.00253116  1
  Al0+  Al64  1  0.24906553  0.75009539  0.33572025  1
  Al0+  Al65  1  0.25149806  0.74983682  0.66623542  1
  Al0+  Al66  1  0.74924914  0.25079701  0.00122297  1
  Al0+  Al67  1  0.75235984  0.24950603  0.33016909  1
  Al0+  Al68  1  0.75315109  0.24997271  0.66762276  1
  Al0+  Al69  1  0.74941039  0.75034281  -0.00311009  1
  Al0+  Al70  1  0.74932300  0.75024611  0.33372249  1
  Al0+  Al71  1  0.75004125  0.74887551  0.66860116  1
  Al0+  Al72  1  0.67614174  0.92812361  0.68052086  1
  Al0+  Al73  1  0.17944662  0.92961139  0.01197530  1
  Al0+  Al74  1  0.42652718  0.82095511  0.31482319  1
  Al0+  Al75  1  0.81844119  0.57201802  0.34556445  1
  Al0+  Al76  1  0.82217866  0.07056478  0.68219978  1
  Al0+  Al77  1  0.57194358  0.67771893  0.31787175  1
  Al0+  Al78  1  0.07108852  0.17820442  0.98633829  1
  Al0+  Al79  1  0.57195437  0.67925674  0.98309372  1
  Al0+  Al80  1  0.82023725  0.07202483  0.01726507  1
  Al0+  Al81  1  0.68083940  0.43047165  0.67908485  1
  Al0+  Al82  1  0.17677418  0.42607472  0.34833308  1
  Al0+  Al83  1  0.56993718  0.17934589  0.98608715  1
  Al0+  Al84  1  0.17909745  0.93006096  0.34823521  1
  Al0+  Al85  1  0.67951691  0.43011958  0.01395438  1
  Al0+  Al86  1  0.07358741  0.17704729  0.64936944  1
  Al0+  Al87  1  0.92928439  0.32371350  0.98354472  1
  Al0+  Al88  1  0.42963220  0.82035216  0.65218173  1
  Al0+  Al89  1  0.17849525  0.42869334  0.01357622  1
  Al0+  Al90  1  0.32259204  0.56921399  0.34774491  1
  Al0+  Al91  1  0.93091062  0.32166825  0.31756403  1
  Al0+  Al92  1  0.17860345  0.42698585  0.68244187  1
  Al0+  Al93  1  0.67682640  0.92730638  0.01650566  1
  Al0+  Al94  1  0.92916020  0.32181170  0.64882446  1
  Al0+  Al95  1  0.32123660  0.57282918  0.68373770  1
  Si0+  Si96  1  0.32275384  0.07291643  0.01708201  1
  Si0+  Si97  1  0.17996479  0.92982776  0.68012432  1
  Si0+  Si98  1  0.42768209  0.31985560  0.32040121  1
  Si0+  Si99  1  0.42739426  0.32313807  0.98364127  1
  Si0+  Si100  1  0.57092830  0.17940511  0.65301830  1
  Si0+  Si101  1  0.67851273  0.92977146  0.34738952  1
  Si0+  Si102  1  0.42684800  0.82055527  0.98259181  1
  Si0+  Si103  1  0.07300409  0.68048413  0.98523972  1
  Si0+  Si104  1  0.32260605  0.07176247  0.68154974  1
  Si0+  Si105  1  0.92945755  0.82134883  0.98565845  1
  Si0+  Si106  1  0.42970318  0.32186319  0.65321184  1
  Si0+  Si107  1  0.82260930  0.57347639  0.01516778  1
  Si0+  Si108  1  0.07120475  0.68035786  0.65104506  1
  Si0+  Si109  1  0.32510912  0.07046869  0.35173858  1
  Si0+  Si110  1  0.07186313  0.17603175  0.31587204  1
  Si0+  Si111  1  0.92844578  0.82332195  0.31893926  1
  Si0+  Si112  1  0.32117812  0.57235440  0.01737984  1
  Si0+  Si113  1  0.82403118  0.57370145  0.68408437  1
  Si0+  Si114  1  0.57166548  0.17934549  0.31968926  1
  Si0+  Si115  1  0.67843316  0.42549682  0.34825679  1
  Si0+  Si116  1  0.81962218  0.07177541  0.34985735  1
  Si0+  Si117  1  0.06897416  0.68037114  0.31891655  1
  Si0+  Si118  1  0.92888520  0.82032257  0.65194155  1
  Si0+  Si119  1  0.57264198  0.67633530  0.64957970  1
  O2-  O120  1  0.25134247  0.00614597  0.05971633  1
  O2-  O121  1  0.25594732  0.00195440  0.39550399  1
  O2-  O122  1  0.24781523  0.00362657  0.72204178  1
  O2-  O123  1  0.25490649  0.50127885  0.06091664  1
  O2-  O124  1  0.25281694  0.49460152  0.39721767  1
  O2-  O125  1  0.25155505  0.49825006  0.73253852  1
  O2-  O126  1  0.74647635  0.00107129  0.06767395  1
  O2-  O127  1  0.74804443  0.00106422  0.39153384  1
  O2-  O128  1  0.74801637  -0.00024000  0.73014543  1
  O2-  O129  1  0.75556101  0.50364029  0.05955312  1
  O2-  O130  1  0.74331380  0.49777317  0.39194279  1
  O2-  O131  1  0.75604795  0.50430118  0.72660866  1
  O2-  O132  1  0.00973866  0.25054501  0.27249839  1
  O2-  O133  1  0.00475123  0.25237827  0.59965414  1
  O2-  O134  1  0.00254818  0.25210061  0.93512194  1
  O2-  O135  1  -0.00051327  0.75289807  0.27568648  1
  O2-  O136  1  -0.00204022  0.74878082  0.60756556  1
  O2-  O137  1  0.00229591  0.75207440  0.94305082  1
  O2-  O138  1  0.50067091  0.25070343  0.27829090  1
  O2-  O139  1  0.50234594  0.25236264  0.60951468  1
  O2-  O140  1  0.49718189  0.25576285  0.93851369  1
  O2-  O141  1  0.49869981  0.74832383  0.26677858  1
  O2-  O142  1  0.50589710  0.74698523  0.60598491  1
  O2-  O143  1  0.49863639  0.75602399  0.93767456  1
  O2-  O144  1  0.06867557  0.17784839  0.10010544  1
  O2-  O145  1  0.06882936  0.17247334  0.42113875  1
  O2-  O146  1  0.07252416  0.17428471  0.76244057  1
  O2-  O147  1  0.07293559  0.68108070  0.09042485  1
  O2-  O148  1  0.06673027  0.68235195  0.42425127  1
  O2-  O149  1  0.07057034  0.68357583  0.75652583  1
  O2-  O150  1  0.56674504  0.18134867  0.09994738  1
  O2-  O151  1  0.57168531  0.17916801  0.42524532  1
  O2-  O152  1  0.56850612  0.17885194  0.75764951  1
  O2-  O153  1  0.57102350  0.67872622  0.09604158  1
  O2-  O154  1  0.57464642  0.68106733  0.43156287  1
  O2-  O155  1  0.57215906  0.67707209  0.75502793  1
  O2-  O156  1  0.17796207  0.42916873  0.23441775  1
  O2-  O157  1  0.18058155  0.42990830  0.56890035  1
  O2-  O158  1  0.17966943  0.43102755  0.90082455  1
  O2-  O159  1  0.17707732  0.93233074  0.23529905  1
  O2-  O160  1  0.18071338  0.92856250  0.57510402  1
  O2-  O161  1  0.18181164  0.92668178  0.89863056  1
  O2-  O162  1  0.67983759  0.42254361  0.24299280  1
  O2-  O163  1  0.67926170  0.43206401  0.56555812  1
  O2-  O164  1  0.68029638  0.43136103  0.90096480  1
  O2-  O165  1  0.68087936  0.93053079  0.24277372  1
  O2-  O166  1  0.67758595  0.93067937  0.56595017  1
  O2-  O167  1  0.68025465  0.92765620  0.90309490  1
  O2-  O168  1  0.42797324  0.32090236  0.08981523  1
  O2-  O169  1  0.42923567  0.31840013  0.42570143  1
  O2-  O170  1  0.42858044  0.31853615  0.75794264  1
  O2-  O171  1  0.42355425  0.81737073  0.08777735  1
  O2-  O172  1  0.43010468  0.82211178  0.42858702  1
  O2-  O173  1  0.42722977  0.82024857  0.76513189  1
  O2-  O174  1  0.93108238  0.32462731  0.09759756  1
  O2-  O175  1  0.92662673  0.31881817  0.43023759  1
  O2-  O176  1  0.92806894  0.32119578  0.76179091  1
  O2-  O177  1  0.92950798  0.81929158  0.09112229  1
  O2-  O178  1  0.92921734  0.82299036  0.42430819  1
  O2-  O179  1  0.93156097  0.81981451  0.75705250  1
  O2-  O180  1  0.32785037  0.07246095  0.24658859  1
  O2-  O181  1  0.32619611  0.07109685  0.57654083  1
  O2-  O182  1  0.32496008  0.07154536  0.91131990  1
  O2-  O183  1  0.32049529  0.56681779  0.23393425  1
  O2-  O184  1  0.31997951  0.57233827  0.57014476  1
  O2-  O185  1  0.31796703  0.57454518  0.91192029  1
  O2-  O186  1  0.81914130  0.07148512  0.24519146  1
  O2-  O187  1  0.81877825  0.06833641  0.56748332  1
  O2-  O188  1  0.82132677  0.06847089  0.90409960  1
  O2-  O189  1  0.81946503  0.57290403  0.23284608  1
  O2-  O190  1  0.82262672  0.57710169  0.57838201  1
  O2-  O191  1  0.82289892  0.57587843  0.90959474  1
  O2-  O192  1  0.03840036  0.08403810  0.27010331  1
  O2-  O193  1  0.04245149  0.07857349  0.59557038  1
  O2-  O194  1  0.04196810  0.07843826  0.93548658  1
  O2-  O195  1  0.03835018  0.58992885  0.27104057  1
  O2-  O196  1  0.04548591  0.58861820  0.60336403  1
  O2-  O197  1  0.04358822  0.59094835  0.93479757  1
  O2-  O198  1  0.54320822  0.08866438  0.27088378  1
  O2-  O199  1  0.53932888  0.08919358  0.60398798  1
  O2-  O200  1  0.53733152  0.08289369  0.93226121  1
  O2-  O201  1  0.54718113  0.57715199  0.26636736  1
  O2-  O202  1  0.54585206  0.58271342  0.60413237  1
  O2-  O203  1  0.53953392  0.58308279  0.92895776  1
  O2-  O204  1  0.16934884  0.19051550  0.27348194  1
  O2-  O205  1  0.17513584  0.19816374  0.59811091  1
  O2-  O206  1  0.17298375  0.19969720  0.93736278  1
  O2-  O207  1  0.16056771  0.70730473  0.27151373  1
  O2-  O208  1  0.16112772  0.71235153  0.60310333  1
  O2-  O209  1  0.16389671  0.70985604  0.93686903  1
  O2-  O210  1  0.66281310  0.20672198  0.27142480  1
  O2-  O211  1  0.66271362  0.20583546  0.60503270  1
  O2-  O212  1  0.66613831  0.20955444  0.93266656  1
  O2-  O213  1  0.67001566  0.70953742  0.26464372  1
  O2-  O214  1  0.66832060  0.69902297  0.60541339  1
  O2-  O215  1  0.66908989  0.70792541  0.92866669  1
  O2-  O216  1  0.08296138  0.46482457  0.06626825  1
  O2-  O217  1  0.08058092  0.46078764  0.40069234  1
  O2-  O218  1  0.08078315  0.45952598  0.73369379  1
  O2-  O219  1  0.08297360  0.95609014  0.06835565  1
  O2-  O220  1  0.08245001  0.96069759  0.40389571  1
  O2-  O221  1  0.08695065  0.95330239  0.72668007  1
  O2-  O222  1  0.58172041  0.46031263  0.06679659  1
  O2-  O223  1  0.58296696  0.44519131  0.39240658  1
  O2-  O224  1  0.58520318  0.45819358  0.73614702  1
  O2-  O225  1  0.57714043  0.95316573  0.06747369  1
  O2-  O226  1  0.58564252  0.95781950  0.39243429  1
  O2-  O227  1  0.57766946  0.95590022  0.73225786  1
  O2-  O228  1  0.20811773  0.33215086  0.06835524  1
  O2-  O229  1  0.19980189  0.32481973  0.39723418  1
  O2-  O230  1  0.20838085  0.32788599  0.73264304  1
  O2-  O231  1  0.21089934  0.83366611  0.06778577  1
  O2-  O232  1  0.20560753  0.83264362  0.40235000  1
  O2-  O233  1  0.20972673  0.83917932  0.72823504  1
  O2-  O234  1  0.70628063  0.33343572  0.06887154  1
  O2-  O235  1  0.70801609  0.33308743  0.39575663  1
  O2-  O236  1  0.70988823  0.33315086  0.73171986  1
  O2-  O237  1  0.71055910  0.82967930  0.06808376  1
  O2-  O238  1  0.70744565  0.83902141  0.39542121  1
  O2-  O239  1  0.70460479  0.82918192  0.73138954  1
  O2-  O240  1  0.45254486  0.41088850  0.27073105  1
  O2-  O241  1  0.45830776  0.41430012  0.60731588  1
  O2-  O242  1  0.45000798  0.41739976  0.93887509  1
  O2-  O243  1  0.45351377  0.92050414  0.26289975  1
  O2-  O244  1  0.45718113  0.91762854  0.59611844  1
  O2-  O245  1  0.44656975  0.91644199  0.93924419  1
  O2-  O246  1  0.95623303  0.42069708  0.26580371  1
  O2-  O247  1  0.95426519  0.42284992  0.59785544  1
  O2-  O248  1  0.95508724  0.42344558  0.93140072  1
  O2-  O249  1  0.95698917  0.91525847  0.27222959  1
  O2-  O250  1  0.95771052  0.91086131  0.60286245  1
  O2-  O251  1  0.95790130  0.91265987  0.93891780  1
  O2-  O252  1  0.33653558  0.28899225  0.27267870  1
  O2-  O253  1  0.34021962  0.29145877  0.60288081  1
  O2-  O254  1  0.33487927  0.29445964  0.93725276  1
  O2-  O255  1  0.32632031  0.79408050  0.26482147  1
  O2-  O256  1  0.33286154  0.78893812  0.59781146  1
  O2-  O257  1  0.33428528  0.79078759  0.93510411  1
  O2-  O258  1  0.83484019  0.28713864  0.26348254  1
  O2-  O259  1  0.83117642  0.28978606  0.59470445  1
  O2-  O260  1  0.83017469  0.29405174  0.93438591  1
  O2-  O261  1  0.83728263  0.79510184  0.27129345  1
  O2-  O262  1  0.83632794  0.79368170  0.60440044  1
  O2-  O263  1  0.83996390  0.79148949  0.93553685  1
  O2-  O264  1  0.41431739  0.04441579  0.06570432  1
  O2-  O265  1  0.41886082  0.04529266  0.39900257  1
  O2-  O266  1  0.41198701  0.03973408  0.73109615  1
  O2-  O267  1  0.41580581  0.54934645  0.06115896  1
  O2-  O268  1  0.42172141  0.54220062  0.40070279  1
  O2-  O269  1  0.41975777  0.54709398  0.73633861  1
  O2-  O270  1  0.91599432  0.03901971  0.07314015  1
  O2-  O271  1  0.91020714  0.04256460  0.39808107  1
  O2-  O272  1  0.91962232  0.03795306  0.73376750  1
  O2-  O273  1  0.91747855  0.55212902  0.06054145  1
  O2-  O274  1  0.91396514  0.54278390  0.40216423  1
  O2-  O275  1  0.91852006  0.55150140  0.72901920  1
  O2-  O276  1  0.30181546  0.16685347  0.06435678  1
  O2-  O277  1  0.29958700  0.16335982  0.39991680  1
  O2-  O278  1  0.30072666  0.16408392  0.72975310  1
  O2-  O279  1  0.29201425  0.66416580  0.06484848  1
  O2-  O280  1  0.29155053  0.66703084  0.39953481  1
  O2-  O281  1  0.28807434  0.66989683  0.73698098  1
  O2-  O282  1  0.79009161  0.16937974  0.07061527  1
  O2-  O283  1  0.78983223  0.16307996  0.39700093  1
  O2-  O284  1  0.79473162  0.16851429  0.73343005  1
  O2-  O285  1  0.79576074  0.66655325  0.06153174  1
  O2-  O286  1  0.79085160  0.66923389  0.40212485  1
  O2-  O287  1  0.79968175  0.66707498  0.73157020  1
