# generated using pymatgen
data_Ca2Al2SiO7
_symmetry_space_group_name_H-M   'P 1'
_cell_length_a   15.45667280
_cell_length_b   15.45719125
_cell_length_c   15.28283545
_cell_angle_alpha   90.00328801
_cell_angle_beta   89.99630603
_cell_angle_gamma   89.98989556
_symmetry_Int_Tables_number   1
_chemical_formula_structural   Ca2Al2SiO7
_chemical_formula_sum   'Ca48 Al48 Si24 O168'
_cell_volume   3651.32526803
_cell_formula_units_Z   24
loop_
 _symmetry_equiv_pos_site_id
 _symmetry_equiv_pos_as_xyz
  1  'x, y, z'
loop_
 _atom_type_symbol
 _atom_type_oxidation_number
  Ca2+  2.0
  Al0+  0.0
  Si0+  0.0
  O2-  -2.0
loop_
 _atom_site_type_symbol
 _atom_site_label
 _atom_site_symmetry_multiplicity
 _atom_site_fract_x
 _atom_site_fract_y
 _atom_site_fract_z
 _atom_site_occupancy
  Ca2+  Ca0  1  0.16850858  0.07728845  0.17276539  1
  Ca2+  Ca1  1  0.17252927  0.07604727  0.49825729  1
  Ca2+  Ca2  1  0.16100379  0.07636157  0.84143033  1
  Ca2+  Ca3  1  0.17445339  0.57377699  0.17809608  1
  Ca2+  Ca4  1  0.17177650  0.58077654  0.50826448  1
  Ca2+  Ca5  1  0.16746177  0.58434722  0.82894117  1
  Ca2+  Ca6  1  0.66874944  0.08299942  0.17278731  1
  Ca2+  Ca7  1  0.66908826  0.08487509  0.51005429  1
  Ca2+  Ca8  1  0.67130353  0.08666704  0.83105888  1
  Ca2+  Ca9  1  0.66070580  0.58203250  0.16775108  1
  Ca2+  Ca10  1  0.67235886  0.58797797  0.50456799  1
  Ca2+  Ca11  1  0.67313343  0.58284101  0.84134370  1
  Ca2+  Ca12  1  0.08414927  0.32731237  0.15790499  1
  Ca2+  Ca13  1  0.08074107  0.34525373  0.50047488  1
  Ca2+  Ca14  1  0.07557314  0.33329277  0.82635233  1
  Ca2+  Ca15  1  0.07776474  0.84427011  0.16320901  1
  Ca2+  Ca16  1  0.07513474  0.83212719  0.49710748  1
  Ca2+  Ca17  1  0.07760792  0.82992920  0.82766440  1
  Ca2+  Ca18  1  0.57678991  0.33068234  0.15931872  1
  Ca2+  Ca19  1  0.58679254  0.32004586  0.49660279  1
  Ca2+  Ca20  1  0.58150294  0.33376902  0.83295140  1
  Ca2+  Ca21  1  0.57568655  0.82050342  0.16689874  1
  Ca2+  Ca22  1  0.56965896  0.82784804  0.49201291  1
  Ca2+  Ca23  1  0.57694089  0.82770823  0.82853014  1
  Ca2+  Ca24  1  0.33049489  0.41786560  0.17594968  1
  Ca2+  Ca25  1  0.32273356  0.42854684  0.50578729  1
  Ca2+  Ca26  1  0.33301560  0.42018116  0.83556329  1
  Ca2+  Ca27  1  0.32153720  0.91962577  0.17778369  1
  Ca2+  Ca28  1  0.33773146  0.91459143  0.50240268  1
  Ca2+  Ca29  1  0.32757556  0.91538795  0.83796755  1
  Ca2+  Ca30  1  0.82719262  0.41194559  0.16667892  1
  Ca2+  Ca31  1  0.83326520  0.42401062  0.51211359  1
  Ca2+  Ca32  1  0.83317567  0.41849854  0.83602349  1
  Ca2+  Ca33  1  0.83642850  0.91376183  0.17117848  1
  Ca2+  Ca34  1  0.83459661  0.91876137  0.50719024  1
  Ca2+  Ca35  1  0.84378431  0.92116092  0.83597138  1
  Ca2+  Ca36  1  0.41599492  0.16877900  0.16557197  1
  Ca2+  Ca37  1  0.42757325  0.16111697  0.49281356  1
  Ca2+  Ca38  1  0.42031889  0.17585656  0.82757816  1
  Ca2+  Ca39  1  0.42248607  0.66068575  0.16581325  1
  Ca2+  Ca40  1  0.41199893  0.67167181  0.49470796  1
  Ca2+  Ca41  1  0.42028209  0.66797725  0.82674599  1
  Ca2+  Ca42  1  0.92707204  0.17310284  0.15709453  1
  Ca2+  Ca43  1  0.91408544  0.17239513  0.50107647  1
  Ca2+  Ca44  1  0.91874719  0.17553699  0.83003166  1
  Ca2+  Ca45  1  0.91998420  0.67986581  0.16229408  1
  Ca2+  Ca46  1  0.91976052  0.67141523  0.49905301  1
  Ca2+  Ca47  1  0.92009509  0.67565129  0.82227032  1
  Al0+  Al48  1  0.00047545  0.00109147  -0.00203824  1
  Al0+  Al49  1  -0.00022322  0.00316852  0.33459646  1
  Al0+  Al50  1  -0.00036196  0.00238778  0.66741751  1
  Al0+  Al51  1  0.00052070  0.50229184  -0.00006111  1
  Al0+  Al52  1  -0.00394943  0.50191531  0.33312961  1
  Al0+  Al53  1  -0.00115089  0.50032615  0.66820274  1
  Al0+  Al54  1  0.50181755  -0.00075228  0.00180224  1
  Al0+  Al55  1  0.50167831  -0.00243748  0.32597146  1
  Al0+  Al56  1  0.50057749  -0.00043302  0.66260504  1
  Al0+  Al57  1  0.50285371  0.49904759  -0.00444546  1
  Al0+  Al58  1  0.50077827  0.49690277  0.33720495  1
  Al0+  Al59  1  0.49864121  0.49850297  0.66864547  1
  Al0+  Al60  1  0.25251185  0.24959801  -0.00874654  1
  Al0+  Al61  1  0.24905548  0.24791922  0.34349042  1
  Al0+  Al62  1  0.24980752  0.24952901  0.66927040  1
  Al0+  Al63  1  0.24956840  0.75095238  0.00743290  1
  Al0+  Al64  1  0.24658191  0.74937975  0.33596864  1
  Al0+  Al65  1  0.24996097  0.74960669  0.66455408  1
  Al0+  Al66  1  0.75037833  0.25062088  0.00270056  1
  Al0+  Al67  1  0.74990298  0.24982495  0.32876712  1
  Al0+  Al68  1  0.75152320  0.24830229  0.66432521  1
  Al0+  Al69  1  0.75034037  0.75115975  -0.00649760  1
  Al0+  Al70  1  0.74982608  0.75038513  0.32585049  1
  Al0+  Al71  1  0.74804704  0.75113296  0.66869414  1
  Al0+  Al72  1  0.32290878  0.57041359  0.34813907  1
  Al0+  Al73  1  0.92746191  0.82356726  0.65135538  1
  Al0+  Al74  1  0.17937663  0.93074016  0.01348287  1
  Al0+  Al75  1  0.32364838  0.06853923  0.34881255  1
  Al0+  Al76  1  0.56933704  0.67938201  0.98459825  1
  Al0+  Al77  1  0.81904663  0.57303672  0.68036381  1
  Al0+  Al78  1  0.17588232  0.92862024  0.35057255  1
  Al0+  Al79  1  0.93100418  0.31958666  0.65251686  1
  Al0+  Al80  1  0.68064527  0.43017495  0.01446847  1
  Al0+  Al81  1  0.17571549  0.42764246  0.34747081  1
  Al0+  Al82  1  0.06995109  0.67915788  0.65132933  1
  Al0+  Al83  1  0.56892630  0.18195046  0.65447350  1
  Al0+  Al84  1  0.57053791  0.67640691  0.31912682  1
  Al0+  Al85  1  0.43024588  0.32072309  0.98674547  1
  Al0+  Al86  1  0.93124800  0.82229287  0.31954882  1
  Al0+  Al87  1  0.17819804  0.42856265  0.68519690  1
  Al0+  Al88  1  0.82117156  0.07048496  0.68116104  1
  Al0+  Al89  1  0.32126844  0.57283588  0.68451614  1
  Al0+  Al90  1  0.42947814  0.81934116  0.65476179  1
  Al0+  Al91  1  0.07192909  0.17982910  0.98497983  1
  Al0+  Al92  1  0.93072770  0.82055937  0.98524657  1
  Al0+  Al93  1  0.42429221  0.81990571  0.31620582  1
  Al0+  Al94  1  0.57250394  0.17761254  0.31757722  1
  Al0+  Al95  1  0.92812014  0.32318575  0.98534894  1
  Si0+  Si96  1  0.42662252  0.82199727  0.98506538  1
  Si0+  Si97  1  0.07502921  0.67752811  0.98510602  1
  Si0+  Si98  1  0.92812229  0.32340848  0.31807923  1
  Si0+  Si99  1  0.81804468  0.57216386  0.34666611  1
  Si0+  Si100  1  0.67909531  0.42625846  0.68211350  1
  Si0+  Si101  1  0.42520633  0.32345351  0.64741354  1
  Si0+  Si102  1  0.68128823  0.92786947  0.34618884  1
  Si0+  Si103  1  0.32460537  0.07363859  0.01455575  1
  Si0+  Si104  1  0.32199670  0.56958669  0.01475877  1
  Si0+  Si105  1  0.67620756  0.92927891  0.68359347  1
  Si0+  Si106  1  0.67805184  0.92682191  0.01643920  1
  Si0+  Si107  1  0.57192290  0.67538806  0.65149067  1
  Si0+  Si108  1  0.17967985  0.93077365  0.68160301  1
  Si0+  Si109  1  0.81976697  0.07251753  0.34769545  1
  Si0+  Si110  1  0.07050021  0.18109309  0.32054225  1
  Si0+  Si111  1  0.81965887  0.06992456  0.01629112  1
  Si0+  Si112  1  0.67996883  0.42629004  0.34889546  1
  Si0+  Si113  1  0.07458465  0.17693004  0.64749730  1
  Si0+  Si114  1  0.82294932  0.57493059  0.01815365  1
  Si0+  Si115  1  0.17919592  0.42777814  0.01316597  1
  Si0+  Si116  1  0.07032930  0.67614188  0.31569044  1
  Si0+  Si117  1  0.32446776  0.07010821  0.68235211  1
  Si0+  Si118  1  0.57334637  0.17579171  0.98352083  1
  Si0+  Si119  1  0.42810489  0.31850581  0.32042943  1
  O2-  O120  1  0.25591023  0.00504761  0.05804772  1
  O2-  O121  1  0.25592394  -0.00738582  0.40010639  1
  O2-  O122  1  0.25018198  0.00266529  0.72454198  1
  O2-  O123  1  0.24977974  0.49884643  0.05604975  1
  O2-  O124  1  0.24639618  0.50157157  0.39581188  1
  O2-  O125  1  0.25187600  0.49876019  0.73581574  1
  O2-  O126  1  0.74890722  -0.00137678  0.05886170  1
  O2-  O127  1  0.74872208  0.00176037  0.38971586  1
  O2-  O128  1  0.74991251  -0.00748864  0.72868471  1
  O2-  O129  1  0.75665372  0.50355821  0.06290929  1
  O2-  O130  1  0.74814163  0.50020448  0.38980388  1
  O2-  O131  1  0.74183698  0.50019060  0.72632731  1
  O2-  O132  1  0.00425193  0.25700400  0.27819747  1
  O2-  O133  1  0.00894397  0.24900117  0.60373846  1
  O2-  O134  1  0.00302551  0.25470998  0.93534700  1
  O2-  O135  1  0.00847659  0.75112159  0.27109253  1
  O2-  O136  1  -0.00302271  0.75027643  0.60079156  1
  O2-  O137  1  0.00439120  0.74426891  0.94133381  1
  O2-  O138  1  0.49480403  0.24960106  0.27260636  1
  O2-  O139  1  0.49454682  0.25488266  0.60443337  1
  O2-  O140  1  0.50312965  0.24307519  0.94095980  1
  O2-  O141  1  0.49290427  0.74262492  0.26869245  1
  O2-  O142  1  0.50108867  0.74149416  0.60824988  1
  O2-  O143  1  0.49436274  0.75406216  0.93893055  1
  O2-  O144  1  0.07109763  0.18098757  0.09945967  1
  O2-  O145  1  0.06656128  0.17785926  0.42520232  1
  O2-  O146  1  0.07248179  0.17488625  0.75305105  1
  O2-  O147  1  0.07461441  0.67617034  0.09073566  1
  O2-  O148  1  0.06386007  0.67172083  0.42053285  1
  O2-  O149  1  0.07019064  0.68316152  0.76553906  1
  O2-  O150  1  0.57356161  0.17608169  0.08916056  1
  O2-  O151  1  0.57743812  0.18052576  0.43049859  1
  O2-  O152  1  0.56737193  0.18275099  0.76779154  1
  O2-  O153  1  0.56715950  0.67875061  0.09755922  1
  O2-  O154  1  0.57662877  0.68137118  0.43228792  1
  O2-  O155  1  0.57221931  0.67756967  0.75721693  1
  O2-  O156  1  0.17717541  0.42623626  0.23273174  1
  O2-  O157  1  0.17987050  0.43059412  0.57170976  1
  O2-  O158  1  0.17913112  0.42879847  0.90877111  1
  O2-  O159  1  0.17233967  0.93716096  0.23689262  1
  O2-  O160  1  0.17924452  0.93286892  0.57687115  1
  O2-  O161  1  0.18114155  0.92997404  0.89994634  1
  O2-  O162  1  0.68164115  0.42374752  0.24378403  1
  O2-  O163  1  0.68210481  0.42495771  0.57602611  1
  O2-  O164  1  0.68069028  0.43122080  0.90150841  1
  O2-  O165  1  0.68490360  0.92854997  0.24074887  1
  O2-  O166  1  0.67428427  0.93225652  0.57786931  1
  O2-  O167  1  0.67494682  0.92853986  0.91158285  1
  O2-  O168  1  0.42968980  0.32031909  0.10022464  1
  O2-  O169  1  0.43270964  0.31720523  0.42558349  1
  O2-  O170  1  0.42667552  0.32208731  0.75340457  1
  O2-  O171  1  0.42750930  0.82113946  0.09005643  1
  O2-  O172  1  0.43102091  0.82156592  0.42976624  1
  O2-  O173  1  0.43169504  0.82144873  0.76843106  1
  O2-  O174  1  0.92902576  0.31940658  0.09978737  1
  O2-  O175  1  0.92404366  0.32207129  0.42295830  1
  O2-  O176  1  0.92882243  0.31702540  0.76519482  1
  O2-  O177  1  0.93107911  0.82149644  0.09869529  1
  O2-  O178  1  0.92801509  0.82086233  0.43196504  1
  O2-  O179  1  0.93227255  0.82391355  0.76496604  1
  O2-  O180  1  0.31876245  0.07313886  0.23487738  1
  O2-  O181  1  0.32670732  0.06783230  0.57756408  1
  O2-  O182  1  0.32714052  0.07120584  0.90880349  1
  O2-  O183  1  0.32359368  0.56398538  0.23346590  1
  O2-  O184  1  0.32123745  0.57212890  0.57140787  1
  O2-  O185  1  0.32119433  0.57115128  0.91006805  1
  O2-  O186  1  0.81957143  0.07344085  0.24223839  1
  O2-  O187  1  0.81785334  0.07203531  0.56761654  1
  O2-  O188  1  0.81818908  0.07028214  0.91134992  1
  O2-  O189  1  0.81912885  0.57067402  0.24159603  1
  O2-  O190  1  0.81669208  0.57191095  0.56639618  1
  O2-  O191  1  0.82076944  0.57565403  0.91276529  1
  O2-  O192  1  0.03674555  0.09270522  0.26991374  1
  O2-  O193  1  0.04417266  0.08548292  0.60052577  1
  O2-  O194  1  0.03791769  0.08412147  0.93088113  1
  O2-  O195  1  0.03732716  0.58552072  0.26563827  1
  O2-  O196  1  0.04130956  0.58093229  0.59960129  1
  O2-  O197  1  0.05252670  0.58355910  0.93875715  1
  O2-  O198  1  0.54755670  0.08076906  0.26224705  1
  O2-  O199  1  0.53938007  0.08554409  0.59959709  1
  O2-  O200  1  0.55093697  0.08094022  0.93809388  1
  O2-  O201  1  0.54793240  0.57452291  0.26911354  1
  O2-  O202  1  0.55159900  0.57973316  0.60720056  1
  O2-  O203  1  0.54051220  0.58369697  0.92940045  1
  O2-  O204  1  0.16433877  0.20453635  0.27504921  1
  O2-  O205  1  0.17042590  0.19762368  0.60402421  1
  O2-  O206  1  0.17119804  0.20016733  0.93135529  1
  O2-  O207  1  0.16657489  0.69294694  0.27281405  1
  O2-  O208  1  0.16763370  0.70829718  0.59867952  1
  O2-  O209  1  0.16823719  0.70603238  0.93988140  1
  O2-  O210  1  0.66744176  0.21238966  0.26144172  1
  O2-  O211  1  0.66491503  0.21234444  0.59906343  1
  O2-  O212  1  0.66633326  0.20408439  0.93866609  1
  O2-  O213  1  0.66555269  0.71070761  0.26151457  1
  O2-  O214  1  0.66456353  0.70346469  0.60526386  1
  O2-  O215  1  0.66510002  0.71135636  0.93042597  1
  O2-  O216  1  0.08685989  0.45391063  0.06162077  1
  O2-  O217  1  0.07534062  0.45577928  0.39714878  1
  O2-  O218  1  0.07979832  0.45773374  0.73704110  1
  O2-  O219  1  0.08331217  0.96495725  0.06728518  1
  O2-  O220  1  0.08081422  0.96737962  0.40488968  1
  O2-  O221  1  0.08828378  0.95984088  0.72952758  1
  O2-  O222  1  0.58386737  0.46214638  0.06848880  1
  O2-  O223  1  0.58774469  0.44776427  0.39732296  1
  O2-  O224  1  0.58268499  0.44445864  0.72529097  1
  O2-  O225  1  0.58646337  0.95392221  0.06592041  1
  O2-  O226  1  0.58792631  0.95216252  0.39094453  1
  O2-  O227  1  0.58545190  0.96193560  0.73235581  1
  O2-  O228  1  0.20853769  0.33490410  0.05816152  1
  O2-  O229  1  0.20106803  0.33045834  0.40330445  1
  O2-  O230  1  0.20420292  0.32777429  0.73614525  1
  O2-  O231  1  0.20713304  0.83453982  0.07083584  1
  O2-  O232  1  0.19096381  0.82616495  0.39829918  1
  O2-  O233  1  0.20829269  0.83940685  0.72846663  1
  O2-  O234  1  0.70933628  0.33280831  0.07031620  1
  O2-  O235  1  0.71318790  0.33582272  0.39641769  1
  O2-  O236  1  0.71063527  0.33526461  0.72921469  1
  O2-  O237  1  0.70814337  0.83543515  0.06285149  1
  O2-  O238  1  0.71233645  0.83729840  0.39362446  1
  O2-  O239  1  0.69477830  0.83400906  0.72870632  1
  O2-  O240  1  0.45551647  0.41126114  0.27373257  1
  O2-  O241  1  0.45048103  0.41747719  0.60264295  1
  O2-  O242  1  0.46493071  0.41406752  0.92969597  1
  O2-  O243  1  0.45851231  0.91549474  0.26068923  1
  O2-  O244  1  0.46370435  0.91392192  0.59894965  1
  O2-  O245  1  0.45316578  0.91628291  0.93983826  1
  O2-  O246  1  0.94849175  0.41678737  0.27058605  1
  O2-  O247  1  0.95761104  0.41717645  0.59896127  1
  O2-  O248  1  0.95148866  0.42401593  0.93603708  1
  O2-  O249  1  0.95856936  0.92124471  0.26699359  1
  O2-  O250  1  0.95665053  0.92250367  0.59994815  1
  O2-  O251  1  0.96208059  0.91687848  0.93239865  1
  O2-  O252  1  0.33273821  0.29393640  0.27684287  1
  O2-  O253  1  0.33143608  0.29692429  0.60347894  1
  O2-  O254  1  0.33584598  0.29257793  0.92750093  1
  O2-  O255  1  0.32248286  0.79916160  0.26712792  1
  O2-  O256  1  0.33299778  0.79313976  0.60009317  1
  O2-  O257  1  0.33219013  0.79657927  0.94086902  1
  O2-  O258  1  0.83942469  0.28922593  0.26810032  1
  O2-  O259  1  0.83628771  0.28491396  0.59661750  1
  O2-  O260  1  0.83025631  0.29090131  0.93418959  1
  O2-  O261  1  0.83660314  0.78861931  0.26288530  1
  O2-  O262  1  0.82616705  0.79892678  0.60258604  1
  O2-  O263  1  0.83382014  0.79396650  0.93067226  1
  O2-  O264  1  0.41882026  0.04992423  0.06148267  1
  O2-  O265  1  0.42540267  0.04327114  0.39711921  1
  O2-  O266  1  0.41463866  0.03913990  0.73122626  1
  O2-  O267  1  0.41358885  0.53885869  0.05996599  1
  O2-  O268  1  0.42034116  0.54036395  0.40292430  1
  O2-  O269  1  0.42126374  0.54467358  0.73668212  1
  O2-  O270  1  0.91156303  0.04173123  0.06328156  1
  O2-  O271  1  0.91104104  0.04641289  0.39562742  1
  O2-  O272  1  0.91855344  0.04382265  0.73621036  1
  O2-  O273  1  0.91823432  0.55335505  0.06359855  1
  O2-  O274  1  0.90914742  0.54492393  0.39525362  1
  O2-  O275  1  0.91416624  0.54087240  0.73477455  1
  O2-  O276  1  0.29976110  0.16831930  0.05891615  1
  O2-  O277  1  0.29311312  0.16442998  0.40594291  1
  O2-  O278  1  0.30070699  0.16362470  0.72827423  1
  O2-  O279  1  0.29583831  0.66115464  0.06395279  1
  O2-  O280  1  0.29783066  0.67017429  0.39825773  1
  O2-  O281  1  0.29143726  0.67141194  0.73751350  1
  O2-  O282  1  0.79199220  0.16115699  0.06550218  1
  O2-  O283  1  0.79093519  0.16461873  0.39448733  1
  O2-  O284  1  0.78514502  0.16524251  0.73592938  1
  O2-  O285  1  0.79297291  0.66813012  0.06315003  1
  O2-  O286  1  0.78848912  0.66374281  0.39320402  1
  O2-  O287  1  0.79008996  0.66982629  0.73609303  1
