# generated using pymatgen
data_Ca2Al2SiO7
_symmetry_space_group_name_H-M   'P 1'
_cell_length_a   15.45389715
_cell_length_b   15.45352784
_cell_length_c   15.28009062
_cell_angle_alpha   90.00906058
_cell_angle_beta   89.99506598
_cell_angle_gamma   90.00592077
_symmetry_Int_Tables_number   1
_chemical_formula_structural   Ca2Al2SiO7
_chemical_formula_sum   'Ca48 Al48 Si24 O168'
_cell_volume   3649.14883504
_cell_formula_units_Z   24
loop_
 _symmetry_equiv_pos_site_id
 _symmetry_equiv_pos_as_xyz
  1  'x, y, z'
loop_
 _atom_type_symbol
 _atom_type_oxidation_number
  Ca2+  2.0
  Al0+  0.0
  Si0+  0.0
  O2-  -2.0
loop_
 _atom_site_type_symbol
 _atom_site_label
 _atom_site_symmetry_multiplicity
 _atom_site_fract_x
 _atom_site_fract_y
 _atom_site_fract_z
 _atom_site_occupancy
  Ca2+  Ca0  1  0.17460669  0.07596365  0.17781580  1
  Ca2+  Ca1  1  0.16438549  0.07591324  0.50285564  1
  Ca2+  Ca2  1  0.16029126  0.08128789  0.82959887  1
  Ca2+  Ca3  1  0.17146094  0.57138191  0.17363590  1
  Ca2+  Ca4  1  0.17683961  0.58211248  0.50452452  1
  Ca2+  Ca5  1  0.16658868  0.58139291  0.83468640  1
  Ca2+  Ca6  1  0.65927351  0.07327729  0.16806923  1
  Ca2+  Ca7  1  0.67159359  0.07712301  0.50376201  1
  Ca2+  Ca8  1  0.67239988  0.08148967  0.83958914  1
  Ca2+  Ca9  1  0.67736996  0.58392505  0.17616086  1
  Ca2+  Ca10  1  0.66828432  0.58158699  0.49636130  1
  Ca2+  Ca11  1  0.67649713  0.57920173  0.83973999  1
  Ca2+  Ca12  1  0.08352608  0.33838550  0.16082179  1
  Ca2+  Ca13  1  0.08248533  0.33189057  0.49729683  1
  Ca2+  Ca14  1  0.07494582  0.33240228  0.82742750  1
  Ca2+  Ca15  1  0.07777380  0.83188575  0.16133349  1
  Ca2+  Ca16  1  0.08404535  0.83481902  0.50063868  1
  Ca2+  Ca17  1  0.07296086  0.83031249  0.82054561  1
  Ca2+  Ca18  1  0.57997669  0.33159710  0.16635882  1
  Ca2+  Ca19  1  0.57266435  0.33815628  0.49136599  1
  Ca2+  Ca20  1  0.58155823  0.32606099  0.82719596  1
  Ca2+  Ca21  1  0.58246202  0.83183206  0.16073363  1
  Ca2+  Ca22  1  0.58499569  0.82624868  0.48971084  1
  Ca2+  Ca23  1  0.57871921  0.83680172  0.83577098  1
  Ca2+  Ca24  1  0.32401095  0.41654568  0.17761244  1
  Ca2+  Ca25  1  0.33836947  0.42359952  0.50345291  1
  Ca2+  Ca26  1  0.32884453  0.41899363  0.83444346  1
  Ca2+  Ca27  1  0.33228325  0.92134443  0.17470600  1
  Ca2+  Ca28  1  0.32257558  0.92075392  0.50316355  1
  Ca2+  Ca29  1  0.32522667  0.91193674  0.83742431  1
  Ca2+  Ca30  1  0.83222997  0.42741596  0.17278373  1
  Ca2+  Ca31  1  0.82939290  0.41653359  0.50122724  1
  Ca2+  Ca32  1  0.84380779  0.42068899  0.84079955  1
  Ca2+  Ca33  1  0.82100349  0.91013551  0.16935072  1
  Ca2+  Ca34  1  0.83062169  0.91916324  0.50663807  1
  Ca2+  Ca35  1  0.83583029  0.91985617  0.83783817  1
  Ca2+  Ca36  1  0.41882070  0.16886840  0.16464747  1
  Ca2+  Ca37  1  0.40802205  0.17850552  0.49376922  1
  Ca2+  Ca38  1  0.42437444  0.17149212  0.82964365  1
  Ca2+  Ca39  1  0.42130898  0.66786943  0.16773717  1
  Ca2+  Ca40  1  0.42007547  0.66045998  0.49086828  1
  Ca2+  Ca41  1  0.41330100  0.67069833  0.82883142  1
  Ca2+  Ca42  1  0.91883457  0.17678596  0.16001090  1
  Ca2+  Ca43  1  0.91970906  0.16466372  0.50380249  1
  Ca2+  Ca44  1  0.91863573  0.17690778  0.82153095  1
  Ca2+  Ca45  1  0.91295592  0.66711780  0.16043051  1
  Ca2+  Ca46  1  0.92134413  0.66854672  0.49759136  1
  Ca2+  Ca47  1  0.91988554  0.67485299  0.82840154  1
  Al0+  Al48  1  -0.00016548  0.00058317  -0.00083078  1
  Al0+  Al49  1  -0.00076082  0.00041332  0.33204782  1
  Al0+  Al50  1  -0.00245863  0.00116825  0.66808361  1
  Al0+  Al51  1  0.00198405  0.50023030  0.00447800  1
  Al0+  Al52  1  0.00041045  0.50164459  0.34008494  1
  Al0+  Al53  1  0.00012121  0.50101894  0.65869013  1
  Al0+  Al54  1  0.50024570  0.00005649  -0.00637714  1
  Al0+  Al55  1  0.50001210  0.00104054  0.34381228  1
  Al0+  Al56  1  0.49927127  -0.00062660  0.66644835  1
  Al0+  Al57  1  0.50037815  0.50063309  -0.00083418  1
  Al0+  Al58  1  0.50148799  0.49977400  0.32633733  1
  Al0+  Al59  1  0.50009508  0.50036544  0.67104932  1
  Al0+  Al60  1  0.25046299  0.24908283  0.00259781  1
  Al0+  Al61  1  0.24864070  0.24900859  0.33369242  1
  Al0+  Al62  1  0.25034393  0.24997171  0.66142115  1
  Al0+  Al63  1  0.25130618  0.74926633  -0.00134555  1
  Al0+  Al64  1  0.24826557  0.74924502  0.33660866  1
  Al0+  Al65  1  0.25033857  0.75046073  0.67188158  1
  Al0+  Al66  1  0.75012459  0.25029436  -0.00722250  1
  Al0+  Al67  1  0.75019225  0.25021128  0.33410965  1
  Al0+  Al68  1  0.74877695  0.24807295  0.66601520  1
  Al0+  Al69  1  0.75014235  0.75024474  0.00188227  1
  Al0+  Al70  1  0.74987014  0.75045250  0.33773614  1
  Al0+  Al71  1  0.74837659  0.74842732  0.66505259  1
  Al0+  Al72  1  0.17645627  0.92790165  0.34718322  1
  Al0+  Al73  1  0.32202971  0.57014159  0.68255415  1
  Al0+  Al74  1  0.07336436  0.67978915  0.65036995  1
  Al0+  Al75  1  0.82003382  0.56973000  0.01184620  1
  Al0+  Al76  1  0.32187650  0.07116559  0.34857236  1
  Al0+  Al77  1  0.92815826  0.82093589  0.98752939  1
  Al0+  Al78  1  0.57180417  0.67995308  0.31855368  1
  Al0+  Al79  1  0.43171225  0.32083315  0.65393503  1
  Al0+  Al80  1  0.42926812  0.82022172  0.98709301  1
  Al0+  Al81  1  0.56982198  0.17952933  0.98647480  1
  Al0+  Al82  1  0.93158180  0.32168574  0.98901762  1
  Al0+  Al83  1  0.82155853  0.57268832  0.35122842  1
  Al0+  Al84  1  0.17795239  0.42753314  0.35078938  1
  Al0+  Al85  1  0.32176528  0.56949296  0.34610250  1
  Al0+  Al86  1  0.07068752  0.17907112  0.65048731  1
  Al0+  Al87  1  0.42838848  0.32035276  0.31784675  1
  Al0+  Al88  1  0.18184086  0.42949371  0.01173597  1
  Al0+  Al89  1  0.81876853  0.06989759  0.68156612  1
  Al0+  Al90  1  0.67964082  0.93166197  0.01255775  1
  Al0+  Al91  1  0.92668863  0.32266868  0.64885050  1
  Al0+  Al92  1  0.67955886  0.42780006  0.34666633  1
  Al0+  Al93  1  0.67911200  0.92958797  0.34688302  1
  Al0+  Al94  1  0.92718559  0.82092828  0.65051038  1
  Al0+  Al95  1  0.17991158  0.93090097  0.68249052  1
  Si0+  Si96  1  0.42749861  0.82319536  0.31978541  1
  Si0+  Si97  1  0.82320451  0.07431466  0.01683923  1
  Si0+  Si98  1  0.67644631  0.92515157  0.68511065  1
  Si0+  Si99  1  0.67609157  0.42529947  0.01514456  1
  Si0+  Si100  1  0.07150102  0.67823293  0.31700951  1
  Si0+  Si101  1  0.42842144  0.82167632  0.65117744  1
  Si0+  Si102  1  0.67900008  0.42970476  0.68200013  1
  Si0+  Si103  1  0.17773408  0.92791067  0.01409769  1
  Si0+  Si104  1  0.06953559  0.17835954  0.31640342  1
  Si0+  Si105  1  0.07410796  0.17704021  0.98452971  1
  Si0+  Si106  1  0.32434889  0.57408599  0.01796241  1
  Si0+  Si107  1  0.57352305  0.17645221  0.31792920  1
  Si0+  Si108  1  0.57167571  0.17596725  0.64777959  1
  Si0+  Si109  1  0.92881248  0.32250010  0.31768136  1
  Si0+  Si110  1  0.82180152  0.57067215  0.68207664  1
  Si0+  Si111  1  0.17717921  0.42729019  0.68286313  1
  Si0+  Si112  1  0.42602594  0.32274120  0.98355195  1
  Si0+  Si113  1  0.82262926  0.07321730  0.34813798  1
  Si0+  Si114  1  0.56952974  0.67913017  0.65261858  1
  Si0+  Si115  1  0.57284965  0.67758464  0.98259247  1
  Si0+  Si116  1  0.32109961  0.06926835  0.01291726  1
  Si0+  Si117  1  0.32294472  0.07397826  0.68570406  1
  Si0+  Si118  1  0.92936765  0.82143217  0.31755785  1
  Si0+  Si119  1  0.07230080  0.67869123  0.98498347  1
  O2-  O120  1  0.24855233  -0.00054258  0.05525971  1
  O2-  O121  1  0.24998525  -0.00168915  0.39672412  1
  O2-  O122  1  0.25491198  0.00523910  0.73116309  1
  O2-  O123  1  0.25940203  0.50094190  0.05932853  1
  O2-  O124  1  0.25282304  0.49685459  0.39953472  1
  O2-  O125  1  0.24494107  0.49689635  0.72793269  1
  O2-  O126  1  0.75568659  0.00459915  0.06134630  1
  O2-  O127  1  0.75309798  0.00516552  0.39173716  1
  O2-  O128  1  0.74497997  -0.00598895  0.72859705  1
  O2-  O129  1  0.74446258  0.49502734  0.05745921  1
  O2-  O130  1  0.75099522  0.49842768  0.39975422  1
  O2-  O131  1  0.75548324  0.49492893  0.72461271  1
  O2-  O132  1  0.00114157  0.25254405  0.27486688  1
  O2-  O133  1  0.00067412  0.25259527  0.59917581  1
  O2-  O134  1  0.00385171  0.24484039  0.94214692  1
  O2-  O135  1  0.00008911  0.74978400  0.27513087  1
  O2-  O136  1  0.00048494  0.75093482  0.59959071  1
  O2-  O137  1  0.00622249  0.74995832  0.94108291  1
  O2-  O138  1  0.50383541  0.24429201  0.27350520  1
  O2-  O139  1  0.50221526  0.24358116  0.60441235  1
  O2-  O140  1  0.49905649  0.25845899  0.93979582  1
  O2-  O141  1  0.49675386  0.75597184  0.27379074  1
  O2-  O142  1  0.50064377  0.75197141  0.60999351  1
  O2-  O143  1  0.50073169  0.74276068  0.93829691  1
  O2-  O144  1  0.07440430  0.17600238  0.09039423  1
  O2-  O145  1  0.06660397  0.17481977  0.42084009  1
  O2-  O146  1  0.06908065  0.18182068  0.76486778  1
  O2-  O147  1  0.07273478  0.68013786  0.09086430  1
  O2-  O148  1  0.07202080  0.67899558  0.42156566  1
  O2-  O149  1  0.07023744  0.67979451  0.76483524  1
  O2-  O150  1  0.56588932  0.17713940  0.09949603  1
  O2-  O151  1  0.57545568  0.17729844  0.42321682  1
  O2-  O152  1  0.57114045  0.17692682  0.75387797  1
  O2-  O153  1  0.57325368  0.67905511  0.08788557  1
  O2-  O154  1  0.57105491  0.68166712  0.43219170  1
  O2-  O155  1  0.57012322  0.67924650  0.75801564  1
  O2-  O156  1  0.17767996  0.42990879  0.23643755  1
  O2-  O157  1  0.17956229  0.42751935  0.57779367  1
  O2-  O158  1  0.18179094  0.43025165  0.89859360  1
  O2-  O159  1  0.17563087  0.93006667  0.23255210  1
  O2-  O160  1  0.18287807  0.93128841  0.56979486  1
  O2-  O161  1  0.17775956  0.92816582  0.90924327  1
  O2-  O162  1  0.68350900  0.42628058  0.23276930  1
  O2-  O163  1  0.67596320  0.43342092  0.57736505  1
  O2-  O164  1  0.67483203  0.42700701  0.90905257  1
  O2-  O165  1  0.67855806  0.92978727  0.23341118  1
  O2-  O166  1  0.67578730  0.92525702  0.57952065  1
  O2-  O167  1  0.67965848  0.93339201  0.89966882  1
  O2-  O168  1  0.42424236  0.31993841  0.08882058  1
  O2-  O169  1  0.43075784  0.32076975  0.43098185  1
  O2-  O170  1  0.43509440  0.31986535  0.76768744  1
  O2-  O171  1  0.42940622  0.82172769  0.10008480  1
  O2-  O172  1  0.42885189  0.82176467  0.42546720  1
  O2-  O173  1  0.43003371  0.82171358  0.75673192  1
  O2-  O174  1  0.93274161  0.32132655  0.10243364  1
  O2-  O175  1  0.92724285  0.31966919  0.42226226  1
  O2-  O176  1  0.92872028  0.32331083  0.76306085  1
  O2-  O177  1  0.92915416  0.81969622  0.10109667  1
  O2-  O178  1  0.93002588  0.82310907  0.42223453  1
  O2-  O179  1  0.92648157  0.81795926  0.76460005  1
  O2-  O180  1  0.32157385  0.06869161  0.23373465  1
  O2-  O181  1  0.32442608  0.07164959  0.58061992  1
  O2-  O182  1  0.32010080  0.07005553  0.90791809  1
  O2-  O183  1  0.31832617  0.57043029  0.23213579  1
  O2-  O184  1  0.32654108  0.56856686  0.57011403  1
  O2-  O185  1  0.32352635  0.57540251  0.91228976  1
  O2-  O186  1  0.82393140  0.07345940  0.24232088  1
  O2-  O187  1  0.81527237  0.06885828  0.56809868  1
  O2-  O188  1  0.82242150  0.07377173  0.91148188  1
  O2-  O189  1  0.82161820  0.57201278  0.23705907  1
  O2-  O190  1  0.81764665  0.57340818  0.57760949  1
  O2-  O191  1  0.81995679  0.56883218  0.89822744  1
  O2-  O192  1  0.03909893  0.08789684  0.26602162  1
  O2-  O193  1  0.03785744  0.08209302  0.59805768  1
  O2-  O194  1  0.04996731  0.08325424  0.93830073  1
  O2-  O195  1  0.04223928  0.58609983  0.27006385  1
  O2-  O196  1  0.04731401  0.58201296  0.59637003  1
  O2-  O197  1  0.04376774  0.58625232  0.93907193  1
  O2-  O198  1  0.54597845  0.08187058  0.27391385  1
  O2-  O199  1  0.54818618  0.08090287  0.60357123  1
  O2-  O200  1  0.53543155  0.08655044  0.92780013  1
  O2-  O201  1  0.54312729  0.58498615  0.26065308  1
  O2-  O202  1  0.53971512  0.58789626  0.60631074  1
  O2-  O203  1  0.55156665  0.58226704  0.93657308  1
  O2-  O204  1  0.16195419  0.20299724  0.26859427  1
  O2-  O205  1  0.17023824  0.20213947  0.59800470  1
  O2-  O206  1  0.16769385  0.20239688  0.93826345  1
  O2-  O207  1  0.16299502  0.70607041  0.26810967  1
  O2-  O208  1  0.17246378  0.70996945  0.60019919  1
  O2-  O209  1  0.16675384  0.70080176  0.93915481  1
  O2-  O210  1  0.66690887  0.20143087  0.26992069  1
  O2-  O211  1  0.66468729  0.20162216  0.60228324  1
  O2-  O212  1  0.66632768  0.20672124  0.92960481  1
  O2-  O213  1  0.66884627  0.71303784  0.26591769  1
  O2-  O214  1  0.66113598  0.70456274  0.60393267  1
  O2-  O215  1  0.66458462  0.70712965  0.93511631  1
  O2-  O216  1  0.08777643  0.46274594  0.06928721  1
  O2-  O217  1  0.08114955  0.45710826  0.40406487  1
  O2-  O218  1  0.08219513  0.45369270  0.72657526  1
  O2-  O219  1  0.08598111  0.95523445  0.06231670  1
  O2-  O220  1  0.07902695  0.95979243  0.39959443  1
  O2-  O221  1  0.08289186  0.96176054  0.73559271  1
  O2-  O222  1  0.58143072  0.44905657  0.06046446  1
  O2-  O223  1  0.58135544  0.45833297  0.39725698  1
  O2-  O224  1  0.59119240  0.46321626  0.73396481  1
  O2-  O225  1  0.58250721  0.96439883  0.06490575  1
  O2-  O226  1  0.58439353  0.95714985  0.40548685  1
  O2-  O227  1  0.58189131  0.95161964  0.72986462  1
  O2-  O228  1  0.20868894  0.33167601  0.06705984  1
  O2-  O229  1  0.20045372  0.32699981  0.39933913  1
  O2-  O230  1  0.20430009  0.33351011  0.72830120  1
  O2-  O231  1  0.20589545  0.83572912  0.06071757  1
  O2-  O232  1  0.20166909  0.82976615  0.40024015  1
  O2-  O233  1  0.21206571  0.83551725  0.73861651  1
  O2-  O234  1  0.70121698  0.33108621  0.05923561  1
  O2-  O235  1  0.70600680  0.32929147  0.40102398  1
  O2-  O236  1  0.70020787  0.33499630  0.72649532  1
  O2-  O237  1  0.70876016  0.83470408  0.06670968  1
  O2-  O238  1  0.71164103  0.83542972  0.40310793  1
  O2-  O239  1  0.70026407  0.83059144  0.73033881  1
  O2-  O240  1  0.45998590  0.41479756  0.26029326  1
  O2-  O241  1  0.46684781  0.41696027  0.60186578  1
  O2-  O242  1  0.44669802  0.41871442  0.93968979  1
  O2-  O243  1  0.45322541  0.91838403  0.27664954  1
  O2-  O244  1  0.45372079  0.91449261  0.60431767  1
  O2-  O245  1  0.46158808  0.91408174  0.92883659  1
  O2-  O246  1  0.95632276  0.41597575  0.27321144  1
  O2-  O247  1  0.95068329  0.42139259  0.59587165  1
  O2-  O248  1  0.96558042  0.41738834  0.93472144  1
  O2-  O249  1  0.95622011  0.91318219  0.26847118  1
  O2-  O250  1  0.95318101  0.92029177  0.60040951  1
  O2-  O251  1  0.95604530  0.91921807  0.93498094  1
  O2-  O252  1  0.33138079  0.28795602  0.26415891  1
  O2-  O253  1  0.33454700  0.29459498  0.60012554  1
  O2-  O254  1  0.33451430  0.29159788  0.93605865  1
  O2-  O255  1  0.33345950  0.79797047  0.27352907  1
  O2-  O256  1  0.33676044  0.79355585  0.60596959  1
  O2-  O257  1  0.33237623  0.79073460  0.93125442  1
  O2-  O258  1  0.83753509  0.29299833  0.26930481  1
  O2-  O259  1  0.82795963  0.29133979  0.59814331  1
  O2-  O260  1  0.83459096  0.29620270  0.93311305  1
  O2-  O261  1  0.83720563  0.79220612  0.27174120  1
  O2-  O262  1  0.82821206  0.79136590  0.59866187  1
  O2-  O263  1  0.83241753  0.78895745  0.93319275  1
  O2-  O264  1  0.41181331  0.03854913  0.05969321  1
  O2-  O265  1  0.41885295  0.04785679  0.40589178  1
  O2-  O266  1  0.41753698  0.04758654  0.73097922  1
  O2-  O267  1  0.42046022  0.55335585  0.06109360  1
  O2-  O268  1  0.42179286  0.54332326  0.39537485  1
  O2-  O269  1  0.41719654  0.53750304  0.73994406  1
  O2-  O270  1  0.91793920  0.05125795  0.06247652  1
  O2-  O271  1  0.91476939  0.04496480  0.39480897  1
  O2-  O272  1  0.91498276  0.04223075  0.73716646  1
  O2-  O273  1  0.91595175  0.54012207  0.06763768  1
  O2-  O274  1  0.91940894  0.54635139  0.40404854  1
  O2-  O275  1  0.91583764  0.54680729  0.72686320  1
  O2-  O276  1  0.29558040  0.16099385  0.06204550  1
  O2-  O277  1  0.29017377  0.16795556  0.40058832  1
  O2-  O278  1  0.29737307  0.16810766  0.73104857  1
  O2-  O279  1  0.29590536  0.66667627  0.06483637  1
  O2-  O280  1  0.29416816  0.66778132  0.39935575  1
  O2-  O281  1  0.29283096  0.66683324  0.73739349  1
  O2-  O282  1  0.79613422  0.16844426  0.06125299  1
  O2-  O283  1  0.79832679  0.16609877  0.39535809  1
  O2-  O284  1  0.78667989  0.16672191  0.73629371  1
  O2-  O285  1  0.78855012  0.66528548  0.06725972  1
  O2-  O286  1  0.79071428  0.66923787  0.40510137  1
  O2-  O287  1  0.78801035  0.66074977  0.73056082  1
