# generated using pymatgen
data_Ca2Al2SiO7
_symmetry_space_group_name_H-M   'P 1'
_cell_length_a   15.45985245
_cell_length_b   15.45841244
_cell_length_c   15.28470099
_cell_angle_alpha   90.00009046
_cell_angle_beta   89.99806580
_cell_angle_gamma   90.00016828
_symmetry_Int_Tables_number   1
_chemical_formula_structural   Ca2Al2SiO7
_chemical_formula_sum   'Ca48 Al48 Si24 O168'
_cell_volume   3652.81083108
_cell_formula_units_Z   24
loop_
 _symmetry_equiv_pos_site_id
 _symmetry_equiv_pos_as_xyz
  1  'x, y, z'
loop_
 _atom_type_symbol
 _atom_type_oxidation_number
  Ca2+  2.0
  Al0+  0.0
  Si0+  0.0
  O2-  -2.0
loop_
 _atom_site_type_symbol
 _atom_site_label
 _atom_site_symmetry_multiplicity
 _atom_site_fract_x
 _atom_site_fract_y
 _atom_site_fract_z
 _atom_site_occupancy
  Ca2+  Ca0  1  0.17108772  0.08991509  0.16442473  1
  Ca2+  Ca1  1  0.16835304  0.07499267  0.51173701  1
  Ca2+  Ca2  1  0.16675690  0.08267441  0.83753915  1
  Ca2+  Ca3  1  0.17298769  0.58509830  0.16480042  1
  Ca2+  Ca4  1  0.16394147  0.57937896  0.51150508  1
  Ca2+  Ca5  1  0.17020115  0.58212853  0.83436467  1
  Ca2+  Ca6  1  0.67196204  0.08030461  0.17422851  1
  Ca2+  Ca7  1  0.67077108  0.08040949  0.50148245  1
  Ca2+  Ca8  1  0.65992200  0.08395434  0.83619037  1
  Ca2+  Ca9  1  0.67617615  0.57026500  0.17128542  1
  Ca2+  Ca10  1  0.67472441  0.58016606  0.50902925  1
  Ca2+  Ca11  1  0.67001780  0.57693110  0.83958391  1
  Ca2+  Ca12  1  0.07225559  0.32583868  0.15452388  1
  Ca2+  Ca13  1  0.08595472  0.32963168  0.49989761  1
  Ca2+  Ca14  1  0.08401019  0.32732343  0.82772682  1
  Ca2+  Ca15  1  0.06713994  0.83246449  0.16176789  1
  Ca2+  Ca16  1  0.08068996  0.82702237  0.49828223  1
  Ca2+  Ca17  1  0.07931717  0.82771144  0.82704193  1
  Ca2+  Ca18  1  0.58705534  0.32987013  0.15573547  1
  Ca2+  Ca19  1  0.59597085  0.33225089  0.50145857  1
  Ca2+  Ca20  1  0.58637937  0.32965294  0.83048299  1
  Ca2+  Ca21  1  0.58293571  0.83589809  0.16573491  1
  Ca2+  Ca22  1  0.57697561  0.83135421  0.49603628  1
  Ca2+  Ca23  1  0.57489134  0.82312716  0.82266919  1
  Ca2+  Ca24  1  0.33984360  0.42107744  0.16299208  1
  Ca2+  Ca25  1  0.32506737  0.41875633  0.50746296  1
  Ca2+  Ca26  1  0.33007527  0.41683794  0.84101040  1
  Ca2+  Ca27  1  0.33521846  0.92447687  0.16996691  1
  Ca2+  Ca28  1  0.33066050  0.91076165  0.50817583  1
  Ca2+  Ca29  1  0.32807361  0.91880460  0.83691924  1
  Ca2+  Ca30  1  0.82660291  0.41738741  0.17179728  1
  Ca2+  Ca31  1  0.82482860  0.42753694  0.50785208  1
  Ca2+  Ca32  1  0.82676400  0.42654207  0.84030125  1
  Ca2+  Ca33  1  0.83108913  0.91934602  0.17581335  1
  Ca2+  Ca34  1  0.83442080  0.91765448  0.49701331  1
  Ca2+  Ca35  1  0.83334720  0.91613957  0.83890043  1
  Ca2+  Ca36  1  0.42421014  0.17384049  0.15315627  1
  Ca2+  Ca37  1  0.42478459  0.16774054  0.50032815  1
  Ca2+  Ca38  1  0.42520545  0.16753611  0.83382135  1
  Ca2+  Ca39  1  0.41675935  0.67133401  0.16206526  1
  Ca2+  Ca40  1  0.42043065  0.67687402  0.49874024  1
  Ca2+  Ca41  1  0.42028244  0.66711535  0.82408717  1
  Ca2+  Ca42  1  0.91752810  0.17070362  0.15562627  1
  Ca2+  Ca43  1  0.92137676  0.16285542  0.49733950  1
  Ca2+  Ca44  1  0.92456913  0.17653397  0.83141293  1
  Ca2+  Ca45  1  0.90135293  0.67433378  0.16433665  1
  Ca2+  Ca46  1  0.91833358  0.66215966  0.49659650  1
  Ca2+  Ca47  1  0.91226639  0.66832100  0.82882678  1
  Al0+  Al48  1  -0.00133750  -0.00302219  -0.00746553  1
  Al0+  Al49  1  0.00360919  -0.00281339  0.33237546  1
  Al0+  Al50  1  0.00098086  0.00122881  0.66808208  1
  Al0+  Al51  1  0.00079677  0.50332439  0.00232461  1
  Al0+  Al52  1  0.00264678  0.49687954  0.33366451  1
  Al0+  Al53  1  -0.00055506  0.50070667  0.67142397  1
  Al0+  Al54  1  0.49706521  -0.00014032  0.00093227  1
  Al0+  Al55  1  0.49994803  0.00186287  0.33269737  1
  Al0+  Al56  1  0.49996608  0.00343572  0.65881516  1
  Al0+  Al57  1  0.49952454  0.50015694  0.00563165  1
  Al0+  Al58  1  0.49804134  0.50011841  0.33837207  1
  Al0+  Al59  1  0.50023177  0.50005837  0.66389836  1
  Al0+  Al60  1  0.25149765  0.24857936  -0.00124250  1
  Al0+  Al61  1  0.25280189  0.24965122  0.33256767  1
  Al0+  Al62  1  0.25041926  0.24899687  0.66597734  1
  Al0+  Al63  1  0.24682492  0.75103000  0.00685734  1
  Al0+  Al64  1  0.25152576  0.75043224  0.32692424  1
  Al0+  Al65  1  0.24578739  0.75112393  0.66413413  1
  Al0+  Al66  1  0.75182277  0.24786479  -0.00624868  1
  Al0+  Al67  1  0.75294533  0.24893398  0.34032805  1
  Al0+  Al68  1  0.75056799  0.25054960  0.66569753  1
  Al0+  Al69  1  0.74743751  0.75011576  -0.00139334  1
  Al0+  Al70  1  0.74929810  0.74941286  0.33694946  1
  Al0+  Al71  1  0.74842502  0.75306799  0.66556651  1
  Al0+  Al72  1  0.82271504  0.57066902  0.34939442  1
  Al0+  Al73  1  0.57236634  0.18102256  0.64977344  1
  Al0+  Al74  1  0.82489225  0.07019172  0.34751773  1
  Al0+  Al75  1  0.92641407  0.81797567  0.98575289  1
  Al0+  Al76  1  0.82231312  0.57343847  0.01623782  1
  Al0+  Al77  1  0.57228546  0.17712320  0.98626765  1
  Al0+  Al78  1  0.07143950  0.17867554  0.98451670  1
  Al0+  Al79  1  0.42777619  0.82105723  0.65348489  1
  Al0+  Al80  1  0.67766365  0.42837311  0.68484615  1
  Al0+  Al81  1  0.68098510  0.42657178  0.01472893  1
  Al0+  Al82  1  0.82032710  0.57431295  0.68365063  1
  Al0+  Al83  1  0.17844834  0.92835143  0.68065659  1
  Al0+  Al84  1  0.57230973  0.67719125  0.65104881  1
  Al0+  Al85  1  0.07162879  0.17945552  0.65137699  1
  Al0+  Al86  1  0.42955914  0.82190847  0.31612822  1
  Al0+  Al87  1  0.67732576  0.42785227  0.35006652  1
  Al0+  Al88  1  0.32005053  0.07032607  0.01358835  1
  Al0+  Al89  1  0.43056733  0.32362677  0.98554443  1
  Al0+  Al90  1  0.92787775  0.32479546  0.98458897  1
  Al0+  Al91  1  0.17937591  0.42737188  0.68051848  1
  Al0+  Al92  1  0.67702869  0.92938408  0.34900112  1
  Al0+  Al93  1  0.06751200  0.67882252  0.65476491  1
  Al0+  Al94  1  0.32097659  0.57197233  0.01306172  1
  Al0+  Al95  1  0.92942271  0.81869676  0.32063334  1
  Si0+  Si96  1  0.92667378  0.82424553  0.64935320  1
  Si0+  Si97  1  0.32318276  0.07151483  0.68319999  1
  Si0+  Si98  1  0.18152884  0.92870793  0.34750519  1
  Si0+  Si99  1  0.56799348  0.68052446  0.98774638  1
  Si0+  Si100  1  0.42713137  0.32123751  0.31848790  1
  Si0+  Si101  1  0.32001354  0.57228090  0.68031031  1
  Si0+  Si102  1  0.42635513  0.82149517  0.98661367  1
  Si0+  Si103  1  0.31966291  0.57322548  0.34980939  1
  Si0+  Si104  1  0.57089965  0.67664940  0.31544870  1
  Si0+  Si105  1  0.17821179  0.42656902  0.01726862  1
  Si0+  Si106  1  0.92977333  0.32176133  0.64839487  1
  Si0+  Si107  1  0.17578166  0.92843905  0.01946006  1
  Si0+  Si108  1  0.18152213  0.42786405  0.34691702  1
  Si0+  Si109  1  0.93123030  0.31877202  0.32016593  1
  Si0+  Si110  1  0.82167643  0.06806837  0.01101667  1
  Si0+  Si111  1  0.32062482  0.07240882  0.34934923  1
  Si0+  Si112  1  0.42716571  0.32253335  0.64909758  1
  Si0+  Si113  1  0.67708900  0.92908373  0.01244801  1
  Si0+  Si114  1  0.07388761  0.17760484  0.31866808  1
  Si0+  Si115  1  0.67689739  0.93189343  0.68148337  1
  Si0+  Si116  1  0.57222135  0.18195165  0.31927222  1
  Si0+  Si117  1  0.07470482  0.67950199  0.98385159  1
  Si0+  Si118  1  0.82167246  0.07060083  0.68327579  1
  Si0+  Si119  1  0.07277432  0.67460413  0.31491815  1
  O2-  O120  1  0.24336320  -0.00131206  0.06326223  1
  O2-  O121  1  0.25295570  -0.00142653  0.39145166  1
  O2-  O122  1  0.25448979  0.00219787  0.72612864  1
  O2-  O123  1  0.24739124  0.49575033  0.06114554  1
  O2-  O124  1  0.24810737  0.50229918  0.39066425  1
  O2-  O125  1  0.25583984  0.50045687  0.72600463  1
  O2-  O126  1  0.74765982  0.00075387  0.05374016  1
  O2-  O127  1  0.75230286  -0.00110133  0.39833170  1
  O2-  O128  1  0.74944047  0.00043777  0.72530460  1
  O2-  O129  1  0.75679971  0.49469142  0.06495905  1
  O2-  O130  1  0.74734758  0.50225115  0.39889732  1
  O2-  O131  1  0.74631220  0.50414901  0.73295625  1
  O2-  O132  1  -0.00062179  0.24475700  0.27725223  1
  O2-  O133  1  -0.00102325  0.25407465  0.60167415  1
  O2-  O134  1  0.00423565  0.25582017  0.93578665  1
  O2-  O135  1  -0.00066260  0.73923346  0.27246392  1
  O2-  O136  1  -0.00885764  0.75093211  0.60655115  1
  O2-  O137  1  -0.00043335  0.74140752  0.94090113  1
  O2-  O138  1  0.50496623  0.25692375  0.27820354  1
  O2-  O139  1  0.50018281  0.25882190  0.60351761  1
  O2-  O140  1  0.50392809  0.25286001  0.93639679  1
  O2-  O141  1  0.50525741  0.74819512  0.26917765  1
  O2-  O142  1  0.50004942  0.75013558  0.60226112  1
  O2-  O143  1  0.49339224  0.74771899  0.94463131  1
  O2-  O144  1  0.06797238  0.17855308  0.09932719  1
  O2-  O145  1  0.07669579  0.17965834  0.42363951  1
  O2-  O146  1  0.07000463  0.17959713  0.76377736  1
  O2-  O147  1  0.08070417  0.68463572  0.08944287  1
  O2-  O148  1  0.07627709  0.67547335  0.42045155  1
  O2-  O149  1  0.07079891  0.68180109  0.76748004  1
  O2-  O150  1  0.57080402  0.17418812  0.10044730  1
  O2-  O151  1  0.56952124  0.18097160  0.42434010  1
  O2-  O152  1  0.56889668  0.17667263  0.76218197  1
  O2-  O153  1  0.56798360  0.68440851  0.09289018  1
  O2-  O154  1  0.56607192  0.67651935  0.42065646  1
  O2-  O155  1  0.56942692  0.67970289  0.76548555  1
  O2-  O156  1  0.18345804  0.42593319  0.24221514  1
  O2-  O157  1  0.18144937  0.42819083  0.56637267  1
  O2-  O158  1  0.17934933  0.42690728  0.91190456  1
  O2-  O159  1  0.18120634  0.93146216  0.24254713  1
  O2-  O160  1  0.17931484  0.92964901  0.56676683  1
  O2-  O161  1  0.17817729  0.92556730  0.91410296  1
  O2-  O162  1  0.67872950  0.42494771  0.23653228  1
  O2-  O163  1  0.68262591  0.42834375  0.57123321  1
  O2-  O164  1  0.67840973  0.43016580  0.90186076  1
  O2-  O165  1  0.67616545  0.93391846  0.23461873  1
  O2-  O166  1  0.67692290  0.93340888  0.57667547  1
  O2-  O167  1  0.67656347  0.92827694  0.90716481  1
  O2-  O168  1  0.43192703  0.32138776  0.10013582  1
  O2-  O169  1  0.41824518  0.31650517  0.42295509  1
  O2-  O170  1  0.42402712  0.32031665  0.75405514  1
  O2-  O171  1  0.42966308  0.82261534  0.09186030  1
  O2-  O172  1  0.42552493  0.81892635  0.42865739  1
  O2-  O173  1  0.42888203  0.81998778  0.76769385  1
  O2-  O174  1  0.92792352  0.31902369  0.09933384  1
  O2-  O175  1  0.93564957  0.31994594  0.42493093  1
  O2-  O176  1  0.93136842  0.31874102  0.75364722  1
  O2-  O177  1  0.92656759  0.82079524  0.09904524  1
  O2-  O178  1  0.93658357  0.82245480  0.43315411  1
  O2-  O179  1  0.92818492  0.82560817  0.75509157  1
  O2-  O180  1  0.31849305  0.07472361  0.24439203  1
  O2-  O181  1  0.32180296  0.07194910  0.57683676  1
  O2-  O182  1  0.32303718  0.06451898  0.90102494  1
  O2-  O183  1  0.31990809  0.57271447  0.24461870  1
  O2-  O184  1  0.31599558  0.57175094  0.57421103  1
  O2-  O185  1  0.31860087  0.57499270  0.90027929  1
  O2-  O186  1  0.82357246  0.07176294  0.23341723  1
  O2-  O187  1  0.82297366  0.06836177  0.57805975  1
  O2-  O188  1  0.82278024  0.06472880  0.90594524  1
  O2-  O189  1  0.82178499  0.56701789  0.23598564  1
  O2-  O190  1  0.82216180  0.57143520  0.56997188  1
  O2-  O191  1  0.81584225  0.57740896  0.90336842  1
  O2-  O192  1  0.05209629  0.08429822  0.27237479  1
  O2-  O193  1  0.03879526  0.08291909  0.59750392  1
  O2-  O194  1  0.04059813  0.08149991  0.93138284  1
  O2-  O195  1  0.05414518  0.57865020  0.27046430  1
  O2-  O196  1  0.04103839  0.58095572  0.60005410  1
  O2-  O197  1  0.05919118  0.58270143  0.94228061  1
  O2-  O198  1  0.54103733  0.09153340  0.27152703  1
  O2-  O199  1  0.53810161  0.08727359  0.59176186  1
  O2-  O200  1  0.53704803  0.08012052  0.93261714  1
  O2-  O201  1  0.53991885  0.58355044  0.27021114  1
  O2-  O202  1  0.54488677  0.57937483  0.59657979  1
  O2-  O203  1  0.54198921  0.58811901  0.94238417  1
  O2-  O204  1  0.16428460  0.21078925  0.27053225  1
  O2-  O205  1  0.16907195  0.20783433  0.59684829  1
  O2-  O206  1  0.17161711  0.20124784  0.93412551  1
  O2-  O207  1  0.16428550  0.70571825  0.26711039  1
  O2-  O208  1  0.16208831  0.71141577  0.59695287  1
  O2-  O209  1  0.16542878  0.71274061  0.93572710  1
  O2-  O210  1  0.66666556  0.20503760  0.27472695  1
  O2-  O211  1  0.67035207  0.20818050  0.59601288  1
  O2-  O212  1  0.67119454  0.19740402  0.93229129  1
  O2-  O213  1  0.66591703  0.69930076  0.27184298  1
  O2-  O214  1  0.66939567  0.70937886  0.59781709  1
  O2-  O215  1  0.65661461  0.71280899  0.93775279  1
  O2-  O216  1  0.08537081  0.45282598  0.06523341  1
  O2-  O217  1  0.08920234  0.45061104  0.39518292  1
  O2-  O218  1  0.08422791  0.45811407  0.73518868  1
  O2-  O219  1  0.08111368  0.95505304  0.06310924  1
  O2-  O220  1  0.09102041  0.95629293  0.39660381  1
  O2-  O221  1  0.08300936  0.96107508  0.73551795  1
  O2-  O222  1  0.58355426  0.45766843  0.06904395  1
  O2-  O223  1  0.57632601  0.45059076  0.40122204  1
  O2-  O224  1  0.57549809  0.45133034  0.73232262  1
  O2-  O225  1  0.58555077  0.95558183  0.06108466  1
  O2-  O226  1  0.57951786  0.96202905  0.40201105  1
  O2-  O227  1  0.58524213  0.96263711  0.72774712  1
  O2-  O228  1  0.20373164  0.33316881  0.06386583  1
  O2-  O229  1  0.21403459  0.33744054  0.39563551  1
  O2-  O230  1  0.21012051  0.33056513  0.73361216  1
  O2-  O231  1  0.20238386  0.83700129  0.06923062  1
  O2-  O232  1  0.20928733  0.83550263  0.39227779  1
  O2-  O233  1  0.20805710  0.83211691  0.73568298  1
  O2-  O234  1  0.70701320  0.32519839  0.06418398  1
  O2-  O235  1  0.70926450  0.33080363  0.40335381  1
  O2-  O236  1  0.70818031  0.32895377  0.73455134  1
  O2-  O237  1  0.70563559  0.83863508  0.06146697  1
  O2-  O238  1  0.70054516  0.82995415  0.40055705  1
  O2-  O239  1  0.70161935  0.83955956  0.72922936  1
  O2-  O240  1  0.44704515  0.41688872  0.27562003  1
  O2-  O241  1  0.44547985  0.41775437  0.60317724  1
  O2-  O242  1  0.45302845  0.42422084  0.93498194  1
  O2-  O243  1  0.45836454  0.92066766  0.26414337  1
  O2-  O244  1  0.45506889  0.91904377  0.59913804  1
  O2-  O245  1  0.45636467  0.91132826  0.93807048  1
  O2-  O246  1  0.96242887  0.40865148  0.27053119  1
  O2-  O247  1  0.95616261  0.41560371  0.60416888  1
  O2-  O248  1  0.95196449  0.42590398  0.93627011  1
  O2-  O249  1  0.96569551  0.91396899  0.26464505  1
  O2-  O250  1  0.95818923  0.91596726  0.60329564  1
  O2-  O251  1  0.95883119  0.91222741  0.92866495  1
  O2-  O252  1  0.33900392  0.28693042  0.26680820  1
  O2-  O253  1  0.33609252  0.29085667  0.59989077  1
  O2-  O254  1  0.33235387  0.29415869  0.93410746  1
  O2-  O255  1  0.33377889  0.78990042  0.25979496  1
  O2-  O256  1  0.33004818  0.79155630  0.59964691  1
  O2-  O257  1  0.33191571  0.79706013  0.94400611  1
  O2-  O258  1  0.83846597  0.29209019  0.27434965  1
  O2-  O259  1  0.83722233  0.29344399  0.60224599  1
  O2-  O260  1  0.83371396  0.29079815  0.92808851  1
  O2-  O261  1  0.82965426  0.79528209  0.26847862  1
  O2-  O262  1  0.83116936  0.80602130  0.60517433  1
  O2-  O263  1  0.82907227  0.79115069  0.93070478  1
  O2-  O264  1  0.41465277  0.03581621  0.07111475  1
  O2-  O265  1  0.41350484  0.04807969  0.39518734  1
  O2-  O266  1  0.41725974  0.04585328  0.72740199  1
  O2-  O267  1  0.41571254  0.54317099  0.07220526  1
  O2-  O268  1  0.41016836  0.54549412  0.39891939  1
  O2-  O269  1  0.41547143  0.55161071  0.72342405  1
  O2-  O270  1  0.91224114  0.03707210  0.05930901  1
  O2-  O271  1  0.92394487  0.04079592  0.39991623  1
  O2-  O272  1  0.91251055  0.04179125  0.73142443  1
  O2-  O273  1  0.92515859  0.55841115  0.06580838  1
  O2-  O274  1  0.92255103  0.53960486  0.39951366  1
  O2-  O275  1  0.91823520  0.54489189  0.73656983  1
  O2-  O276  1  0.29220748  0.16741952  0.06946742  1
  O2-  O277  1  0.28975517  0.16280997  0.39820157  1
  O2-  O278  1  0.29640662  0.16434287  0.72869289  1
  O2-  O279  1  0.28754696  0.66699327  0.07135127  1
  O2-  O280  1  0.29126536  0.66571382  0.39501209  1
  O2-  O281  1  0.29000713  0.66410684  0.72668166  1
  O2-  O282  1  0.79817004  0.16099171  0.05766799  1
  O2-  O283  1  0.79825915  0.16703394  0.40383793  1
  O2-  O284  1  0.79443379  0.16287173  0.72866780  1
  O2-  O285  1  0.78344496  0.66962959  0.06923452  1
  O2-  O286  1  0.80024473  0.67077089  0.40037239  1
  O2-  O287  1  0.79523600  0.67573948  0.73261644  1
