# generated using pymatgen
data_Ca2Al2SiO7
_symmetry_space_group_name_H-M   'P 1'
_cell_length_a   15.46105146
_cell_length_b   15.46032391
_cell_length_c   15.28560617
_cell_angle_alpha   89.99599349
_cell_angle_beta   89.98615831
_cell_angle_gamma   89.99822448
_symmetry_Int_Tables_number   1
_chemical_formula_structural   Ca2Al2SiO7
_chemical_formula_sum   'Ca48 Al48 Si24 O168'
_cell_volume   3653.76209823
_cell_formula_units_Z   24
loop_
 _symmetry_equiv_pos_site_id
 _symmetry_equiv_pos_as_xyz
  1  'x, y, z'
loop_
 _atom_type_symbol
 _atom_type_oxidation_number
  Ca2+  2.0
  Al0+  0.0
  Si0+  0.0
  O2-  -2.0
loop_
 _atom_site_type_symbol
 _atom_site_label
 _atom_site_symmetry_multiplicity
 _atom_site_fract_x
 _atom_site_fract_y
 _atom_site_fract_z
 _atom_site_occupancy
  Ca2+  Ca0  1  0.17022691  0.08526948  0.17062197  1
  Ca2+  Ca1  1  0.16831226  0.06721830  0.50606319  1
  Ca2+  Ca2  1  0.17108625  0.08217291  0.83859707  1
  Ca2+  Ca3  1  0.16074847  0.56958632  0.17402276  1
  Ca2+  Ca4  1  0.16378087  0.58218867  0.50046110  1
  Ca2+  Ca5  1  0.16724181  0.58024253  0.83548787  1
  Ca2+  Ca6  1  0.67467925  0.09732448  0.16894894  1
  Ca2+  Ca7  1  0.67724194  0.08983909  0.49934649  1
  Ca2+  Ca8  1  0.67635047  0.08569632  0.83919337  1
  Ca2+  Ca9  1  0.68090864  0.58072318  0.17214634  1
  Ca2+  Ca10  1  0.67376616  0.58437933  0.49986971  1
  Ca2+  Ca11  1  0.67492847  0.57995625  0.84295891  1
  Ca2+  Ca12  1  0.07867649  0.33361563  0.15948890  1
  Ca2+  Ca13  1  0.07916198  0.33130030  0.49107914  1
  Ca2+  Ca14  1  0.08499795  0.32862199  0.84089255  1
  Ca2+  Ca15  1  0.08284661  0.83091923  0.17107411  1
  Ca2+  Ca16  1  0.08443044  0.82722457  0.49341949  1
  Ca2+  Ca17  1  0.07843906  0.82879846  0.82114863  1
  Ca2+  Ca18  1  0.57309765  0.32431394  0.16361175  1
  Ca2+  Ca19  1  0.57349399  0.32634292  0.48831141  1
  Ca2+  Ca20  1  0.58055647  0.32670260  0.83537901  1
  Ca2+  Ca21  1  0.57836157  0.83590731  0.16729476  1
  Ca2+  Ca22  1  0.57394587  0.83374403  0.49276618  1
  Ca2+  Ca23  1  0.58182864  0.83393187  0.83209611  1
  Ca2+  Ca24  1  0.32356197  0.40579600  0.17006659  1
  Ca2+  Ca25  1  0.32688276  0.41682854  0.50290288  1
  Ca2+  Ca26  1  0.32831541  0.41964702  0.84161494  1
  Ca2+  Ca27  1  0.32865512  0.92275113  0.17432740  1
  Ca2+  Ca28  1  0.32304693  0.91457138  0.50499277  1
  Ca2+  Ca29  1  0.32597516  0.92684269  0.83610135  1
  Ca2+  Ca30  1  0.84666399  0.42405293  0.17309362  1
  Ca2+  Ca31  1  0.83966074  0.42185792  0.49571734  1
  Ca2+  Ca32  1  0.83725383  0.42321538  0.84350305  1
  Ca2+  Ca33  1  0.83703561  0.93067118  0.17482824  1
  Ca2+  Ca34  1  0.84375359  0.92537489  0.50133674  1
  Ca2+  Ca35  1  0.83995292  0.92721536  0.83534573  1
  Ca2+  Ca36  1  0.42222543  0.17270150  0.15602359  1
  Ca2+  Ca37  1  0.42305647  0.16513555  0.48993093  1
  Ca2+  Ca38  1  0.41189205  0.16592554  0.83418947  1
  Ca2+  Ca39  1  0.41101635  0.67633589  0.16693261  1
  Ca2+  Ca40  1  0.41278577  0.66984451  0.49429050  1
  Ca2+  Ca41  1  0.41636076  0.66413656  0.82618057  1
  Ca2+  Ca42  1  0.91823332  0.17542393  0.15839190  1
  Ca2+  Ca43  1  0.91430284  0.16881659  0.49125331  1
  Ca2+  Ca44  1  0.91632691  0.16560704  0.83348954  1
  Ca2+  Ca45  1  0.91736972  0.66635423  0.16605480  1
  Ca2+  Ca46  1  0.92701360  0.67862834  0.49031098  1
  Ca2+  Ca47  1  0.92214055  0.67232101  0.82396801  1
  Al0+  Al48  1  -0.00089240  -0.00144002  0.00110570  1
  Al0+  Al49  1  0.00163744  -0.00142680  0.33831361  1
  Al0+  Al50  1  -0.00061539  0.00179753  0.67202861  1
  Al0+  Al51  1  0.00176509  0.50126139  0.00172986  1
  Al0+  Al52  1  0.00204061  0.50046138  0.33814101  1
  Al0+  Al53  1  -0.00059420  0.49945218  0.66375936  1
  Al0+  Al54  1  0.49901112  -0.00088767  -0.00146456  1
  Al0+  Al55  1  0.50363743  -0.00128521  0.32476434  1
  Al0+  Al56  1  0.50199530  0.00013214  0.66882481  1
  Al0+  Al57  1  0.50056599  0.50231828  -0.00150110  1
  Al0+  Al58  1  0.50130257  0.49977171  0.32850811  1
  Al0+  Al59  1  0.49978287  0.49820430  0.66944682  1
  Al0+  Al60  1  0.24899879  0.24986136  -0.00050358  1
  Al0+  Al61  1  0.25004601  0.25002165  0.33848548  1
  Al0+  Al62  1  0.24869474  0.25114154  0.66809768  1
  Al0+  Al63  1  0.24939181  0.75034726  -0.00189944  1
  Al0+  Al64  1  0.25001327  0.74905790  0.32709972  1
  Al0+  Al65  1  0.25045229  0.74745945  0.67180927  1
  Al0+  Al66  1  0.74722659  0.25222177  -0.00449536  1
  Al0+  Al67  1  0.75008039  0.25289240  0.33087669  1
  Al0+  Al68  1  0.74792581  0.25018924  0.66943497  1
  Al0+  Al69  1  0.74915548  0.75014895  0.00340470  1
  Al0+  Al70  1  0.75094786  0.75222772  0.33523434  1
  Al0+  Al71  1  0.74934436  0.75035564  0.66265988  1
  Al0+  Al72  1  0.32119131  0.56840106  0.67909974  1
  Al0+  Al73  1  0.82223709  0.57278068  0.34956603  1
  Al0+  Al74  1  0.92852299  0.82334508  0.31632946  1
  Al0+  Al75  1  0.07085665  0.67900506  0.31589488  1
  Al0+  Al76  1  0.31936433  0.06953635  0.01472255  1
  Al0+  Al77  1  0.42891754  0.81964345  0.32036312  1
  Al0+  Al78  1  0.93141700  0.32024722  0.32185395  1
  Al0+  Al79  1  0.81975862  0.07250355  0.34577228  1
  Al0+  Al80  1  0.17869047  0.92781364  0.68271467  1
  Al0+  Al81  1  0.42596104  0.32165526  0.31924092  1
  Al0+  Al82  1  0.82115472  0.57055772  0.01305291  1
  Al0+  Al83  1  0.82001332  0.07171664  0.01461310  1
  Al0+  Al84  1  0.06998683  0.17649750  0.98543978  1
  Al0+  Al85  1  0.07255469  0.67806668  0.65082754  1
  Al0+  Al86  1  0.18187967  0.43114975  0.01332430  1
  Al0+  Al87  1  0.42735387  0.32178335  0.98268876  1
  Al0+  Al88  1  0.32291328  0.07192285  0.68038533  1
  Al0+  Al89  1  0.57024681  0.17736458  0.98094586  1
  Al0+  Al90  1  0.18117473  0.92806212  0.34640524  1
  Al0+  Al91  1  0.18012544  0.42753521  0.34842382  1
  Al0+  Al92  1  0.81973082  0.07181878  0.68079362  1
  Al0+  Al93  1  0.57175463  0.17887766  0.31829119  1
  Al0+  Al94  1  0.92811357  0.82353670  0.65124099  1
  Al0+  Al95  1  0.92921062  0.32314960  0.98497205  1
  Si0+  Si96  1  0.07224795  0.17592015  0.32048076  1
  Si0+  Si97  1  0.67674782  0.92758938  0.35063498  1
  Si0+  Si98  1  0.67842582  0.42970448  0.68208992  1
  Si0+  Si99  1  0.67738705  0.42997625  0.35030724  1
  Si0+  Si100  1  0.92611938  0.32003268  0.65137406  1
  Si0+  Si101  1  0.67731383  0.92600456  0.68287220  1
  Si0+  Si102  1  0.32330653  0.57171307  0.34704501  1
  Si0+  Si103  1  0.17506106  0.42732488  0.68522078  1
  Si0+  Si104  1  0.42875355  0.32152965  0.65200706  1
  Si0+  Si105  1  0.32463989  0.07083408  0.34786765  1
  Si0+  Si106  1  0.42757056  0.82023014  0.98223807  1
  Si0+  Si107  1  0.57430141  0.67723958  0.31620561  1
  Si0+  Si108  1  0.57098146  0.67581996  0.65199998  1
  Si0+  Si109  1  0.07146795  0.18030452  0.65154383  1
  Si0+  Si110  1  0.32436203  0.57434554  0.01783414  1
  Si0+  Si111  1  0.43098679  0.82004905  0.65414131  1
  Si0+  Si112  1  0.07064428  0.67947194  0.98425661  1
  Si0+  Si113  1  0.67602763  0.42903909  0.01769227  1
  Si0+  Si114  1  0.17699475  0.92537432  0.01814364  1
  Si0+  Si115  1  0.92710789  0.82011611  0.98545329  1
  Si0+  Si116  1  0.57094937  0.17923271  0.65080674  1
  Si0+  Si117  1  0.81981176  0.57065830  0.68060956  1
  Si0+  Si118  1  0.57174682  0.68126429  0.98509402  1
  Si0+  Si119  1  0.67752187  0.92740301  0.01741227  1
  O2-  O120  1  0.24294067  -0.00318739  0.06161364  1
  O2-  O121  1  0.25700204  0.00200341  0.39302295  1
  O2-  O122  1  0.24912671  0.00215098  0.73134441  1
  O2-  O123  1  0.25906581  0.50320675  0.06115908  1
  O2-  O124  1  0.25847131  0.50029806  0.39250503  1
  O2-  O125  1  0.24436885  0.49692116  0.72676613  1
  O2-  O126  1  0.74300485  -0.00110212  0.06090151  1
  O2-  O127  1  0.74596885  -0.00358965  0.39343573  1
  O2-  O128  1  0.74898828  -0.00809486  0.72570001  1
  O2-  O129  1  0.75072762  0.49198434  0.06044542  1
  O2-  O130  1  0.74558431  0.49891117  0.39585936  1
  O2-  O131  1  0.75014373  0.49978188  0.72490056  1
  O2-  O132  1  0.00428973  0.24449581  0.27583059  1
  O2-  O133  1  -0.00175874  0.24976140  0.60980938  1
  O2-  O134  1  -0.00446859  0.24637253  0.93391074  1
  O2-  O135  1  -0.00290868  0.74894516  0.26510493  1
  O2-  O136  1  0.00278937  0.75329417  0.60267447  1
  O2-  O137  1  -0.00007495  0.75102580  0.94268574  1
  O2-  O138  1  0.49415381  0.24578711  0.27037652  1
  O2-  O139  1  0.49470663  0.24553909  0.61002246  1
  O2-  O140  1  0.49714034  0.24849841  0.93034583  1
  O2-  O141  1  0.50390914  0.74472264  0.27292583  1
  O2-  O142  1  0.50032440  0.74740137  0.61072395  1
  O2-  O143  1  0.49824768  0.74831310  0.94030478  1
  O2-  O144  1  0.06968881  0.17672243  0.09906101  1
  O2-  O145  1  0.07072468  0.17714967  0.42675978  1
  O2-  O146  1  0.07279805  0.18214904  0.75628822  1
  O2-  O147  1  0.07172504  0.67957952  0.08870513  1
  O2-  O148  1  0.07218932  0.68058304  0.42942903  1
  O2-  O149  1  0.06804221  0.67575997  0.76522492  1
  O2-  O150  1  0.56907881  0.17922851  0.09401955  1
  O2-  O151  1  0.57085305  0.18079912  0.43308933  1
  O2-  O152  1  0.57389093  0.18122092  0.75520005  1
  O2-  O153  1  0.57288371  0.68350516  0.08959812  1
  O2-  O154  1  0.57311868  0.67728810  0.42242663  1
  O2-  O155  1  0.57181596  0.67579192  0.75735765  1
  O2-  O156  1  0.17912098  0.42816105  0.23567334  1
  O2-  O157  1  0.17597019  0.42493330  0.57968826  1
  O2-  O158  1  0.18108019  0.43608458  0.89981200  1
  O2-  O159  1  0.18282082  0.92987735  0.23330992  1
  O2-  O160  1  0.18198146  0.92731949  0.56899817  1
  O2-  O161  1  0.17998712  0.92147961  0.91256318  1
  O2-  O162  1  0.67576671  0.43193238  0.24522015  1
  O2-  O163  1  0.67677826  0.43066573  0.57720323  1
  O2-  O164  1  0.67413709  0.43469082  0.91128865  1
  O2-  O165  1  0.67576363  0.92507999  0.24540418  1
  O2-  O166  1  0.67085234  0.92660201  0.57793360  1
  O2-  O167  1  0.68006633  0.92309146  0.91148071  1
  O2-  O168  1  0.42935231  0.32110818  0.09584707  1
  O2-  O169  1  0.42873639  0.32200198  0.43389733  1
  O2-  O170  1  0.43174781  0.32458164  0.75651369  1
  O2-  O171  1  0.42748878  0.81862775  0.08709956  1
  O2-  O172  1  0.42990098  0.81767602  0.43412831  1
  O2-  O173  1  0.43473445  0.81872663  0.75939490  1
  O2-  O174  1  0.93351609  0.32478477  0.09822746  1
  O2-  O175  1  0.93162071  0.31847081  0.43590360  1
  O2-  O176  1  0.92451474  0.32182711  0.75604600  1
  O2-  O177  1  0.92595427  0.81925012  0.08993826  1
  O2-  O178  1  0.93112400  0.82348417  0.42972896  1
  O2-  O179  1  0.92603285  0.81830700  0.76573597  1
  O2-  O180  1  0.32223635  0.07018176  0.24239200  1
  O2-  O181  1  0.32519572  0.06874132  0.56667037  1
  O2-  O182  1  0.31866201  0.06553774  0.90156210  1
  O2-  O183  1  0.32211696  0.57312918  0.24172141  1
  O2-  O184  1  0.32712318  0.56523520  0.56640944  1
  O2-  O185  1  0.32320267  0.57609198  0.91188981  1
  O2-  O186  1  0.81875447  0.07332559  0.23297423  1
  O2-  O187  1  0.81616661  0.07686082  0.56792007  1
  O2-  O188  1  0.81955424  0.06745595  0.90118660  1
  O2-  O189  1  0.82024305  0.57048548  0.23640490  1
  O2-  O190  1  0.81725926  0.56914096  0.57590761  1
  O2-  O191  1  0.81766192  0.57265646  0.89904132  1
  O2-  O192  1  0.04888611  0.08260231  0.27482790  1
  O2-  O193  1  0.04481175  0.08743451  0.60642910  1
  O2-  O194  1  0.04413963  0.07667468  0.93252988  1
  O2-  O195  1  0.04082891  0.58011373  0.26627742  1
  O2-  O196  1  0.04218601  0.57968392  0.59831824  1
  O2-  O197  1  0.04199514  0.58895681  0.93569882  1
  O2-  O198  1  0.55420157  0.07894534  0.26525077  1
  O2-  O199  1  0.54816940  0.08535589  0.60491700  1
  O2-  O200  1  0.54465300  0.07689825  0.92994325  1
  O2-  O201  1  0.55218973  0.58389342  0.26884835  1
  O2-  O202  1  0.54248511  0.58440193  0.60438031  1
  O2-  O203  1  0.54765274  0.58908382  0.93622216  1
  O2-  O204  1  0.16680998  0.20082330  0.27705589  1
  O2-  O205  1  0.16261034  0.20908251  0.60261286  1
  O2-  O206  1  0.16646327  0.20909960  0.93093499  1
  O2-  O207  1  0.16808140  0.70704773  0.26094047  1
  O2-  O208  1  0.17375651  0.70211999  0.60161215  1
  O2-  O209  1  0.16320918  0.70642509  0.93638350  1
  O2-  O210  1  0.66663901  0.21534393  0.26453657  1
  O2-  O211  1  0.66053835  0.21373697  0.60248310  1
  O2-  O212  1  0.66721224  0.20932864  0.92616380  1
  O2-  O213  1  0.66656959  0.70587038  0.27011624  1
  O2-  O214  1  0.66197512  0.70295601  0.60292791  1
  O2-  O215  1  0.66207426  0.71234168  0.93503480  1
  O2-  O216  1  0.08672731  0.46503012  0.06763037  1
  O2-  O217  1  0.08623375  0.46114484  0.40588399  1
  O2-  O218  1  0.08106470  0.45341870  0.73036210  1
  O2-  O219  1  0.08191869  0.94619532  0.06182611  1
  O2-  O220  1  0.08649446  0.95878618  0.40377529  1
  O2-  O221  1  0.08060833  0.95540685  0.73596684  1
  O2-  O222  1  0.58522245  0.46228383  0.06491647  1
  O2-  O223  1  0.58372753  0.45639978  0.39788773  1
  O2-  O224  1  0.58843353  0.45904485  0.73205677  1
  O2-  O225  1  0.58177762  0.94805113  0.06043807  1
  O2-  O226  1  0.58265242  0.95354504  0.39700689  1
  O2-  O227  1  0.58615449  0.95447998  0.73307553  1
  O2-  O228  1  0.20817997  0.33358728  0.06631317  1
  O2-  O229  1  0.20796211  0.33127866  0.40669627  1
  O2-  O230  1  0.20213206  0.33467331  0.73182713  1
  O2-  O231  1  0.20763956  0.83289894  0.06435120  1
  O2-  O232  1  0.21472897  0.83109500  0.39826130  1
  O2-  O233  1  0.20825280  0.83030380  0.73672418  1
  O2-  O234  1  0.69365422  0.33298913  0.05917963  1
  O2-  O235  1  0.70479495  0.33763397  0.39782533  1
  O2-  O236  1  0.70581330  0.33852093  0.73036400  1
  O2-  O237  1  0.70419958  0.83499252  0.06544235  1
  O2-  O238  1  0.69889116  0.83390201  0.39847834  1
  O2-  O239  1  0.69903383  0.83050022  0.72849638  1
  O2-  O240  1  0.45562443  0.41922339  0.26545724  1
  O2-  O241  1  0.46304894  0.41095616  0.60351940  1
  O2-  O242  1  0.45706764  0.42224862  0.93199071  1
  O2-  O243  1  0.46056749  0.91380643  0.26244579  1
  O2-  O244  1  0.46092823  0.91099297  0.60626395  1
  O2-  O245  1  0.45740785  0.91034548  0.93354407  1
  O2-  O246  1  0.96339093  0.41683428  0.27076946  1
  O2-  O247  1  0.95338913  0.41213515  0.60385192  1
  O2-  O248  1  0.96298344  0.42057989  0.93087881  1
  O2-  O249  1  0.96137489  0.92116566  0.26471776  1
  O2-  O250  1  0.95248821  0.92492316  0.60344292  1
  O2-  O251  1  0.95409356  0.91177402  0.93769519  1
  O2-  O252  1  0.32616448  0.29554037  0.26936419  1
  O2-  O253  1  0.33416099  0.30027358  0.60715908  1
  O2-  O254  1  0.32892048  0.29477931  0.92996486  1
  O2-  O255  1  0.33583872  0.78756450  0.26130829  1
  O2-  O256  1  0.33890312  0.79207388  0.60882516  1
  O2-  O257  1  0.33612130  0.79199337  0.93394390  1
  O2-  O258  1  0.83410534  0.29559322  0.26803285  1
  O2-  O259  1  0.83388272  0.29208423  0.60447783  1
  O2-  O260  1  0.82799658  0.30365709  0.93413068  1
  O2-  O261  1  0.82774934  0.79889072  0.26680161  1
  O2-  O262  1  0.82927216  0.79489500  0.59851256  1
  O2-  O263  1  0.83537439  0.79059270  0.93825474  1
  O2-  O264  1  0.41608557  0.03587011  0.06681913  1
  O2-  O265  1  0.42000814  0.04476354  0.38987532  1
  O2-  O266  1  0.42106383  0.04245159  0.73401160  1
  O2-  O267  1  0.42033917  0.55565191  0.06136305  1
  O2-  O268  1  0.41968524  0.55203721  0.39094974  1
  O2-  O269  1  0.41735199  0.53720654  0.73601568  1
  O2-  O270  1  0.91620484  0.03876346  0.06773995  1
  O2-  O271  1  0.91619289  0.04234375  0.40097769  1
  O2-  O272  1  0.91643427  0.04608719  0.73653901  1
  O2-  O273  1  0.91829569  0.54397731  0.06626938  1
  O2-  O274  1  0.91634048  0.53872335  0.40546075  1
  O2-  O275  1  0.91197558  0.54237469  0.72706518  1
  O2-  O276  1  0.29131561  0.16694158  0.06690654  1
  O2-  O277  1  0.30095136  0.16389496  0.39559208  1
  O2-  O278  1  0.29535751  0.17145864  0.73168689  1
  O2-  O279  1  0.29542682  0.66788241  0.06240726  1
  O2-  O280  1  0.29441967  0.66417175  0.39364312  1
  O2-  O281  1  0.29577845  0.66481211  0.73620952  1
  O2-  O282  1  0.79086415  0.17125591  0.06330245  1
  O2-  O283  1  0.78706614  0.16906698  0.40031533  1
  O2-  O284  1  0.78394148  0.16666916  0.73601008  1
  O2-  O285  1  0.78495324  0.66494704  0.06795172  1
  O2-  O286  1  0.78991774  0.66915269  0.40346523  1
  O2-  O287  1  0.79085092  0.66285876  0.72691390  1
