# generated using pymatgen
data_Ca2Al2SiO7
_symmetry_space_group_name_H-M   'P 1'
_cell_length_a   15.45698125
_cell_length_b   15.45698885
_cell_length_c   15.28235630
_cell_angle_alpha   90.00333255
_cell_angle_beta   90.01544471
_cell_angle_gamma   90.00638564
_symmetry_Int_Tables_number   1
_chemical_formula_structural   Ca2Al2SiO7
_chemical_formula_sum   'Ca48 Al48 Si24 O168'
_cell_volume   3651.23575213
_cell_formula_units_Z   24
loop_
 _symmetry_equiv_pos_site_id
 _symmetry_equiv_pos_as_xyz
  1  'x, y, z'
loop_
 _atom_type_symbol
 _atom_type_oxidation_number
  Ca2+  2.0
  Al0+  0.0
  Si0+  0.0
  O2-  -2.0
loop_
 _atom_site_type_symbol
 _atom_site_label
 _atom_site_symmetry_multiplicity
 _atom_site_fract_x
 _atom_site_fract_y
 _atom_site_fract_z
 _atom_site_occupancy
  Ca2+  Ca0  1  0.16597237  0.07676064  0.17005714  1
  Ca2+  Ca1  1  0.16296007  0.07077469  0.50433498  1
  Ca2+  Ca2  1  0.17329977  0.07076494  0.84385787  1
  Ca2+  Ca3  1  0.15988295  0.58467859  0.16647454  1
  Ca2+  Ca4  1  0.17039854  0.58286577  0.51017193  1
  Ca2+  Ca5  1  0.17000770  0.57650700  0.83835263  1
  Ca2+  Ca6  1  0.66302797  0.07915135  0.16418062  1
  Ca2+  Ca7  1  0.67430389  0.07679470  0.51220509  1
  Ca2+  Ca8  1  0.66138997  0.07782703  0.83747256  1
  Ca2+  Ca9  1  0.66141420  0.56990554  0.17149817  1
  Ca2+  Ca10  1  0.67002341  0.58292593  0.50887105  1
  Ca2+  Ca11  1  0.67108201  0.58760092  0.83690175  1
  Ca2+  Ca12  1  0.08790295  0.32236537  0.15708282  1
  Ca2+  Ca13  1  0.08426898  0.32784918  0.49515945  1
  Ca2+  Ca14  1  0.09369362  0.32904900  0.83142182  1
  Ca2+  Ca15  1  0.08735175  0.82761881  0.16315197  1
  Ca2+  Ca16  1  0.07911107  0.83242845  0.48841021  1
  Ca2+  Ca17  1  0.09152583  0.83016849  0.83104880  1
  Ca2+  Ca18  1  0.58531211  0.33055413  0.15768549  1
  Ca2+  Ca19  1  0.58834443  0.32854038  0.49763796  1
  Ca2+  Ca20  1  0.59068807  0.32223879  0.83012650  1
  Ca2+  Ca21  1  0.57140498  0.84005632  0.15841096  1
  Ca2+  Ca22  1  0.57476598  0.83231207  0.50024239  1
  Ca2+  Ca23  1  0.57316095  0.83835413  0.82420229  1
  Ca2+  Ca24  1  0.32707975  0.41680342  0.16731017  1
  Ca2+  Ca25  1  0.32520037  0.42652320  0.51015277  1
  Ca2+  Ca26  1  0.32795697  0.42239183  0.83492166  1
  Ca2+  Ca27  1  0.32777629  0.91620938  0.16577425  1
  Ca2+  Ca28  1  0.32350762  0.90488953  0.50201069  1
  Ca2+  Ca29  1  0.32937944  0.91417239  0.84022005  1
  Ca2+  Ca30  1  0.82232516  0.41354016  0.16780437  1
  Ca2+  Ca31  1  0.83023672  0.42500711  0.50514851  1
  Ca2+  Ca32  1  0.82902724  0.42398498  0.83667767  1
  Ca2+  Ca33  1  0.82981072  0.91266011  0.16879710  1
  Ca2+  Ca34  1  0.83179968  0.92001489  0.51035698  1
  Ca2+  Ca35  1  0.81842842  0.91998577  0.83364538  1
  Ca2+  Ca36  1  0.42015960  0.16550105  0.15571667  1
  Ca2+  Ca37  1  0.42373754  0.16524962  0.50101057  1
  Ca2+  Ca38  1  0.42565690  0.15931056  0.83188459  1
  Ca2+  Ca39  1  0.41294408  0.68105227  0.16222116  1
  Ca2+  Ca40  1  0.41427312  0.67524593  0.50155815  1
  Ca2+  Ca41  1  0.41983487  0.67699158  0.82461312  1
  Ca2+  Ca42  1  0.93051540  0.16435105  0.16280062  1
  Ca2+  Ca43  1  0.92153413  0.16361261  0.49589015  1
  Ca2+  Ca44  1  0.92015872  0.16445355  0.83091448  1
  Ca2+  Ca45  1  0.92662692  0.67218862  0.16463652  1
  Ca2+  Ca46  1  0.92090303  0.67228672  0.49343182  1
  Ca2+  Ca47  1  0.92038668  0.66449953  0.83071249  1
  Al0+  Al48  1  -0.00131267  -0.00047532  -0.00229797  1
  Al0+  Al49  1  -0.00046254  0.00021159  0.32883566  1
  Al0+  Al50  1  0.00018341  -0.00052403  0.67563620  1
  Al0+  Al51  1  -0.00015977  0.50111798  0.00140557  1
  Al0+  Al52  1  -0.00261904  0.49854886  0.32977036  1
  Al0+  Al53  1  -0.00242759  0.49759934  0.67294753  1
  Al0+  Al54  1  0.49967693  0.00120273  -0.00004144  1
  Al0+  Al55  1  0.50013305  0.00099275  0.33110418  1
  Al0+  Al56  1  0.49835619  0.00055123  0.65621121  1
  Al0+  Al57  1  0.49993008  0.50170939  0.00426340  1
  Al0+  Al58  1  0.49854942  0.49750519  0.33933463  1
  Al0+  Al59  1  0.49931898  0.49929690  0.66705660  1
  Al0+  Al60  1  0.25141037  0.25129631  0.00137180  1
  Al0+  Al61  1  0.25321280  0.24951307  0.33154734  1
  Al0+  Al62  1  0.25051598  0.24795988  0.66621276  1
  Al0+  Al63  1  0.24935209  0.74986860  -0.00524023  1
  Al0+  Al64  1  0.25126745  0.75002955  0.32917241  1
  Al0+  Al65  1  0.25053585  0.74765694  0.67050969  1
  Al0+  Al66  1  0.75123590  0.25079235  -0.00007485  1
  Al0+  Al67  1  0.75010747  0.24909528  0.33752435  1
  Al0+  Al68  1  0.75395009  0.25082151  0.66346117  1
  Al0+  Al69  1  0.75142344  0.75113358  0.00686154  1
  Al0+  Al70  1  0.74880837  0.74789619  0.32910846  1
  Al0+  Al71  1  0.75023038  0.75038816  0.67139379  1
  Al0+  Al72  1  0.57252136  0.18015401  0.65103939  1
  Al0+  Al73  1  0.57357892  0.67800230  0.65297513  1
  Al0+  Al74  1  0.17954435  0.92818440  0.67946147  1
  Al0+  Al75  1  0.67703312  0.93068839  0.67910622  1
  Al0+  Al76  1  0.81982191  0.57227891  0.68004163  1
  Al0+  Al77  1  0.92644467  0.82253506  0.31893073  1
  Al0+  Al78  1  0.07198850  0.67774035  0.32020405  1
  Al0+  Al79  1  0.07192156  0.18023386  0.32073865  1
  Al0+  Al80  1  0.43070723  0.82083447  0.31730580  1
  Al0+  Al81  1  0.43103307  0.82056775  0.98544449  1
  Al0+  Al82  1  0.32132284  0.07043489  0.01426209  1
  Al0+  Al83  1  0.17765551  0.92714789  0.01668141  1
  Al0+  Al84  1  0.67867061  0.93024775  0.01444526  1
  Al0+  Al85  1  0.82236048  0.07328859  0.68234563  1
  Al0+  Al86  1  0.32249971  0.57141369  0.68288564  1
  Al0+  Al87  1  0.06882137  0.68014971  0.98311411  1
  Al0+  Al88  1  0.18047805  0.93046457  0.34599544  1
  Al0+  Al89  1  0.42668594  0.82123897  0.64946424  1
  Al0+  Al90  1  0.67971100  0.42993801  0.01203138  1
  Al0+  Al91  1  0.67844540  0.42802335  0.34976228  1
  Al0+  Al92  1  0.17778563  0.42733110  0.68043995  1
  Al0+  Al93  1  0.07287929  0.17863244  0.98417975  1
  Al0+  Al94  1  0.17936203  0.43011799  0.01527262  1
  Al0+  Al95  1  0.57056932  0.18175783  0.98693782  1
  Si0+  Si96  1  0.57344307  0.67687127  0.98659699  1
  Si0+  Si97  1  0.42786935  0.32583679  0.98303091  1
  Si0+  Si98  1  0.57125378  0.67528546  0.31682560  1
  Si0+  Si99  1  0.92669164  0.32122512  0.31629327  1
  Si0+  Si100  1  0.07085026  0.17762847  0.65255673  1
  Si0+  Si101  1  0.32161487  0.57276913  0.01850276  1
  Si0+  Si102  1  0.31908289  0.57056407  0.34788197  1
  Si0+  Si103  1  0.82177340  0.07313305  0.01844550  1
  Si0+  Si104  1  0.17807515  0.42665709  0.34641295  1
  Si0+  Si105  1  0.93014282  0.32230059  0.65027909  1
  Si0+  Si106  1  0.92879930  0.32132930  0.98250762  1
  Si0+  Si107  1  0.82303760  0.57320587  0.02061228  1
  Si0+  Si108  1  0.32199014  0.07247210  0.68062884  1
  Si0+  Si109  1  0.43029387  0.32190047  0.31805383  1
  Si0+  Si110  1  0.57217471  0.18061769  0.31775693  1
  Si0+  Si111  1  0.06896151  0.67714724  0.65427643  1
  Si0+  Si112  1  0.93050425  0.82128412  0.65491597  1
  Si0+  Si113  1  0.67681612  0.92821176  0.34762178  1
  Si0+  Si114  1  0.32413849  0.07397035  0.35196260  1
  Si0+  Si115  1  0.42669180  0.32189463  0.64911981  1
  Si0+  Si116  1  0.67799604  0.42750812  0.68223710  1
  Si0+  Si117  1  0.92463186  0.82286581  0.97987149  1
  Si0+  Si118  1  0.82060610  0.06894830  0.34720593  1
  Si0+  Si119  1  0.82127408  0.57162050  0.34982198  1
  O2-  O120  1  0.24656063  0.00255471  0.06630419  1
  O2-  O121  1  0.25468864  0.00547256  0.39486486  1
  O2-  O122  1  0.25655163  0.00116998  0.72397653  1
  O2-  O123  1  0.25318686  0.50427234  0.06444925  1
  O2-  O124  1  0.24335532  0.50259845  0.38853438  1
  O2-  O125  1  0.24972227  0.49882612  0.73045854  1
  O2-  O126  1  0.75490382  0.00287528  0.06323781  1
  O2-  O127  1  0.75222120  -0.00493168  0.38904988  1
  O2-  O128  1  0.74414153  0.00722316  0.72997850  1
  O2-  O129  1  0.75080421  0.50643923  0.06230402  1
  O2-  O130  1  0.75123242  0.50477230  0.39509177  1
  O2-  O131  1  0.74019750  0.50193982  0.72593926  1
  O2-  O132  1  -0.00005700  0.25754452  0.27283507  1
  O2-  O133  1  0.00108613  0.25000142  0.60942424  1
  O2-  O134  1  -0.00045514  0.25529110  0.93728877  1
  O2-  O135  1  0.00089080  0.75158946  0.27111387  1
  O2-  O136  1  0.00149668  0.75083919  0.61108658  1
  O2-  O137  1  -0.00428827  0.75642548  0.93578848  1
  O2-  O138  1  0.50138019  0.25146688  0.27555743  1
  O2-  O139  1  0.49880550  0.25656383  0.60393561  1
  O2-  O140  1  0.49746914  0.25785473  0.93957581  1
  O2-  O141  1  0.50760123  0.74739474  0.27123077  1
  O2-  O142  1  0.50091219  0.74894554  0.60177283  1
  O2-  O143  1  0.50801118  0.74689622  0.94139023  1
  O2-  O144  1  0.07053187  0.18032358  0.09777744  1
  O2-  O145  1  0.06898367  0.18087909  0.43443136  1
  O2-  O146  1  0.07053682  0.17922540  0.75722994  1
  O2-  O147  1  0.06644928  0.67943864  0.09631138  1
  O2-  O148  1  0.07061763  0.67661592  0.43452571  1
  O2-  O149  1  0.06625769  0.67675457  0.75908758  1
  O2-  O150  1  0.57055626  0.18413343  0.10070252  1
  O2-  O151  1  0.57243488  0.18158762  0.42281483  1
  O2-  O152  1  0.57181676  0.18116574  0.76392609  1
  O2-  O153  1  0.56975227  0.67459441  0.09247215  1
  O2-  O154  1  0.57131727  0.67523808  0.42214806  1
  O2-  O155  1  0.57368568  0.67992979  0.76660942  1
  O2-  O156  1  0.18179036  0.42436245  0.24159086  1
  O2-  O157  1  0.17742497  0.42856440  0.56570545  1
  O2-  O158  1  0.18161317  0.43093507  0.90262017  1
  O2-  O159  1  0.18133168  0.93139314  0.23366033  1
  O2-  O160  1  0.17509424  0.92942149  0.56579213  1
  O2-  O161  1  0.18109039  0.92749715  0.90296594  1
  O2-  O162  1  0.67950221  0.42695959  0.23655312  1
  O2-  O163  1  0.68272145  0.42640275  0.57631193  1
  O2-  O164  1  0.68290509  0.42957292  0.89927210  1
  O2-  O165  1  0.67504978  0.93263416  0.24252543  1
  O2-  O166  1  0.68193749  0.93035409  0.56467748  1
  O2-  O167  1  0.67798422  0.93148764  0.90186261  1
  O2-  O168  1  0.42970766  0.32635533  0.08934065  1
  O2-  O169  1  0.42915799  0.32189438  0.42295657  1
  O2-  O170  1  0.42488156  0.32012094  0.75426350  1
  O2-  O171  1  0.43175328  0.81909919  0.09903811  1
  O2-  O172  1  0.42987853  0.81838726  0.42996924  1
  O2-  O173  1  0.42736745  0.82171580  0.76281569  1
  O2-  O174  1  0.92760327  0.31833590  0.08847203  1
  O2-  O175  1  0.92680021  0.32127721  0.42208069  1
  O2-  O176  1  0.92811035  0.32395657  0.75489626  1
  O2-  O177  1  0.92253972  0.82016166  0.08554836  1
  O2-  O178  1  0.92649460  0.82225180  0.43338052  1
  O2-  O179  1  0.93100711  0.82033464  0.75965105  1
  O2-  O180  1  0.32533965  0.07655560  0.24684825  1
  O2-  O181  1  0.31760259  0.07717472  0.57489563  1
  O2-  O182  1  0.32243830  0.06801335  0.90047795  1
  O2-  O183  1  0.32222138  0.56758167  0.24295411  1
  O2-  O184  1  0.31764154  0.57115129  0.56826802  1
  O2-  O185  1  0.32257015  0.57018796  0.91338097  1
  O2-  O186  1  0.81801142  0.07258544  0.24236703  1
  O2-  O187  1  0.82505596  0.06952241  0.56787695  1
  O2-  O188  1  0.81968883  0.07466127  0.91315989  1
  O2-  O189  1  0.82105254  0.56931850  0.24453504  1
  O2-  O190  1  0.82359672  0.56910017  0.56676199  1
  O2-  O191  1  0.82285781  0.57257808  0.91477612  1
  O2-  O192  1  0.03755461  0.08644500  0.26479066  1
  O2-  O193  1  0.03907864  0.08606011  0.60632132  1
  O2-  O194  1  0.04036962  0.08225879  0.93090068  1
  O2-  O195  1  0.04259097  0.57914081  0.26628613  1
  O2-  O196  1  0.03829692  0.58538513  0.60782587  1
  O2-  O197  1  0.03612078  0.58283413  0.93086058  1
  O2-  O198  1  0.54464718  0.08892427  0.27056155  1
  O2-  O199  1  0.54104214  0.08618735  0.59201060  1
  O2-  O200  1  0.53800316  0.08637490  0.93300173  1
  O2-  O201  1  0.54043699  0.58152988  0.27293312  1
  O2-  O202  1  0.54833769  0.57737685  0.60115630  1
  O2-  O203  1  0.54808940  0.58330841  0.93988218  1
  O2-  O204  1  0.16965217  0.20903500  0.26794033  1
  O2-  O205  1  0.16280548  0.20327530  0.60382254  1
  O2-  O206  1  0.16988643  0.21050605  0.93194492  1
  O2-  O207  1  0.16974311  0.70351276  0.26565239  1
  O2-  O208  1  0.16237508  0.70094343  0.60914868  1
  O2-  O209  1  0.16587437  0.70755803  0.92902001  1
  O2-  O210  1  0.66440957  0.20870601  0.27153605  1
  O2-  O211  1  0.67002436  0.21107408  0.59699440  1
  O2-  O212  1  0.66769014  0.21213033  0.93358060  1
  O2-  O213  1  0.66638152  0.69334227  0.27082277  1
  O2-  O214  1  0.67284224  0.70645293  0.59986821  1
  O2-  O215  1  0.66998152  0.69878020  0.94575025  1
  O2-  O216  1  0.08172115  0.45888747  0.06865946  1
  O2-  O217  1  0.08243638  0.44679417  0.38959534  1
  O2-  O218  1  0.08022057  0.45300482  0.73467520  1
  O2-  O219  1  0.07613635  0.95183551  0.06479986  1
  O2-  O220  1  0.08215046  0.96150444  0.39806719  1
  O2-  O221  1  0.08592751  0.96045825  0.73709283  1
  O2-  O222  1  0.58265250  0.45752174  0.06856170  1
  O2-  O223  1  0.58104168  0.45499104  0.40417230  1
  O2-  O224  1  0.58150830  0.44212453  0.72467158  1
  O2-  O225  1  0.58467937  0.96586285  0.06996101  1
  O2-  O226  1  0.58708798  0.96092964  0.39596614  1
  O2-  O227  1  0.57628154  0.95766804  0.72653213  1
  O2-  O228  1  0.21172404  0.33441847  0.07012606  1
  O2-  O229  1  0.21135801  0.33704373  0.39552250  1
  O2-  O230  1  0.20736568  0.32841105  0.73131054  1
  O2-  O231  1  0.20942886  0.82849931  0.06699932  1
  O2-  O232  1  0.21145735  0.83243243  0.39816713  1
  O2-  O233  1  0.20741473  0.83149623  0.73287266  1
  O2-  O234  1  0.71398557  0.33469309  0.06796916  1
  O2-  O235  1  0.71205072  0.33217510  0.40425771  1
  O2-  O236  1  0.71218979  0.33670418  0.72807087  1
  O2-  O237  1  0.70701162  0.83352090  0.07081059  1
  O2-  O238  1  0.69878603  0.83289003  0.38996672  1
  O2-  O239  1  0.70884548  0.83507120  0.73424641  1
  O2-  O240  1  0.45766079  0.41366880  0.27022526  1
  O2-  O241  1  0.44822846  0.41650436  0.60307600  1
  O2-  O242  1  0.45319580  0.42015464  0.93842410  1
  O2-  O243  1  0.46088070  0.91865655  0.26489928  1
  O2-  O244  1  0.45100665  0.91907112  0.59284632  1
  O2-  O245  1  0.46215399  0.91695222  0.93289764  1
  O2-  O246  1  0.94504804  0.41582583  0.26968047  1
  O2-  O247  1  0.95953922  0.41325916  0.60084109  1
  O2-  O248  1  0.95073477  0.41674915  0.93946442  1
  O2-  O249  1  0.95058912  0.92084963  0.26483446  1
  O2-  O250  1  0.95864977  0.91385015  0.60824322  1
  O2-  O251  1  0.94467966  0.91813635  0.93592062  1
  O2-  O252  1  0.33916222  0.29442469  0.26875068  1
  O2-  O253  1  0.33468983  0.29211375  0.59984988  1
  O2-  O254  1  0.33465994  0.30090380  0.93737951  1
  O2-  O255  1  0.33588887  0.78725365  0.26244544  1
  O2-  O256  1  0.32879432  0.78602190  0.59690037  1
  O2-  O257  1  0.33554558  0.78842417  0.93159342  1
  O2-  O258  1  0.83452642  0.28911448  0.27045650  1
  O2-  O259  1  0.83978894  0.29587010  0.59865227  1
  O2-  O260  1  0.83672808  0.29318509  0.93472393  1
  O2-  O261  1  0.82870209  0.79261366  0.26374452  1
  O2-  O262  1  0.83879444  0.79380177  0.60745447  1
  O2-  O263  1  0.83130273  0.79287096  0.93470947  1
  O2-  O264  1  0.41832602  0.04080827  0.06960450  1
  O2-  O265  1  0.41843507  0.04783151  0.39708746  1
  O2-  O266  1  0.41783644  0.05050183  0.72198687  1
  O2-  O267  1  0.41493083  0.54815192  0.06664585  1
  O2-  O268  1  0.40817028  0.53787157  0.39799780  1
  O2-  O269  1  0.42083089  0.54298872  0.73573693  1
  O2-  O270  1  0.91572679  0.04752664  0.06358762  1
  O2-  O271  1  0.91305869  0.04437235  0.39467517  1
  O2-  O272  1  0.91684144  0.04064025  0.73931067  1
  O2-  O273  1  0.91434683  0.54267157  0.06771930  1
  O2-  O274  1  0.91461151  0.54359580  0.39657469  1
  O2-  O275  1  0.91226671  0.53508536  0.73777458  1
  O2-  O276  1  0.29930434  0.17135490  0.06561541  1
  O2-  O277  1  0.30018109  0.16851793  0.39819253  1
  O2-  O278  1  0.29600199  0.16462221  0.72911819  1
  O2-  O279  1  0.29293279  0.66561489  0.06322934  1
  O2-  O280  1  0.29396988  0.66281314  0.39465577  1
  O2-  O281  1  0.29317500  0.66741022  0.73779793  1
  O2-  O282  1  0.79497740  0.16595769  0.06554861  1
  O2-  O283  1  0.79095791  0.15951361  0.39705157  1
  O2-  O284  1  0.80181034  0.17479271  0.73125267  1
  O2-  O285  1  0.80127176  0.66699237  0.06738163  1
  O2-  O286  1  0.79735261  0.66625980  0.39506234  1
  O2-  O287  1  0.79453013  0.66807102  0.73748917  1
