# generated using pymatgen
data_Ca2Al2SiO7
_symmetry_space_group_name_H-M   'P 1'
_cell_length_a   15.45576486
_cell_length_b   15.45596905
_cell_length_c   15.28193102
_cell_angle_alpha   89.97840431
_cell_angle_beta   89.99042478
_cell_angle_gamma   89.98013818
_symmetry_Int_Tables_number   1
_chemical_formula_structural   Ca2Al2SiO7
_chemical_formula_sum   'Ca48 Al48 Si24 O168'
_cell_volume   3650.60558178
_cell_formula_units_Z   24
loop_
 _symmetry_equiv_pos_site_id
 _symmetry_equiv_pos_as_xyz
  1  'x, y, z'
loop_
 _atom_type_symbol
 _atom_type_oxidation_number
  Ca2+  2.0
  Al0+  0.0
  Si0+  0.0
  O2-  -2.0
loop_
 _atom_site_type_symbol
 _atom_site_label
 _atom_site_symmetry_multiplicity
 _atom_site_fract_x
 _atom_site_fract_y
 _atom_site_fract_z
 _atom_site_occupancy
  Ca2+  Ca0  1  0.16906431  0.08951912  0.16680287  1
  Ca2+  Ca1  1  0.16955938  0.07702463  0.51210466  1
  Ca2+  Ca2  1  0.17193710  0.08547671  0.83722988  1
  Ca2+  Ca3  1  0.17296955  0.58887133  0.17283456  1
  Ca2+  Ca4  1  0.17665217  0.58607424  0.50419349  1
  Ca2+  Ca5  1  0.17925614  0.58348206  0.84008336  1
  Ca2+  Ca6  1  0.67332623  0.08703081  0.17092232  1
  Ca2+  Ca7  1  0.66868215  0.08902457  0.50789344  1
  Ca2+  Ca8  1  0.67641589  0.09122737  0.83719973  1
  Ca2+  Ca9  1  0.66902125  0.58728033  0.17394120  1
  Ca2+  Ca10  1  0.66943721  0.58869809  0.49858690  1
  Ca2+  Ca11  1  0.66354630  0.58155912  0.84131294  1
  Ca2+  Ca12  1  0.07840551  0.32570132  0.15916760  1
  Ca2+  Ca13  1  0.08893562  0.31887595  0.49749531  1
  Ca2+  Ca14  1  0.08091203  0.32114088  0.83317607  1
  Ca2+  Ca15  1  0.07956574  0.82084971  0.16100668  1
  Ca2+  Ca16  1  0.08605290  0.83067533  0.49594024  1
  Ca2+  Ca17  1  0.08635634  0.83472551  0.83475795  1
  Ca2+  Ca18  1  0.57814134  0.33095616  0.16359244  1
  Ca2+  Ca19  1  0.57869536  0.32290160  0.50255776  1
  Ca2+  Ca20  1  0.57082527  0.32830748  0.82854825  1
  Ca2+  Ca21  1  0.57892219  0.82164653  0.16590813  1
  Ca2+  Ca22  1  0.56612840  0.83284009  0.49332104  1
  Ca2+  Ca23  1  0.57681627  0.82726100  0.83046829  1
  Ca2+  Ca24  1  0.33633753  0.42612879  0.16713671  1
  Ca2+  Ca25  1  0.34156333  0.42876183  0.50419575  1
  Ca2+  Ca26  1  0.34114281  0.42183975  0.84004728  1
  Ca2+  Ca27  1  0.33594318  0.92088008  0.16890795  1
  Ca2+  Ca28  1  0.32908357  0.91615316  0.51127425  1
  Ca2+  Ca29  1  0.33314276  0.92680725  0.83282821  1
  Ca2+  Ca30  1  0.83507893  0.42044172  0.17170834  1
  Ca2+  Ca31  1  0.83341311  0.42299130  0.50099480  1
  Ca2+  Ca32  1  0.83070034  0.41240509  0.83983525  1
  Ca2+  Ca33  1  0.83740756  0.91728745  0.16481259  1
  Ca2+  Ca34  1  0.82655842  0.92254823  0.50843104  1
  Ca2+  Ca35  1  0.83561218  0.92651106  0.84016652  1
  Ca2+  Ca36  1  0.41993984  0.17162022  0.15822459  1
  Ca2+  Ca37  1  0.42369517  0.16318755  0.49740168  1
  Ca2+  Ca38  1  0.41159166  0.17427048  0.82389997  1
  Ca2+  Ca39  1  0.41939042  0.66525665  0.16275147  1
  Ca2+  Ca40  1  0.41041459  0.67662474  0.49343822  1
  Ca2+  Ca41  1  0.41682782  0.66552611  0.82793260  1
  Ca2+  Ca42  1  0.92745510  0.16840084  0.15631400  1
  Ca2+  Ca43  1  0.92814228  0.15914169  0.49870790  1
  Ca2+  Ca44  1  0.92434925  0.15861252  0.83081945  1
  Ca2+  Ca45  1  0.92659074  0.66552846  0.15807362  1
  Ca2+  Ca46  1  0.92339930  0.66761684  0.48965822  1
  Ca2+  Ca47  1  0.92395679  0.67323630  0.83409149  1
  Al0+  Al48  1  0.00010639  -0.00147242  0.00034375  1
  Al0+  Al49  1  0.00097373  0.00047280  0.32953752  1
  Al0+  Al50  1  -0.00188231  -0.00192652  0.66914838  1
  Al0+  Al51  1  0.00088661  0.49894083  -0.00900565  1
  Al0+  Al52  1  0.00060207  0.49870517  0.33645400  1
  Al0+  Al53  1  0.00066603  0.50047878  0.66755346  1
  Al0+  Al54  1  0.50165493  -0.00210756  0.00580157  1
  Al0+  Al55  1  0.50114835  0.00105405  0.32441280  1
  Al0+  Al56  1  0.50006032  -0.00287778  0.66407798  1
  Al0+  Al57  1  0.50087900  0.49898075  -0.00161131  1
  Al0+  Al58  1  0.50086618  0.49964001  0.33776382  1
  Al0+  Al59  1  0.50360215  0.49898742  0.66546791  1
  Al0+  Al60  1  0.24988691  0.25191473  -0.00174305  1
  Al0+  Al61  1  0.25061836  0.25039509  0.32995746  1
  Al0+  Al62  1  0.24791559  0.25300445  0.65928039  1
  Al0+  Al63  1  0.25169470  0.75166328  0.00144279  1
  Al0+  Al64  1  0.24780890  0.75263358  0.32868553  1
  Al0+  Al65  1  0.25008433  0.74838537  0.67287671  1
  Al0+  Al66  1  0.74947597  0.25001535  0.00527786  1
  Al0+  Al67  1  0.74962669  0.25121869  0.33265181  1
  Al0+  Al68  1  0.75024866  0.25291317  0.66732984  1
  Al0+  Al69  1  0.74931285  0.74956224  -0.00779430  1
  Al0+  Al70  1  0.74756573  0.75281165  0.33752402  1
  Al0+  Al71  1  0.75204455  0.75043240  0.66781948  1
  Al0+  Al72  1  0.42860296  0.81804357  0.65529752  1
  Al0+  Al73  1  0.57071057  0.67859364  0.32029608  1
  Al0+  Al74  1  0.07150537  0.17771498  0.31883817  1
  Al0+  Al75  1  0.32203652  0.07281325  0.67821585  1
  Al0+  Al76  1  0.82064597  0.07019937  0.01634882  1
  Al0+  Al77  1  0.07101991  0.17863480  0.98395396  1
  Al0+  Al78  1  0.32156916  0.57097983  0.01455647  1
  Al0+  Al79  1  0.31971065  0.57158605  0.34708207  1
  Al0+  Al80  1  0.06932963  0.67832355  0.32194018  1
  Al0+  Al81  1  0.17811164  0.92775480  0.68246393  1
  Al0+  Al82  1  0.82138736  0.57184942  0.34537889  1
  Al0+  Al83  1  0.57106330  0.17841399  0.65448451  1
  Al0+  Al84  1  0.06880486  0.17787563  0.65234478  1
  Al0+  Al85  1  0.07491542  0.67795440  0.98315653  1
  Al0+  Al86  1  0.32110860  0.07304869  0.01398795  1
  Al0+  Al87  1  0.92615012  0.32096367  0.98547890  1
  Al0+  Al88  1  0.56885052  0.67888941  0.98639679  1
  Al0+  Al89  1  0.43066284  0.31922791  0.98789402  1
  Al0+  Al90  1  0.42583453  0.82155395  0.31616039  1
  Al0+  Al91  1  0.92906413  0.81986774  0.98451661  1
  Al0+  Al92  1  0.81838894  0.07102689  0.67941569  1
  Al0+  Al93  1  0.32152320  0.56808741  0.68058365  1
  Al0+  Al94  1  0.57202721  0.17971012  0.31780041  1
  Al0+  Al95  1  0.42669153  0.32302498  0.64993534  1
  Si0+  Si96  1  0.67906262  0.42965625  0.01613707  1
  Si0+  Si97  1  0.67741730  0.93082089  0.34929252  1
  Si0+  Si98  1  0.42807552  0.82431852  0.98222174  1
  Si0+  Si99  1  0.82322248  0.57284235  0.68378006  1
  Si0+  Si100  1  0.32230109  0.07216684  0.34651555  1
  Si0+  Si101  1  0.17879414  0.93156418  0.34674216  1
  Si0+  Si102  1  0.92843529  0.32153399  0.31861960  1
  Si0+  Si103  1  0.57184770  0.17568652  0.98541083  1
  Si0+  Si104  1  0.67698470  0.92585444  0.68398933  1
  Si0+  Si105  1  0.17771287  0.42609785  0.35076521  1
  Si0+  Si106  1  0.42842394  0.32247521  0.31604653  1
  Si0+  Si107  1  0.82127733  0.07104920  0.34811281  1
  Si0+  Si108  1  0.67845017  0.92483114  0.01891860  1
  Si0+  Si109  1  0.92744062  0.32415866  0.64798712  1
  Si0+  Si110  1  0.67788943  0.42646601  0.35293372  1
  Si0+  Si111  1  0.57475256  0.67730382  0.64926234  1
  Si0+  Si112  1  0.68179652  0.43097227  0.68329549  1
  Si0+  Si113  1  0.07012524  0.67894705  0.65151465  1
  Si0+  Si114  1  0.17830385  0.92872231  0.02004943  1
  Si0+  Si115  1  0.17532777  0.42779158  0.68392869  1
  Si0+  Si116  1  0.82116559  0.57094183  0.01199534  1
  Si0+  Si117  1  0.92840472  0.82044738  0.65002695  1
  Si0+  Si118  1  0.17669880  0.42926700  0.01644535  1
  Si0+  Si119  1  0.92617566  0.82233807  0.31910882  1
  O2-  O120  1  0.24670538  -0.00134850  0.06343856  1
  O2-  O121  1  0.25053843  0.00200083  0.38882077  1
  O2-  O122  1  0.24777797  0.00366380  0.72972849  1
  O2-  O123  1  0.24203203  0.50105081  0.06137530  1
  O2-  O124  1  0.24526468  0.49636972  0.39457684  1
  O2-  O125  1  0.24975624  0.49054319  0.72754815  1
  O2-  O126  1  0.74571443  -0.00462760  0.06354782  1
  O2-  O127  1  0.74844077  0.00250216  0.39141176  1
  O2-  O128  1  0.74097044  -0.00060840  0.72710411  1
  O2-  O129  1  0.75317601  0.49847825  0.05660797  1
  O2-  O130  1  0.74562318  0.49852654  0.39454577  1
  O2-  O131  1  0.75157961  0.50319861  0.72616464  1
  O2-  O132  1  -0.00381143  0.25259390  0.27451211  1
  O2-  O133  1  -0.00523849  0.25391817  0.60438183  1
  O2-  O134  1  -0.00551238  0.24655455  0.93463803  1
  O2-  O135  1  -0.01115808  0.74763976  0.27662198  1
  O2-  O136  1  -0.00060287  0.74976358  0.60769083  1
  O2-  O137  1  0.00352054  0.75097136  0.93324384  1
  O2-  O138  1  0.49635683  0.25307029  0.27178653  1
  O2-  O139  1  0.49313383  0.24364221  0.60270046  1
  O2-  O140  1  0.49826232  0.23802936  0.94113541  1
  O2-  O141  1  0.49497919  0.74509727  0.26870150  1
  O2-  O142  1  0.50384238  0.74405585  0.60705844  1
  O2-  O143  1  0.49338447  0.75181698  0.93895406  1
  O2-  O144  1  0.07037621  0.18227047  0.09793834  1
  O2-  O145  1  0.06948604  0.17500967  0.43199753  1
  O2-  O146  1  0.06695826  0.17763757  0.76467769  1
  O2-  O147  1  0.07153186  0.67729741  0.09721901  1
  O2-  O148  1  0.06979439  0.68230373  0.43554226  1
  O2-  O149  1  0.06738743  0.67814762  0.75604109  1
  O2-  O150  1  0.57260947  0.17992850  0.09129349  1
  O2-  O151  1  0.57262913  0.17948632  0.43075613  1
  O2-  O152  1  0.57558995  0.18370237  0.76768873  1
  O2-  O153  1  0.57089075  0.67887496  0.09920423  1
  O2-  O154  1  0.57247203  0.68398358  0.43377546  1
  O2-  O155  1  0.57644559  0.67775345  0.75499955  1
  O2-  O156  1  0.17686318  0.42552678  0.24535127  1
  O2-  O157  1  0.16963810  0.43307425  0.57831800  1
  O2-  O158  1  0.17845395  0.42867565  0.91090749  1
  O2-  O159  1  0.17649611  0.93260670  0.24211150  1
  O2-  O160  1  0.17799287  0.92679098  0.56786418  1
  O2-  O161  1  0.17953010  0.92851258  0.91465398  1
  O2-  O162  1  0.67899177  0.42386109  0.24737838  1
  O2-  O163  1  0.68372650  0.43119982  0.57817307  1
  O2-  O164  1  0.67835453  0.43072052  0.91083911  1
  O2-  O165  1  0.67971505  0.92932135  0.24454954  1
  O2-  O166  1  0.68124776  0.92220553  0.57813028  1
  O2-  O167  1  0.67786552  0.92500206  0.91332806  1
  O2-  O168  1  0.43493112  0.32116333  0.10121157  1
  O2-  O169  1  0.42868788  0.32114743  0.42146263  1
  O2-  O170  1  0.43191940  0.32555128  0.76350060  1
  O2-  O171  1  0.43052942  0.82470415  0.08779996  1
  O2-  O172  1  0.42543415  0.82288821  0.43013012  1
  O2-  O173  1  0.43103299  0.81664893  0.76822145  1
  O2-  O174  1  0.92773983  0.32211448  0.09954212  1
  O2-  O175  1  0.92751345  0.32078156  0.42432269  1
  O2-  O176  1  0.92738712  0.32611664  0.75305623  1
  O2-  O177  1  0.92817241  0.81529088  0.09871867  1
  O2-  O178  1  0.92867920  0.82474999  0.42515416  1
  O2-  O179  1  0.92526417  0.81823938  0.75433097  1
  O2-  O180  1  0.32055211  0.07233043  0.24134124  1
  O2-  O181  1  0.32170091  0.06838759  0.56386368  1
  O2-  O182  1  0.32168988  0.07246107  0.90121429  1
  O2-  O183  1  0.31939746  0.56908238  0.23410983  1
  O2-  O184  1  0.31805382  0.57113743  0.56717654  1
  O2-  O185  1  0.32356753  0.56729194  0.90139851  1
  O2-  O186  1  0.82137147  0.06923242  0.24332241  1
  O2-  O187  1  0.81877480  0.06765955  0.56546337  1
  O2-  O188  1  0.81785871  0.07075165  0.90321623  1
  O2-  O189  1  0.82200803  0.56924518  0.23220304  1
  O2-  O190  1  0.82354194  0.57307516  0.57839684  1
  O2-  O191  1  0.81755383  0.57022260  0.90662308  1
  O2-  O192  1  0.03934335  0.08267931  0.26297549  1
  O2-  O193  1  0.03477929  0.08105982  0.59902813  1
  O2-  O194  1  0.04615242  0.07863183  0.93485425  1
  O2-  O195  1  0.04345001  0.57973634  0.27001833  1
  O2-  O196  1  0.04095143  0.58750318  0.60358913  1
  O2-  O197  1  0.04599651  0.58121646  0.92815843  1
  O2-  O198  1  0.54488466  0.08422371  0.26110791  1
  O2-  O199  1  0.55216391  0.07738911  0.60244410  1
  O2-  O200  1  0.55544180  0.07867100  0.94429807  1
  O2-  O201  1  0.55074386  0.57658641  0.27174807  1
  O2-  O202  1  0.55410891  0.58272074  0.60447007  1
  O2-  O203  1  0.54000641  0.58258934  0.93121995  1
  O2-  O204  1  0.16809155  0.20848366  0.26536771  1
  O2-  O205  1  0.16415737  0.20792289  0.59512450  1
  O2-  O206  1  0.16746759  0.21188806  0.93100195  1
  O2-  O207  1  0.16160232  0.71446164  0.26472905  1
  O2-  O208  1  0.16224833  0.70736538  0.60609734  1
  O2-  O209  1  0.17357708  0.70777265  0.93196954  1
  O2-  O210  1  0.66876403  0.21198172  0.26425584  1
  O2-  O211  1  0.66729602  0.21544885  0.59956916  1
  O2-  O212  1  0.66374994  0.20784662  0.94084693  1
  O2-  O213  1  0.66870802  0.71159691  0.26774327  1
  O2-  O214  1  0.66907195  0.70463900  0.60453156  1
  O2-  O215  1  0.66402864  0.70896368  0.92906302  1
  O2-  O216  1  0.08085809  0.45181231  0.06039083  1
  O2-  O217  1  0.08382725  0.44813739  0.39825268  1
  O2-  O218  1  0.08396656  0.45852993  0.73275521  1
  O2-  O219  1  0.08407484  0.95170365  0.06607388  1
  O2-  O220  1  0.08657721  0.95924881  0.39529312  1
  O2-  O221  1  0.07824102  0.95166341  0.73361116  1
  O2-  O222  1  0.58969246  0.46142715  0.06541395  1
  O2-  O223  1  0.58483314  0.44974674  0.40079853  1
  O2-  O224  1  0.59050453  0.45841532  0.73176295  1
  O2-  O225  1  0.58511309  0.94718192  0.06706626  1
  O2-  O226  1  0.58511345  0.96049314  0.39498255  1
  O2-  O227  1  0.58196863  0.94470204  0.72827854  1
  O2-  O228  1  0.20536180  0.33733508  0.06440294  1
  O2-  O229  1  0.20628768  0.33266678  0.39717657  1
  O2-  O230  1  0.19415468  0.33154473  0.72583635  1
  O2-  O231  1  0.20549175  0.83544790  0.06685346  1
  O2-  O232  1  0.20509229  0.83947017  0.39452429  1
  O2-  O233  1  0.20830026  0.83130026  0.73755384  1
  O2-  O234  1  0.70385222  0.33828033  0.06632361  1
  O2-  O235  1  0.70852513  0.33462196  0.40131295  1
  O2-  O236  1  0.71100130  0.34085183  0.73286664  1
  O2-  O237  1  0.70868568  0.83152410  0.06391944  1
  O2-  O238  1  0.70431373  0.84069518  0.40091879  1
  O2-  O239  1  0.70872853  0.83418781  0.73186759  1
  O2-  O240  1  0.45670103  0.41580899  0.27157045  1
  O2-  O241  1  0.46701773  0.41773607  0.59545730  1
  O2-  O242  1  0.46894991  0.41212663  0.93223946  1
  O2-  O243  1  0.45962091  0.91737034  0.26159892  1
  O2-  O244  1  0.45818649  0.91355246  0.59802977  1
  O2-  O245  1  0.45918702  0.91659043  0.93621813  1
  O2-  O246  1  0.95435634  0.41486890  0.27254101  1
  O2-  O247  1  0.95438848  0.41832166  0.60203161  1
  O2-  O248  1  0.95323284  0.41775236  0.92882910  1
  O2-  O249  1  0.95768661  0.91271827  0.27023961  1
  O2-  O250  1  0.95467117  0.91181024  0.60150872  1
  O2-  O251  1  0.95536377  0.91876211  0.93297206  1
  O2-  O252  1  0.33502972  0.29843567  0.26922269  1
  O2-  O253  1  0.32591432  0.30778722  0.59734903  1
  O2-  O254  1  0.33276807  0.29655604  0.93446674  1
  O2-  O255  1  0.32749069  0.79780970  0.26226822  1
  O2-  O256  1  0.33166490  0.78569606  0.60191124  1
  O2-  O257  1  0.33309776  0.80373531  0.93909150  1
  O2-  O258  1  0.83441204  0.29863144  0.27268423  1
  O2-  O259  1  0.83340139  0.30097483  0.60224065  1
  O2-  O260  1  0.82522563  0.29626882  0.93579922  1
  O2-  O261  1  0.83038779  0.80403733  0.27622295  1
  O2-  O262  1  0.83680892  0.79137556  0.60117817  1
  O2-  O263  1  0.83279392  0.79018214  0.92795119  1
  O2-  O264  1  0.41845399  0.04240653  0.06876178  1
  O2-  O265  1  0.41580845  0.04444851  0.39020852  1
  O2-  O266  1  0.42055962  0.04315056  0.73096547  1
  O2-  O267  1  0.41712021  0.53409307  0.06774862  1
  O2-  O268  1  0.41686300  0.54217796  0.40173630  1
  O2-  O269  1  0.42134995  0.54166381  0.73074890  1
  O2-  O270  1  0.91748758  0.03863550  0.07008683  1
  O2-  O271  1  0.91300315  0.04001707  0.39463666  1
  O2-  O272  1  0.91226980  0.03512861  0.73410341  1
  O2-  O273  1  0.91492558  0.54482128  0.05646067  1
  O2-  O274  1  0.91665833  0.53940018  0.40314662  1
  O2-  O275  1  0.91477332  0.54444354  0.73086092  1
  O2-  O276  1  0.29062417  0.17015848  0.06829589  1
  O2-  O277  1  0.29689358  0.16519243  0.39252157  1
  O2-  O278  1  0.29587351  0.17437429  0.72553136  1
  O2-  O279  1  0.29668313  0.67007417  0.06661305  1
  O2-  O280  1  0.28587842  0.66942965  0.39781406  1
  O2-  O281  1  0.28759211  0.66201431  0.73690820  1
  O2-  O282  1  0.78914632  0.16648388  0.07217969  1
  O2-  O283  1  0.79568738  0.16419631  0.39400960  1
  O2-  O284  1  0.79222510  0.16958046  0.73190315  1
  O2-  O285  1  0.79133037  0.66248472  0.05811984  1
  O2-  O286  1  0.79241748  0.66901854  0.40134209  1
  O2-  O287  1  0.79651471  0.66511702  0.73083586  1
