# generated using pymatgen
data_Ca2Al2SiO7
_symmetry_space_group_name_H-M   'P 1'
_cell_length_a   15.46145189
_cell_length_b   15.46207225
_cell_length_c   15.28595879
_cell_angle_alpha   89.98229018
_cell_angle_beta   90.00116015
_cell_angle_gamma   89.96772369
_symmetry_Int_Tables_number   1
_chemical_formula_structural   Ca2Al2SiO7
_chemical_formula_sum   'Ca48 Al48 Si24 O168'
_cell_volume   3654.35358679
_cell_formula_units_Z   24
loop_
 _symmetry_equiv_pos_site_id
 _symmetry_equiv_pos_as_xyz
  1  'x, y, z'
loop_
 _atom_type_symbol
 _atom_type_oxidation_number
  Ca2+  2.0
  Al0+  0.0
  Si0+  0.0
  O2-  -2.0
loop_
 _atom_site_type_symbol
 _atom_site_label
 _atom_site_symmetry_multiplicity
 _atom_site_fract_x
 _atom_site_fract_y
 _atom_site_fract_z
 _atom_site_occupancy
  Ca2+  Ca0  1  0.16977178  0.08064358  0.17217151  1
  Ca2+  Ca1  1  0.17194285  0.08200592  0.51228097  1
  Ca2+  Ca2  1  0.17146876  0.09123535  0.83105400  1
  Ca2+  Ca3  1  0.16770292  0.58166570  0.17767403  1
  Ca2+  Ca4  1  0.16318957  0.57583211  0.50459117  1
  Ca2+  Ca5  1  0.15973715  0.58010410  0.83488397  1
  Ca2+  Ca6  1  0.67466051  0.08296807  0.17587552  1
  Ca2+  Ca7  1  0.67119486  0.08241815  0.50245375  1
  Ca2+  Ca8  1  0.67355231  0.09323665  0.83686754  1
  Ca2+  Ca9  1  0.66615769  0.58143306  0.17454076  1
  Ca2+  Ca10  1  0.66951939  0.59146687  0.50836763  1
  Ca2+  Ca11  1  0.67117368  0.58607189  0.83268332  1
  Ca2+  Ca12  1  0.07810044  0.33595181  0.16448047  1
  Ca2+  Ca13  1  0.08932492  0.33193326  0.50160432  1
  Ca2+  Ca14  1  0.07854601  0.33061461  0.82657752  1
  Ca2+  Ca15  1  0.07436105  0.82520000  0.16288974  1
  Ca2+  Ca16  1  0.07745884  0.82135672  0.49151447  1
  Ca2+  Ca17  1  0.07807791  0.82376936  0.83001592  1
  Ca2+  Ca18  1  0.58134100  0.32120759  0.15870202  1
  Ca2+  Ca19  1  0.58071034  0.32257344  0.49861069  1
  Ca2+  Ca20  1  0.57245041  0.32406958  0.82764176  1
  Ca2+  Ca21  1  0.58444328  0.83366943  0.17388438  1
  Ca2+  Ca22  1  0.58198777  0.82704298  0.49083471  1
  Ca2+  Ca23  1  0.58428680  0.82866158  0.82792534  1
  Ca2+  Ca24  1  0.32804179  0.42189751  0.17648453  1
  Ca2+  Ca25  1  0.32510294  0.41854367  0.50512160  1
  Ca2+  Ca26  1  0.33010904  0.40772779  0.83420943  1
  Ca2+  Ca27  1  0.33403376  0.91498018  0.17386511  1
  Ca2+  Ca28  1  0.33657545  0.91974894  0.50346036  1
  Ca2+  Ca29  1  0.33411563  0.92426092  0.83314638  1
  Ca2+  Ca30  1  0.83418527  0.41537028  0.16960507  1
  Ca2+  Ca31  1  0.82942317  0.42620377  0.50693591  1
  Ca2+  Ca32  1  0.83729378  0.42122948  0.83554543  1
  Ca2+  Ca33  1  0.83430564  0.92382091  0.17513471  1
  Ca2+  Ca34  1  0.83126256  0.92165327  0.50151067  1
  Ca2+  Ca35  1  0.83558372  0.92771269  0.83904070  1
  Ca2+  Ca36  1  0.43088381  0.17048191  0.16025133  1
  Ca2+  Ca37  1  0.42346516  0.16660676  0.49868496  1
  Ca2+  Ca38  1  0.42421304  0.17243690  0.82219753  1
  Ca2+  Ca39  1  0.41528243  0.66782941  0.17149446  1
  Ca2+  Ca40  1  0.42551396  0.66858794  0.49041726  1
  Ca2+  Ca41  1  0.42386921  0.66873276  0.82582881  1
  Ca2+  Ca42  1  0.91120816  0.16928799  0.15980307  1
  Ca2+  Ca43  1  0.91846372  0.15945424  0.49847474  1
  Ca2+  Ca44  1  0.91467013  0.16940388  0.82812170  1
  Ca2+  Ca45  1  0.92518255  0.67816415  0.16156984  1
  Ca2+  Ca46  1  0.92350793  0.66744399  0.49393335  1
  Ca2+  Ca47  1  0.92321450  0.66919017  0.82678975  1
  Al0+  Al48  1  0.00156161  -0.00129937  0.00163211  1
  Al0+  Al49  1  0.00228840  0.00083025  0.33332713  1
  Al0+  Al50  1  -0.00137554  0.00012832  0.66845443  1
  Al0+  Al51  1  0.00065963  0.49897160  -0.00422403  1
  Al0+  Al52  1  -0.00068752  0.49740912  0.33418010  1
  Al0+  Al53  1  -0.00053451  0.50036862  0.67141704  1
  Al0+  Al54  1  0.50192094  -0.00171282  -0.00273465  1
  Al0+  Al55  1  0.50241225  -0.00032074  0.32850852  1
  Al0+  Al56  1  0.49965585  0.00024637  0.66936303  1
  Al0+  Al57  1  0.49942161  0.49969899  -0.00186572  1
  Al0+  Al58  1  0.49868826  0.49865313  0.33441518  1
  Al0+  Al59  1  0.49877375  0.50014990  0.65986825  1
  Al0+  Al60  1  0.25006663  0.25109185  0.00256003  1
  Al0+  Al61  1  0.24929059  0.25013237  0.33539512  1
  Al0+  Al62  1  0.24798175  0.25054758  0.66816007  1
  Al0+  Al63  1  0.25126697  0.74903805  -0.00348315  1
  Al0+  Al64  1  0.25198067  0.74923056  0.33135517  1
  Al0+  Al65  1  0.24826879  0.74891743  0.66431357  1
  Al0+  Al66  1  0.75079492  0.25157107  -0.00388663  1
  Al0+  Al67  1  0.75171400  0.25057114  0.33470774  1
  Al0+  Al68  1  0.74816576  0.25207474  0.66675615  1
  Al0+  Al69  1  0.75089562  0.75157578  -0.00171348  1
  Al0+  Al70  1  0.74977800  0.75167628  0.32886566  1
  Al0+  Al71  1  0.75015641  0.75168124  0.66972547  1
  Al0+  Al72  1  0.32186672  0.57211503  0.34994755  1
  Al0+  Al73  1  0.82051953  0.07186696  0.68175783  1
  Al0+  Al74  1  0.57135879  0.68095978  0.65475019  1
  Al0+  Al75  1  0.42816314  0.32183800  0.98615980  1
  Al0+  Al76  1  0.17700468  0.42866348  0.34994040  1
  Al0+  Al77  1  0.06802766  0.17926295  0.65437294  1
  Al0+  Al78  1  0.32032441  0.06977134  0.67981989  1
  Al0+  Al79  1  0.07036578  0.67623502  0.31915588  1
  Al0+  Al80  1  0.06976673  0.67761629  0.65111055  1
  Al0+  Al81  1  0.92921163  0.82350704  0.31880512  1
  Al0+  Al82  1  0.81966194  0.57171828  0.68042210  1
  Al0+  Al83  1  0.82290885  0.07269517  0.34963448  1
  Al0+  Al84  1  0.57235100  0.17775216  0.64922877  1
  Al0+  Al85  1  0.18027029  0.43024714  0.68372761  1
  Al0+  Al86  1  0.07176726  0.67931455  0.98402827  1
  Al0+  Al87  1  0.67908167  0.92892542  0.34897410  1
  Al0+  Al88  1  0.57207459  0.67624791  0.31769017  1
  Al0+  Al89  1  0.57236492  0.18033775  0.31917684  1
  Al0+  Al90  1  0.42616791  0.32070397  0.64892074  1
  Al0+  Al91  1  0.82027327  0.07130143  0.01360896  1
  Al0+  Al92  1  0.42934885  0.82157892  0.31882733  1
  Al0+  Al93  1  0.92971847  0.32013953  0.98651428  1
  Al0+  Al94  1  0.92789876  0.82285683  0.98281220  1
  Al0+  Al95  1  0.57120779  0.17756113  0.98412062  1
  Si0+  Si96  1  0.32192418  0.07107525  0.01575298  1
  Si0+  Si97  1  0.18209311  0.92725684  0.01538287  1
  Si0+  Si98  1  0.82211402  0.57150971  0.01595111  1
  Si0+  Si99  1  0.57120716  0.67801874  0.98565139  1
  Si0+  Si100  1  0.67840611  0.42777723  0.34706249  1
  Si0+  Si101  1  0.67921236  0.43176731  0.01418721  1
  Si0+  Si102  1  0.42696141  0.82230808  0.65182166  1
  Si0+  Si103  1  0.92728027  0.32294786  0.64937506  1
  Si0+  Si104  1  0.67792653  0.92880879  0.68482910  1
  Si0+  Si105  1  0.92822015  0.82260517  0.64989507  1
  Si0+  Si106  1  0.32145831  0.07028676  0.34620418  1
  Si0+  Si107  1  0.17968164  0.92870511  0.34749453  1
  Si0+  Si108  1  0.42620177  0.32001410  0.31659406  1
  Si0+  Si109  1  0.32272423  0.57295973  0.68433250  1
  Si0+  Si110  1  0.07335354  0.17676160  0.98551317  1
  Si0+  Si111  1  0.17846435  0.42926690  0.01603463  1
  Si0+  Si112  1  0.67679638  0.92542973  0.01857755  1
  Si0+  Si113  1  0.81910159  0.57056307  0.34514170  1
  Si0+  Si114  1  0.42848223  0.82056256  0.98371617  1
  Si0+  Si115  1  0.67543902  0.42899745  0.68404775  1
  Si0+  Si116  1  0.17682455  0.92604765  0.68388115  1
  Si0+  Si117  1  0.07336158  0.17860245  0.31894961  1
  Si0+  Si118  1  0.32220335  0.57175303  0.01456016  1
  Si0+  Si119  1  0.92947847  0.31966959  0.32005752  1
  O2-  O120  1  0.25135870  0.00006896  0.05899150  1
  O2-  O121  1  0.25184225  -0.00147961  0.38926944  1
  O2-  O122  1  0.24570428  -0.00499034  0.72824904  1
  O2-  O123  1  0.25030257  0.50069671  0.05580177  1
  O2-  O124  1  0.24752548  0.50225038  0.39927646  1
  O2-  O125  1  0.25518373  0.50484830  0.73140457  1
  O2-  O126  1  0.74544989  -0.00398351  0.05946240  1
  O2-  O127  1  0.75160821  0.00003611  0.39907839  1
  O2-  O128  1  0.74303409  0.00055719  0.72933026  1
  O2-  O129  1  0.75003942  0.50202459  0.05907806  1
  O2-  O130  1  0.74287468  0.50533819  0.38809347  1
  O2-  O131  1  0.74407367  0.49801777  0.72838856  1
  O2-  O132  1  0.00021723  0.24784257  0.27813817  1
  O2-  O133  1  -0.00807414  0.25089702  0.60464278  1
  O2-  O134  1  0.00198935  0.24254066  0.94204324  1
  O2-  O135  1  0.00006288  0.74967630  0.26955051  1
  O2-  O136  1  -0.00414699  0.75307725  0.60564486  1
  O2-  O137  1  -0.00234307  0.74863326  0.93336099  1
  O2-  O138  1  0.49760564  0.25488528  0.27196478  1
  O2-  O139  1  0.49874409  0.24866741  0.60002532  1
  O2-  O140  1  0.49504967  0.24586859  0.93581157  1
  O2-  O141  1  0.49914977  0.74748632  0.26754165  1
  O2-  O142  1  0.49491735  0.75317862  0.60876680  1
  O2-  O143  1  0.50194448  0.75107020  0.94371418  1
  O2-  O144  1  0.07613560  0.17866235  0.09150452  1
  O2-  O145  1  0.07562365  0.17767170  0.42370519  1
  O2-  O146  1  0.06766733  0.18141963  0.76773424  1
  O2-  O147  1  0.07224509  0.68029539  0.09745713  1
  O2-  O148  1  0.06633369  0.67611073  0.43270355  1
  O2-  O149  1  0.06880790  0.67976682  0.76417037  1
  O2-  O150  1  0.57097679  0.17972955  0.09808311  1
  O2-  O151  1  0.57124365  0.18163011  0.43175960  1
  O2-  O152  1  0.57133993  0.17993252  0.76277828  1
  O2-  O153  1  0.57011443  0.67517755  0.09012827  1
  O2-  O154  1  0.57253617  0.67839927  0.43101866  1
  O2-  O155  1  0.57008232  0.68315949  0.76884057  1
  O2-  O156  1  0.17783777  0.42675612  0.23558782  1
  O2-  O157  1  0.17921229  0.43131342  0.57111009  1
  O2-  O158  1  0.17806766  0.42781399  0.91130659  1
  O2-  O159  1  0.17940463  0.93225122  0.24191913  1
  O2-  O160  1  0.17760011  0.92666374  0.57817700  1
  O2-  O161  1  0.18502586  0.92639875  0.91044115  1
  O2-  O162  1  0.68199771  0.42591662  0.24150237  1
  O2-  O163  1  0.67810612  0.42875100  0.57812011  1
  O2-  O164  1  0.67847658  0.43570542  0.90943468  1
  O2-  O165  1  0.67933754  0.93207730  0.23514601  1
  O2-  O166  1  0.67891572  0.92577661  0.57974812  1
  O2-  O167  1  0.67512103  0.92199149  0.91304498  1
  O2-  O168  1  0.43047314  0.32197232  0.09997515  1
  O2-  O169  1  0.42451699  0.31655297  0.42169656  1
  O2-  O170  1  0.42812864  0.31880149  0.76282922  1
  O2-  O171  1  0.42525880  0.82060407  0.08811668  1
  O2-  O172  1  0.43033769  0.82345465  0.43219722  1
  O2-  O173  1  0.42741854  0.82133077  0.75819603  1
  O2-  O174  1  0.93168609  0.32226551  0.10012806  1
  O2-  O175  1  0.92790484  0.32182134  0.42474405  1
  O2-  O176  1  0.92958359  0.32283894  0.75515942  1
  O2-  O177  1  0.93011426  0.82183830  0.09615662  1
  O2-  O178  1  0.93186264  0.82243000  0.43254499  1
  O2-  O179  1  0.92979739  0.82196204  0.75558610  1
  O2-  O180  1  0.31777291  0.07097052  0.24054472  1
  O2-  O181  1  0.31933613  0.06668978  0.56633840  1
  O2-  O182  1  0.32002163  0.07059631  0.91082155  1
  O2-  O183  1  0.32139584  0.56843244  0.23520533  1
  O2-  O184  1  0.32133341  0.57363397  0.57938180  1
  O2-  O185  1  0.32420624  0.57349043  0.90971064  1
  O2-  O186  1  0.82184838  0.07516416  0.23573681  1
  O2-  O187  1  0.82261290  0.06807123  0.56927881  1
  O2-  O188  1  0.81932109  0.07124335  0.90054622  1
  O2-  O189  1  0.82046986  0.56573305  0.23976248  1
  O2-  O190  1  0.81857026  0.57039934  0.56677733  1
  O2-  O191  1  0.82030718  0.57067999  0.91087568  1
  O2-  O192  1  0.04923998  0.08673347  0.27008569  1
  O2-  O193  1  0.04162064  0.08112462  0.60080373  1
  O2-  O194  1  0.05404767  0.08178121  0.94120146  1
  O2-  O195  1  0.04007256  0.57793907  0.26651349  1
  O2-  O196  1  0.03596152  0.58117919  0.59997726  1
  O2-  O197  1  0.04402624  0.58069273  0.93238410  1
  O2-  O198  1  0.54106402  0.08534732  0.26376882  1
  O2-  O199  1  0.54357647  0.07788798  0.60026856  1
  O2-  O200  1  0.54739273  0.07744948  0.93273130  1
  O2-  O201  1  0.54506899  0.57631304  0.26544311  1
  O2-  O202  1  0.54609015  0.58399956  0.60042907  1
  O2-  O203  1  0.54141462  0.58800574  0.93627052  1
  O2-  O204  1  0.16388023  0.20792820  0.26876975  1
  O2-  O205  1  0.16378701  0.21069574  0.60038849  1
  O2-  O206  1  0.16584748  0.20614313  0.93936998  1
  O2-  O207  1  0.16953230  0.70338065  0.26853883  1
  O2-  O208  1  0.16720019  0.70676550  0.59838834  1
  O2-  O209  1  0.16988775  0.70909066  0.93054268  1
  O2-  O210  1  0.66870083  0.21455588  0.26621473  1
  O2-  O211  1  0.67018527  0.20939698  0.59696804  1
  O2-  O212  1  0.66709769  0.21215028  0.93161198  1
  O2-  O213  1  0.66954135  0.70436105  0.26268286  1
  O2-  O214  1  0.66790440  0.71281555  0.60204179  1
  O2-  O215  1  0.66348176  0.70431908  0.93859442  1
  O2-  O216  1  0.08631244  0.45761280  0.06312391  1
  O2-  O217  1  0.07745921  0.45357054  0.40280363  1
  O2-  O218  1  0.08361868  0.46118377  0.73814434  1
  O2-  O219  1  0.09045565  0.95383241  0.06358477  1
  O2-  O220  1  0.08981233  0.95848540  0.39669835  1
  O2-  O221  1  0.08416077  0.95247707  0.73078607  1
  O2-  O222  1  0.58765005  0.46004077  0.06286174  1
  O2-  O223  1  0.58439219  0.44678386  0.39277889  1
  O2-  O224  1  0.58161634  0.45585245  0.72882650  1
  O2-  O225  1  0.58163992  0.94911016  0.06335550  1
  O2-  O226  1  0.57981637  0.95753864  0.40023639  1
  O2-  O227  1  0.58284799  0.94909992  0.73084960  1
  O2-  O228  1  0.20443997  0.33722139  0.06535159  1
  O2-  O229  1  0.20680690  0.32966516  0.40201352  1
  O2-  O230  1  0.20921739  0.33340980  0.73837358  1
  O2-  O231  1  0.21360034  0.83643844  0.06305286  1
  O2-  O232  1  0.20596447  0.83670382  0.39428977  1
  O2-  O233  1  0.20412601  0.83289017  0.73086138  1
  O2-  O234  1  0.70867674  0.34026575  0.06118491  1
  O2-  O235  1  0.71422070  0.34063293  0.39775936  1
  O2-  O236  1  0.70185954  0.33638377  0.73137284  1
  O2-  O237  1  0.70249968  0.83149574  0.06494038  1
  O2-  O238  1  0.70553229  0.82867223  0.39995118  1
  O2-  O239  1  0.70710257  0.83725402  0.73426107  1
  O2-  O240  1  0.44885262  0.41490422  0.27295713  1
  O2-  O241  1  0.45346758  0.41912973  0.59620749  1
  O2-  O242  1  0.45861676  0.41908083  0.93183955  1
  O2-  O243  1  0.45836750  0.91830919  0.26163601  1
  O2-  O244  1  0.45214064  0.91584096  0.60704186  1
  O2-  O245  1  0.45477366  0.91233141  0.93528738  1
  O2-  O246  1  0.95779171  0.41001463  0.26960813  1
  O2-  O247  1  0.95696184  0.41533472  0.60398747  1
  O2-  O248  1  0.96172876  0.41496616  0.93045262  1
  O2-  O249  1  0.96189362  0.92087547  0.26517200  1
  O2-  O250  1  0.95495057  0.91540192  0.60422297  1
  O2-  O251  1  0.96059547  0.92050498  0.93086958  1
  O2-  O252  1  0.33358204  0.29128951  0.26923299  1
  O2-  O253  1  0.32793035  0.29116558  0.59815833  1
  O2-  O254  1  0.32766069  0.29657765  0.93657654  1
  O2-  O255  1  0.33096344  0.79558348  0.26337815  1
  O2-  O256  1  0.33283438  0.79968159  0.60632324  1
  O2-  O257  1  0.33901281  0.79080013  0.93333483  1
  O2-  O258  1  0.83859747  0.29305496  0.27001127  1
  O2-  O259  1  0.83174592  0.30369377  0.60561809  1
  O2-  O260  1  0.83332633  0.29481487  0.93057543  1
  O2-  O261  1  0.83151229  0.79691945  0.26499888  1
  O2-  O262  1  0.83412965  0.79719611  0.60622015  1
  O2-  O263  1  0.82851296  0.79658230  0.93068863  1
  O2-  O264  1  0.41439538  0.04163440  0.06113136  1
  O2-  O265  1  0.41359180  0.04311985  0.39160909  1
  O2-  O266  1  0.41558575  0.03825048  0.73721403  1
  O2-  O267  1  0.41380862  0.54342229  0.06268184  1
  O2-  O268  1  0.42054242  0.54280218  0.40257876  1
  O2-  O269  1  0.41788581  0.54840120  0.72869386  1
  O2-  O270  1  0.91939588  0.04394403  0.06603463  1
  O2-  O271  1  0.92328323  0.04577299  0.39979184  1
  O2-  O272  1  0.91690530  0.04004660  0.73680044  1
  O2-  O273  1  0.91355932  0.54037383  0.06202082  1
  O2-  O274  1  0.90796954  0.53639976  0.39430497  1
  O2-  O275  1  0.91379255  0.53816309  0.73722070  1
  O2-  O276  1  0.29363876  0.16243957  0.06454247  1
  O2-  O277  1  0.29185517  0.16091222  0.39404158  1
  O2-  O278  1  0.28661536  0.16457591  0.73507544  1
  O2-  O279  1  0.29460174  0.66399831  0.06174507  1
  O2-  O280  1  0.29983212  0.67303428  0.40009532  1
  O2-  O281  1  0.29768797  0.66763429  0.73008414  1
  O2-  O282  1  0.79103087  0.17015513  0.06546897  1
  O2-  O283  1  0.79486443  0.17146591  0.40230408  1
  O2-  O284  1  0.79302949  0.17127350  0.73285692  1
  O2-  O285  1  0.79458594  0.66416353  0.06179469  1
  O2-  O286  1  0.79704214  0.66397461  0.39074989  1
  O2-  O287  1  0.78906635  0.66771171  0.73657950  1
