# generated using pymatgen
data_Ca2Al2SiO7
_symmetry_space_group_name_H-M   'P 1'
_cell_length_a   15.45591760
_cell_length_b   15.45703233
_cell_length_c   15.28294956
_cell_angle_alpha   90.00836680
_cell_angle_beta   90.00682318
_cell_angle_gamma   90.00255737
_symmetry_Int_Tables_number   1
_chemical_formula_structural   Ca2Al2SiO7
_chemical_formula_sum   'Ca48 Al48 Si24 O168'
_cell_volume   3651.13659215
_cell_formula_units_Z   24
loop_
 _symmetry_equiv_pos_site_id
 _symmetry_equiv_pos_as_xyz
  1  'x, y, z'
loop_
 _atom_type_symbol
 _atom_type_oxidation_number
  Ca2+  2.0
  Al0+  0.0
  Si0+  0.0
  O2-  -2.0
loop_
 _atom_site_type_symbol
 _atom_site_label
 _atom_site_symmetry_multiplicity
 _atom_site_fract_x
 _atom_site_fract_y
 _atom_site_fract_z
 _atom_site_occupancy
  Ca2+  Ca0  1  0.17292819  0.07371984  0.17635709  1
  Ca2+  Ca1  1  0.17381404  0.08430146  0.50409382  1
  Ca2+  Ca2  1  0.16691925  0.07977551  0.83592138  1
  Ca2+  Ca3  1  0.17367393  0.57674608  0.17055743  1
  Ca2+  Ca4  1  0.17355614  0.58039579  0.50361349  1
  Ca2+  Ca5  1  0.16272017  0.56736030  0.83755603  1
  Ca2+  Ca6  1  0.67210188  0.08493336  0.17035794  1
  Ca2+  Ca7  1  0.65959105  0.07091059  0.50588399  1
  Ca2+  Ca8  1  0.66863539  0.08731898  0.83589764  1
  Ca2+  Ca9  1  0.66124746  0.57700356  0.17675215  1
  Ca2+  Ca10  1  0.66855810  0.57726471  0.50218084  1
  Ca2+  Ca11  1  0.67367992  0.58285166  0.83360192  1
  Ca2+  Ca12  1  0.08373591  0.32719156  0.16556641  1
  Ca2+  Ca13  1  0.07929561  0.32725789  0.49654586  1
  Ca2+  Ca14  1  0.08352061  0.32850397  0.81998789  1
  Ca2+  Ca15  1  0.08414605  0.83729376  0.15899783  1
  Ca2+  Ca16  1  0.08691199  0.83842471  0.49552719  1
  Ca2+  Ca17  1  0.07937124  0.84295462  0.83188164  1
  Ca2+  Ca18  1  0.57711907  0.33008087  0.15817060  1
  Ca2+  Ca19  1  0.58787588  0.32587151  0.49533636  1
  Ca2+  Ca20  1  0.57757713  0.32055399  0.83073146  1
  Ca2+  Ca21  1  0.57046096  0.83846346  0.16743832  1
  Ca2+  Ca22  1  0.58017397  0.83112765  0.48902061  1
  Ca2+  Ca23  1  0.57565176  0.84116262  0.82931819  1
  Ca2+  Ca24  1  0.33387135  0.41858896  0.17064598  1
  Ca2+  Ca25  1  0.33019792  0.42382240  0.50394350  1
  Ca2+  Ca26  1  0.32228815  0.40819683  0.83786231  1
  Ca2+  Ca27  1  0.32852495  0.91547907  0.17593707  1
  Ca2+  Ca28  1  0.32668617  0.92508033  0.50315216  1
  Ca2+  Ca29  1  0.32456490  0.92150550  0.83631398  1
  Ca2+  Ca30  1  0.82570567  0.41534894  0.17561362  1
  Ca2+  Ca31  1  0.83663565  0.41662582  0.50287220  1
  Ca2+  Ca32  1  0.84163799  0.42185006  0.83369184  1
  Ca2+  Ca33  1  0.83105007  0.92224457  0.16875252  1
  Ca2+  Ca34  1  0.81879582  0.91416265  0.50441213  1
  Ca2+  Ca35  1  0.82818504  0.92437227  0.84169994  1
  Ca2+  Ca36  1  0.42210386  0.16721837  0.16032678  1
  Ca2+  Ca37  1  0.41598937  0.15916417  0.49911273  1
  Ca2+  Ca38  1  0.42368524  0.16259474  0.82877078  1
  Ca2+  Ca39  1  0.41623180  0.67439285  0.16730461  1
  Ca2+  Ca40  1  0.41987758  0.67394078  0.48615105  1
  Ca2+  Ca41  1  0.41403023  0.67506886  0.83342385  1
  Ca2+  Ca42  1  0.92022425  0.16598933  0.16534524  1
  Ca2+  Ca43  1  0.93069102  0.17319471  0.49358408  1
  Ca2+  Ca44  1  0.92227005  0.17086950  0.82353314  1
  Ca2+  Ca45  1  0.91878012  0.67696113  0.16149434  1
  Ca2+  Ca46  1  0.91703068  0.66472396  0.49866671  1
  Ca2+  Ca47  1  0.91493098  0.67241349  0.82871638  1
  Al0+  Al48  1  -0.00168530  0.00026273  0.00382585  1
  Al0+  Al49  1  -0.00005649  0.00062107  0.33284343  1
  Al0+  Al50  1  -0.00219005  0.00021230  0.66215828  1
  Al0+  Al51  1  0.00067159  0.50063197  0.00786152  1
  Al0+  Al52  1  -0.00121171  0.50030978  0.32727747  1
  Al0+  Al53  1  -0.00028063  0.50319743  0.67002140  1
  Al0+  Al54  1  0.50091312  -0.00187301  -0.00840352  1
  Al0+  Al55  1  0.49982082  -0.00020534  0.33477029  1
  Al0+  Al56  1  0.49797739  -0.00041975  0.67016282  1
  Al0+  Al57  1  0.49970968  0.49989465  -0.00717116  1
  Al0+  Al58  1  0.50141194  0.49930080  0.33987562  1
  Al0+  Al59  1  0.50177344  0.50120678  0.66940901  1
  Al0+  Al60  1  0.24884359  0.24895751  0.00303349  1
  Al0+  Al61  1  0.24963597  0.24893996  0.33224987  1
  Al0+  Al62  1  0.25235222  0.25066051  0.66931845  1
  Al0+  Al63  1  0.25012549  0.74668034  -0.00294560  1
  Al0+  Al64  1  0.24951383  0.74862331  0.33639746  1
  Al0+  Al65  1  0.24898319  0.75147422  0.66990121  1
  Al0+  Al66  1  0.75148418  0.25077113  0.00017178  1
  Al0+  Al67  1  0.75132691  0.25106974  0.33473983  1
  Al0+  Al68  1  0.74744667  0.25007365  0.65770177  1
  Al0+  Al69  1  0.75111482  0.75083483  -0.00295957  1
  Al0+  Al70  1  0.75108320  0.74814374  0.33197875  1
  Al0+  Al71  1  0.74852464  0.74919738  0.67499388  1
  Al0+  Al72  1  0.17588061  0.92865133  0.68310809  1
  Al0+  Al73  1  0.81979566  0.56897487  0.68066849  1
  Al0+  Al74  1  0.17856576  0.42638319  0.01622699  1
  Al0+  Al75  1  0.18142464  0.43172281  0.67743489  1
  Al0+  Al76  1  0.18023841  0.92904991  0.01349233  1
  Al0+  Al77  1  0.32013029  0.07141964  0.68430767  1
  Al0+  Al78  1  0.32202983  0.07253817  0.34713230  1
  Al0+  Al79  1  0.07332306  0.17744714  0.65152212  1
  Al0+  Al80  1  0.57230981  0.67715803  0.31981715  1
  Al0+  Al81  1  0.81978413  0.07231603  0.01327634  1
  Al0+  Al82  1  0.07276007  0.17804990  0.31516027  1
  Al0+  Al83  1  0.32103937  0.56968965  0.34602672  1
  Al0+  Al84  1  0.56856330  0.17836205  0.65008097  1
  Al0+  Al85  1  0.92950578  0.32444886  0.65208667  1
  Al0+  Al86  1  0.93019962  0.82188156  0.98575152  1
  Al0+  Al87  1  0.68086507  0.92957148  0.34409017  1
  Al0+  Al88  1  0.42749714  0.81993756  0.98443683  1
  Al0+  Al89  1  0.92887861  0.32145272  0.31524440  1
  Al0+  Al90  1  0.57295106  0.17915621  0.98568264  1
  Al0+  Al91  1  0.67865019  0.92891102  0.68186357  1
  Al0+  Al92  1  0.67913921  0.42798414  0.34678116  1
  Al0+  Al93  1  0.42656143  0.32156695  0.98490074  1
  Al0+  Al94  1  0.42857436  0.82153979  0.31987590  1
  Al0+  Al95  1  0.17729925  0.92786901  0.34768386  1
  Si0+  Si96  1  0.06925115  0.17936697  0.98601344  1
  Si0+  Si97  1  0.82326497  0.57190744  0.34852123  1
  Si0+  Si98  1  0.82111349  0.57306995  0.01729257  1
  Si0+  Si99  1  0.92655878  0.82055206  0.65179362  1
  Si0+  Si100  1  0.82236687  0.07302510  0.35202406  1
  Si0+  Si101  1  0.68015600  0.43122147  0.01263668  1
  Si0+  Si102  1  0.42839313  0.81899497  0.65094901  1
  Si0+  Si103  1  0.32454857  0.57397098  0.68470532  1
  Si0+  Si104  1  0.07080561  0.67648082  0.98260974  1
  Si0+  Si105  1  0.17676340  0.42847388  0.34933752  1
  Si0+  Si106  1  0.67680640  0.42511962  0.68545450  1
  Si0+  Si107  1  0.57100218  0.17796920  0.31936603  1
  Si0+  Si108  1  0.57301073  0.67694137  0.98116274  1
  Si0+  Si109  1  0.92966045  0.32274343  0.98585317  1
  Si0+  Si110  1  0.42963777  0.32182803  0.32127017  1
  Si0+  Si111  1  0.67695979  0.92684524  0.01722822  1
  Si0+  Si112  1  0.92822026  0.82062839  0.31952514  1
  Si0+  Si113  1  0.82009476  0.07250799  0.67988463  1
  Si0+  Si114  1  0.32408127  0.07019720  0.01650315  1
  Si0+  Si115  1  0.57237866  0.67932400  0.65211572  1
  Si0+  Si116  1  0.42849472  0.32441654  0.64857113  1
  Si0+  Si117  1  0.07028715  0.68043401  0.65253802  1
  Si0+  Si118  1  0.07181748  0.67865438  0.31813019  1
  Si0+  Si119  1  0.32335221  0.57037949  0.01608715  1
  O2-  O120  1  0.25847155  -0.00094837  0.06104289  1
  O2-  O121  1  0.24809573  0.00153525  0.39585957  1
  O2-  O122  1  0.24420319  0.00316550  0.73389540  1
  O2-  O123  1  0.25706320  0.49898049  0.05993339  1
  O2-  O124  1  0.24593689  0.49615539  0.39378724  1
  O2-  O125  1  0.25836693  0.50286029  0.72784948  1
  O2-  O126  1  0.74323327  -0.00143897  0.05985777  1
  O2-  O127  1  0.75338183  0.00412478  0.39508856  1
  O2-  O128  1  0.75244583  0.00477263  0.72734095  1
  O2-  O129  1  0.74817492  0.50386944  0.05780884  1
  O2-  O130  1  0.75552692  0.50219730  0.39159537  1
  O2-  O131  1  0.74876836  0.49123862  0.72905626  1
  O2-  O132  1  0.00010717  0.24966126  0.26420766  1
  O2-  O133  1  0.00110703  0.25131083  0.60372303  1
  O2-  O134  1  0.00253384  0.25459690  0.94326151  1
  O2-  O135  1  0.00358674  0.75344899  0.27773164  1
  O2-  O136  1  0.00202877  0.75404186  0.60942542  1
  O2-  O137  1  0.00520181  0.74779826  0.93773363  1
  O2-  O138  1  0.49950889  0.24942991  0.27863508  1
  O2-  O139  1  0.49652003  0.25590729  0.60311743  1
  O2-  O140  1  0.49638227  0.24686166  0.93600035  1
  O2-  O141  1  0.50170900  0.74995807  0.26955005  1
  O2-  O142  1  0.49810102  0.74598038  0.60962108  1
  O2-  O143  1  0.50569801  0.74739680  0.93780633  1
  O2-  O144  1  0.06768892  0.17984423  0.09076492  1
  O2-  O145  1  0.07267222  0.18053904  0.42849872  1
  O2-  O146  1  0.06969058  0.17813662  0.76606894  1
  O2-  O147  1  0.06861144  0.67569543  0.08848280  1
  O2-  O148  1  0.06954854  0.67493395  0.42340977  1
  O2-  O149  1  0.06764767  0.67788811  0.75744607  1
  O2-  O150  1  0.57398247  0.18250579  0.09990460  1
  O2-  O151  1  0.57068173  0.17776755  0.42436499  1
  O2-  O152  1  0.56955740  0.18030643  0.76304617  1
  O2-  O153  1  0.57293299  0.67325732  0.08629111  1
  O2-  O154  1  0.57210446  0.67861146  0.43383990  1
  O2-  O155  1  0.57240429  0.67996469  0.75743571  1
  O2-  O156  1  0.17831385  0.43069086  0.24354961  1
  O2-  O157  1  0.18219474  0.43663275  0.56439419  1
  O2-  O158  1  0.17472838  0.42908288  0.90303638  1
  O2-  O159  1  0.17882409  0.92679510  0.23375447  1
  O2-  O160  1  0.18024048  0.92373748  0.57027716  1
  O2-  O161  1  0.17817790  0.93373663  0.90080561  1
  O2-  O162  1  0.67802637  0.42928046  0.23293671  1
  O2-  O163  1  0.67365085  0.42875187  0.58011004  1
  O2-  O164  1  0.68357882  0.43227260  0.90769214  1
  O2-  O165  1  0.68231730  0.93222528  0.23102725  1
  O2-  O166  1  0.67992508  0.92566191  0.56850991  1
  O2-  O167  1  0.67975658  0.92540394  0.91153751  1
  O2-  O168  1  0.43121108  0.32407125  0.09914266  1
  O2-  O169  1  0.43096131  0.32327491  0.42626202  1
  O2-  O170  1  0.43038366  0.32528601  0.75403315  1
  O2-  O171  1  0.42734718  0.81895589  0.09726575  1
  O2-  O172  1  0.43022946  0.81995679  0.43364737  1
  O2-  O173  1  0.42892635  0.81638020  0.75639640  1
  O2-  O174  1  0.92787943  0.32202300  0.09051577  1
  O2-  O175  1  0.93165662  0.32320406  0.42852470  1
  O2-  O176  1  0.93201361  0.32401816  0.76666695  1
  O2-  O177  1  0.92958276  0.81907238  0.09918437  1
  O2-  O178  1  0.92501659  0.81670560  0.42477996  1
  O2-  O179  1  0.92585157  0.81873194  0.75684082  1
  O2-  O180  1  0.32418663  0.07201688  0.23324188  1
  O2-  O181  1  0.32204008  0.06761202  0.57098514  1
  O2-  O182  1  0.32146783  0.07083026  0.91115237  1
  O2-  O183  1  0.31946775  0.56805774  0.23279652  1
  O2-  O184  1  0.32387677  0.57483385  0.57902290  1
  O2-  O185  1  0.32128163  0.57146156  0.91038878  1
  O2-  O186  1  0.82090043  0.07219619  0.24594120  1
  O2-  O187  1  0.81898322  0.06790924  0.57453324  1
  O2-  O188  1  0.82056899  0.07231613  0.90000392  1
  O2-  O189  1  0.82338263  0.57296871  0.24277828  1
  O2-  O190  1  0.81776233  0.57174523  0.56777337  1
  O2-  O191  1  0.82256895  0.57180798  0.91210104  1
  O2-  O192  1  0.04249500  0.07912252  0.26314850  1
  O2-  O193  1  0.04318337  0.08006907  0.59668612  1
  O2-  O194  1  0.03661753  0.08935980  0.93901637  1
  O2-  O195  1  0.04140956  0.58932434  0.26673900  1
  O2-  O196  1  0.03860414  0.59128551  0.60256001  1
  O2-  O197  1  0.03866596  0.58375766  0.93747373  1
  O2-  O198  1  0.54415781  0.08715725  0.27032467  1
  O2-  O199  1  0.53531158  0.08102401  0.59843287  1
  O2-  O200  1  0.55139158  0.07963304  0.93249475  1
  O2-  O201  1  0.54116422  0.57856610  0.26833459  1
  O2-  O202  1  0.54976433  0.58485054  0.60697262  1
  O2-  O203  1  0.54679618  0.58505853  0.93104069  1
  O2-  O204  1  0.17106791  0.20730699  0.26151271  1
  O2-  O205  1  0.17257939  0.20673840  0.60165805  1
  O2-  O206  1  0.16272111  0.20312783  0.94055931  1
  O2-  O207  1  0.16379823  0.70320288  0.27024625  1
  O2-  O208  1  0.16369048  0.70496913  0.60593176  1
  O2-  O209  1  0.16560961  0.69474265  0.93706726  1
  O2-  O210  1  0.66335324  0.20626010  0.27358583  1
  O2-  O211  1  0.66463870  0.20612688  0.59331501  1
  O2-  O212  1  0.66954484  0.21386671  0.93152996  1
  O2-  O213  1  0.67194869  0.70087582  0.26676714  1
  O2-  O214  1  0.66375148  0.70985273  0.60603647  1
  O2-  O215  1  0.66757539  0.70136209  0.93587225  1
  O2-  O216  1  0.08435551  0.46203686  0.07305529  1
  O2-  O217  1  0.08300151  0.45754320  0.39252864  1
  O2-  O218  1  0.08677035  0.46623336  0.73344552  1
  O2-  O219  1  0.08408400  0.96078986  0.06741160  1
  O2-  O220  1  0.07700607  0.95221671  0.39891977  1
  O2-  O221  1  0.07392486  0.95275991  0.73109658  1
  O2-  O222  1  0.58643853  0.45741828  0.05746515  1
  O2-  O223  1  0.58553798  0.45895117  0.40559865  1
  O2-  O224  1  0.58511126  0.45548442  0.73385106  1
  O2-  O225  1  0.58133554  0.94965669  0.05962662  1
  O2-  O226  1  0.58479496  0.95875606  0.39916548  1
  O2-  O227  1  0.58270100  0.95956336  0.73539637  1
  O2-  O228  1  0.20640714  0.32974788  0.07133642  1
  O2-  O229  1  0.20179131  0.33482756  0.39351391  1
  O2-  O230  1  0.20941263  0.33547224  0.73303046  1
  O2-  O231  1  0.20505471  0.82799927  0.06187353  1
  O2-  O232  1  0.20336162  0.82908389  0.40060928  1
  O2-  O233  1  0.20549368  0.83021675  0.73722159  1
  O2-  O234  1  0.70978242  0.34083832  0.06116406  1
  O2-  O235  1  0.70968627  0.33219425  0.40234323  1
  O2-  O236  1  0.69929365  0.32977791  0.72808687  1
  O2-  O237  1  0.70581192  0.83352417  0.06221973  1
  O2-  O238  1  0.71316362  0.83258058  0.39772679  1
  O2-  O239  1  0.71001671  0.83422074  0.73869087  1
  O2-  O240  1  0.46034339  0.41241608  0.27344102  1
  O2-  O241  1  0.45448951  0.41974396  0.60454466  1
  O2-  O242  1  0.45556068  0.41868776  0.92893797  1
  O2-  O243  1  0.45905221  0.91905920  0.26551652  1
  O2-  O244  1  0.45818891  0.91037108  0.60612014  1
  O2-  O245  1  0.45702774  0.91520137  0.92732432  1
  O2-  O246  1  0.95426033  0.42087768  0.26126068  1
  O2-  O247  1  0.95846478  0.42371252  0.60082791  1
  O2-  O248  1  0.95557511  0.41715987  0.94230501  1
  O2-  O249  1  0.95048557  0.91381103  0.27305252  1
  O2-  O250  1  0.94735257  0.91275210  0.60273495  1
  O2-  O251  1  0.96009017  0.91881036  0.93216001  1
  O2-  O252  1  0.33721528  0.29810661  0.27336667  1
  O2-  O253  1  0.33449709  0.30120599  0.60330987  1
  O2-  O254  1  0.32632889  0.29510922  0.93495781  1
  O2-  O255  1  0.33054731  0.78923148  0.26790716  1
  O2-  O256  1  0.33568393  0.79170728  0.60504550  1
  O2-  O257  1  0.33279883  0.78477666  0.92824581  1
  O2-  O258  1  0.82917577  0.29274120  0.26370730  1
  O2-  O259  1  0.82978699  0.30076845  0.60019728  1
  O2-  O260  1  0.83867900  0.29509081  0.93737877  1
  O2-  O261  1  0.83975380  0.78803097  0.26818464  1
  O2-  O262  1  0.83596286  0.78523143  0.60588190  1
  O2-  O263  1  0.83403697  0.79006701  0.93064875  1
  O2-  O264  1  0.42039236  0.04728537  0.05811946  1
  O2-  O265  1  0.41964086  0.04366528  0.40117284  1
  O2-  O266  1  0.41587364  0.03677504  0.73876586  1
  O2-  O267  1  0.41867718  0.54699019  0.05977353  1
  O2-  O268  1  0.41559278  0.53907200  0.40358071  1
  O2-  O269  1  0.41955833  0.55259930  0.73027804  1
  O2-  O270  1  0.91342918  0.03780168  0.07065995  1
  O2-  O271  1  0.91573934  0.04650003  0.39666505  1
  O2-  O272  1  0.91365529  0.04720396  0.72591283  1
  O2-  O273  1  0.91163462  0.54521162  0.06675592  1
  O2-  O274  1  0.91740840  0.54660695  0.39444547  1
  O2-  O275  1  0.91632100  0.54326111  0.73789926  1
  O2-  O276  1  0.29729232  0.16329994  0.06274435  1
  O2-  O277  1  0.29554534  0.17169643  0.40055007  1
  O2-  O278  1  0.29978515  0.17203194  0.73593530  1
  O2-  O279  1  0.29414260  0.66233106  0.06321062  1
  O2-  O280  1  0.28881859  0.66424871  0.40266779  1
  O2-  O281  1  0.29533587  0.66595811  0.73141744  1
  O2-  O282  1  0.79025803  0.16894423  0.06916708  1
  O2-  O283  1  0.79797151  0.16668089  0.39694562  1
  O2-  O284  1  0.79443161  0.16735877  0.72361320  1
  O2-  O285  1  0.79495559  0.66608326  0.06311523  1
  O2-  O286  1  0.79826491  0.66458103  0.39646303  1
  O2-  O287  1  0.78524744  0.66256801  0.73924838  1
