# generated using pymatgen
data_Ca2Al2SiO7
_symmetry_space_group_name_H-M   'P 1'
_cell_length_a   15.45614836
_cell_length_b   15.45549762
_cell_length_c   15.28217394
_cell_angle_alpha   89.99372386
_cell_angle_beta   89.99241088
_cell_angle_gamma   89.99950013
_symmetry_Int_Tables_number   1
_chemical_formula_structural   Ca2Al2SiO7
_chemical_formula_sum   'Ca48 Al48 Si24 O168'
_cell_volume   3650.64331765
_cell_formula_units_Z   24
loop_
 _symmetry_equiv_pos_site_id
 _symmetry_equiv_pos_as_xyz
  1  'x, y, z'
loop_
 _atom_type_symbol
 _atom_type_oxidation_number
  Ca2+  2.0
  Al0+  0.0
  Si0+  0.0
  O2-  -2.0
loop_
 _atom_site_type_symbol
 _atom_site_label
 _atom_site_symmetry_multiplicity
 _atom_site_fract_x
 _atom_site_fract_y
 _atom_site_fract_z
 _atom_site_occupancy
  Ca2+  Ca0  1  0.17411752  0.09207953  0.16996844  1
  Ca2+  Ca1  1  0.17897618  0.08902924  0.50196492  1
  Ca2+  Ca2  1  0.17823513  0.08503548  0.83963763  1
  Ca2+  Ca3  1  0.17988510  0.57836920  0.17601340  1
  Ca2+  Ca4  1  0.16658593  0.57163026  0.50326933  1
  Ca2+  Ca5  1  0.17203484  0.57636456  0.83809712  1
  Ca2+  Ca6  1  0.66853125  0.07972758  0.16974874  1
  Ca2+  Ca7  1  0.66137133  0.07578957  0.50451467  1
  Ca2+  Ca8  1  0.66984632  0.08678339  0.84035730  1
  Ca2+  Ca9  1  0.67148032  0.58348725  0.17627683  1
  Ca2+  Ca10  1  0.67212246  0.58627113  0.50590254  1
  Ca2+  Ca11  1  0.66329586  0.58196543  0.83019926  1
  Ca2+  Ca12  1  0.08464117  0.32753534  0.16877008  1
  Ca2+  Ca13  1  0.08379905  0.33510787  0.48982345  1
  Ca2+  Ca14  1  0.08914543  0.32819376  0.83132135  1
  Ca2+  Ca15  1  0.07750223  0.83233235  0.15975572  1
  Ca2+  Ca16  1  0.07581550  0.83302877  0.49838150  1
  Ca2+  Ca17  1  0.07034610  0.83700046  0.83006669  1
  Ca2+  Ca18  1  0.57497072  0.32668240  0.15597507  1
  Ca2+  Ca19  1  0.59008913  0.32746227  0.49951375  1
  Ca2+  Ca20  1  0.57966382  0.32466903  0.82925029  1
  Ca2+  Ca21  1  0.58268920  0.83146272  0.17349452  1
  Ca2+  Ca22  1  0.57598660  0.82551944  0.49485396  1
  Ca2+  Ca23  1  0.57637632  0.82585092  0.82195471  1
  Ca2+  Ca24  1  0.33434891  0.42391251  0.17239989  1
  Ca2+  Ca25  1  0.32224974  0.41753461  0.50183805  1
  Ca2+  Ca26  1  0.33342858  0.41919887  0.83858491  1
  Ca2+  Ca27  1  0.33894871  0.92900466  0.17392158  1
  Ca2+  Ca28  1  0.34460525  0.92374573  0.50208824  1
  Ca2+  Ca29  1  0.34058588  0.92596387  0.83504051  1
  Ca2+  Ca30  1  0.83390489  0.42074927  0.17576002  1
  Ca2+  Ca31  1  0.83264468  0.42721016  0.50724082  1
  Ca2+  Ca32  1  0.82505675  0.41924825  0.83146750  1
  Ca2+  Ca33  1  0.83009352  0.92084970  0.16903324  1
  Ca2+  Ca34  1  0.82540594  0.91242180  0.50336962  1
  Ca2+  Ca35  1  0.83404114  0.91832977  0.84127437  1
  Ca2+  Ca36  1  0.41634476  0.17032606  0.15796694  1
  Ca2+  Ca37  1  0.41774357  0.16169063  0.49832990  1
  Ca2+  Ca38  1  0.42357901  0.16353392  0.82940025  1
  Ca2+  Ca39  1  0.41698033  0.66421722  0.16420327  1
  Ca2+  Ca40  1  0.42441862  0.67194510  0.48882501  1
  Ca2+  Ca41  1  0.41866970  0.67144076  0.82395757  1
  Ca2+  Ca42  1  0.92716686  0.16743107  0.16096236  1
  Ca2+  Ca43  1  0.92681322  0.17919847  0.48787082  1
  Ca2+  Ca44  1  0.92404510  0.16065996  0.83157007  1
  Ca2+  Ca45  1  0.91530935  0.67079536  0.16413575  1
  Ca2+  Ca46  1  0.90871786  0.66624185  0.49741281  1
  Ca2+  Ca47  1  0.91137359  0.67747238  0.82630670  1
  Al0+  Al48  1  -0.00135571  0.00035003  -0.00372991  1
  Al0+  Al49  1  0.00147102  0.00126615  0.32959139  1
  Al0+  Al50  1  0.00166059  -0.00022704  0.65904611  1
  Al0+  Al51  1  -0.00069696  0.49970762  0.00001894  1
  Al0+  Al52  1  -0.00113937  0.50137721  0.33511676  1
  Al0+  Al53  1  -0.00021736  0.50055368  0.67903616  1
  Al0+  Al54  1  0.50089457  -0.00224093  0.00164398  1
  Al0+  Al55  1  0.50128163  -0.00186836  0.33690594  1
  Al0+  Al56  1  0.50145449  0.00085260  0.66530961  1
  Al0+  Al57  1  0.50000647  0.49912437  -0.00020311  1
  Al0+  Al58  1  0.50208600  0.49932863  0.33381406  1
  Al0+  Al59  1  0.49946787  0.49741485  0.66564234  1
  Al0+  Al60  1  0.24836240  0.25086637  -0.00411982  1
  Al0+  Al61  1  0.25143509  0.24932268  0.33746559  1
  Al0+  Al62  1  0.25202118  0.24896492  0.67550073  1
  Al0+  Al63  1  0.24945558  0.74845283  0.00241985  1
  Al0+  Al64  1  0.24984983  0.75371331  0.33282394  1
  Al0+  Al65  1  0.24559123  0.75215449  0.66269622  1
  Al0+  Al66  1  0.75104467  0.24983907  0.00238862  1
  Al0+  Al67  1  0.75197936  0.24996416  0.32782404  1
  Al0+  Al68  1  0.75108820  0.25048669  0.66538356  1
  Al0+  Al69  1  0.74903814  0.74972433  -0.00333106  1
  Al0+  Al70  1  0.74759627  0.75074745  0.33650825  1
  Al0+  Al71  1  0.74903969  0.75137702  0.66438072  1
  Al0+  Al72  1  0.57236386  0.18072274  0.65196506  1
  Al0+  Al73  1  0.81938533  0.57040844  0.34579636  1
  Al0+  Al74  1  0.18107954  0.43068104  0.34671425  1
  Al0+  Al75  1  0.92887373  0.32405053  0.31825931  1
  Al0+  Al76  1  0.57144571  0.17676745  0.98626178  1
  Al0+  Al77  1  0.67717591  0.42604001  0.68227311  1
  Al0+  Al78  1  0.57074182  0.67798138  0.31661936  1
  Al0+  Al79  1  0.81879103  0.57318180  0.68498583  1
  Al0+  Al80  1  0.06959543  0.18051036  0.98399304  1
  Al0+  Al81  1  0.32423526  0.57402167  0.34946946  1
  Al0+  Al82  1  0.42848014  0.32193698  0.98466162  1
  Al0+  Al83  1  0.17928798  0.42895755  0.68330425  1
  Al0+  Al84  1  0.07331770  0.17961859  0.31832387  1
  Al0+  Al85  1  0.42635247  0.82178214  0.65208781  1
  Al0+  Al86  1  0.32130237  0.07011820  0.01368200  1
  Al0+  Al87  1  0.92932342  0.81875217  0.98755194  1
  Al0+  Al88  1  0.68173459  0.93184821  0.34840203  1
  Al0+  Al89  1  0.42802571  0.82187882  0.31572744  1
  Al0+  Al90  1  0.82174679  0.07115505  0.01347965  1
  Al0+  Al91  1  0.32143892  0.06728728  0.68246707  1
  Al0+  Al92  1  0.32153926  0.57075672  0.01302267  1
  Al0+  Al93  1  0.56888602  0.67629363  0.65105007  1
  Al0+  Al94  1  0.32001626  0.06970678  0.34691872  1
  Al0+  Al95  1  0.92893099  0.82140765  0.65088492  1
  Si0+  Si96  1  0.17726477  0.92850903  0.01534133  1
  Si0+  Si97  1  0.92668051  0.32482834  0.98085250  1
  Si0+  Si98  1  0.17628681  0.42783939  0.01826506  1
  Si0+  Si99  1  0.92769819  0.82091074  0.31821620  1
  Si0+  Si100  1  0.67771486  0.42455228  0.34813684  1
  Si0+  Si101  1  0.57174588  0.17719379  0.31867752  1
  Si0+  Si102  1  0.68053446  0.93113880  0.68258806  1
  Si0+  Si103  1  0.07115020  0.67930471  0.31906501  1
  Si0+  Si104  1  0.07311156  0.67672648  0.98366566  1
  Si0+  Si105  1  0.43002016  0.31973986  0.32079275  1
  Si0+  Si106  1  0.57083274  0.67859746  0.98485833  1
  Si0+  Si107  1  0.42609004  0.32037533  0.64875862  1
  Si0+  Si108  1  0.06979950  0.67559164  0.65034623  1
  Si0+  Si109  1  0.93059854  0.32147727  0.65416942  1
  Si0+  Si110  1  0.07321684  0.18060945  0.65150401  1
  Si0+  Si111  1  0.67964640  0.42928310  0.01578778  1
  Si0+  Si112  1  0.67826565  0.92534520  0.01660580  1
  Si0+  Si113  1  0.17382522  0.92777327  0.68359813  1
  Si0+  Si114  1  0.42736788  0.82019500  0.98602655  1
  Si0+  Si115  1  0.82328237  0.07086217  0.67866347  1
  Si0+  Si116  1  0.32104777  0.57392607  0.68070993  1
  Si0+  Si117  1  0.17403364  0.92709735  0.35004094  1
  Si0+  Si118  1  0.82453991  0.07350266  0.35006660  1
  Si0+  Si119  1  0.81963187  0.57227869  0.01496716  1
  O2-  O120  1  0.24677669  -0.00476842  0.06085592  1
  O2-  O121  1  0.24452645  -0.00525115  0.39262332  1
  O2-  O122  1  0.24765175  -0.00946728  0.72789895  1
  O2-  O123  1  0.24633592  0.49639254  0.05987310  1
  O2-  O124  1  0.25092158  0.50348834  0.39910797  1
  O2-  O125  1  0.25403558  0.50489103  0.72756397  1
  O2-  O126  1  0.74457088  -0.00205050  0.05873120  1
  O2-  O127  1  0.75589804  0.00677645  0.39680198  1
  O2-  O128  1  0.75303849  0.00076566  0.72406176  1
  O2-  O129  1  0.75151421  0.49954735  0.05808659  1
  O2-  O130  1  0.74647163  0.49357593  0.39096554  1
  O2-  O131  1  0.74470816  0.50217555  0.73372634  1
  O2-  O132  1  -0.00139617  0.24947106  0.26889807  1
  O2-  O133  1  0.00381710  0.25348644  0.61057595  1
  O2-  O134  1  -0.00493383  0.25577818  0.93648076  1
  O2-  O135  1  0.00120153  0.75214276  0.27647983  1
  O2-  O136  1  0.00070123  0.74357058  0.60490891  1
  O2-  O137  1  0.00345751  0.74426444  0.93939704  1
  O2-  O138  1  0.50359935  0.25123134  0.27813841  1
  O2-  O139  1  0.49856332  0.25574570  0.60397717  1
  O2-  O140  1  0.49741554  0.24618890  0.93544721  1
  O2-  O141  1  0.49441179  0.74465556  0.26470820  1
  O2-  O142  1  0.49170307  0.74356666  0.60280013  1
  O2-  O143  1  0.49747273  0.74797219  0.94434808  1
  O2-  O144  1  0.06966639  0.18150302  0.09664304  1
  O2-  O145  1  0.07260936  0.18141652  0.43252135  1
  O2-  O146  1  0.07069891  0.17865144  0.75672381  1
  O2-  O147  1  0.07211198  0.67773763  0.08949765  1
  O2-  O148  1  0.06926650  0.67922700  0.42407967  1
  O2-  O149  1  0.07042435  0.67775458  0.75607797  1
  O2-  O150  1  0.57103052  0.17912869  0.10037588  1
  O2-  O151  1  0.57220352  0.17791302  0.42392414  1
  O2-  O152  1  0.57266552  0.17917408  0.76476597  1
  O2-  O153  1  0.57451948  0.67876353  0.08953351  1
  O2-  O154  1  0.57342857  0.68071455  0.42946833  1
  O2-  O155  1  0.56818787  0.68031258  0.76588241  1
  O2-  O156  1  0.18330083  0.43114843  0.23317179  1
  O2-  O157  1  0.17792287  0.42856032  0.57041620  1
  O2-  O158  1  0.17507501  0.43093370  0.91246860  1
  O2-  O159  1  0.17023628  0.92659683  0.24444587  1
  O2-  O160  1  0.16750745  0.93197440  0.57852559  1
  O2-  O161  1  0.17777249  0.92879917  0.90964298  1
  O2-  O162  1  0.67793401  0.42458093  0.24207065  1
  O2-  O163  1  0.68473656  0.42145745  0.56905715  1
  O2-  O164  1  0.67968354  0.43032335  0.91097403  1
  O2-  O165  1  0.68391373  0.93303665  0.23487603  1
  O2-  O166  1  0.68112599  0.93239014  0.57753572  1
  O2-  O167  1  0.67957449  0.92164453  0.91095622  1
  O2-  O168  1  0.43177770  0.32288561  0.09897113  1
  O2-  O169  1  0.42939258  0.31801372  0.42582377  1
  O2-  O170  1  0.42520744  0.31783764  0.75430127  1
  O2-  O171  1  0.42754087  0.82102054  0.09060210  1
  O2-  O172  1  0.43300751  0.82368454  0.42883199  1
  O2-  O173  1  0.43047988  0.82165403  0.76680257  1
  O2-  O174  1  0.92782101  0.32741325  0.08615930  1
  O2-  O175  1  0.92957344  0.32353451  0.43245357  1
  O2-  O176  1  0.92964021  0.31730013  0.75934614  1
  O2-  O177  1  0.92918514  0.81619066  0.10100068  1
  O2-  O178  1  0.92845062  0.82041169  0.42328138  1
  O2-  O179  1  0.93064073  0.82382223  0.76413248  1
  O2-  O180  1  0.32022709  0.07135206  0.23368071  1
  O2-  O181  1  0.31956447  0.06909995  0.56939233  1
  O2-  O182  1  0.32232192  0.06656225  0.90066817  1
  O2-  O183  1  0.32223852  0.57002411  0.23546331  1
  O2-  O184  1  0.31810351  0.57251315  0.57557829  1
  O2-  O185  1  0.31987918  0.57257433  0.89968112  1
  O2-  O186  1  0.82361872  0.07093900  0.24441038  1
  O2-  O187  1  0.82268532  0.06960273  0.57371015  1
  O2-  O188  1  0.82226084  0.06785378  0.89967615  1
  O2-  O189  1  0.81849685  0.57135580  0.23181969  1
  O2-  O190  1  0.82075016  0.57076702  0.57144820  1
  O2-  O191  1  0.81730224  0.57412304  0.91043323  1
  O2-  O192  1  0.04712419  0.08057544  0.26442262  1
  O2-  O193  1  0.04488884  0.09020662  0.60228751  1
  O2-  O194  1  0.03745035  0.08446871  0.92920625  1
  O2-  O195  1  0.04102638  0.58941805  0.26979058  1
  O2-  O196  1  0.04338174  0.58082066  0.60742156  1
  O2-  O197  1  0.04800518  0.58272666  0.93824177  1
  O2-  O198  1  0.54155652  0.08659861  0.27197581  1
  O2-  O199  1  0.53983498  0.08487078  0.59806334  1
  O2-  O200  1  0.54758345  0.07616341  0.93496207  1
  O2-  O201  1  0.54938466  0.57669831  0.26502967  1
  O2-  O202  1  0.55007291  0.57473010  0.60084690  1
  O2-  O203  1  0.54449419  0.58657686  0.93800804  1
  O2-  O204  1  0.17122168  0.21131229  0.26608856  1
  O2-  O205  1  0.16617455  0.20871342  0.60776552  1
  O2-  O206  1  0.16518596  0.21084644  0.92783748  1
  O2-  O207  1  0.16266707  0.70623076  0.27047248  1
  O2-  O208  1  0.16219354  0.70083832  0.60168740  1
  O2-  O209  1  0.16627252  0.70270882  0.93666977  1
  O2-  O210  1  0.66474132  0.20072627  0.27105853  1
  O2-  O211  1  0.66961285  0.20936322  0.59678424  1
  O2-  O212  1  0.67058525  0.20704516  0.93538786  1
  O2-  O213  1  0.66777669  0.71422488  0.26330651  1
  O2-  O214  1  0.66594061  0.71060202  0.60004148  1
  O2-  O215  1  0.66094325  0.70864061  0.93523826  1
  O2-  O216  1  0.08219487  0.45388348  0.06384716  1
  O2-  O217  1  0.08254868  0.45958032  0.39927085  1
  O2-  O218  1  0.08457495  0.45831737  0.74184960  1
  O2-  O219  1  0.08356478  0.95445887  0.06062431  1
  O2-  O220  1  0.08068283  0.95361767  0.39752981  1
  O2-  O221  1  0.08239354  0.96048415  0.73162923  1
  O2-  O222  1  0.58852374  0.45839809  0.06352366  1
  O2-  O223  1  0.58443281  0.44724635  0.39509875  1
  O2-  O224  1  0.57628781  0.44841541  0.73387180  1
  O2-  O225  1  0.58471868  0.94810122  0.06358788  1
  O2-  O226  1  0.58672250  0.96336931  0.40410002  1
  O2-  O227  1  0.58986170  0.96041897  0.73073639  1
  O2-  O228  1  0.20017777  0.33345125  0.06165804  1
  O2-  O229  1  0.21116332  0.33379050  0.40177412  1
  O2-  O230  1  0.21164854  0.33385547  0.73906040  1
  O2-  O231  1  0.19930433  0.83354129  0.06070305  1
  O2-  O232  1  0.19604828  0.83332376  0.39701564  1
  O2-  O233  1  0.19061581  0.83117261  0.72741490  1
  O2-  O234  1  0.70623025  0.33774551  0.06417352  1
  O2-  O235  1  0.70321604  0.33017775  0.39314693  1
  O2-  O236  1  0.71276685  0.32970674  0.73732825  1
  O2-  O237  1  0.70916533  0.83355384  0.06428438  1
  O2-  O238  1  0.71408707  0.83672424  0.40347584  1
  O2-  O239  1  0.70737775  0.83923083  0.72978690  1
  O2-  O240  1  0.45569573  0.41187106  0.27277833  1
  O2-  O241  1  0.44512915  0.41570913  0.60430570  1
  O2-  O242  1  0.46122813  0.41894551  0.93029906  1
  O2-  O243  1  0.46610024  0.91839328  0.26314701  1
  O2-  O244  1  0.46350780  0.91721262  0.59962157  1
  O2-  O245  1  0.45751637  0.91085976  0.93793798  1
  O2-  O246  1  0.95769208  0.42212268  0.26443714  1
  O2-  O247  1  0.95691696  0.41576259  0.61194794  1
  O2-  O248  1  0.95164367  0.41893739  0.93427151  1
  O2-  O249  1  0.95325416  0.91356943  0.27107139  1
  O2-  O250  1  0.96211922  0.91607327  0.59353283  1
  O2-  O251  1  0.95992844  0.91421085  0.93169863  1
  O2-  O252  1  0.33979592  0.28932248  0.27266292  1
  O2-  O253  1  0.33371442  0.28831541  0.60349812  1
  O2-  O254  1  0.32849084  0.30056749  0.93341049  1
  O2-  O255  1  0.32574565  0.80478032  0.26563233  1
  O2-  O256  1  0.32351109  0.80666073  0.60309114  1
  O2-  O257  1  0.33480803  0.79393410  0.93893868  1
  O2-  O258  1  0.83046489  0.29727507  0.26293190  1
  O2-  O259  1  0.84075308  0.29223436  0.60453857  1
  O2-  O260  1  0.83259582  0.29912639  0.93670831  1
  O2-  O261  1  0.83728325  0.79016555  0.27095294  1
  O2-  O262  1  0.83194215  0.79307350  0.59765767  1
  O2-  O263  1  0.83326994  0.78773295  0.93178861  1
  O2-  O264  1  0.41815420  0.03915562  0.06769724  1
  O2-  O265  1  0.41620754  0.03829936  0.40121002  1
  O2-  O266  1  0.41881242  0.03673132  0.73570283  1
  O2-  O267  1  0.41846177  0.54034332  0.06707351  1
  O2-  O268  1  0.42278316  0.54424043  0.40036457  1
  O2-  O269  1  0.41525801  0.54959552  0.72606326  1
  O2-  O270  1  0.91686402  0.03610365  0.06794994  1
  O2-  O271  1  0.91879411  0.04819475  0.39473518  1
  O2-  O272  1  0.91592557  0.04202799  0.72449042  1
  O2-  O273  1  0.91346461  0.54769872  0.06055977  1
  O2-  O274  1  0.91597440  0.54335316  0.40108540  1
  O2-  O275  1  0.91574305  0.54447337  0.74090650  1
  O2-  O276  1  0.28992414  0.16845358  0.06367826  1
  O2-  O277  1  0.28985368  0.16479574  0.40404315  1
  O2-  O278  1  0.28922321  0.16227478  0.73821357  1
  O2-  O279  1  0.29080791  0.66700497  0.06874694  1
  O2-  O280  1  0.29759296  0.67458944  0.39757573  1
  O2-  O281  1  0.29408607  0.66826886  0.72589401  1
  O2-  O282  1  0.79542669  0.16860726  0.06837285  1
  O2-  O283  1  0.80042026  0.16870063  0.39341052  1
  O2-  O284  1  0.79704941  0.16255342  0.72639515  1
  O2-  O285  1  0.78939694  0.66342099  0.06271553  1
  O2-  O286  1  0.78794808  0.66597811  0.40053023  1
  O2-  O287  1  0.79021473  0.67290465  0.73607003  1
