# generated using pymatgen
data_Ca2Al2SiO7
_symmetry_space_group_name_H-M   'P 1'
_cell_length_a   15.46309548
_cell_length_b   15.46191146
_cell_length_c   15.28595179
_cell_angle_alpha   90.01083713
_cell_angle_beta   90.00813234
_cell_angle_gamma   89.98903005
_symmetry_Int_Tables_number   1
_chemical_formula_structural   Ca2Al2SiO7
_chemical_formula_sum   'Ca48 Al48 Si24 O168'
_cell_volume   3654.70296130
_cell_formula_units_Z   24
loop_
 _symmetry_equiv_pos_site_id
 _symmetry_equiv_pos_as_xyz
  1  'x, y, z'
loop_
 _atom_type_symbol
 _atom_type_oxidation_number
  Ca2+  2.0
  Al0+  0.0
  Si0+  0.0
  O2-  -2.0
loop_
 _atom_site_type_symbol
 _atom_site_label
 _atom_site_symmetry_multiplicity
 _atom_site_fract_x
 _atom_site_fract_y
 _atom_site_fract_z
 _atom_site_occupancy
  Ca2+  Ca0  1  0.16666337  0.07376153  0.17277939  1
  Ca2+  Ca1  1  0.16708639  0.08467532  0.49669812  1
  Ca2+  Ca2  1  0.16449758  0.08253997  0.84090411  1
  Ca2+  Ca3  1  0.16825299  0.57546575  0.17940818  1
  Ca2+  Ca4  1  0.16703134  0.57812040  0.49982886  1
  Ca2+  Ca5  1  0.16261560  0.56747848  0.83812883  1
  Ca2+  Ca6  1  0.67078908  0.08003668  0.17098828  1
  Ca2+  Ca7  1  0.66551238  0.08539674  0.50163259  1
  Ca2+  Ca8  1  0.67828031  0.07413387  0.84576355  1
  Ca2+  Ca9  1  0.66180027  0.58407562  0.17348295  1
  Ca2+  Ca10  1  0.66101349  0.58128259  0.49732742  1
  Ca2+  Ca11  1  0.66639510  0.58604097  0.83905904  1
  Ca2+  Ca12  1  0.09763369  0.32292107  0.16419188  1
  Ca2+  Ca13  1  0.08932968  0.32829331  0.49574028  1
  Ca2+  Ca14  1  0.08556420  0.32312567  0.82519842  1
  Ca2+  Ca15  1  0.08871935  0.83134710  0.16195734  1
  Ca2+  Ca16  1  0.07843804  0.83266129  0.49072587  1
  Ca2+  Ca17  1  0.07218672  0.84361781  0.83247210  1
  Ca2+  Ca18  1  0.58594564  0.32970558  0.16811790  1
  Ca2+  Ca19  1  0.57732187  0.33113791  0.49081988  1
  Ca2+  Ca20  1  0.57474609  0.33108109  0.82662107  1
  Ca2+  Ca21  1  0.57106180  0.82724303  0.15876853  1
  Ca2+  Ca22  1  0.56943707  0.82800010  0.49042395  1
  Ca2+  Ca23  1  0.57667597  0.83454387  0.83309279  1
  Ca2+  Ca24  1  0.32397975  0.42540084  0.17488418  1
  Ca2+  Ca25  1  0.32539849  0.41936763  0.50310694  1
  Ca2+  Ca26  1  0.32327107  0.41149513  0.83641469  1
  Ca2+  Ca27  1  0.32741334  0.91516488  0.17529442  1
  Ca2+  Ca28  1  0.33259988  0.91612258  0.49859264  1
  Ca2+  Ca29  1  0.32990090  0.91508039  0.83951569  1
  Ca2+  Ca30  1  0.82592466  0.41944192  0.17503768  1
  Ca2+  Ca31  1  0.82927855  0.41267097  0.50287390  1
  Ca2+  Ca32  1  0.83656276  0.41678418  0.83531281  1
  Ca2+  Ca33  1  0.83209647  0.91684072  0.16334500  1
  Ca2+  Ca34  1  0.83231915  0.91590487  0.50571802  1
  Ca2+  Ca35  1  0.83385855  0.91895348  0.84712255  1
  Ca2+  Ca36  1  0.41780777  0.16087586  0.16989347  1
  Ca2+  Ca37  1  0.41615010  0.17200908  0.49176230  1
  Ca2+  Ca38  1  0.41701774  0.17226949  0.82722560  1
  Ca2+  Ca39  1  0.41864122  0.67207109  0.16445112  1
  Ca2+  Ca40  1  0.41279351  0.67537614  0.48932310  1
  Ca2+  Ca41  1  0.41818590  0.67836477  0.83307714  1
  Ca2+  Ca42  1  0.92802701  0.16489632  0.16146094  1
  Ca2+  Ca43  1  0.93126021  0.17201246  0.49773639  1
  Ca2+  Ca44  1  0.92889253  0.16507970  0.82972170  1
  Ca2+  Ca45  1  0.92456969  0.67179743  0.16458780  1
  Ca2+  Ca46  1  0.92358815  0.67122623  0.49657535  1
  Ca2+  Ca47  1  0.91634417  0.67997068  0.83160783  1
  Al0+  Al48  1  0.00221643  0.00137074  0.00119965  1
  Al0+  Al49  1  -0.00215778  0.00375891  0.33382984  1
  Al0+  Al50  1  -0.00029606  0.00059923  0.65792808  1
  Al0+  Al51  1  -0.00175550  0.49799194  0.00582071  1
  Al0+  Al52  1  -0.00351775  0.50201994  0.33421540  1
  Al0+  Al53  1  -0.00230898  0.49984292  0.67018558  1
  Al0+  Al54  1  0.50153484  0.00017345  -0.00162458  1
  Al0+  Al55  1  0.50060127  0.00156900  0.32995814  1
  Al0+  Al56  1  0.50015487  -0.00210863  0.66560988  1
  Al0+  Al57  1  0.49993134  0.49981006  -0.00504687  1
  Al0+  Al58  1  0.49927752  0.50034527  0.33827369  1
  Al0+  Al59  1  0.49995849  0.49979082  0.66577594  1
  Al0+  Al60  1  0.25085467  0.24957016  -0.00012188  1
  Al0+  Al61  1  0.25007476  0.24881269  0.33445779  1
  Al0+  Al62  1  0.25287273  0.24890043  0.66323246  1
  Al0+  Al63  1  0.25147572  0.74718679  -0.00348314  1
  Al0+  Al64  1  0.24583344  0.74996404  0.33342227  1
  Al0+  Al65  1  0.25047385  0.74975521  0.66672458  1
  Al0+  Al66  1  0.75142776  0.25051782  0.00289976  1
  Al0+  Al67  1  0.74931794  0.25092889  0.33432178  1
  Al0+  Al68  1  0.75254206  0.24853218  0.66782953  1
  Al0+  Al69  1  0.75085524  0.74892916  -0.00185010  1
  Al0+  Al70  1  0.74894402  0.75087209  0.33226133  1
  Al0+  Al71  1  0.74966134  0.74900064  0.66316103  1
  Al0+  Al72  1  0.92825747  0.32290398  0.65231836  1
  Al0+  Al73  1  0.42685991  0.82317641  0.98334213  1
  Al0+  Al74  1  0.42675282  0.82162524  0.31763897  1
  Al0+  Al75  1  0.57232078  0.18015852  0.31931306  1
  Al0+  Al76  1  0.67933219  0.42935296  0.34743604  1
  Al0+  Al77  1  0.32296010  0.06918621  0.34849844  1
  Al0+  Al78  1  0.18093976  0.92839405  0.01048141  1
  Al0+  Al79  1  0.43019480  0.32121922  0.65239956  1
  Al0+  Al80  1  0.93338774  0.81928334  0.98899168  1
  Al0+  Al81  1  0.82271139  0.07178737  0.01634554  1
  Al0+  Al82  1  0.17861718  0.42817000  0.01427839  1
  Al0+  Al83  1  0.17636787  0.92916566  0.34881368  1
  Al0+  Al84  1  0.07291330  0.17936245  0.64982093  1
  Al0+  Al85  1  0.07105395  0.18106253  0.98717768  1
  Al0+  Al86  1  0.06870225  0.67955873  0.32071910  1
  Al0+  Al87  1  0.57053027  0.67789507  0.31889132  1
  Al0+  Al88  1  0.57110741  0.67815986  0.98366073  1
  Al0+  Al89  1  0.17685405  0.42860662  0.34921542  1
  Al0+  Al90  1  0.18008475  0.42872710  0.68127407  1
  Al0+  Al91  1  0.32036195  0.57230098  0.34810873  1
  Al0+  Al92  1  0.07174410  0.18119055  0.31668443  1
  Al0+  Al93  1  0.42807326  0.82097262  0.65120420  1
  Al0+  Al94  1  0.67858845  0.92695646  0.01621865  1
  Al0+  Al95  1  0.92872295  0.82090063  0.65313181  1
  Si0+  Si96  1  0.67888487  0.42776100  0.68293503  1
  Si0+  Si97  1  0.81939078  0.57226301  0.68347420  1
  Si0+  Si98  1  0.17775882  0.92907366  0.68068766  1
  Si0+  Si99  1  0.82064948  0.57451335  0.35207854  1
  Si0+  Si100  1  0.92557064  0.32333722  0.98462135  1
  Si0+  Si101  1  0.32378925  0.07313631  0.01438885  1
  Si0+  Si102  1  0.92724907  0.32216701  0.31642668  1
  Si0+  Si103  1  0.67983264  0.92922637  0.34902632  1
  Si0+  Si104  1  0.82040088  0.57108820  0.01573659  1
  Si0+  Si105  1  0.32278402  0.56958336  0.01474968  1
  Si0+  Si106  1  0.67955441  0.92831106  0.68081416  1
  Si0+  Si107  1  0.32232804  0.06957705  0.68152332  1
  Si0+  Si108  1  0.43130746  0.31952079  0.98582670  1
  Si0+  Si109  1  0.57239312  0.17808014  0.65279964  1
  Si0+  Si110  1  0.82207849  0.06946303  0.68163867  1
  Si0+  Si111  1  0.57210319  0.67812362  0.64895540  1
  Si0+  Si112  1  0.57456291  0.17882906  0.98460270  1
  Si0+  Si113  1  0.81976241  0.07244091  0.35114544  1
  Si0+  Si114  1  0.07302920  0.67345251  0.98340075  1
  Si0+  Si115  1  0.67724380  0.42936507  0.01345597  1
  Si0+  Si116  1  0.32346205  0.57346316  0.68614142  1
  Si0+  Si117  1  0.42788228  0.32202467  0.31565826  1
  Si0+  Si118  1  0.92663711  0.82455725  0.31619830  1
  Si0+  Si119  1  0.07094940  0.67700423  0.65295548  1
  O2-  O120  1  0.26044371  -0.00140416  0.05557517  1
  O2-  O121  1  0.25107826  -0.00212460  0.40014607  1
  O2-  O122  1  0.24971064  -0.00035739  0.72298301  1
  O2-  O123  1  0.24860449  0.50745032  0.05929414  1
  O2-  O124  1  0.24876243  0.50034097  0.39938449  1
  O2-  O125  1  0.25468735  0.50384142  0.72960702  1
  O2-  O126  1  0.74890373  0.00112738  0.06618917  1
  O2-  O127  1  0.75080809  -0.00067687  0.39375154  1
  O2-  O128  1  0.75186074  -0.00239243  0.72378413  1
  O2-  O129  1  0.74822605  0.49998840  0.05565041  1
  O2-  O130  1  0.75151429  0.50575463  0.39573129  1
  O2-  O131  1  0.74920505  0.49938388  0.72563690  1
  O2-  O132  1  0.00043813  0.25999017  0.27071774  1
  O2-  O133  1  0.00453181  0.25650682  0.60200063  1
  O2-  O134  1  -0.00395634  0.25630631  0.94157933  1
  O2-  O135  1  -0.00196756  0.75818725  0.27370451  1
  O2-  O136  1  0.00604484  0.74910155  0.60812394  1
  O2-  O137  1  0.00936681  0.74695822  0.93906073  1
  O2-  O138  1  0.49671335  0.25323656  0.27103678  1
  O2-  O139  1  0.50683018  0.24811681  0.60717717  1
  O2-  O140  1  0.50181571  0.24783574  0.94258744  1
  O2-  O141  1  0.49780204  0.74801970  0.26879852  1
  O2-  O142  1  0.50029574  0.74344510  0.60625016  1
  O2-  O143  1  0.50187966  0.75288514  0.93415536  1
  O2-  O144  1  0.07162328  0.18206252  0.09981938  1
  O2-  O145  1  0.06856327  0.18059123  0.42958523  1
  O2-  O146  1  0.07058007  0.17681788  0.76388235  1
  O2-  O147  1  0.06951966  0.67167455  0.08870365  1
  O2-  O148  1  0.06417701  0.67872802  0.43418530  1
  O2-  O149  1  0.06748795  0.67622615  0.75877611  1
  O2-  O150  1  0.57614944  0.18100235  0.08931048  1
  O2-  O151  1  0.57369049  0.18291509  0.43273024  1
  O2-  O152  1  0.57122665  0.17924242  0.75886407  1
  O2-  O153  1  0.56788184  0.67380977  0.09634924  1
  O2-  O154  1  0.57270040  0.68222871  0.43280266  1
  O2-  O155  1  0.57501049  0.67949495  0.75452038  1
  O2-  O156  1  0.18002138  0.42988548  0.23537504  1
  O2-  O157  1  0.18081501  0.43094509  0.56896178  1
  O2-  O158  1  0.18054765  0.42663045  0.90068010  1
  O2-  O159  1  0.17541440  0.93096740  0.23511109  1
  O2-  O160  1  0.17734354  0.92845765  0.57617359  1
  O2-  O161  1  0.17903339  0.93307149  0.89653914  1
  O2-  O162  1  0.68284387  0.42799155  0.23385366  1
  O2-  O163  1  0.67919121  0.42736502  0.57830259  1
  O2-  O164  1  0.67779751  0.42854583  0.90795663  1
  O2-  O165  1  0.68229405  0.92956897  0.24441974  1
  O2-  O166  1  0.67995758  0.93042711  0.57559859  1
  O2-  O167  1  0.68076896  0.92986225  0.90154050  1
  O2-  O168  1  0.43350871  0.32108408  0.09038741  1
  O2-  O169  1  0.43018014  0.32061917  0.42146337  1
  O2-  O170  1  0.43156977  0.31817338  0.76641330  1
  O2-  O171  1  0.42573722  0.82163114  0.09607274  1
  O2-  O172  1  0.43080714  0.82153744  0.43175062  1
  O2-  O173  1  0.43048696  0.82284713  0.76406166  1
  O2-  O174  1  0.92088491  0.32432736  0.08970016  1
  O2-  O175  1  0.92453329  0.31829565  0.42194572  1
  O2-  O176  1  0.92640359  0.31959867  0.76604623  1
  O2-  O177  1  0.93287776  0.81614795  0.10162047  1
  O2-  O178  1  0.92494203  0.82214097  0.42234171  1
  O2-  O179  1  0.92771039  0.82152765  0.76633443  1
  O2-  O180  1  0.32219185  0.06867494  0.23466419  1
  O2-  O181  1  0.32610206  0.06894255  0.57725516  1
  O2-  O182  1  0.32207260  0.07752339  0.90817879  1
  O2-  O183  1  0.32018015  0.56912498  0.23405234  1
  O2-  O184  1  0.32328233  0.57435768  0.58108670  1
  O2-  O185  1  0.32411647  0.56500498  0.90890418  1
  O2-  O186  1  0.81924697  0.07288958  0.24632995  1
  O2-  O187  1  0.81947355  0.06969394  0.57649277  1
  O2-  O188  1  0.82109213  0.07093661  0.90188135  1
  O2-  O189  1  0.82131793  0.57384741  0.24634528  1
  O2-  O190  1  0.81773634  0.57488205  0.57886995  1
  O2-  O191  1  0.82169255  0.56976955  0.91022663  1
  O2-  O192  1  0.03488220  0.08560723  0.26435702  1
  O2-  O193  1  0.03865125  0.08432845  0.59411681  1
  O2-  O194  1  0.03906623  0.08553519  0.93190837  1
  O2-  O195  1  0.03338707  0.58459609  0.26487992  1
  O2-  O196  1  0.03995075  0.58574166  0.60626685  1
  O2-  O197  1  0.03935770  0.58159872  0.93736825  1
  O2-  O198  1  0.54444600  0.08416156  0.26372048  1
  O2-  O199  1  0.54638523  0.08485146  0.60707425  1
  O2-  O200  1  0.54977481  0.08703264  0.93604670  1
  O2-  O201  1  0.54642509  0.57711457  0.26926341  1
  O2-  O202  1  0.55090718  0.58246303  0.60603079  1
  O2-  O203  1  0.54145957  0.58024896  0.92756532  1
  O2-  O204  1  0.16965434  0.20831880  0.26379254  1
  O2-  O205  1  0.17245358  0.20270088  0.59910448  1
  O2-  O206  1  0.16783143  0.21166290  0.93210607  1
  O2-  O207  1  0.16485051  0.70524908  0.26494833  1
  O2-  O208  1  0.16603233  0.69819623  0.60945356  1
  O2-  O209  1  0.16838042  0.69049411  0.93855581  1
  O2-  O210  1  0.66744706  0.21432197  0.26412100  1
  O2-  O211  1  0.66710916  0.20085345  0.60855042  1
  O2-  O212  1  0.66537278  0.20957723  0.93612697  1
  O2-  O213  1  0.66975229  0.70605295  0.26699723  1
  O2-  O214  1  0.66428189  0.70537560  0.60124285  1
  O2-  O215  1  0.67078964  0.70338725  0.93121802  1
  O2-  O216  1  0.08026573  0.45225204  0.06755825  1
  O2-  O217  1  0.07672976  0.45623517  0.39912415  1
  O2-  O218  1  0.08220709  0.45866866  0.73514803  1
  O2-  O219  1  0.08699982  0.96179570  0.06633710  1
  O2-  O220  1  0.07768156  0.96073331  0.40139849  1
  O2-  O221  1  0.08497614  0.95926800  0.72576738  1
  O2-  O222  1  0.58534674  0.45666396  0.06021436  1
  O2-  O223  1  0.58308449  0.45646985  0.40342617  1
  O2-  O224  1  0.58668950  0.45518375  0.73090008  1
  O2-  O225  1  0.57957390  0.95587852  0.06691610  1
  O2-  O226  1  0.58871112  0.95913811  0.39599833  1
  O2-  O227  1  0.58846762  0.95771715  0.72916046  1
  O2-  O228  1  0.21670655  0.33384977  0.06731143  1
  O2-  O229  1  0.20690501  0.33045888  0.40032200  1
  O2-  O230  1  0.21415707  0.33128472  0.73329333  1
  O2-  O231  1  0.20468778  0.82793884  0.06054877  1
  O2-  O232  1  0.19854659  0.82944712  0.40097012  1
  O2-  O233  1  0.20304609  0.83646905  0.72825557  1
  O2-  O234  1  0.70440997  0.33796136  0.06173130  1
  O2-  O235  1  0.71263906  0.33402190  0.40318274  1
  O2-  O236  1  0.70656411  0.33556980  0.73102637  1
  O2-  O237  1  0.70917046  0.82877901  0.06727073  1
  O2-  O238  1  0.70789981  0.83774809  0.39783251  1
  O2-  O239  1  0.70572065  0.83514778  0.72593484  1
  O2-  O240  1  0.45532530  0.41534582  0.27120412  1
  O2-  O241  1  0.45975944  0.41813207  0.59937667  1
  O2-  O242  1  0.46028941  0.40910172  0.93463356  1
  O2-  O243  1  0.45784690  0.91915103  0.26574796  1
  O2-  O244  1  0.46244887  0.91657190  0.59748414  1
  O2-  O245  1  0.45406233  0.92294181  0.93054217  1
  O2-  O246  1  0.94322668  0.41907585  0.27421518  1
  O2-  O247  1  0.94681740  0.42463918  0.60301142  1
  O2-  O248  1  0.94952485  0.41795298  0.93937039  1
  O2-  O249  1  0.94738205  0.91978465  0.27313726  1
  O2-  O250  1  0.95603458  0.91621252  0.59615090  1
  O2-  O251  1  0.96265585  0.91617372  0.93427304  1
  O2-  O252  1  0.33514203  0.29553547  0.26947013  1
  O2-  O253  1  0.33635063  0.28859786  0.59690296  1
  O2-  O254  1  0.34058301  0.28967188  0.93721054  1
  O2-  O255  1  0.32709499  0.79566977  0.26819281  1
  O2-  O256  1  0.32987794  0.79337029  0.59941304  1
  O2-  O257  1  0.33017077  0.79066588  0.92686584  1
  O2-  O258  1  0.83577404  0.29086782  0.26923284  1
  O2-  O259  1  0.83063675  0.29035757  0.59898850  1
  O2-  O260  1  0.83209949  0.29813901  0.93668807  1
  O2-  O261  1  0.83433300  0.79547826  0.27010548  1
  O2-  O262  1  0.83329396  0.78786140  0.59787645  1
  O2-  O263  1  0.83768413  0.78681403  0.93359628  1
  O2-  O264  1  0.42002483  0.05509864  0.05738754  1
  O2-  O265  1  0.42316843  0.04516903  0.40133243  1
  O2-  O266  1  0.41407032  0.04116796  0.73073157  1
  O2-  O267  1  0.41431363  0.53687567  0.06100366  1
  O2-  O268  1  0.41826981  0.54546154  0.40311855  1
  O2-  O269  1  0.41803931  0.54760395  0.73093608  1
  O2-  O270  1  0.91952072  0.04097831  0.06937110  1
  O2-  O271  1  0.91110754  0.04600226  0.39968397  1
  O2-  O272  1  0.91462346  0.04071118  0.72681575  1
  O2-  O273  1  0.91046185  0.54251155  0.06635889  1
  O2-  O274  1  0.91255006  0.54765528  0.40048481  1
  O2-  O275  1  0.91032987  0.54667299  0.73380696  1
  O2-  O276  1  0.29440472  0.16422549  0.06278858  1
  O2-  O277  1  0.29445703  0.16795240  0.40076106  1
  O2-  O278  1  0.29654918  0.16187856  0.72946293  1
  O2-  O279  1  0.30436926  0.66543677  0.05747800  1
  O2-  O280  1  0.28982199  0.66944884  0.40154156  1
  O2-  O281  1  0.29719979  0.66708725  0.73298607  1
  O2-  O282  1  0.79463331  0.17073341  0.06887306  1
  O2-  O283  1  0.78796788  0.16247364  0.39921145  1
  O2-  O284  1  0.79474871  0.16092832  0.73068333  1
  O2-  O285  1  0.79362914  0.66197446  0.06386443  1
  O2-  O286  1  0.79499355  0.66822750  0.39877379  1
  O2-  O287  1  0.78821614  0.66337588  0.73205942  1
