# generated using pymatgen
data_Ca2Al2SiO7
_symmetry_space_group_name_H-M   'P 1'
_cell_length_a   15.45834609
_cell_length_b   15.45841314
_cell_length_c   15.28342039
_cell_angle_alpha   90.01577538
_cell_angle_beta   90.00913988
_cell_angle_gamma   90.00541170
_symmetry_Int_Tables_number   1
_chemical_formula_structural   Ca2Al2SiO7
_chemical_formula_sum   'Ca48 Al48 Si24 O168'
_cell_volume   3652.14886519
_cell_formula_units_Z   24
loop_
 _symmetry_equiv_pos_site_id
 _symmetry_equiv_pos_as_xyz
  1  'x, y, z'
loop_
 _atom_type_symbol
 _atom_type_oxidation_number
  Ca2+  2.0
  Al0+  0.0
  Si0+  0.0
  O2-  -2.0
loop_
 _atom_site_type_symbol
 _atom_site_label
 _atom_site_symmetry_multiplicity
 _atom_site_fract_x
 _atom_site_fract_y
 _atom_site_fract_z
 _atom_site_occupancy
  Ca2+  Ca0  1  0.17197030  0.08192227  0.16827587  1
  Ca2+  Ca1  1  0.17909458  0.07779916  0.50479790  1
  Ca2+  Ca2  1  0.16251285  0.07156286  0.84201189  1
  Ca2+  Ca3  1  0.16498621  0.57902249  0.16257113  1
  Ca2+  Ca4  1  0.17255264  0.57727309  0.50772458  1
  Ca2+  Ca5  1  0.16567174  0.57416031  0.84058319  1
  Ca2+  Ca6  1  0.66782405  0.08250214  0.17124518  1
  Ca2+  Ca7  1  0.65279369  0.07608568  0.50187573  1
  Ca2+  Ca8  1  0.66550897  0.08149333  0.83500542  1
  Ca2+  Ca9  1  0.66043197  0.57348230  0.16986525  1
  Ca2+  Ca10  1  0.66255927  0.57481547  0.50504377  1
  Ca2+  Ca11  1  0.67592482  0.57472127  0.84041259  1
  Ca2+  Ca12  1  0.07681524  0.32641673  0.15092097  1
  Ca2+  Ca13  1  0.08258866  0.33654346  0.49781041  1
  Ca2+  Ca14  1  0.08033172  0.33650934  0.83416836  1
  Ca2+  Ca15  1  0.08482041  0.82743676  0.15461263  1
  Ca2+  Ca16  1  0.08194643  0.83583706  0.49979959  1
  Ca2+  Ca17  1  0.08718651  0.82998036  0.83158926  1
  Ca2+  Ca18  1  0.57654542  0.33682520  0.16171377  1
  Ca2+  Ca19  1  0.58503028  0.32624384  0.49112900  1
  Ca2+  Ca20  1  0.58626942  0.33219415  0.82956318  1
  Ca2+  Ca21  1  0.57629191  0.83533670  0.16619314  1
  Ca2+  Ca22  1  0.57825623  0.83347690  0.49021528  1
  Ca2+  Ca23  1  0.57211086  0.83934683  0.82566173  1
  Ca2+  Ca24  1  0.33011955  0.40450875  0.16889843  1
  Ca2+  Ca25  1  0.33227886  0.41549518  0.50298873  1
  Ca2+  Ca26  1  0.32485155  0.41202389  0.84146276  1
  Ca2+  Ca27  1  0.33423210  0.91774381  0.17028819  1
  Ca2+  Ca28  1  0.34089056  0.92089048  0.50388633  1
  Ca2+  Ca29  1  0.32792018  0.91227894  0.83885361  1
  Ca2+  Ca30  1  0.82353584  0.41582214  0.16468524  1
  Ca2+  Ca31  1  0.81843658  0.42216103  0.50660549  1
  Ca2+  Ca32  1  0.82494010  0.42063691  0.84108593  1
  Ca2+  Ca33  1  0.83121803  0.92619436  0.17024178  1
  Ca2+  Ca34  1  0.81600716  0.91604047  0.50453665  1
  Ca2+  Ca35  1  0.82583183  0.92315511  0.83900177  1
  Ca2+  Ca36  1  0.42014434  0.17210426  0.16721781  1
  Ca2+  Ca37  1  0.42666898  0.16972958  0.49221386  1
  Ca2+  Ca38  1  0.42261033  0.17356826  0.83024089  1
  Ca2+  Ca39  1  0.42272103  0.67576370  0.16333466  1
  Ca2+  Ca40  1  0.42319613  0.67886785  0.49266394  1
  Ca2+  Ca41  1  0.41483415  0.67833378  0.83159092  1
  Ca2+  Ca42  1  0.91960112  0.17113123  0.15265279  1
  Ca2+  Ca43  1  0.92091296  0.16738018  0.49773000  1
  Ca2+  Ca44  1  0.91633016  0.16841274  0.83765822  1
  Ca2+  Ca45  1  0.92112859  0.66544302  0.15752829  1
  Ca2+  Ca46  1  0.91454196  0.66323816  0.50049137  1
  Ca2+  Ca47  1  0.91993476  0.65284528  0.83390302  1
  Al0+  Al48  1  -0.00070640  -0.00203988  0.00486202  1
  Al0+  Al49  1  0.00084942  -0.00056165  0.33452158  1
  Al0+  Al50  1  0.00152414  -0.00060193  0.66652563  1
  Al0+  Al51  1  0.00034035  0.49938799  0.00055288  1
  Al0+  Al52  1  -0.00075155  0.49971727  0.33369410  1
  Al0+  Al53  1  0.00171159  0.49946741  0.66889305  1
  Al0+  Al54  1  0.49820554  0.00048841  -0.00440869  1
  Al0+  Al55  1  0.49909209  0.00228887  0.33209055  1
  Al0+  Al56  1  0.49943504  0.00319231  0.66484854  1
  Al0+  Al57  1  0.49863817  0.50195166  -0.00312587  1
  Al0+  Al58  1  0.49744481  0.50094965  0.33204197  1
  Al0+  Al59  1  0.49849158  0.50213940  0.67119727  1
  Al0+  Al60  1  0.25115802  0.24717135  -0.00453528  1
  Al0+  Al61  1  0.24898365  0.24702077  0.33716709  1
  Al0+  Al62  1  0.25009754  0.24907881  0.66917805  1
  Al0+  Al63  1  0.24879185  0.74935531  -0.00359144  1
  Al0+  Al64  1  0.24797508  0.74759911  0.33123877  1
  Al0+  Al65  1  0.24932644  0.75048521  0.66316421  1
  Al0+  Al66  1  0.75059337  0.24901399  0.00354654  1
  Al0+  Al67  1  0.75252799  0.25125580  0.33479651  1
  Al0+  Al68  1  0.75206267  0.24998919  0.66312025  1
  Al0+  Al69  1  0.74959180  0.74954453  0.00339880  1
  Al0+  Al70  1  0.75253667  0.75080187  0.33170172  1
  Al0+  Al71  1  0.75099880  0.75127394  0.67545199  1
  Al0+  Al72  1  0.57210052  0.18283244  0.65255513  1
  Al0+  Al73  1  0.67669691  0.42910155  0.01630400  1
  Al0+  Al74  1  0.18055133  0.92778047  0.01410766  1
  Al0+  Al75  1  0.42893352  0.82045034  0.65157593  1
  Al0+  Al76  1  0.43071546  0.82083674  0.98531873  1
  Al0+  Al77  1  0.67706332  0.93123405  0.68017472  1
  Al0+  Al78  1  0.31983612  0.07008242  0.34736166  1
  Al0+  Al79  1  0.67683808  0.42661216  0.68132021  1
  Al0+  Al80  1  0.17951297  0.92942522  0.68012158  1
  Al0+  Al81  1  0.68081654  0.93096150  0.34499528  1
  Al0+  Al82  1  0.06893216  0.67959313  0.98510619  1
  Al0+  Al83  1  0.57356800  0.67859595  0.31891171  1
  Al0+  Al84  1  0.82194364  0.57130904  0.01757643  1
  Al0+  Al85  1  0.07154762  0.17599225  0.98453341  1
  Al0+  Al86  1  0.82081594  0.57119151  0.68148003  1
  Al0+  Al87  1  0.67696177  0.43011461  0.34744269  1
  Al0+  Al88  1  0.18148704  0.42737075  0.01421355  1
  Al0+  Al89  1  0.57357092  0.17945093  0.31692588  1
  Al0+  Al90  1  0.81939768  0.06902867  0.01289603  1
  Al0+  Al91  1  0.42761568  0.32116803  0.31998090  1
  Al0+  Al92  1  0.42929963  0.32206726  0.98534317  1
  Al0+  Al93  1  0.18134846  0.42833787  0.68051641  1
  Al0+  Al94  1  0.92822797  0.32056652  0.98391545  1
  Al0+  Al95  1  0.42796499  0.82234578  0.31773682  1
  Si0+  Si96  1  0.93100771  0.32148203  0.31881981  1
  Si0+  Si97  1  0.32118783  0.57379983  0.68324714  1
  Si0+  Si98  1  0.17738432  0.92508399  0.35028370  1
  Si0+  Si99  1  0.32231865  0.07149277  0.68563234  1
  Si0+  Si100  1  0.57379707  0.67807085  0.98107086  1
  Si0+  Si101  1  0.93201604  0.32189034  0.64970876  1
  Si0+  Si102  1  0.92600725  0.82248238  0.98305290  1
  Si0+  Si103  1  0.67424086  0.92823243  0.01640326  1
  Si0+  Si104  1  0.07214531  0.17678339  0.65012717  1
  Si0+  Si105  1  0.82471477  0.07182649  0.68165145  1
  Si0+  Si106  1  0.57251681  0.17864708  0.98329643  1
  Si0+  Si107  1  0.92822684  0.82338084  0.65187903  1
  Si0+  Si108  1  0.93021209  0.82171317  0.31877346  1
  Si0+  Si109  1  0.82526946  0.07316799  0.35162735  1
  Si0+  Si110  1  0.42611031  0.32390232  0.65109980  1
  Si0+  Si111  1  0.32086714  0.57274992  0.01715025  1
  Si0+  Si112  1  0.31963209  0.57307085  0.34824074  1
  Si0+  Si113  1  0.06930943  0.67849404  0.65020075  1
  Si0+  Si114  1  0.17828834  0.42916574  0.34726018  1
  Si0+  Si115  1  0.06991451  0.67733419  0.31870528  1
  Si0+  Si116  1  0.82396381  0.57147648  0.35019139  1
  Si0+  Si117  1  0.32344311  0.07143426  0.01666240  1
  Si0+  Si118  1  0.57421807  0.67917720  0.65248148  1
  Si0+  Si119  1  0.07052305  0.17839989  0.31968466  1
  O2-  O120  1  0.25404980  0.00293688  0.06067029  1
  O2-  O121  1  0.24925430  -0.00974516  0.39387275  1
  O2-  O122  1  0.25355980  0.00268899  0.72893254  1
  O2-  O123  1  0.25850799  0.49857633  0.06311651  1
  O2-  O124  1  0.25095697  0.49832834  0.38943881  1
  O2-  O125  1  0.25864952  0.49958484  0.72707141  1
  O2-  O126  1  0.74493324  -0.00527898  0.06031743  1
  O2-  O127  1  0.75310494  0.00779859  0.39463028  1
  O2-  O128  1  0.75289210  0.00600270  0.72472635  1
  O2-  O129  1  0.74724902  0.50254885  0.06737325  1
  O2-  O130  1  0.75007531  0.50801453  0.39304596  1
  O2-  O131  1  0.74703567  0.50085896  0.72983401  1
  O2-  O132  1  -0.00188600  0.24680594  0.27726914  1
  O2-  O133  1  0.00290341  0.24965247  0.60709957  1
  O2-  O134  1  0.00185817  0.24968683  0.93332980  1
  O2-  O135  1  0.00210688  0.75139371  0.27747035  1
  O2-  O136  1  -0.00273540  0.74949880  0.60901306  1
  O2-  O137  1  -0.00882853  0.75102660  0.93766009  1
  O2-  O138  1  0.50410371  0.25482452  0.26870320  1
  O2-  O139  1  0.50032530  0.26168118  0.60715601  1
  O2-  O140  1  0.50723699  0.25068839  0.93924367  1
  O2-  O141  1  0.50251886  0.75218043  0.26908162  1
  O2-  O142  1  0.50656507  0.74803596  0.60637777  1
  O2-  O143  1  0.50834442  0.75013965  0.93713053  1
  O2-  O144  1  0.06978208  0.17778441  0.09901185  1
  O2-  O145  1  0.06965482  0.17936775  0.42539395  1
  O2-  O146  1  0.07046863  0.17381537  0.75426394  1
  O2-  O147  1  0.06970910  0.68194359  0.09895995  1
  O2-  O148  1  0.06918576  0.67500471  0.42411335  1
  O2-  O149  1  0.07017723  0.67778565  0.75464936  1
  O2-  O150  1  0.57045894  0.17525903  0.08852494  1
  O2-  O151  1  0.57049896  0.18018251  0.43075617  1
  O2-  O152  1  0.57011577  0.18143620  0.76577024  1
  O2-  O153  1  0.57147637  0.67779891  0.08667320  1
  O2-  O154  1  0.57150050  0.67927202  0.43314298  1
  O2-  O155  1  0.57197775  0.68069073  0.75781344  1
  O2-  O156  1  0.17562776  0.42973341  0.24272477  1
  O2-  O157  1  0.18020155  0.43135935  0.56629849  1
  O2-  O158  1  0.18211020  0.43005226  0.90116802  1
  O2-  O159  1  0.17370278  0.92605704  0.24514145  1
  O2-  O160  1  0.17700664  0.93235458  0.56675501  1
  O2-  O161  1  0.18203215  0.92728887  0.90087659  1
  O2-  O162  1  0.67922293  0.42946372  0.23504813  1
  O2-  O163  1  0.67854963  0.42718227  0.56724240  1
  O2-  O164  1  0.67804174  0.42938951  0.90278381  1
  O2-  O165  1  0.68570377  0.93134073  0.23209419  1
  O2-  O166  1  0.67822632  0.93027573  0.56690511  1
  O2-  O167  1  0.67368086  0.93109635  0.91053097  1
  O2-  O168  1  0.42794481  0.31830312  0.09822908  1
  O2-  O169  1  0.42479251  0.31952034  0.43387396  1
  O2-  O170  1  0.42276857  0.31977436  0.75634885  1
  O2-  O171  1  0.43128655  0.82039313  0.09818677  1
  O2-  O172  1  0.42788243  0.81958013  0.43162907  1
  O2-  O173  1  0.42732199  0.81818521  0.76464286  1
  O2-  O174  1  0.92964483  0.31806449  0.09828936  1
  O2-  O175  1  0.93498041  0.32316983  0.42444773  1
  O2-  O176  1  0.93233797  0.32182878  0.75401132  1
  O2-  O177  1  0.92942508  0.82321709  0.08915306  1
  O2-  O178  1  0.93105429  0.82240416  0.42423522  1
  O2-  O179  1  0.93046431  0.82809718  0.75614952  1
  O2-  O180  1  0.31446928  0.07284150  0.23468287  1
  O2-  O181  1  0.32032057  0.07176228  0.57968106  1
  O2-  O182  1  0.32522805  0.06939013  0.91103530  1
  O2-  O183  1  0.31560033  0.57796636  0.24385510  1
  O2-  O184  1  0.31815006  0.57481366  0.57710108  1
  O2-  O185  1  0.31690702  0.57387614  0.91135237  1
  O2-  O186  1  0.83079004  0.06998773  0.24649420  1
  O2-  O187  1  0.82906757  0.06853583  0.57593326  1
  O2-  O188  1  0.81811623  0.06727910  0.89951082  1
  O2-  O189  1  0.83202490  0.56759178  0.24576274  1
  O2-  O190  1  0.82201124  0.56916901  0.56716246  1
  O2-  O191  1  0.82019368  0.56882971  0.90415369  1
  O2-  O192  1  0.04616037  0.08488162  0.27383319  1
  O2-  O193  1  0.04184530  0.08655308  0.59962127  1
  O2-  O194  1  0.03878403  0.07761409  0.93367748  1
  O2-  O195  1  0.03961345  0.58643910  0.27053032  1
  O2-  O196  1  0.04140500  0.58696949  0.60077814  1
  O2-  O197  1  0.04083018  0.58247054  0.93141847  1
  O2-  O198  1  0.54223330  0.08276587  0.26350704  1
  O2-  O199  1  0.53557762  0.08806410  0.59804323  1
  O2-  O200  1  0.54287154  0.08688077  0.93466643  1
  O2-  O201  1  0.54015031  0.58234336  0.26536585  1
  O2-  O202  1  0.54706259  0.58489447  0.60706639  1
  O2-  O203  1  0.54462795  0.58668013  0.93286091  1
  O2-  O204  1  0.16104244  0.20797295  0.27271662  1
  O2-  O205  1  0.16472740  0.20460772  0.60322585  1
  O2-  O206  1  0.17043693  0.19931822  0.93152823  1
  O2-  O207  1  0.16167845  0.70140466  0.27032415  1
  O2-  O208  1  0.15981860  0.70768319  0.60024018  1
  O2-  O209  1  0.16375501  0.71230753  0.92927809  1
  O2-  O210  1  0.67569378  0.20163073  0.26895848  1
  O2-  O211  1  0.67084013  0.20526286  0.59760429  1
  O2-  O212  1  0.66703570  0.20065687  0.93860480  1
  O2-  O213  1  0.67340837  0.70331890  0.26706054  1
  O2-  O214  1  0.66946397  0.70276089  0.60893697  1
  O2-  O215  1  0.66929667  0.70040154  0.93762308  1
  O2-  O216  1  0.08595880  0.46061422  0.06821367  1
  O2-  O217  1  0.08793870  0.46099427  0.39676983  1
  O2-  O218  1  0.08644189  0.46254510  0.73366204  1
  O2-  O219  1  0.08370533  0.95543267  0.06895087  1
  O2-  O220  1  0.08488051  0.95490287  0.39810894  1
  O2-  O221  1  0.08288610  0.96011398  0.73383104  1
  O2-  O222  1  0.57698253  0.45913441  0.06667002  1
  O2-  O223  1  0.57890218  0.45816526  0.40043641  1
  O2-  O224  1  0.57676400  0.45057475  0.73269459  1
  O2-  O225  1  0.58161739  0.95741534  0.06210785  1
  O2-  O226  1  0.58318194  0.95915440  0.39781872  1
  O2-  O227  1  0.58183648  0.96514709  0.73444421  1
  O2-  O228  1  0.20961781  0.32862165  0.06563040  1
  O2-  O229  1  0.20290592  0.33710079  0.39594322  1
  O2-  O230  1  0.20580592  0.33010058  0.73345056  1
  O2-  O231  1  0.21201365  0.83119627  0.06762348  1
  O2-  O232  1  0.19690765  0.82919969  0.39468546  1
  O2-  O233  1  0.20740390  0.83094332  0.73081508  1
  O2-  O234  1  0.70559182  0.33067702  0.06830337  1
  O2-  O235  1  0.71335357  0.33461020  0.40161202  1
  O2-  O236  1  0.70990493  0.32868901  0.73207787  1
  O2-  O237  1  0.69609340  0.83347827  0.06061694  1
  O2-  O238  1  0.71523731  0.83480882  0.39958401  1
  O2-  O239  1  0.70741846  0.83636282  0.73673900  1
  O2-  O240  1  0.44607038  0.42197005  0.26890795  1
  O2-  O241  1  0.44277580  0.42166437  0.60970575  1
  O2-  O242  1  0.45258350  0.42086511  0.93181024  1
  O2-  O243  1  0.45342226  0.92114303  0.26613792  1
  O2-  O244  1  0.45808849  0.91858274  0.60072817  1
  O2-  O245  1  0.45777425  0.91796049  0.92959505  1
  O2-  O246  1  0.96278380  0.41174827  0.27112611  1
  O2-  O247  1  0.96421042  0.41209179  0.60075344  1
  O2-  O248  1  0.95806828  0.41831505  0.93204451  1
  O2-  O249  1  0.95810177  0.91395549  0.27133911  1
  O2-  O250  1  0.95975093  0.91270677  0.60050391  1
  O2-  O251  1  0.95517711  0.91444986  0.93668570  1
  O2-  O252  1  0.32909646  0.28708707  0.26896565  1
  O2-  O253  1  0.33364300  0.29348388  0.60355646  1
  O2-  O254  1  0.33507700  0.28717078  0.92924505  1
  O2-  O255  1  0.32872017  0.79139426  0.26705753  1
  O2-  O256  1  0.33275193  0.78838939  0.59618125  1
  O2-  O257  1  0.33546346  0.78562473  0.93152079  1
  O2-  O258  1  0.83869867  0.29714413  0.27255522  1
  O2-  O259  1  0.84117765  0.29380811  0.60005401  1
  O2-  O260  1  0.83047133  0.28832711  0.93168282  1
  O2-  O261  1  0.84015179  0.79518271  0.26876472  1
  O2-  O262  1  0.83548189  0.79576781  0.60547600  1
  O2-  O263  1  0.82985021  0.80260561  0.93961006  1
  O2-  O264  1  0.41640413  0.04411317  0.06317180  1
  O2-  O265  1  0.41693878  0.04334754  0.40190059  1
  O2-  O266  1  0.41523573  0.04638402  0.73158235  1
  O2-  O267  1  0.41691289  0.55479469  0.05969037  1
  O2-  O268  1  0.41102888  0.54813063  0.39720771  1
  O2-  O269  1  0.41616866  0.55728806  0.72927793  1
  O2-  O270  1  0.91423560  0.03690850  0.07040829  1
  O2-  O271  1  0.91781311  0.04334929  0.39986751  1
  O2-  O272  1  0.91640522  0.04290611  0.72922514  1
  O2-  O273  1  0.92027963  0.54214220  0.06973041  1
  O2-  O274  1  0.91547732  0.54007379  0.40024955  1
  O2-  O275  1  0.91907152  0.53996626  0.73222523  1
  O2-  O276  1  0.29717803  0.16443261  0.06254084  1
  O2-  O277  1  0.28253498  0.16307161  0.40637038  1
  O2-  O278  1  0.29631123  0.16500740  0.73086867  1
  O2-  O279  1  0.28691030  0.66301416  0.06451800  1
  O2-  O280  1  0.28629641  0.66196884  0.39970800  1
  O2-  O281  1  0.28761132  0.66452955  0.72954638  1
  O2-  O282  1  0.79144134  0.16467785  0.06947742  1
  O2-  O283  1  0.80626553  0.16857273  0.39631861  1
  O2-  O284  1  0.80279878  0.16689537  0.72470782  1
  O2-  O285  1  0.79973310  0.67279027  0.06852982  1
  O2-  O286  1  0.80567664  0.66795392  0.39309538  1
  O2-  O287  1  0.80060381  0.67049826  0.73584156  1
