# generated using pymatgen
data_Ca2Al2SiO7
_symmetry_space_group_name_H-M   'P 1'
_cell_length_a   15.46388834
_cell_length_b   15.46474268
_cell_length_c   15.28819472
_cell_angle_alpha   90.00899090
_cell_angle_beta   90.00220315
_cell_angle_gamma   90.00646291
_symmetry_Int_Tables_number   1
_chemical_formula_structural   Ca2Al2SiO7
_chemical_formula_sum   'Ca48 Al48 Si24 O168'
_cell_volume   3656.09607976
_cell_formula_units_Z   24
loop_
 _symmetry_equiv_pos_site_id
 _symmetry_equiv_pos_as_xyz
  1  'x, y, z'
loop_
 _atom_type_symbol
 _atom_type_oxidation_number
  Ca2+  2.0
  Al0+  0.0
  Si0+  0.0
  O2-  -2.0
loop_
 _atom_site_type_symbol
 _atom_site_label
 _atom_site_symmetry_multiplicity
 _atom_site_fract_x
 _atom_site_fract_y
 _atom_site_fract_z
 _atom_site_occupancy
  Ca2+  Ca0  1  0.17040604  0.08406099  0.16346420  1
  Ca2+  Ca1  1  0.17587948  0.07887582  0.50888815  1
  Ca2+  Ca2  1  0.17267045  0.07824787  0.84122756  1
  Ca2+  Ca3  1  0.17077594  0.59036698  0.16858737  1
  Ca2+  Ca4  1  0.17337335  0.58251266  0.50585423  1
  Ca2+  Ca5  1  0.17494156  0.57684111  0.84012389  1
  Ca2+  Ca6  1  0.67109381  0.07498971  0.17358957  1
  Ca2+  Ca7  1  0.66862170  0.07088272  0.50509481  1
  Ca2+  Ca8  1  0.66914195  0.07742121  0.83386229  1
  Ca2+  Ca9  1  0.66711608  0.58028745  0.16307374  1
  Ca2+  Ca10  1  0.67290451  0.58250497  0.50487097  1
  Ca2+  Ca11  1  0.66787527  0.57925434  0.84333616  1
  Ca2+  Ca12  1  0.07470448  0.33184796  0.15437171  1
  Ca2+  Ca13  1  0.07611974  0.34133131  0.49762710  1
  Ca2+  Ca14  1  0.08750333  0.33313507  0.82913660  1
  Ca2+  Ca15  1  0.08375434  0.82649573  0.15509139  1
  Ca2+  Ca16  1  0.08556917  0.83136943  0.49865179  1
  Ca2+  Ca17  1  0.08311331  0.83575527  0.82875648  1
  Ca2+  Ca18  1  0.58048515  0.33352666  0.15826304  1
  Ca2+  Ca19  1  0.57346642  0.33087777  0.50004862  1
  Ca2+  Ca20  1  0.57590090  0.33330424  0.82843894  1
  Ca2+  Ca21  1  0.58102017  0.82781675  0.15986960  1
  Ca2+  Ca22  1  0.57951906  0.83922812  0.50094107  1
  Ca2+  Ca23  1  0.57567908  0.82815523  0.82699360  1
  Ca2+  Ca24  1  0.32326691  0.42858985  0.16538886  1
  Ca2+  Ca25  1  0.32833506  0.42757002  0.51191525  1
  Ca2+  Ca26  1  0.32532435  0.42116772  0.83745777  1
  Ca2+  Ca27  1  0.32713572  0.92494489  0.16697048  1
  Ca2+  Ca28  1  0.32960315  0.92493607  0.51137807  1
  Ca2+  Ca29  1  0.32509684  0.92227206  0.83571409  1
  Ca2+  Ca30  1  0.83063827  0.40696667  0.16716172  1
  Ca2+  Ca31  1  0.83749275  0.41414185  0.50536306  1
  Ca2+  Ca32  1  0.82796705  0.40828925  0.84003105  1
  Ca2+  Ca33  1  0.82927600  0.91007325  0.16915264  1
  Ca2+  Ca34  1  0.82333343  0.90863425  0.50828266  1
  Ca2+  Ca35  1  0.83104647  0.90506108  0.83697377  1
  Ca2+  Ca36  1  0.41335489  0.16257714  0.16194820  1
  Ca2+  Ca37  1  0.40634577  0.16943855  0.49974474  1
  Ca2+  Ca38  1  0.40986375  0.16906501  0.82635873  1
  Ca2+  Ca39  1  0.41977425  0.66043941  0.15896453  1
  Ca2+  Ca40  1  0.40582846  0.67331499  0.50014032  1
  Ca2+  Ca41  1  0.41845372  0.66256920  0.82818925  1
  Ca2+  Ca42  1  0.92448889  0.17401548  0.15711157  1
  Ca2+  Ca43  1  0.91875079  0.17787823  0.49699914  1
  Ca2+  Ca44  1  0.92583292  0.17584258  0.83252998  1
  Ca2+  Ca45  1  0.93201478  0.67207353  0.15893601  1
  Ca2+  Ca46  1  0.92754695  0.67088425  0.49707467  1
  Ca2+  Ca47  1  0.92611173  0.67517091  0.83408199  1
  Al0+  Al48  1  -0.00184499  0.00271054  -0.00305291  1
  Al0+  Al49  1  -0.00202305  0.00215851  0.33353574  1
  Al0+  Al50  1  -0.00227806  0.00154236  0.66229555  1
  Al0+  Al51  1  -0.00332569  0.50318921  -0.00516161  1
  Al0+  Al52  1  -0.00209098  0.50176348  0.32393144  1
  Al0+  Al53  1  -0.00017446  0.50122807  0.66613556  1
  Al0+  Al54  1  0.50228151  -0.00073907  0.00284148  1
  Al0+  Al55  1  0.50011451  0.00025485  0.33992413  1
  Al0+  Al56  1  0.50330607  -0.00248877  0.67100894  1
  Al0+  Al57  1  0.50197075  0.49794241  0.00395378  1
  Al0+  Al58  1  0.49948816  0.50011603  0.33753224  1
  Al0+  Al59  1  0.50332278  0.49767996  0.66280141  1
  Al0+  Al60  1  0.25028560  0.25238858  0.00516040  1
  Al0+  Al61  1  0.24858674  0.25173790  0.33486669  1
  Al0+  Al62  1  0.25043467  0.25098955  0.66561905  1
  Al0+  Al63  1  0.25206239  0.75250289  0.00345236  1
  Al0+  Al64  1  0.25130878  0.75160542  0.33228975  1
  Al0+  Al65  1  0.25276588  0.75027738  0.66925440  1
  Al0+  Al66  1  0.74802575  0.24737148  0.00146042  1
  Al0+  Al67  1  0.74704953  0.24832645  0.33207386  1
  Al0+  Al68  1  0.75071487  0.24827174  0.66143683  1
  Al0+  Al69  1  0.74754941  0.74642613  -0.00508304  1
  Al0+  Al70  1  0.74845701  0.74690115  0.33760603  1
  Al0+  Al71  1  0.75107220  0.74846427  0.66742125  1
  Al0+  Al72  1  0.17508315  0.43065421  0.01518164  1
  Al0+  Al73  1  0.92803673  0.32010983  0.31780866  1
  Al0+  Al74  1  0.07218648  0.68266430  0.32000694  1
  Al0+  Al75  1  0.68112562  0.92720256  0.34719627  1
  Al0+  Al76  1  0.43001770  0.81988293  0.65372530  1
  Al0+  Al77  1  0.42829381  0.32011045  0.65309450  1
  Al0+  Al78  1  0.17632891  0.92900907  0.68035229  1
  Al0+  Al79  1  0.32184423  0.07151484  0.68163507  1
  Al0+  Al80  1  0.92966626  0.32145530  0.65241561  1
  Al0+  Al81  1  0.32153726  0.57163554  0.34864379  1
  Al0+  Al82  1  0.92907479  0.82162457  0.98668401  1
  Al0+  Al83  1  0.92658839  0.32181183  0.98448977  1
  Al0+  Al84  1  0.17713141  0.43027862  0.67997038  1
  Al0+  Al85  1  0.07604961  0.67942269  0.98285078  1
  Al0+  Al86  1  0.31969276  0.07172394  0.34842635  1
  Al0+  Al87  1  0.32417669  0.57127497  0.68166592  1
  Al0+  Al88  1  0.32268064  0.07198701  0.01510774  1
  Al0+  Al89  1  0.07345235  0.18159114  0.98397506  1
  Al0+  Al90  1  0.56758276  0.67746260  0.98711845  1
  Al0+  Al91  1  0.68154746  0.92729088  0.68360565  1
  Al0+  Al92  1  0.32161046  0.57174496  0.01409984  1
  Al0+  Al93  1  0.17592244  0.93006232  0.01506234  1
  Al0+  Al94  1  0.68117909  0.42722535  0.01307845  1
  Al0+  Al95  1  0.92886509  0.82193417  0.65182782  1
  Si0+  Si96  1  0.17675666  0.92843266  0.34891840  1
  Si0+  Si97  1  0.81939163  0.07133631  0.01499756  1
  Si0+  Si98  1  0.42974166  0.82491742  0.98443554  1
  Si0+  Si99  1  0.82132736  0.07328894  0.35074007  1
  Si0+  Si100  1  0.57199994  0.67716858  0.31853981  1
  Si0+  Si101  1  0.67834110  0.42655785  0.35036880  1
  Si0+  Si102  1  0.57270708  0.17714216  0.64917093  1
  Si0+  Si103  1  0.17565742  0.43100687  0.34817511  1
  Si0+  Si104  1  0.81974395  0.57371811  0.01713869  1
  Si0+  Si105  1  0.07263196  0.67958998  0.65035191  1
  Si0+  Si106  1  0.42855100  0.32268784  0.31728521  1
  Si0+  Si107  1  0.56796380  0.17878111  0.31813757  1
  Si0+  Si108  1  0.68089189  0.92659680  0.01506209  1
  Si0+  Si109  1  0.57123180  0.17598125  0.98582053  1
  Si0+  Si110  1  0.43134392  0.82207317  0.31873210  1
  Si0+  Si111  1  0.92533057  0.82192537  0.31918092  1
  Si0+  Si112  1  0.82046464  0.56853398  0.34816122  1
  Si0+  Si113  1  0.07275860  0.17867908  0.64799305  1
  Si0+  Si114  1  0.07295872  0.17748670  0.31624510  1
  Si0+  Si115  1  0.57305654  0.67652487  0.64830790  1
  Si0+  Si116  1  0.82101273  0.57057966  0.68186309  1
  Si0+  Si117  1  0.82105501  0.07365398  0.68362012  1
  Si0+  Si118  1  0.43106471  0.31936782  0.98762408  1
  Si0+  Si119  1  0.68139815  0.42700123  0.67977959  1
  O2-  O120  1  0.24886547  0.00187157  0.06502626  1
  O2-  O121  1  0.24200847  -0.00001532  0.39326650  1
  O2-  O122  1  0.24733814  0.00204370  0.73002955  1
  O2-  O123  1  0.24226509  0.50795858  0.06518783  1
  O2-  O124  1  0.24576710  0.49745367  0.39344912  1
  O2-  O125  1  0.25159783  0.49959502  0.72945536  1
  O2-  O126  1  0.75378297  -0.00509221  0.05782231  1
  O2-  O127  1  0.75956762  -0.00187050  0.39437180  1
  O2-  O128  1  0.75846096  0.00001320  0.72940212  1
  O2-  O129  1  0.75858569  0.49780775  0.06194989  1
  O2-  O130  1  0.75162070  0.49538731  0.39192609  1
  O2-  O131  1  0.75226531  0.49669053  0.72273046  1
  O2-  O132  1  0.00320167  0.24576908  0.27308082  1
  O2-  O133  1  0.00617307  0.25015079  0.60360302  1
  O2-  O134  1  0.00569020  0.25836112  0.93419732  1
  O2-  O135  1  0.00022028  0.76145345  0.27503006  1
  O2-  O136  1  0.00756764  0.75192501  0.60501229  1
  O2-  O137  1  0.00697072  0.75660215  0.93582780  1
  O2-  O138  1  0.49729270  0.24921665  0.27426088  1
  O2-  O139  1  0.49944238  0.24141660  0.60530098  1
  O2-  O140  1  0.49668168  0.24302084  0.94515718  1
  O2-  O141  1  0.50011414  0.74779540  0.27727297  1
  O2-  O142  1  0.50219896  0.74281260  0.60411027  1
  O2-  O143  1  0.49101003  0.74913084  0.94092382  1
  O2-  O144  1  0.06961492  0.18080542  0.09821551  1
  O2-  O145  1  0.07224159  0.17699237  0.42173239  1
  O2-  O146  1  0.07093083  0.17823261  0.75306387  1
  O2-  O147  1  0.07194738  0.68128929  0.09712658  1
  O2-  O148  1  0.06969128  0.68147000  0.43332316  1
  O2-  O149  1  0.06959390  0.67761745  0.75516201  1
  O2-  O150  1  0.57298877  0.17572965  0.09136752  1
  O2-  O151  1  0.56999307  0.18066198  0.42295369  1
  O2-  O152  1  0.57757775  0.18121273  0.75473030  1
  O2-  O153  1  0.56977878  0.68040108  0.10104357  1
  O2-  O154  1  0.57569029  0.67635019  0.42327260  1
  O2-  O155  1  0.57455034  0.67573278  0.75368288  1
  O2-  O156  1  0.17684924  0.43171090  0.24300143  1
  O2-  O157  1  0.17551876  0.43417423  0.56552626  1
  O2-  O158  1  0.18181392  0.42768486  0.90215788  1
  O2-  O159  1  0.17777397  0.92791301  0.24375109  1
  O2-  O160  1  0.17838216  0.93060298  0.56585459  1
  O2-  O161  1  0.17703357  0.93213252  0.90191980  1
  O2-  O162  1  0.67662283  0.42626179  0.24553165  1
  O2-  O163  1  0.68203536  0.42810810  0.57410677  1
  O2-  O164  1  0.67944947  0.42742868  0.89989072  1
  O2-  O165  1  0.68137155  0.92844614  0.23363181  1
  O2-  O166  1  0.68219562  0.92877688  0.57004736  1
  O2-  O167  1  0.68001050  0.92836846  0.91043813  1
  O2-  O168  1  0.43558949  0.31986056  0.09323609  1
  O2-  O169  1  0.43186986  0.32259376  0.42227249  1
  O2-  O170  1  0.43354668  0.32164678  0.76613247  1
  O2-  O171  1  0.43639631  0.82925413  0.09055812  1
  O2-  O172  1  0.43252451  0.82197888  0.42377822  1
  O2-  O173  1  0.43379043  0.82025707  0.76632114  1
  O2-  O174  1  0.92328343  0.31364113  0.09823264  1
  O2-  O175  1  0.92843621  0.31992280  0.43120258  1
  O2-  O176  1  0.92379160  0.31781124  0.76415534  1
  O2-  O177  1  0.92478982  0.81760948  0.10097656  1
  O2-  O178  1  0.92293812  0.81750880  0.42459526  1
  O2-  O179  1  0.92587772  0.81632351  0.76400102  1
  O2-  O180  1  0.32242666  0.06869707  0.23583934  1
  O2-  O181  1  0.32002454  0.06972462  0.56751150  1
  O2-  O182  1  0.32643486  0.06968188  0.90234613  1
  O2-  O183  1  0.32496691  0.56939142  0.23608891  1
  O2-  O184  1  0.32137069  0.57052058  0.56745836  1
  O2-  O185  1  0.32734235  0.56502248  0.90142669  1
  O2-  O186  1  0.81768404  0.07548603  0.24518860  1
  O2-  O187  1  0.81603111  0.07621540  0.57774604  1
  O2-  O188  1  0.81380897  0.07570661  0.91044231  1
  O2-  O189  1  0.81666165  0.57092227  0.24372167  1
  O2-  O190  1  0.81908175  0.57004555  0.57588487  1
  O2-  O191  1  0.81322313  0.57742233  0.91178488  1
  O2-  O192  1  0.04722915  0.08344013  0.26983120  1
  O2-  O193  1  0.04365673  0.08717599  0.59875397  1
  O2-  O194  1  0.03905302  0.08563104  0.93045468  1
  O2-  O195  1  0.03674508  0.58901342  0.26361016  1
  O2-  O196  1  0.04030196  0.58870119  0.60162314  1
  O2-  O197  1  0.04254049  0.58342122  0.92862853  1
  O2-  O198  1  0.54108582  0.08609649  0.27161315  1
  O2-  O199  1  0.55242204  0.08147997  0.60608257  1
  O2-  O200  1  0.54879781  0.08297308  0.93828421  1
  O2-  O201  1  0.54457399  0.58443708  0.27220757  1
  O2-  O202  1  0.55356503  0.58179266  0.60129561  1
  O2-  O203  1  0.54166604  0.57915460  0.93425691  1
  O2-  O204  1  0.16660627  0.20344361  0.27058972  1
  O2-  O205  1  0.16663988  0.20209414  0.60181620  1
  O2-  O206  1  0.17412714  0.20624167  0.93431247  1
  O2-  O207  1  0.16933395  0.71103600  0.26588137  1
  O2-  O208  1  0.16746969  0.70187233  0.60561112  1
  O2-  O209  1  0.17725998  0.70222764  0.93427468  1
  O2-  O210  1  0.65949146  0.20633284  0.26935244  1
  O2-  O211  1  0.66269242  0.20868384  0.59828231  1
  O2-  O212  1  0.66029083  0.20771776  0.93645988  1
  O2-  O213  1  0.66362946  0.70571427  0.27053231  1
  O2-  O214  1  0.66553332  0.70606660  0.60137990  1
  O2-  O215  1  0.66173809  0.70979840  0.93047158  1
  O2-  O216  1  0.07244256  0.45181341  0.06253384  1
  O2-  O217  1  0.08119306  0.45876556  0.39166733  1
  O2-  O218  1  0.07881046  0.45794914  0.73282764  1
  O2-  O219  1  0.07651417  0.95826972  0.06729482  1
  O2-  O220  1  0.08028345  0.94914003  0.39254872  1
  O2-  O221  1  0.07527912  0.95424573  0.72861572  1
  O2-  O222  1  0.58769842  0.46133672  0.07150531  1
  O2-  O223  1  0.58823899  0.45748493  0.39921308  1
  O2-  O224  1  0.58989919  0.45424587  0.72680536  1
  O2-  O225  1  0.59127635  0.95765517  0.06488673  1
  O2-  O226  1  0.58723859  0.96326220  0.40280745  1
  O2-  O227  1  0.58727345  0.95991880  0.73934833  1
  O2-  O228  1  0.20928754  0.33536803  0.07177140  1
  O2-  O229  1  0.19839729  0.33638885  0.39344321  1
  O2-  O230  1  0.20388321  0.33100961  0.72967294  1
  O2-  O231  1  0.20584419  0.83280852  0.06983884  1
  O2-  O232  1  0.20655508  0.83668960  0.39585352  1
  O2-  O233  1  0.20553382  0.83123769  0.73217911  1
  O2-  O234  1  0.70755563  0.32974013  0.06933695  1
  O2-  O235  1  0.70347596  0.33377235  0.39733899  1
  O2-  O236  1  0.70828377  0.33448641  0.72559550  1
  O2-  O237  1  0.70687671  0.83389561  0.06174347  1
  O2-  O238  1  0.70739742  0.82976964  0.40237122  1
  O2-  O239  1  0.71079386  0.82968925  0.73572292  1
  O2-  O240  1  0.46176253  0.41322422  0.27070716  1
  O2-  O241  1  0.46610520  0.41353639  0.59522805  1
  O2-  O242  1  0.46714806  0.40757580  0.93986287  1
  O2-  O243  1  0.46425666  0.91266552  0.27207075  1
  O2-  O244  1  0.46580547  0.91570416  0.59947434  1
  O2-  O245  1  0.46542159  0.91438219  0.93619901  1
  O2-  O246  1  0.95379678  0.41706431  0.26299132  1
  O2-  O247  1  0.95667345  0.41976335  0.59814470  1
  O2-  O248  1  0.93798128  0.42496567  0.93759897  1
  O2-  O249  1  0.94036019  0.91989724  0.27796413  1
  O2-  O250  1  0.94973747  0.92080344  0.59682733  1
  O2-  O251  1  0.94408468  0.92334753  0.93656660  1
  O2-  O252  1  0.33510855  0.29810867  0.27216729  1
  O2-  O253  1  0.33178577  0.29378518  0.59617707  1
  O2-  O254  1  0.33811533  0.29702907  0.94202346  1
  O2-  O255  1  0.33898128  0.79792145  0.27155066  1
  O2-  O256  1  0.33323274  0.79174529  0.59726448  1
  O2-  O257  1  0.33353292  0.80860574  0.94320800  1
  O2-  O258  1  0.82940731  0.28882750  0.26729606  1
  O2-  O259  1  0.83393233  0.28788728  0.59557245  1
  O2-  O260  1  0.82967219  0.28375792  0.93305201  1
  O2-  O261  1  0.83352445  0.78904550  0.27295910  1
  O2-  O262  1  0.83377570  0.78382524  0.59751155  1
  O2-  O263  1  0.83270822  0.78564657  0.93309747  1
  O2-  O264  1  0.42174764  0.04137131  0.06894273  1
  O2-  O265  1  0.41578971  0.04068397  0.40299735  1
  O2-  O266  1  0.42130553  0.04501076  0.73200932  1
  O2-  O267  1  0.41708384  0.53430206  0.06975776  1
  O2-  O268  1  0.41813483  0.54087138  0.40344173  1
  O2-  O269  1  0.42479204  0.54214926  0.72917385  1
  O2-  O270  1  0.91197918  0.04973797  0.06262324  1
  O2-  O271  1  0.91753135  0.05680234  0.39495388  1
  O2-  O272  1  0.91688727  0.05516302  0.72536797  1
  O2-  O273  1  0.91584497  0.55737360  0.05992188  1
  O2-  O274  1  0.91285786  0.54174727  0.39480908  1
  O2-  O275  1  0.91313022  0.54630546  0.72809390  1
  O2-  O276  1  0.29765679  0.17070320  0.06911114  1
  O2-  O277  1  0.29216370  0.17069479  0.40042864  1
  O2-  O278  1  0.29696844  0.17156092  0.73115941  1
  O2-  O279  1  0.30503731  0.67325473  0.06574246  1
  O2-  O280  1  0.29186379  0.66995532  0.39994870  1
  O2-  O281  1  0.29969518  0.66985897  0.73356217  1
  O2-  O282  1  0.78353468  0.15835982  0.06704956  1
  O2-  O283  1  0.78695594  0.16367334  0.39890557  1
  O2-  O284  1  0.78724182  0.16442747  0.73077006  1
  O2-  O285  1  0.78293494  0.66256330  0.06680054  1
  O2-  O286  1  0.78975104  0.65808745  0.39913249  1
  O2-  O287  1  0.78885177  0.65955977  0.73041893  1
