# generated using pymatgen
data_Ca2Al2SiO7
_symmetry_space_group_name_H-M   'P 1'
_cell_length_a   15.46111047
_cell_length_b   15.46036765
_cell_length_c   15.28569837
_cell_angle_alpha   89.99665155
_cell_angle_beta   89.99793030
_cell_angle_gamma   90.00058250
_symmetry_Int_Tables_number   1
_chemical_formula_structural   Ca2Al2SiO7
_chemical_formula_sum   'Ca48 Al48 Si24 O168'
_cell_volume   3653.80852594
_cell_formula_units_Z   24
loop_
 _symmetry_equiv_pos_site_id
 _symmetry_equiv_pos_as_xyz
  1  'x, y, z'
loop_
 _atom_type_symbol
 _atom_type_oxidation_number
  Ca2+  2.0
  Al0+  0.0
  Si0+  0.0
  O2-  -2.0
loop_
 _atom_site_type_symbol
 _atom_site_label
 _atom_site_symmetry_multiplicity
 _atom_site_fract_x
 _atom_site_fract_y
 _atom_site_fract_z
 _atom_site_occupancy
  Ca2+  Ca0  1  0.16072782  0.08027872  0.16363318  1
  Ca2+  Ca1  1  0.17502497  0.08276109  0.50841837  1
  Ca2+  Ca2  1  0.17240975  0.07940138  0.84003181  1
  Ca2+  Ca3  1  0.17316984  0.58425781  0.17143027  1
  Ca2+  Ca4  1  0.18124235  0.58124452  0.50445999  1
  Ca2+  Ca5  1  0.17482485  0.58962979  0.83725310  1
  Ca2+  Ca6  1  0.66697754  0.08798496  0.16429162  1
  Ca2+  Ca7  1  0.67108938  0.07382709  0.51349844  1
  Ca2+  Ca8  1  0.67314730  0.07971074  0.83936536  1
  Ca2+  Ca9  1  0.66735917  0.57637863  0.17090303  1
  Ca2+  Ca10  1  0.65892742  0.57512263  0.50185338  1
  Ca2+  Ca11  1  0.66124463  0.57777647  0.83878370  1
  Ca2+  Ca12  1  0.07332391  0.33185043  0.16024073  1
  Ca2+  Ca13  1  0.07374113  0.33297480  0.49356343  1
  Ca2+  Ca14  1  0.07988002  0.32719270  0.83175045  1
  Ca2+  Ca15  1  0.08244296  0.82673333  0.15591420  1
  Ca2+  Ca16  1  0.07624025  0.83406414  0.50126118  1
  Ca2+  Ca17  1  0.07904071  0.83381596  0.83296836  1
  Ca2+  Ca18  1  0.57663678  0.34144784  0.16068538  1
  Ca2+  Ca19  1  0.57777673  0.34212504  0.49843421  1
  Ca2+  Ca20  1  0.57845101  0.33770931  0.83158377  1
  Ca2+  Ca21  1  0.58480934  0.81858442  0.16194130  1
  Ca2+  Ca22  1  0.58577348  0.82239397  0.49950154  1
  Ca2+  Ca23  1  0.58633247  0.82191853  0.82360268  1
  Ca2+  Ca24  1  0.33758715  0.41731078  0.17174385  1
  Ca2+  Ca25  1  0.34568043  0.42502825  0.50357146  1
  Ca2+  Ca26  1  0.34175476  0.41937576  0.83347025  1
  Ca2+  Ca27  1  0.32573204  0.91469886  0.16779538  1
  Ca2+  Ca28  1  0.33615605  0.92300062  0.51232835  1
  Ca2+  Ca29  1  0.33601713  0.92063356  0.83712472  1
  Ca2+  Ca30  1  0.82364788  0.42519518  0.17377262  1
  Ca2+  Ca31  1  0.82260211  0.41871279  0.50257282  1
  Ca2+  Ca32  1  0.81716941  0.42271229  0.84266308  1
  Ca2+  Ca33  1  0.83495053  0.92450645  0.16492051  1
  Ca2+  Ca34  1  0.82788881  0.92034416  0.51243928  1
  Ca2+  Ca35  1  0.83246718  0.92066784  0.83161617  1
  Ca2+  Ca36  1  0.42622221  0.18072463  0.15644887  1
  Ca2+  Ca37  1  0.41499688  0.17708261  0.49686831  1
  Ca2+  Ca38  1  0.42057756  0.17585867  0.82820857  1
  Ca2+  Ca39  1  0.42851037  0.65792467  0.16443855  1
  Ca2+  Ca40  1  0.42684599  0.65960915  0.50047147  1
  Ca2+  Ca41  1  0.42716170  0.67033255  0.82475870  1
  Ca2+  Ca42  1  0.91593844  0.17408356  0.15902109  1
  Ca2+  Ca43  1  0.91245057  0.17205719  0.49695502  1
  Ca2+  Ca44  1  0.91990068  0.15343718  0.83178308  1
  Ca2+  Ca45  1  0.91867075  0.66057078  0.15766815  1
  Ca2+  Ca46  1  0.91059556  0.67123696  0.49563292  1
  Ca2+  Ca47  1  0.92182105  0.66547712  0.82893784  1
  Al0+  Al48  1  0.00044572  0.00006113  0.00536465  1
  Al0+  Al49  1  0.00023187  -0.00186624  0.33434251  1
  Al0+  Al50  1  0.00195297  -0.00152437  0.66297818  1
  Al0+  Al51  1  0.00234678  0.50030013  -0.00391921  1
  Al0+  Al52  1  -0.00005891  0.50035271  0.33272923  1
  Al0+  Al53  1  0.00161978  0.49719273  0.66421272  1
  Al0+  Al54  1  0.49960173  0.00246302  0.00141390  1
  Al0+  Al55  1  0.49827866  -0.00068870  0.33267863  1
  Al0+  Al56  1  0.50082890  -0.00034140  0.67399442  1
  Al0+  Al57  1  0.49911780  0.50272827  -0.00420016  1
  Al0+  Al58  1  0.50001225  0.50037737  0.33198411  1
  Al0+  Al59  1  0.49898347  0.49963196  0.66865519  1
  Al0+  Al60  1  0.24821123  0.25123386  -0.00615001  1
  Al0+  Al61  1  0.24917221  0.24796229  0.32885858  1
  Al0+  Al62  1  0.24986154  0.24897018  0.66552163  1
  Al0+  Al63  1  0.24824791  0.75119613  0.00144340  1
  Al0+  Al64  1  0.24823554  0.75078826  0.33952600  1
  Al0+  Al65  1  0.24990430  0.74921001  0.66714224  1
  Al0+  Al66  1  0.74748494  0.25095887  0.00516294  1
  Al0+  Al67  1  0.75054177  0.25007845  0.33304302  1
  Al0+  Al68  1  0.75129274  0.25077140  0.67507531  1
  Al0+  Al69  1  0.75099895  0.75204732  -0.00100517  1
  Al0+  Al70  1  0.75017598  0.75219346  0.32945952  1
  Al0+  Al71  1  0.75292337  0.74907857  0.66085186  1
  Al0+  Al72  1  0.92788835  0.32161953  0.31946583  1
  Al0+  Al73  1  0.93192680  0.81925195  0.65274942  1
  Al0+  Al74  1  0.42990152  0.31831030  0.65106744  1
  Al0+  Al75  1  0.56973877  0.68059086  0.31792449  1
  Al0+  Al76  1  0.82224305  0.07082347  0.68113255  1
  Al0+  Al77  1  0.32025785  0.56955584  0.34648862  1
  Al0+  Al78  1  0.82310538  0.57347428  0.34862127  1
  Al0+  Al79  1  0.06757484  0.17840077  0.98584150  1
  Al0+  Al80  1  0.43026831  0.32012485  0.31977743  1
  Al0+  Al81  1  0.82017526  0.07007827  0.01506273  1
  Al0+  Al82  1  0.67625284  0.43169334  0.01640094  1
  Al0+  Al83  1  0.42777526  0.82350015  0.65347498  1
  Al0+  Al84  1  0.67907916  0.43129676  0.68185798  1
  Al0+  Al85  1  0.31932739  0.56983234  0.68215159  1
  Al0+  Al86  1  0.57104569  0.67856742  0.65036908  1
  Al0+  Al87  1  0.57190669  0.68163555  0.98628098  1
  Al0+  Al88  1  0.07177824  0.67788369  0.98651341  1
  Al0+  Al89  1  0.67889644  0.92556821  0.68156657  1
  Al0+  Al90  1  0.42911474  0.32222627  0.98294111  1
  Al0+  Al91  1  0.57345751  0.17774356  0.98343072  1
  Al0+  Al92  1  0.67922376  0.42910870  0.34965739  1
  Al0+  Al93  1  0.32244267  0.07218856  0.68082879  1
  Al0+  Al94  1  0.18083819  0.93061741  0.01386953  1
  Al0+  Al95  1  0.82331216  0.57266189  0.01246729  1
  Si0+  Si96  1  0.67808562  0.92993097  0.34672907  1
  Si0+  Si97  1  0.07150533  0.68062287  0.31922493  1
  Si0+  Si98  1  0.17748569  0.42504280  0.34833165  1
  Si0+  Si99  1  0.32190027  0.07507244  0.01871714  1
  Si0+  Si100  1  0.57187011  0.17403836  0.31864425  1
  Si0+  Si101  1  0.17867855  0.92846039  0.68308679  1
  Si0+  Si102  1  0.82170461  0.06990583  0.34796895  1
  Si0+  Si103  1  0.31843235  0.57101306  0.01455929  1
  Si0+  Si104  1  0.07077185  0.17648803  0.31642578  1
  Si0+  Si105  1  0.82573055  0.57170878  0.68174170  1
  Si0+  Si106  1  0.57488427  0.17818174  0.65216083  1
  Si0+  Si107  1  0.17797428  0.92897433  0.35111401  1
  Si0+  Si108  1  0.17585351  0.42667376  0.68364065  1
  Si0+  Si109  1  0.92935645  0.82280049  0.98425094  1
  Si0+  Si110  1  0.42675886  0.82212059  0.98679525  1
  Si0+  Si111  1  0.67561182  0.92749187  0.01842731  1
  Si0+  Si112  1  0.92771304  0.32115622  0.65245904  1
  Si0+  Si113  1  0.42540165  0.82435236  0.31675802  1
  Si0+  Si114  1  0.07016096  0.17878013  0.65084992  1
  Si0+  Si115  1  0.31991050  0.07048831  0.34719480  1
  Si0+  Si116  1  0.07330230  0.67461124  0.64747749  1
  Si0+  Si117  1  0.92733345  0.32253768  0.98251586  1
  Si0+  Si118  1  0.17865753  0.42683932  0.01444444  1
  Si0+  Si119  1  0.92949703  0.82214760  0.31604742  1
  O2-  O120  1  0.25500736  0.00451427  0.06371946  1
  O2-  O121  1  0.24998289  -0.00080821  0.39163185  1
  O2-  O122  1  0.25267288  -0.00831741  0.72598155  1
  O2-  O123  1  0.24968595  0.49758080  0.05678234  1
  O2-  O124  1  0.24811724  0.49122716  0.39277500  1
  O2-  O125  1  0.24270666  0.49645667  0.72848451  1
  O2-  O126  1  0.74260674  -0.00156547  0.06298103  1
  O2-  O127  1  0.74732272  0.00271155  0.38927852  1
  O2-  O128  1  0.74866171  0.00054667  0.73036863  1
  O2-  O129  1  0.75080876  0.50263042  0.06422450  1
  O2-  O130  1  0.75125878  0.50199357  0.39936438  1
  O2-  O131  1  0.75413045  0.50714957  0.72599349  1
  O2-  O132  1  0.00328023  0.24648096  0.27349708  1
  O2-  O133  1  -0.00178510  0.24903842  0.60971390  1
  O2-  O134  1  -0.00910185  0.24941418  0.93657965  1
  O2-  O135  1  -0.00324628  0.74705866  0.27542878  1
  O2-  O136  1  0.00305939  0.74177341  0.60332787  1
  O2-  O137  1  -0.00760880  0.74806528  0.94140927  1
  O2-  O138  1  0.50661930  0.24638930  0.27527726  1
  O2-  O139  1  0.50485016  0.24344118  0.60435072  1
  O2-  O140  1  0.50164656  0.25008703  0.93423764  1
  O2-  O141  1  0.49251563  0.75468932  0.27253783  1
  O2-  O142  1  0.49985474  0.75302932  0.60123641  1
  O2-  O143  1  0.50064987  0.76062653  0.94212617  1
  O2-  O144  1  0.06660012  0.18104331  0.09930255  1
  O2-  O145  1  0.07118593  0.17493733  0.42226621  1
  O2-  O146  1  0.07014380  0.17785760  0.75567376  1
  O2-  O147  1  0.07500873  0.68071808  0.10010893  1
  O2-  O148  1  0.07352031  0.68424831  0.42406992  1
  O2-  O149  1  0.07259847  0.67450998  0.75304199  1
  O2-  O150  1  0.56902521  0.17608248  0.09769546  1
  O2-  O151  1  0.56864818  0.16733109  0.42394511  1
  O2-  O152  1  0.57464102  0.18120045  0.75716885  1
  O2-  O153  1  0.56893736  0.68070251  0.09979393  1
  O2-  O154  1  0.56938278  0.68189365  0.43050859  1
  O2-  O155  1  0.56923182  0.67892247  0.76397393  1
  O2-  O156  1  0.17659197  0.42608201  0.24263214  1
  O2-  O157  1  0.17267881  0.42745033  0.57785696  1
  O2-  O158  1  0.17705827  0.42646771  0.90951528  1
  O2-  O159  1  0.17652694  0.92803359  0.24621974  1
  O2-  O160  1  0.17578877  0.93282563  0.57682421  1
  O2-  O161  1  0.18206626  0.93113405  0.90111788  1
  O2-  O162  1  0.67869165  0.43036077  0.23650882  1
  O2-  O163  1  0.68083117  0.42980034  0.56872872  1
  O2-  O164  1  0.67618727  0.43427753  0.90273671  1
  O2-  O165  1  0.67928710  0.93069584  0.24166042  1
  O2-  O166  1  0.68156174  0.92793015  0.56686148  1
  O2-  O167  1  0.67673365  0.92570929  0.91350812  1
  O2-  O168  1  0.42802035  0.32180820  0.09707868  1
  O2-  O169  1  0.42886462  0.31744054  0.43278529  1
  O2-  O170  1  0.42869486  0.31783454  0.76340088  1
  O2-  O171  1  0.42441927  0.81835384  0.09288405  1
  O2-  O172  1  0.42699557  0.82960258  0.42160627  1
  O2-  O173  1  0.42622665  0.82004557  0.76718261  1
  O2-  O174  1  0.93280972  0.32257095  0.08828949  1
  O2-  O175  1  0.92974492  0.31756518  0.43314856  1
  O2-  O176  1  0.93122121  0.32389774  0.75701996  1
  O2-  O177  1  0.93280810  0.82453613  0.09045112  1
  O2-  O178  1  0.93285238  0.82633524  0.42087953  1
  O2-  O179  1  0.93592938  0.82112701  0.76554772  1
  O2-  O180  1  0.31806628  0.06891754  0.24248511  1
  O2-  O181  1  0.31648840  0.07427078  0.56675533  1
  O2-  O182  1  0.31991046  0.07389059  0.91330130  1
  O2-  O183  1  0.31700732  0.57062766  0.23304048  1
  O2-  O184  1  0.31855040  0.56698282  0.56877226  1
  O2-  O185  1  0.31605620  0.57256019  0.90967593  1
  O2-  O186  1  0.82477169  0.06728929  0.24308531  1
  O2-  O187  1  0.82167405  0.07028923  0.56657604  1
  O2-  O188  1  0.82390134  0.06318847  0.90280169  1
  O2-  O189  1  0.82423950  0.57230432  0.23538819  1
  O2-  O190  1  0.82960115  0.56783661  0.57629584  1
  O2-  O191  1  0.82538328  0.57013794  0.89884913  1
  O2-  O192  1  0.04288321  0.08275542  0.27112139  1
  O2-  O193  1  0.04399890  0.08778086  0.60066763  1
  O2-  O194  1  0.03863477  0.08063168  0.93357381  1
  O2-  O195  1  0.05047451  0.58679099  0.27301385  1
  O2-  O196  1  0.05098718  0.57990162  0.60172312  1
  O2-  O197  1  0.04822365  0.58092226  0.92992561  1
  O2-  O198  1  0.54260231  0.08270670  0.26849057  1
  O2-  O199  1  0.55212942  0.08241122  0.60953776  1
  O2-  O200  1  0.54570703  0.07795249  0.93226634  1
  O2-  O201  1  0.53679097  0.58504652  0.26401860  1
  O2-  O202  1  0.53579791  0.58188611  0.59812121  1
  O2-  O203  1  0.53561515  0.58853062  0.93106617  1
  O2-  O204  1  0.16438275  0.19862644  0.26918060  1
  O2-  O205  1  0.16047060  0.20841619  0.60126534  1
  O2-  O206  1  0.16302699  0.20971441  0.93066396  1
  O2-  O207  1  0.16191852  0.71382892  0.27133295  1
  O2-  O208  1  0.16574062  0.70322205  0.60102143  1
  O2-  O209  1  0.16583235  0.71539706  0.93161235  1
  O2-  O210  1  0.66749655  0.19528456  0.27553540  1
  O2-  O211  1  0.66917951  0.20453557  0.60686961  1
  O2-  O212  1  0.67401152  0.20185402  0.93400131  1
  O2-  O213  1  0.66558607  0.71468774  0.26357518  1
  O2-  O214  1  0.67055287  0.70294871  0.59768593  1
  O2-  O215  1  0.66955238  0.70917757  0.93295412  1
  O2-  O216  1  0.08761000  0.45599419  0.06264790  1
  O2-  O217  1  0.08526144  0.45328167  0.39580224  1
  O2-  O218  1  0.08187148  0.44997207  0.73075438  1
  O2-  O219  1  0.08621024  0.96213038  0.07169997  1
  O2-  O220  1  0.08670697  0.95914045  0.39941108  1
  O2-  O221  1  0.08814456  0.96148609  0.72987951  1
  O2-  O222  1  0.57808985  0.46475319  0.06796298  1
  O2-  O223  1  0.58087995  0.45973598  0.40125714  1
  O2-  O224  1  0.58321065  0.46218390  0.73561557  1
  O2-  O225  1  0.58139403  0.95089900  0.06552951  1
  O2-  O226  1  0.58509891  0.95487835  0.39353577  1
  O2-  O227  1  0.58068273  0.94857275  0.73580905  1
  O2-  O228  1  0.20499189  0.33511019  0.06305886  1
  O2-  O229  1  0.19863449  0.32928249  0.39267220  1
  O2-  O230  1  0.20200454  0.33299680  0.72825979  1
  O2-  O231  1  0.21210138  0.83463070  0.07101430  1
  O2-  O232  1  0.20266861  0.83782987  0.40079946  1
  O2-  O233  1  0.19517317  0.83218953  0.72593405  1
  O2-  O234  1  0.69973558  0.33195636  0.06836257  1
  O2-  O235  1  0.70664897  0.32893716  0.40120666  1
  O2-  O236  1  0.71108762  0.33605979  0.73712045  1
  O2-  O237  1  0.70540702  0.83558397  0.06633012  1
  O2-  O238  1  0.70881815  0.83948162  0.39386655  1
  O2-  O239  1  0.71301587  0.82801251  0.73251922  1
  O2-  O240  1  0.45858701  0.41674011  0.26558027  1
  O2-  O241  1  0.46266584  0.41503181  0.59930859  1
  O2-  O242  1  0.45685886  0.42058516  0.93059006  1
  O2-  O243  1  0.45077849  0.91725321  0.26783728  1
  O2-  O244  1  0.45214030  0.92471001  0.60310473  1
  O2-  O245  1  0.44397438  0.91932855  0.94607367  1
  O2-  O246  1  0.96034742  0.41763400  0.26509136  1
  O2-  O247  1  0.95772397  0.41101646  0.60151512  1
  O2-  O248  1  0.95985755  0.41272123  0.93414863  1
  O2-  O249  1  0.96329937  0.91224925  0.26761703  1
  O2-  O250  1  0.96703745  0.91399947  0.59484971  1
  O2-  O251  1  0.96460415  0.91286102  0.93820637  1
  O2-  O252  1  0.33269179  0.28973633  0.26591560  1
  O2-  O253  1  0.33208528  0.28829618  0.59742429  1
  O2-  O254  1  0.33002002  0.29551435  0.93075615  1
  O2-  O255  1  0.32960511  0.79931009  0.27427330  1
  O2-  O256  1  0.32754569  0.79769806  0.60109856  1
  O2-  O257  1  0.33544363  0.79200305  0.93952353  1
  O2-  O258  1  0.83253614  0.28934450  0.26420697  1
  O2-  O259  1  0.83628292  0.29212346  0.60538741  1
  O2-  O260  1  0.83109599  0.30220156  0.94246546  1
  O2-  O261  1  0.83660348  0.80179458  0.26831699  1
  O2-  O262  1  0.83629615  0.79271667  0.59464348  1
  O2-  O263  1  0.83395526  0.80622202  0.93994178  1
  O2-  O264  1  0.41578131  0.05165330  0.06533107  1
  O2-  O265  1  0.41198035  0.04405962  0.39478737  1
  O2-  O266  1  0.41894360  0.04843027  0.73691580  1
  O2-  O267  1  0.41040180  0.54361774  0.06074333  1
  O2-  O268  1  0.41615842  0.53903576  0.40030277  1
  O2-  O269  1  0.41403684  0.53696224  0.73668206  1
  O2-  O270  1  0.91465256  0.03576103  0.07232244  1
  O2-  O271  1  0.91264961  0.03843612  0.39598208  1
  O2-  O272  1  0.92102611  0.03779051  0.73061971  1
  O2-  O273  1  0.92337730  0.54366038  0.06372541  1
  O2-  O274  1  0.92304649  0.54727092  0.40073031  1
  O2-  O275  1  0.91936826  0.54359015  0.72748332  1
  O2-  O276  1  0.29112426  0.16799877  0.06313827  1
  O2-  O277  1  0.29016085  0.16195595  0.39491346  1
  O2-  O278  1  0.28393665  0.16589864  0.73504390  1
  O2-  O279  1  0.28766065  0.66112681  0.06345658  1
  O2-  O280  1  0.28676308  0.66513390  0.40166064  1
  O2-  O281  1  0.28838965  0.66687678  0.73574586  1
  O2-  O282  1  0.79369634  0.16763676  0.06977040  1
  O2-  O283  1  0.79902133  0.16308968  0.39410800  1
  O2-  O284  1  0.80049220  0.16916666  0.73553967  1
  O2-  O285  1  0.80122015  0.67389993  0.06297755  1
  O2-  O286  1  0.79732173  0.67503261  0.39689328  1
  O2-  O287  1  0.80638800  0.66774073  0.72339735  1
