# generated using pymatgen
data_Ca2Al2SiO7
_symmetry_space_group_name_H-M   'P 1'
_cell_length_a   15.46338595
_cell_length_b   15.46192131
_cell_length_c   15.28715473
_cell_angle_alpha   90.00312060
_cell_angle_beta   90.01364815
_cell_angle_gamma   89.97994293
_symmetry_Int_Tables_number   1
_chemical_formula_structural   Ca2Al2SiO7
_chemical_formula_sum   'Ca48 Al48 Si24 O168'
_cell_volume   3655.06139381
_cell_formula_units_Z   24
loop_
 _symmetry_equiv_pos_site_id
 _symmetry_equiv_pos_as_xyz
  1  'x, y, z'
loop_
 _atom_type_symbol
 _atom_type_oxidation_number
  Ca2+  2.0
  Al0+  0.0
  Si0+  0.0
  O2-  -2.0
loop_
 _atom_site_type_symbol
 _atom_site_label
 _atom_site_symmetry_multiplicity
 _atom_site_fract_x
 _atom_site_fract_y
 _atom_site_fract_z
 _atom_site_occupancy
  Ca2+  Ca0  1  0.17111878  0.07624415  0.17553985  1
  Ca2+  Ca1  1  0.16790129  0.06922020  0.50417897  1
  Ca2+  Ca2  1  0.16739770  0.07689926  0.83428614  1
  Ca2+  Ca3  1  0.16673125  0.58821079  0.17279085  1
  Ca2+  Ca4  1  0.16234070  0.58162767  0.49904199  1
  Ca2+  Ca5  1  0.17539161  0.58709049  0.84424286  1
  Ca2+  Ca6  1  0.67447109  0.08092451  0.17527648  1
  Ca2+  Ca7  1  0.67167225  0.08110248  0.49952204  1
  Ca2+  Ca8  1  0.67297265  0.08882349  0.83861267  1
  Ca2+  Ca9  1  0.65724711  0.57319721  0.17150380  1
  Ca2+  Ca10  1  0.65515324  0.58120187  0.50099539  1
  Ca2+  Ca11  1  0.65925660  0.57708859  0.84214154  1
  Ca2+  Ca12  1  0.07654260  0.33465248  0.16295329  1
  Ca2+  Ca13  1  0.08277953  0.33141326  0.49178519  1
  Ca2+  Ca14  1  0.07439774  0.33354332  0.83324113  1
  Ca2+  Ca15  1  0.07583792  0.83068295  0.16526562  1
  Ca2+  Ca16  1  0.07683719  0.83723714  0.49179662  1
  Ca2+  Ca17  1  0.07433362  0.83455785  0.83160134  1
  Ca2+  Ca18  1  0.59722308  0.32367481  0.16328541  1
  Ca2+  Ca19  1  0.58362825  0.32333959  0.49695091  1
  Ca2+  Ca20  1  0.58534800  0.32407623  0.82967161  1
  Ca2+  Ca21  1  0.58695547  0.82543730  0.16536808  1
  Ca2+  Ca22  1  0.58287608  0.82575748  0.48661469  1
  Ca2+  Ca23  1  0.58859355  0.81796894  0.82894889  1
  Ca2+  Ca24  1  0.32721415  0.42603863  0.17287046  1
  Ca2+  Ca25  1  0.33104819  0.41378135  0.50301710  1
  Ca2+  Ca26  1  0.33722106  0.42088290  0.84038456  1
  Ca2+  Ca27  1  0.32845863  0.91093369  0.17615278  1
  Ca2+  Ca28  1  0.32218438  0.90308397  0.50002190  1
  Ca2+  Ca29  1  0.32435300  0.90976465  0.83556189  1
  Ca2+  Ca30  1  0.82446345  0.41560128  0.17032184  1
  Ca2+  Ca31  1  0.82572633  0.42194536  0.49916029  1
  Ca2+  Ca32  1  0.82650429  0.41882747  0.84405523  1
  Ca2+  Ca33  1  0.83476891  0.92396146  0.17377959  1
  Ca2+  Ca34  1  0.83660849  0.92397949  0.50299772  1
  Ca2+  Ca35  1  0.83923708  0.92570375  0.83681637  1
  Ca2+  Ca36  1  0.43353024  0.16448245  0.16310886  1
  Ca2+  Ca37  1  0.42813767  0.16752350  0.49481247  1
  Ca2+  Ca38  1  0.43065602  0.17320315  0.82461854  1
  Ca2+  Ca39  1  0.42256809  0.66857612  0.16714208  1
  Ca2+  Ca40  1  0.42701938  0.67226819  0.49414010  1
  Ca2+  Ca41  1  0.42561278  0.65900942  0.83404792  1
  Ca2+  Ca42  1  0.90763547  0.16982543  0.16072395  1
  Ca2+  Ca43  1  0.91084784  0.16246387  0.49703994  1
  Ca2+  Ca44  1  0.90604305  0.17021677  0.83305262  1
  Ca2+  Ca45  1  0.92512966  0.67818673  0.16087153  1
  Ca2+  Ca46  1  0.92062858  0.68408655  0.48988129  1
  Ca2+  Ca47  1  0.91546732  0.68251381  0.82990497  1
  Al0+  Al48  1  0.00142065  0.00111565  0.00149710  1
  Al0+  Al49  1  0.00315259  0.00235611  0.33658007  1
  Al0+  Al50  1  -0.00005610  0.00121170  0.67331543  1
  Al0+  Al51  1  0.00004285  0.49939682  -0.00870826  1
  Al0+  Al52  1  -0.00008383  0.49938809  0.33521635  1
  Al0+  Al53  1  -0.00125168  0.49995733  0.66867028  1
  Al0+  Al54  1  0.49993304  -0.00052756  -0.00671676  1
  Al0+  Al55  1  0.50176289  0.00190619  0.32859594  1
  Al0+  Al56  1  0.49929166  -0.00170928  0.66383040  1
  Al0+  Al57  1  0.49707650  0.49958903  0.00829145  1
  Al0+  Al58  1  0.49764954  0.49888815  0.33693401  1
  Al0+  Al59  1  0.49778268  0.49845293  0.66009377  1
  Al0+  Al60  1  0.24966595  0.24906627  0.00125461  1
  Al0+  Al61  1  0.25010564  0.25145875  0.33661625  1
  Al0+  Al62  1  0.24781648  0.24983230  0.66614182  1
  Al0+  Al63  1  0.25023804  0.74919292  0.00267755  1
  Al0+  Al64  1  0.25156687  0.74871651  0.33324071  1
  Al0+  Al65  1  0.24975491  0.74635231  0.67430038  1
  Al0+  Al66  1  0.75080222  0.25021264  -0.00164068  1
  Al0+  Al67  1  0.75008427  0.25276031  0.33967031  1
  Al0+  Al68  1  0.74948797  0.25134075  0.66538216  1
  Al0+  Al69  1  0.75010135  0.75010715  -0.00900452  1
  Al0+  Al70  1  0.75120187  0.75000666  0.32604165  1
  Al0+  Al71  1  0.75212674  0.75009830  0.65745845  1
  Al0+  Al72  1  0.67804694  0.43106696  0.34945733  1
  Al0+  Al73  1  0.18052391  0.92856421  0.68270444  1
  Al0+  Al74  1  0.57178995  0.17913991  0.98614734  1
  Al0+  Al75  1  0.92910173  0.82370981  0.98333279  1
  Al0+  Al76  1  0.92944537  0.82605486  0.31732513  1
  Al0+  Al77  1  0.81937045  0.06912457  0.01331878  1
  Al0+  Al78  1  0.67834610  0.92669936  0.34588026  1
  Al0+  Al79  1  0.56872337  0.67761346  0.98729132  1
  Al0+  Al80  1  0.57055524  0.67969893  0.65286340  1
  Al0+  Al81  1  0.18217277  0.92872949  0.34594550  1
  Al0+  Al82  1  0.07020372  0.67777248  0.32020187  1
  Al0+  Al83  1  0.17787973  0.42946194  0.34717588  1
  Al0+  Al84  1  0.42968346  0.82206386  0.31934280  1
  Al0+  Al85  1  0.42743696  0.32027566  0.65189683  1
  Al0+  Al86  1  0.57238402  0.18201123  0.31842514  1
  Al0+  Al87  1  0.57352950  0.17716240  0.64926861  1
  Al0+  Al88  1  0.93233853  0.82316941  0.65095385  1
  Al0+  Al89  1  0.68026230  0.43080393  0.01262259  1
  Al0+  Al90  1  0.07269009  0.67939182  0.98396823  1
  Al0+  Al91  1  0.82126310  0.07103092  0.34850539  1
  Al0+  Al92  1  0.81737614  0.07040733  0.68266975  1
  Al0+  Al93  1  0.57245577  0.67671884  0.31664129  1
  Al0+  Al94  1  0.31964846  0.57066158  0.01666810  1
  Al0+  Al95  1  0.92921961  0.31954223  0.98723063  1
  Si0+  Si96  1  0.17571046  0.42658414  0.01576927  1
  Si0+  Si97  1  0.67919125  0.43255921  0.68168111  1
  Si0+  Si98  1  0.31985438  0.56653778  0.68283616  1
  Si0+  Si99  1  0.42545274  0.32129962  0.31504092  1
  Si0+  Si100  1  0.07329606  0.17988859  0.31993565  1
  Si0+  Si101  1  0.67599829  0.92439168  0.68220588  1
  Si0+  Si102  1  0.42607249  0.32054092  0.98691903  1
  Si0+  Si103  1  0.32373323  0.07354126  0.34941980  1
  Si0+  Si104  1  0.18116665  0.93055981  0.01667470  1
  Si0+  Si105  1  0.82318526  0.57197195  0.34834350  1
  Si0+  Si106  1  0.92985151  0.32014774  0.32036252  1
  Si0+  Si107  1  0.32274413  0.07394098  0.68368569  1
  Si0+  Si108  1  0.42713192  0.82235041  0.98210715  1
  Si0+  Si109  1  0.82355786  0.57439663  0.01418458  1
  Si0+  Si110  1  0.07304799  0.67704498  0.65105854  1
  Si0+  Si111  1  0.82227288  0.57242627  0.68150277  1
  Si0+  Si112  1  0.32325593  0.07209966  0.01390466  1
  Si0+  Si113  1  0.67589833  0.92526409  0.01349216  1
  Si0+  Si114  1  0.06957843  0.18011772  0.65205002  1
  Si0+  Si115  1  0.32097399  0.57147129  0.35434217  1
  Si0+  Si116  1  0.17556014  0.42635268  0.68427857  1
  Si0+  Si117  1  0.07489783  0.17782853  0.98321300  1
  Si0+  Si118  1  0.42492587  0.82040544  0.65270504  1
  Si0+  Si119  1  0.92873255  0.32283815  0.65001334  1
  O2-  O120  1  0.25397065  0.00043197  0.05754996  1
  O2-  O121  1  0.25956692  0.00062741  0.39378710  1
  O2-  O122  1  0.25853360  0.00113267  0.72910858  1
  O2-  O123  1  0.24098629  0.49790108  0.05998958  1
  O2-  O124  1  0.25097732  0.50313548  0.39761436  1
  O2-  O125  1  0.24773385  0.49621282  0.72574622  1
  O2-  O126  1  0.74573766  -0.00713334  0.05737973  1
  O2-  O127  1  0.75241648  -0.00419616  0.39799719  1
  O2-  O128  1  0.74020695  -0.00305052  0.72792465  1
  O2-  O129  1  0.75318443  0.50787994  0.05915200  1
  O2-  O130  1  0.74740384  0.51168292  0.39508932  1
  O2-  O131  1  0.74836789  0.50469029  0.72485870  1
  O2-  O132  1  -0.00019058  0.24814986  0.27823425  1
  O2-  O133  1  -0.00041285  0.25160980  0.60845662  1
  O2-  O134  1  0.00492990  0.24569348  0.93966678  1
  O2-  O135  1  0.00007234  0.75094056  0.27012613  1
  O2-  O136  1  0.00715487  0.74726662  0.60655250  1
  O2-  O137  1  -0.00082009  0.74905719  0.93328202  1
  O2-  O138  1  0.49721212  0.25652787  0.27062186  1
  O2-  O139  1  0.49662290  0.24596516  0.60194297  1
  O2-  O140  1  0.49475034  0.25286819  0.94165186  1
  O2-  O141  1  0.50435904  0.75347552  0.26839643  1
  O2-  O142  1  0.50062111  0.75997005  0.60905574  1
  O2-  O143  1  0.49746645  0.75493911  0.93856686  1
  O2-  O144  1  0.07918396  0.17882474  0.08863538  1
  O2-  O145  1  0.07491109  0.18169987  0.42526206  1
  O2-  O146  1  0.07088820  0.18274362  0.75723176  1
  O2-  O147  1  0.07239387  0.68191417  0.09720434  1
  O2-  O148  1  0.06731709  0.67743499  0.43432150  1
  O2-  O149  1  0.07211726  0.67624277  0.75640756  1
  O2-  O150  1  0.57217973  0.17985551  0.09898199  1
  O2-  O151  1  0.57148931  0.18324808  0.43133174  1
  O2-  O152  1  0.57482399  0.18235815  0.76326480  1
  O2-  O153  1  0.56679841  0.67668061  0.09934224  1
  O2-  O154  1  0.56688872  0.67610496  0.43055133  1
  O2-  O155  1  0.56753859  0.67535263  0.76627900  1
  O2-  O156  1  0.17872373  0.42802836  0.23430536  1
  O2-  O157  1  0.17325562  0.42702485  0.57939672  1
  O2-  O158  1  0.17907713  0.42373306  0.90987404  1
  O2-  O159  1  0.18218466  0.93276347  0.23268520  1
  O2-  O160  1  0.18144276  0.92907021  0.56983012  1
  O2-  O161  1  0.18200945  0.93190575  0.91116234  1
  O2-  O162  1  0.68269136  0.42765994  0.23644518  1
  O2-  O163  1  0.68144876  0.43310970  0.57669569  1
  O2-  O164  1  0.68023263  0.43116317  0.89877180  1
  O2-  O165  1  0.67783803  0.93050554  0.23207566  1
  O2-  O166  1  0.67829135  0.92282565  0.57711577  1
  O2-  O167  1  0.67472994  0.92567354  0.90759668  1
  O2-  O168  1  0.42204917  0.31679298  0.09198576  1
  O2-  O169  1  0.42333273  0.31730188  0.42065155  1
  O2-  O170  1  0.43010995  0.32202615  0.76599565  1
  O2-  O171  1  0.42604142  0.82388084  0.08713796  1
  O2-  O172  1  0.42704082  0.81714070  0.43330883  1
  O2-  O173  1  0.42219355  0.81612897  0.75837335  1
  O2-  O174  1  0.92992196  0.31833755  0.10047582  1
  O2-  O175  1  0.93161368  0.32083646  0.42591674  1
  O2-  O176  1  0.92923811  0.32378436  0.75504384  1
  O2-  O177  1  0.93196466  0.82579296  0.09627093  1
  O2-  O178  1  0.93335942  0.82693858  0.43129949  1
  O2-  O179  1  0.93286652  0.82243362  0.76392267  1
  O2-  O180  1  0.31879750  0.07678248  0.24349352  1
  O2-  O181  1  0.31850455  0.07697511  0.57852902  1
  O2-  O182  1  0.32055878  0.07299413  0.90883163  1
  O2-  O183  1  0.32110445  0.56984689  0.24884108  1
  O2-  O184  1  0.31803876  0.56736391  0.57823329  1
  O2-  O185  1  0.32123740  0.56692283  0.90273694  1
  O2-  O186  1  0.81987838  0.07407646  0.23493551  1
  O2-  O187  1  0.81983930  0.07041987  0.57020873  1
  O2-  O188  1  0.81746341  0.07039195  0.90002232  1
  O2-  O189  1  0.82816630  0.56475434  0.24321450  1
  O2-  O190  1  0.82629346  0.56817075  0.57680580  1
  O2-  O191  1  0.82147156  0.57159885  0.90796075  1
  O2-  O192  1  0.04927537  0.08823809  0.27184255  1
  O2-  O193  1  0.04077992  0.08846977  0.60635879  1
  O2-  O194  1  0.05009322  0.08452485  0.93728847  1
  O2-  O195  1  0.04199535  0.57887923  0.26753699  1
  O2-  O196  1  0.04620262  0.58262227  0.60660567  1
  O2-  O197  1  0.05185331  0.57915992  0.93109845  1
  O2-  O198  1  0.54259357  0.08639201  0.26264233  1
  O2-  O199  1  0.54904646  0.07636164  0.59941880  1
  O2-  O200  1  0.54213550  0.08311299  0.92987122  1
  O2-  O201  1  0.53751005  0.57824841  0.26714148  1
  O2-  O202  1  0.53396969  0.58574475  0.59813398  1
  O2-  O203  1  0.53268607  0.58090845  0.93507288  1
  O2-  O204  1  0.16380984  0.21027399  0.27110410  1
  O2-  O205  1  0.16102582  0.20650073  0.60345066  1
  O2-  O206  1  0.16745442  0.20468452  0.93418457  1
  O2-  O207  1  0.16985508  0.70290185  0.27024385  1
  O2-  O208  1  0.16864833  0.69919640  0.60818043  1
  O2-  O209  1  0.17109824  0.71054329  0.93161631  1
  O2-  O210  1  0.66906657  0.21753083  0.26738494  1
  O2-  O211  1  0.66932481  0.21328223  0.59613028  1
  O2-  O212  1  0.66552606  0.21492615  0.93081499  1
  O2-  O213  1  0.67262311  0.69575480  0.26428936  1
  O2-  O214  1  0.66829617  0.70243623  0.59837853  1
  O2-  O215  1  0.66552064  0.70322273  0.93025671  1
  O2-  O216  1  0.07975625  0.44812891  0.05813165  1
  O2-  O217  1  0.08151534  0.45788719  0.40399072  1
  O2-  O218  1  0.08367163  0.45458587  0.73219303  1
  O2-  O219  1  0.09068113  0.96096853  0.06403164  1
  O2-  O220  1  0.08884265  0.96499205  0.40252823  1
  O2-  O221  1  0.08740563  0.96588029  0.73903129  1
  O2-  O222  1  0.58360292  0.45659574  0.06818165  1
  O2-  O223  1  0.57952442  0.45531268  0.40317422  1
  O2-  O224  1  0.58571452  0.45913890  0.72619719  1
  O2-  O225  1  0.58116498  0.95066441  0.05739145  1
  O2-  O226  1  0.57965204  0.95710645  0.39832197  1
  O2-  O227  1  0.57917980  0.94234341  0.72606043  1
  O2-  O228  1  0.20253727  0.33331068  0.06283334  1
  O2-  O229  1  0.20890143  0.33324502  0.40357726  1
  O2-  O230  1  0.20038116  0.33358040  0.73141406  1
  O2-  O231  1  0.20864259  0.83889742  0.06305244  1
  O2-  O232  1  0.21071511  0.83181886  0.40093056  1
  O2-  O233  1  0.20991705  0.83160054  0.73831388  1
  O2-  O234  1  0.71689126  0.33608356  0.06596129  1
  O2-  O235  1  0.71641335  0.33901442  0.40709078  1
  O2-  O236  1  0.70979184  0.34118078  0.72806553  1
  O2-  O237  1  0.70015879  0.83023649  0.05701451  1
  O2-  O238  1  0.70097035  0.82499630  0.39521416  1
  O2-  O239  1  0.70668530  0.83099078  0.72736912  1
  O2-  O240  1  0.44669473  0.41710626  0.27366179  1
  O2-  O241  1  0.45661417  0.41622169  0.59526456  1
  O2-  O242  1  0.45154738  0.41482963  0.94335580  1
  O2-  O243  1  0.44861117  0.92263207  0.26703010  1
  O2-  O244  1  0.43795475  0.91736240  0.60998566  1
  O2-  O245  1  0.44783032  0.91609760  0.93352104  1
  O2-  O246  1  0.95957714  0.41039301  0.27218206  1
  O2-  O247  1  0.95776184  0.41454901  0.60279618  1
  O2-  O248  1  0.95737287  0.41462687  0.92791643  1
  O2-  O249  1  0.96321812  0.92366232  0.26580099  1
  O2-  O250  1  0.96572007  0.92040765  0.60089564  1
  O2-  O251  1  0.96357813  0.92123681  0.93092097  1
  O2-  O252  1  0.33220362  0.29411296  0.26860288  1
  O2-  O253  1  0.32623932  0.29684490  0.60144488  1
  O2-  O254  1  0.33272526  0.29572547  0.93831827  1
  O2-  O255  1  0.33295374  0.78912671  0.26515937  1
  O2-  O256  1  0.33387148  0.78542729  0.60644576  1
  O2-  O257  1  0.33438128  0.79307450  0.93643061  1
  O2-  O258  1  0.83810538  0.29292395  0.27383837  1
  O2-  O259  1  0.83720718  0.29577213  0.60282549  1
  O2-  O260  1  0.83518605  0.28703134  0.92934211  1
  O2-  O261  1  0.83136898  0.80052330  0.26385510  1
  O2-  O262  1  0.83695238  0.79211396  0.59551021  1
  O2-  O263  1  0.83105180  0.79770276  0.92754631  1
  O2-  O264  1  0.41617581  0.04560056  0.05953570  1
  O2-  O265  1  0.41902268  0.05365409  0.39249576  1
  O2-  O266  1  0.41868483  0.05311345  0.72738871  1
  O2-  O267  1  0.41234137  0.53673993  0.07510688  1
  O2-  O268  1  0.41281508  0.54295272  0.40228097  1
  O2-  O269  1  0.41148651  0.53562267  0.72979461  1
  O2-  O270  1  0.91892223  0.04488917  0.06548637  1
  O2-  O271  1  0.92178644  0.04830563  0.40060281  1
  O2-  O272  1  0.91448092  0.04126839  0.73730087  1
  O2-  O273  1  0.91763389  0.54605651  0.05725340  1
  O2-  O274  1  0.91189714  0.53737161  0.39964459  1
  O2-  O275  1  0.91235210  0.54143785  0.73162818  1
  O2-  O276  1  0.29424340  0.16282042  0.06305404  1
  O2-  O277  1  0.29261219  0.16450503  0.39790948  1
  O2-  O278  1  0.29106947  0.16549830  0.73199156  1
  O2-  O279  1  0.29124352  0.66793545  0.07029355  1
  O2-  O280  1  0.29575969  0.66452093  0.40096242  1
  O2-  O281  1  0.29405123  0.65734443  0.73374531  1
  O2-  O282  1  0.78804889  0.16599860  0.06567726  1
  O2-  O283  1  0.79151191  0.16863898  0.40292435  1
  O2-  O284  1  0.78883630  0.16994816  0.73420838  1
  O2-  O285  1  0.80125405  0.66977246  0.05676786  1
  O2-  O286  1  0.80596430  0.66892753  0.38955073  1
  O2-  O287  1  0.79729721  0.66626601  0.72551228  1
