# generated using pymatgen
data_Ca2Al2SiO7
_symmetry_space_group_name_H-M   'P 1'
_cell_length_a   15.45494431
_cell_length_b   15.45500213
_cell_length_c   15.28065088
_cell_angle_alpha   89.99424152
_cell_angle_beta   89.98901410
_cell_angle_gamma   90.01008338
_symmetry_Int_Tables_number   1
_chemical_formula_structural   Ca2Al2SiO7
_chemical_formula_sum   'Ca48 Al48 Si24 O168'
_cell_volume   3649.87801939
_cell_formula_units_Z   24
loop_
 _symmetry_equiv_pos_site_id
 _symmetry_equiv_pos_as_xyz
  1  'x, y, z'
loop_
 _atom_type_symbol
 _atom_type_oxidation_number
  Ca2+  2.0
  Al0+  0.0
  Si0+  0.0
  O2-  -2.0
loop_
 _atom_site_type_symbol
 _atom_site_label
 _atom_site_symmetry_multiplicity
 _atom_site_fract_x
 _atom_site_fract_y
 _atom_site_fract_z
 _atom_site_occupancy
  Ca2+  Ca0  1  0.17006807  0.07409774  0.16923268  1
  Ca2+  Ca1  1  0.17434301  0.08238177  0.50264630  1
  Ca2+  Ca2  1  0.16805220  0.08645684  0.83862135  1
  Ca2+  Ca3  1  0.17269804  0.57563741  0.17091758  1
  Ca2+  Ca4  1  0.17802998  0.58252738  0.50473271  1
  Ca2+  Ca5  1  0.17253370  0.57350099  0.83706553  1
  Ca2+  Ca6  1  0.67768752  0.08912316  0.17330352  1
  Ca2+  Ca7  1  0.67273176  0.08518082  0.50657958  1
  Ca2+  Ca8  1  0.67767116  0.08173766  0.83357711  1
  Ca2+  Ca9  1  0.66673138  0.57948942  0.17297760  1
  Ca2+  Ca10  1  0.67544090  0.57783024  0.50349083  1
  Ca2+  Ca11  1  0.66809970  0.58666448  0.83395402  1
  Ca2+  Ca12  1  0.08409966  0.32588238  0.15720600  1
  Ca2+  Ca13  1  0.07824478  0.32690154  0.50312469  1
  Ca2+  Ca14  1  0.08349857  0.32190671  0.82555655  1
  Ca2+  Ca15  1  0.08194158  0.83847799  0.15961198  1
  Ca2+  Ca16  1  0.08395043  0.83458506  0.49565967  1
  Ca2+  Ca17  1  0.07803633  0.84102400  0.83407398  1
  Ca2+  Ca18  1  0.58074006  0.33083123  0.16519056  1
  Ca2+  Ca19  1  0.58150571  0.32958462  0.49483204  1
  Ca2+  Ca20  1  0.57136780  0.33230309  0.82926657  1
  Ca2+  Ca21  1  0.57468588  0.82409367  0.15505284  1
  Ca2+  Ca22  1  0.57907229  0.84035606  0.50133555  1
  Ca2+  Ca23  1  0.57613685  0.83307848  0.82842084  1
  Ca2+  Ca24  1  0.33200581  0.41673084  0.16683033  1
  Ca2+  Ca25  1  0.34019687  0.42720717  0.50724748  1
  Ca2+  Ca26  1  0.33478505  0.41589179  0.83907511  1
  Ca2+  Ca27  1  0.32330116  0.91486530  0.17282164  1
  Ca2+  Ca28  1  0.33376655  0.92790386  0.50686664  1
  Ca2+  Ca29  1  0.33205265  0.91951055  0.83657376  1
  Ca2+  Ca30  1  0.82433375  0.42461789  0.17808666  1
  Ca2+  Ca31  1  0.83003263  0.42028805  0.50552360  1
  Ca2+  Ca32  1  0.84027235  0.42002200  0.83322163  1
  Ca2+  Ca33  1  0.83849698  0.92670719  0.16798926  1
  Ca2+  Ca34  1  0.82448873  0.92904579  0.50805926  1
  Ca2+  Ca35  1  0.83236804  0.92418338  0.83808330  1
  Ca2+  Ca36  1  0.42189335  0.16627600  0.16415925  1
  Ca2+  Ca37  1  0.41883213  0.16669067  0.49478862  1
  Ca2+  Ca38  1  0.40830040  0.17764950  0.82468148  1
  Ca2+  Ca39  1  0.42048101  0.66864983  0.15826763  1
  Ca2+  Ca40  1  0.40847309  0.67162955  0.49752044  1
  Ca2+  Ca41  1  0.41787263  0.67645969  0.82824887  1
  Ca2+  Ca42  1  0.92130697  0.16111853  0.15855426  1
  Ca2+  Ca43  1  0.91433953  0.16487900  0.49894942  1
  Ca2+  Ca44  1  0.92696093  0.16291101  0.82642488  1
  Ca2+  Ca45  1  0.91514046  0.67468947  0.16013073  1
  Ca2+  Ca46  1  0.91354635  0.66367213  0.49566270  1
  Ca2+  Ca47  1  0.91603928  0.67143270  0.82809673  1
  Al0+  Al48  1  0.00167371  0.00015535  -0.00063854  1
  Al0+  Al49  1  -0.00077951  -0.00037240  0.34100488  1
  Al0+  Al50  1  0.00042712  -0.00168920  0.66220507  1
  Al0+  Al51  1  0.00061021  0.50030917  0.00668493  1
  Al0+  Al52  1  0.00116265  0.50048653  0.33346518  1
  Al0+  Al53  1  0.00027167  0.49926436  0.66624748  1
  Al0+  Al54  1  0.50305921  0.00010724  -0.00337511  1
  Al0+  Al55  1  0.49918288  0.00081285  0.32716237  1
  Al0+  Al56  1  0.49809782  -0.00029651  0.67201144  1
  Al0+  Al57  1  0.50228015  0.49938249  -0.00750407  1
  Al0+  Al58  1  0.49929313  0.50045452  0.33998651  1
  Al0+  Al59  1  0.50167889  0.50208901  0.66722248  1
  Al0+  Al60  1  0.24998919  0.25004908  -0.00103663  1
  Al0+  Al61  1  0.24796870  0.24957094  0.33413588  1
  Al0+  Al62  1  0.24883765  0.25019688  0.65789442  1
  Al0+  Al63  1  0.24989640  0.74911294  0.00001667  1
  Al0+  Al64  1  0.24649525  0.74785597  0.33778256  1
  Al0+  Al65  1  0.25064170  0.74925596  0.66749219  1
  Al0+  Al66  1  0.75041255  0.25210610  0.00365292  1
  Al0+  Al67  1  0.74873447  0.25133311  0.33602575  1
  Al0+  Al68  1  0.75012732  0.25105967  0.66948896  1
  Al0+  Al69  1  0.75045263  0.75139723  -0.00746775  1
  Al0+  Al70  1  0.74952916  0.75104712  0.33402710  1
  Al0+  Al71  1  0.74885317  0.74869877  0.67233657  1
  Al0+  Al72  1  0.43060553  0.31729223  0.98773820  1
  Al0+  Al73  1  0.07079205  0.17574719  0.64775946  1
  Al0+  Al74  1  0.82169690  0.57310224  0.34660574  1
  Al0+  Al75  1  0.32260129  0.57180148  0.68289453  1
  Al0+  Al76  1  0.82010940  0.06989654  0.01383835  1
  Al0+  Al77  1  0.42877181  0.82081370  0.65084939  1
  Al0+  Al78  1  0.92812349  0.32149525  0.65150383  1
  Al0+  Al79  1  0.67821248  0.42911413  0.34920822  1
  Al0+  Al80  1  0.67740038  0.92901053  0.68312025  1
  Al0+  Al81  1  0.57134612  0.67823861  0.98355460  1
  Al0+  Al82  1  0.81983401  0.07090618  0.34694865  1
  Al0+  Al83  1  0.42904626  0.32281628  0.65120003  1
  Al0+  Al84  1  0.17857846  0.92860228  0.34958413  1
  Al0+  Al85  1  0.31957845  0.56872391  0.34564532  1
  Al0+  Al86  1  0.17919868  0.42714168  0.01295316  1
  Al0+  Al87  1  0.32286949  0.07114550  0.34673885  1
  Al0+  Al88  1  0.18135394  0.92948854  0.01187467  1
  Al0+  Al89  1  0.82266062  0.07232771  0.68310901  1
  Al0+  Al90  1  0.42592956  0.82245356  0.98504632  1
  Al0+  Al91  1  0.06908155  0.18004085  0.98854406  1
  Al0+  Al92  1  0.31867474  0.07262481  0.68044684  1
  Al0+  Al93  1  0.82235946  0.56911327  0.68215362  1
  Al0+  Al94  1  0.93212168  0.82069556  0.98649315  1
  Al0+  Al95  1  0.57140308  0.17921152  0.31967624  1
  Si0+  Si96  1  0.57079714  0.17852862  0.65239238  1
  Si0+  Si97  1  0.17646631  0.42572793  0.35130544  1
  Si0+  Si98  1  0.67824609  0.43049834  0.01485991  1
  Si0+  Si99  1  0.92919105  0.82089733  0.31970852  1
  Si0+  Si100  1  0.17845937  0.92684999  0.68353733  1
  Si0+  Si101  1  0.57660033  0.17787008  0.98265021  1
  Si0+  Si102  1  0.67793364  0.42781041  0.68637459  1
  Si0+  Si103  1  0.92918792  0.32202363  0.31729934  1
  Si0+  Si104  1  0.42721477  0.32403832  0.31715694  1
  Si0+  Si105  1  0.07212033  0.67433152  0.98373659  1
  Si0+  Si106  1  0.57327556  0.67933358  0.64628410  1
  Si0+  Si107  1  0.67643239  0.92712965  0.34627182  1
  Si0+  Si108  1  0.57070202  0.67899813  0.32049892  1
  Si0+  Si109  1  0.32457547  0.07366211  0.01530811  1
  Si0+  Si110  1  0.92719686  0.81949265  0.65025804  1
  Si0+  Si111  1  0.92659944  0.32441415  0.98675232  1
  Si0+  Si112  1  0.82111514  0.57308225  0.01489963  1
  Si0+  Si113  1  0.07168639  0.67828719  0.31709695  1
  Si0+  Si114  1  0.42667372  0.81996306  0.31899648  1
  Si0+  Si115  1  0.67793682  0.92670820  0.01794016  1
  Si0+  Si116  1  0.07007747  0.67884765  0.65191805  1
  Si0+  Si117  1  0.32314954  0.56987105  0.01484795  1
  Si0+  Si118  1  0.06953056  0.17801166  0.31651952  1
  Si0+  Si119  1  0.17959047  0.42910749  0.68181596  1
  O2-  O120  1  0.26154785  -0.00118729  0.05845473  1
  O2-  O121  1  0.25259797  -0.00158700  0.39817102  1
  O2-  O122  1  0.24307877  -0.00091035  0.72746149  1
  O2-  O123  1  0.25375586  0.50226229  0.05991171  1
  O2-  O124  1  0.24869729  0.49126783  0.39400623  1
  O2-  O125  1  0.25207433  0.49273676  0.72791487  1
  O2-  O126  1  0.74346709  -0.00207945  0.06314564  1
  O2-  O127  1  0.74157410  -0.00116475  0.39070924  1
  O2-  O128  1  0.75181343  -0.00096746  0.73254329  1
  O2-  O129  1  0.74998057  0.50187274  0.05623361  1
  O2-  O130  1  0.75238951  0.49983275  0.39747510  1
  O2-  O131  1  0.74925094  0.49410750  0.73071773  1
  O2-  O132  1  -0.00128141  0.24978923  0.27400507  1
  O2-  O133  1  -0.00580289  0.24487209  0.59948164  1
  O2-  O134  1  -0.00483311  0.25604893  0.94307521  1
  O2-  O135  1  -0.00103922  0.74854087  0.27649226  1
  O2-  O136  1  -0.00132755  0.74887831  0.60795286  1
  O2-  O137  1  0.00528974  0.74442875  0.93898625  1
  O2-  O138  1  0.49418052  0.25300802  0.27370418  1
  O2-  O139  1  0.50303778  0.24712109  0.60607694  1
  O2-  O140  1  0.50138331  0.23966664  0.93935005  1
  O2-  O141  1  0.49873033  0.74908451  0.27777739  1
  O2-  O142  1  0.50347216  0.74678047  0.60153260  1
  O2-  O143  1  0.49940808  0.75135743  0.93578787  1
  O2-  O144  1  0.06801148  0.17994661  0.10230886  1
  O2-  O145  1  0.06916842  0.17918065  0.42110436  1
  O2-  O146  1  0.07203761  0.17789716  0.76172874  1
  O2-  O147  1  0.06940708  0.67266836  0.08968721  1
  O2-  O148  1  0.07273063  0.67788488  0.42222020  1
  O2-  O149  1  0.06876086  0.67874204  0.75706533  1
  O2-  O150  1  0.57887825  0.18162744  0.08848438  1
  O2-  O151  1  0.57140313  0.17970093  0.43261877  1
  O2-  O152  1  0.57038859  0.18161469  0.75819506  1
  O2-  O153  1  0.57008405  0.67696759  0.09839759  1
  O2-  O154  1  0.57250067  0.68040245  0.42504359  1
  O2-  O155  1  0.57269521  0.68015391  0.75180756  1
  O2-  O156  1  0.17547017  0.42699276  0.24532511  1
  O2-  O157  1  0.17829673  0.43379378  0.57602563  1
  O2-  O158  1  0.17893205  0.42851895  0.90017415  1
  O2-  O159  1  0.17820578  0.92875920  0.23558339  1
  O2-  O160  1  0.18108371  0.92464309  0.57792512  1
  O2-  O161  1  0.17873587  0.93274050  0.89920435  1
  O2-  O162  1  0.67810865  0.43217317  0.23471593  1
  O2-  O163  1  0.67748674  0.42966097  0.58087169  1
  O2-  O164  1  0.67864213  0.42923130  0.91015304  1
  O2-  O165  1  0.67974926  0.92382555  0.24075482  1
  O2-  O166  1  0.67918515  0.93056055  0.56857505  1
  O2-  O167  1  0.68003584  0.92675066  0.91280067  1
  O2-  O168  1  0.43295123  0.31912741  0.10114690  1
  O2-  O169  1  0.42915464  0.32553139  0.42245115  1
  O2-  O170  1  0.42962777  0.32163060  0.76468934  1
  O2-  O171  1  0.42609041  0.81807493  0.09977579  1
  O2-  O172  1  0.42775450  0.82037197  0.42394613  1
  O2-  O173  1  0.42792749  0.81883110  0.76349479  1
  O2-  O174  1  0.92667947  0.32450944  0.09283952  1
  O2-  O175  1  0.93125150  0.32330124  0.42196092  1
  O2-  O176  1  0.93393217  0.32500281  0.76527477  1
  O2-  O177  1  0.93264144  0.81936672  0.10033135  1
  O2-  O178  1  0.92933723  0.81907835  0.42472430  1
  O2-  O179  1  0.92963407  0.81955274  0.75546045  1
  O2-  O180  1  0.32208298  0.06956257  0.23274133  1
  O2-  O181  1  0.32037298  0.07075051  0.56740521  1
  O2-  O182  1  0.32020540  0.07709424  0.90994717  1
  O2-  O183  1  0.31852323  0.56931221  0.23222608  1
  O2-  O184  1  0.31824109  0.57253956  0.56945522  1
  O2-  O185  1  0.32161418  0.56846338  0.90951092  1
  O2-  O186  1  0.82292369  0.06856830  0.23352179  1
  O2-  O187  1  0.81928084  0.07042929  0.56918795  1
  O2-  O188  1  0.82010907  0.06885713  0.90148896  1
  O2-  O189  1  0.81918552  0.57395237  0.23243998  1
  O2-  O190  1  0.82067871  0.56955414  0.56918076  1
  O2-  O191  1  0.82378309  0.57086920  0.91004839  1
  O2-  O192  1  0.03940626  0.08511350  0.27212587  1
  O2-  O193  1  0.04663142  0.07608147  0.59457318  1
  O2-  O194  1  0.03738981  0.08554119  0.93280247  1
  O2-  O195  1  0.04621901  0.58581053  0.26869336  1
  O2-  O196  1  0.04314894  0.58770199  0.60301262  1
  O2-  O197  1  0.04354006  0.58158399  0.93722379  1
  O2-  O198  1  0.54368251  0.08289158  0.26126557  1
  O2-  O199  1  0.54502338  0.08478229  0.60778154  1
  O2-  O200  1  0.56110589  0.08133899  0.94014116  1
  O2-  O201  1  0.54248000  0.58663129  0.27372871  1
  O2-  O202  1  0.54961783  0.58475814  0.60212557  1
  O2-  O203  1  0.54496851  0.58101557  0.92785134  1
  O2-  O204  1  0.16192615  0.20512942  0.26903504  1
  O2-  O205  1  0.16568417  0.21036637  0.59111222  1
  O2-  O206  1  0.16521530  0.21063629  0.93446073  1
  O2-  O207  1  0.16240592  0.70715707  0.26747157  1
  O2-  O208  1  0.16129390  0.70824628  0.60399210  1
  O2-  O209  1  0.16679814  0.69629095  0.93955592  1
  O2-  O210  1  0.66743015  0.21321121  0.26448713  1
  O2-  O211  1  0.66489378  0.20408738  0.60718866  1
  O2-  O212  1  0.66713994  0.21189721  0.93534946  1
  O2-  O213  1  0.66214327  0.70720941  0.27103628  1
  O2-  O214  1  0.66735288  0.70616065  0.60121289  1
  O2-  O215  1  0.66938011  0.70543927  0.92970818  1
  O2-  O216  1  0.08368296  0.45786864  0.07103167  1
  O2-  O217  1  0.08489682  0.45635008  0.39778309  1
  O2-  O218  1  0.08840423  0.45985824  0.72933483  1
  O2-  O219  1  0.08686424  0.96443856  0.06799393  1
  O2-  O220  1  0.08182639  0.95755619  0.40457280  1
  O2-  O221  1  0.08224434  0.94783086  0.72531033  1
  O2-  O222  1  0.58695037  0.45993989  0.06270144  1
  O2-  O223  1  0.58154847  0.45789260  0.40388612  1
  O2-  O224  1  0.58606930  0.45832265  0.73328836  1
  O2-  O225  1  0.58242635  0.94793708  0.06284533  1
  O2-  O226  1  0.58131491  0.94957997  0.38935522  1
  O2-  O227  1  0.58051723  0.95779148  0.73786187  1
  O2-  O228  1  0.21171850  0.33216326  0.06960323  1
  O2-  O229  1  0.19666478  0.33117581  0.39616448  1
  O2-  O230  1  0.20124424  0.33340281  0.72348687  1
  O2-  O231  1  0.20465777  0.82994466  0.06616926  1
  O2-  O232  1  0.20182135  0.82883215  0.40130692  1
  O2-  O233  1  0.20581128  0.83448256  0.73065805  1
  O2-  O234  1  0.70554930  0.33967067  0.06496690  1
  O2-  O235  1  0.70655156  0.33209039  0.40309193  1
  O2-  O236  1  0.69951150  0.33384519  0.73287299  1
  O2-  O237  1  0.70629740  0.83275131  0.06255575  1
  O2-  O238  1  0.70427373  0.83586883  0.39573181  1
  O2-  O239  1  0.70475633  0.83041874  0.73552445  1
  O2-  O240  1  0.45532461  0.41752008  0.27100338  1
  O2-  O241  1  0.46212429  0.41994287  0.59911726  1
  O2-  O242  1  0.46341371  0.41215311  0.93181417  1
  O2-  O243  1  0.45213641  0.91098010  0.26915849  1
  O2-  O244  1  0.46041156  0.91849610  0.59877069  1
  O2-  O245  1  0.45269910  0.92205193  0.93354729  1
  O2-  O246  1  0.95793635  0.41403307  0.26913181  1
  O2-  O247  1  0.96149581  0.41856533  0.59671285  1
  O2-  O248  1  0.95205093  0.41893153  0.94272682  1
  O2-  O249  1  0.95950885  0.91275196  0.27322121  1
  O2-  O250  1  0.95406324  0.91042285  0.60082724  1
  O2-  O251  1  0.96615575  0.91490841  0.93102939  1
  O2-  O252  1  0.33150072  0.30131652  0.27299873  1
  O2-  O253  1  0.33270149  0.29635801  0.59576077  1
  O2-  O254  1  0.33360493  0.29038320  0.93311582  1
  O2-  O255  1  0.33449585  0.78872580  0.27388211  1
  O2-  O256  1  0.33213157  0.78756888  0.59727687  1
  O2-  O257  1  0.32785313  0.79346077  0.93176410  1
  O2-  O258  1  0.83590165  0.29711695  0.27171441  1
  O2-  O259  1  0.82684765  0.29921930  0.60122653  1
  O2-  O260  1  0.83263273  0.30132895  0.94100954  1
  O2-  O261  1  0.83705816  0.79479423  0.27101338  1
  O2-  O262  1  0.83520473  0.78986134  0.60476220  1
  O2-  O263  1  0.83647616  0.79174938  0.93080167  1
  O2-  O264  1  0.42195136  0.05529438  0.05690008  1
  O2-  O265  1  0.42233247  0.04390692  0.39784142  1
  O2-  O266  1  0.41410008  0.04316615  0.73611790  1
  O2-  O267  1  0.41718202  0.54210576  0.05910440  1
  O2-  O268  1  0.41569340  0.54401259  0.40256223  1
  O2-  O269  1  0.42112149  0.54596855  0.73423401  1
  O2-  O270  1  0.91562664  0.03503303  0.06784719  1
  O2-  O271  1  0.91326728  0.03726433  0.40365579  1
  O2-  O272  1  0.92225235  0.04113662  0.73165658  1
  O2-  O273  1  0.91230873  0.54719327  0.06503636  1
  O2-  O274  1  0.92171002  0.54747524  0.39697283  1
  O2-  O275  1  0.91965718  0.54012664  0.73618817  1
  O2-  O276  1  0.29358620  0.16428497  0.06409326  1
  O2-  O277  1  0.29443991  0.17019783  0.39799566  1
  O2-  O278  1  0.28732007  0.17082157  0.73109929  1
  O2-  O279  1  0.29823010  0.66337278  0.06139524  1
  O2-  O280  1  0.28413773  0.66261841  0.40189025  1
  O2-  O281  1  0.28607700  0.66619847  0.73694302  1
  O2-  O282  1  0.79223938  0.16834983  0.06764584  1
  O2-  O283  1  0.79194765  0.16792142  0.39951571  1
  O2-  O284  1  0.79574214  0.17117179  0.73570538  1
  O2-  O285  1  0.79282418  0.66575837  0.06025722  1
  O2-  O286  1  0.79277446  0.67104131  0.40003022  1
  O2-  O287  1  0.79118355  0.66495543  0.73687457  1
