# generated using pymatgen
data_Ca2Al2SiO7
_symmetry_space_group_name_H-M   'P 1'
_cell_length_a   15.45713713
_cell_length_b   15.45679325
_cell_length_c   15.28307937
_cell_angle_alpha   89.98899901
_cell_angle_beta   89.99453124
_cell_angle_gamma   89.99480989
_symmetry_Int_Tables_number   1
_chemical_formula_structural   Ca2Al2SiO7
_chemical_formula_sum   'Ca48 Al48 Si24 O168'
_cell_volume   3651.39918619
_cell_formula_units_Z   24
loop_
 _symmetry_equiv_pos_site_id
 _symmetry_equiv_pos_as_xyz
  1  'x, y, z'
loop_
 _atom_type_symbol
 _atom_type_oxidation_number
  Ca2+  2.0
  Al0+  0.0
  Si0+  0.0
  O2-  -2.0
loop_
 _atom_site_type_symbol
 _atom_site_label
 _atom_site_symmetry_multiplicity
 _atom_site_fract_x
 _atom_site_fract_y
 _atom_site_fract_z
 _atom_site_occupancy
  Ca2+  Ca0  1  0.16394606  0.07894987  0.16924225  1
  Ca2+  Ca1  1  0.16978091  0.07231825  0.50565057  1
  Ca2+  Ca2  1  0.17737606  0.08715801  0.84120351  1
  Ca2+  Ca3  1  0.15219609  0.57412821  0.16964659  1
  Ca2+  Ca4  1  0.16313438  0.58058162  0.50505067  1
  Ca2+  Ca5  1  0.16674142  0.58457857  0.83594907  1
  Ca2+  Ca6  1  0.67647674  0.07884950  0.17394402  1
  Ca2+  Ca7  1  0.67055358  0.08640908  0.50477459  1
  Ca2+  Ca8  1  0.66348597  0.08167294  0.83498003  1
  Ca2+  Ca9  1  0.67807161  0.59046150  0.17125794  1
  Ca2+  Ca10  1  0.67752778  0.58316103  0.50735230  1
  Ca2+  Ca11  1  0.67621445  0.58509936  0.83840641  1
  Ca2+  Ca12  1  0.07557663  0.33631755  0.15926493  1
  Ca2+  Ca13  1  0.07824673  0.33470021  0.49159672  1
  Ca2+  Ca14  1  0.08348084  0.33572758  0.83858933  1
  Ca2+  Ca15  1  0.08107987  0.82338437  0.16087219  1
  Ca2+  Ca16  1  0.08363172  0.82073369  0.49668795  1
  Ca2+  Ca17  1  0.07314954  0.82324646  0.82641054  1
  Ca2+  Ca18  1  0.57989038  0.33237473  0.16283009  1
  Ca2+  Ca19  1  0.58079583  0.33827898  0.50395517  1
  Ca2+  Ca20  1  0.57863395  0.32809529  0.82026299  1
  Ca2+  Ca21  1  0.58769104  0.82040061  0.16342938  1
  Ca2+  Ca22  1  0.57402193  0.82810261  0.49739139  1
  Ca2+  Ca23  1  0.57851605  0.82583996  0.82991827  1
  Ca2+  Ca24  1  0.31705207  0.41748399  0.16982329  1
  Ca2+  Ca25  1  0.32791434  0.42226757  0.50776196  1
  Ca2+  Ca26  1  0.33045679  0.42026328  0.83576942  1
  Ca2+  Ca27  1  0.32517626  0.92279760  0.17152338  1
  Ca2+  Ca28  1  0.32758908  0.91421240  0.50816000  1
  Ca2+  Ca29  1  0.34047339  0.92699722  0.83584418  1
  Ca2+  Ca30  1  0.84494245  0.42748676  0.16978621  1
  Ca2+  Ca31  1  0.83295078  0.42806752  0.50521430  1
  Ca2+  Ca32  1  0.83293453  0.42738235  0.83647561  1
  Ca2+  Ca33  1  0.84134918  0.92204329  0.17087476  1
  Ca2+  Ca34  1  0.83651089  0.92135472  0.50388954  1
  Ca2+  Ca35  1  0.83796592  0.91048618  0.83662466  1
  Ca2+  Ca36  1  0.41341980  0.16656397  0.16131506  1
  Ca2+  Ca37  1  0.41825932  0.16779934  0.50570627  1
  Ca2+  Ca38  1  0.41626783  0.17082083  0.82096700  1
  Ca2+  Ca39  1  0.43110520  0.66188023  0.16346218  1
  Ca2+  Ca40  1  0.41865550  0.66512987  0.49771220  1
  Ca2+  Ca41  1  0.41980418  0.66690947  0.82392899  1
  Ca2+  Ca42  1  0.91996760  0.17852435  0.15965715  1
  Ca2+  Ca43  1  0.91274286  0.17589069  0.49069969  1
  Ca2+  Ca44  1  0.92391368  0.17245094  0.83194878  1
  Ca2+  Ca45  1  0.92374926  0.66548298  0.15851866  1
  Ca2+  Ca46  1  0.92307286  0.66105647  0.49649704  1
  Ca2+  Ca47  1  0.92253858  0.66675948  0.83029639  1
  Al0+  Al48  1  0.00135934  0.00149454  -0.00637522  1
  Al0+  Al49  1  0.00175766  0.00044313  0.34436874  1
  Al0+  Al50  1  -0.00024422  -0.00127092  0.66466967  1
  Al0+  Al51  1  -0.00052165  0.50027343  -0.00188044  1
  Al0+  Al52  1  -0.00098369  0.49937123  0.33549214  1
  Al0+  Al53  1  -0.00069119  0.49849937  0.66842685  1
  Al0+  Al54  1  0.50119935  -0.00013450  0.00872241  1
  Al0+  Al55  1  0.50023896  0.00105599  0.33196063  1
  Al0+  Al56  1  0.50074271  -0.00055305  0.66138408  1
  Al0+  Al57  1  0.50116681  0.49884864  -0.00363236  1
  Al0+  Al58  1  0.49933456  0.49901096  0.32636994  1
  Al0+  Al59  1  0.49845365  0.49775558  0.66875628  1
  Al0+  Al60  1  0.25080056  0.25126997  0.00617103  1
  Al0+  Al61  1  0.25038284  0.25003163  0.33807735  1
  Al0+  Al62  1  0.25018243  0.24857039  0.66465224  1
  Al0+  Al63  1  0.25264353  0.75235966  -0.00133570  1
  Al0+  Al64  1  0.25042600  0.75059498  0.33064089  1
  Al0+  Al65  1  0.24801466  0.74817403  0.66464110  1
  Al0+  Al66  1  0.74887930  0.25036210  -0.00359800  1
  Al0+  Al67  1  0.74848364  0.25079468  0.33139435  1
  Al0+  Al68  1  0.75070396  0.24864462  0.66778200  1
  Al0+  Al69  1  0.74810434  0.74963466  -0.00283070  1
  Al0+  Al70  1  0.74943673  0.75170852  0.33552635  1
  Al0+  Al71  1  0.75066828  0.75292503  0.66705686  1
  Al0+  Al72  1  0.06888782  0.67702600  0.64988775  1
  Al0+  Al73  1  0.31983452  0.06792953  0.67932655  1
  Al0+  Al74  1  0.07051496  0.67920997  0.31878309  1
  Al0+  Al75  1  0.57216068  0.17865900  0.65093703  1
  Al0+  Al76  1  0.81849890  0.57051924  0.01483810  1
  Al0+  Al77  1  0.18023125  0.92741442  0.34801316  1
  Al0+  Al78  1  0.17854407  0.43022633  0.34763267  1
  Al0+  Al79  1  0.67930207  0.42780220  0.68142833  1
  Al0+  Al80  1  0.18087350  0.43288846  0.01334150  1
  Al0+  Al81  1  0.07317656  0.17982719  0.98594851  1
  Al0+  Al82  1  0.92734866  0.32226264  0.98255518  1
  Al0+  Al83  1  0.07353417  0.67780948  0.98462443  1
  Al0+  Al84  1  0.92882031  0.82180744  0.98711339  1
  Al0+  Al85  1  0.56979349  0.67826840  0.98458351  1
  Al0+  Al86  1  0.31981661  0.57150764  0.67858149  1
  Al0+  Al87  1  0.92685052  0.82227149  0.64806922  1
  Al0+  Al88  1  0.57129315  0.67971824  0.32101906  1
  Al0+  Al89  1  0.42700840  0.32256282  0.65060163  1
  Al0+  Al90  1  0.81976730  0.57117874  0.34647092  1
  Al0+  Al91  1  0.82006771  0.07191488  0.34614723  1
  Al0+  Al92  1  0.32143998  0.07103480  0.01459215  1
  Al0+  Al93  1  0.42894133  0.82020910  0.65453347  1
  Al0+  Al94  1  0.92879114  0.32010965  0.32045126  1
  Al0+  Al95  1  0.82129271  0.57288842  0.68374563  1
  Si0+  Si96  1  0.92860542  0.82411913  0.31876198  1
  Si0+  Si97  1  0.82254246  0.07105108  0.68348828  1
  Si0+  Si98  1  0.57050955  0.17834053  0.31595254  1
  Si0+  Si99  1  0.42752352  0.82408038  0.31453953  1
  Si0+  Si100  1  0.67648371  0.42587027  0.01759021  1
  Si0+  Si101  1  0.07303127  0.17688778  0.31939990  1
  Si0+  Si102  1  0.32447397  0.57052371  0.34715830  1
  Si0+  Si103  1  0.67433861  0.42776257  0.34818267  1
  Si0+  Si104  1  0.67703903  0.92862387  0.35159752  1
  Si0+  Si105  1  0.32555064  0.57479397  0.01664054  1
  Si0+  Si106  1  0.32405613  0.07225867  0.35284558  1
  Si0+  Si107  1  0.17690144  0.92688846  0.68591103  1
  Si0+  Si108  1  0.82223827  0.07259117  0.01293813  1
  Si0+  Si109  1  0.42743817  0.32007119  0.31618078  1
  Si0+  Si110  1  0.42919883  0.31917688  0.98624139  1
  Si0+  Si111  1  0.57056138  0.17753771  0.98716714  1
  Si0+  Si112  1  0.67970239  0.92984131  0.01580467  1
  Si0+  Si113  1  0.43009810  0.82425080  0.98535491  1
  Si0+  Si114  1  0.17666273  0.92820730  0.01547522  1
  Si0+  Si115  1  0.92992505  0.31839912  0.65135150  1
  Si0+  Si116  1  0.57175497  0.67689480  0.65104423  1
  Si0+  Si117  1  0.67842872  0.93076235  0.68170000  1
  Si0+  Si118  1  0.17735445  0.42610402  0.68367746  1
  Si0+  Si119  1  0.07238030  0.17797240  0.65045071  1
  O2-  O120  1  0.24553949  -0.00269972  0.06022284  1
  O2-  O121  1  0.25671486  0.00144072  0.39445830  1
  O2-  O122  1  0.24626793  -0.00507753  0.73039881  1
  O2-  O123  1  0.25156984  0.51206785  0.06112537  1
  O2-  O124  1  0.25239156  0.50637286  0.39230672  1
  O2-  O125  1  0.24614826  0.49583987  0.72555428  1
  O2-  O126  1  0.75422430  -0.00135131  0.05595943  1
  O2-  O127  1  0.74606113  -0.00272210  0.39498215  1
  O2-  O128  1  0.75231269  -0.00115921  0.72497719  1
  O2-  O129  1  0.74542590  0.49344317  0.06235756  1
  O2-  O130  1  0.74228255  0.49752867  0.39073691  1
  O2-  O131  1  0.74645738  0.50286578  0.73314563  1
  O2-  O132  1  0.00418691  0.24486810  0.27499046  1
  O2-  O133  1  0.00126752  0.24835974  0.60779013  1
  O2-  O134  1  0.00040575  0.25001985  0.93401050  1
  O2-  O135  1  -0.00483918  0.75457339  0.27352563  1
  O2-  O136  1  -0.00453039  0.74734864  0.59888561  1
  O2-  O137  1  0.00110502  0.75066520  0.93703656  1
  O2-  O138  1  0.49774755  0.24762551  0.27384050  1
  O2-  O139  1  0.50198423  0.25264051  0.60099392  1
  O2-  O140  1  0.50074924  0.24851544  0.94481777  1
  O2-  O141  1  0.49660948  0.75465413  0.27238636  1
  O2-  O142  1  0.49985947  0.74232826  0.60673588  1
  O2-  O143  1  0.49093867  0.74948453  0.94001015  1
  O2-  O144  1  0.06991392  0.17821661  0.09985544  1
  O2-  O145  1  0.07241640  0.17868108  0.42530860  1
  O2-  O146  1  0.07228431  0.17824630  0.75540625  1
  O2-  O147  1  0.07041121  0.67912811  0.09863409  1
  O2-  O148  1  0.07084541  0.67870944  0.43139721  1
  O2-  O149  1  0.06984962  0.67839260  0.76325799  1
  O2-  O150  1  0.57081371  0.17841380  0.09267817  1
  O2-  O151  1  0.57127696  0.17674505  0.42032099  1
  O2-  O152  1  0.56985186  0.17686677  0.76513559  1
  O2-  O153  1  0.57088561  0.68073079  0.09808116  1
  O2-  O154  1  0.56860566  0.68065291  0.43396205  1
  O2-  O155  1  0.57118700  0.68034715  0.75677481  1
  O2-  O156  1  0.17979422  0.42887703  0.23456446  1
  O2-  O157  1  0.17672981  0.42546637  0.57778008  1
  O2-  O158  1  0.18632915  0.42969416  0.90049940  1
  O2-  O159  1  0.18067477  0.93047921  0.23455535  1
  O2-  O160  1  0.17847820  0.92963159  0.57995738  1
  O2-  O161  1  0.17833658  0.92878547  0.91032502  1
  O2-  O162  1  0.67193525  0.42694268  0.24252356  1
  O2-  O163  1  0.68314269  0.42873844  0.56724880  1
  O2-  O164  1  0.67467594  0.42503226  0.91255165  1
  O2-  O165  1  0.67621311  0.93012437  0.24561317  1
  O2-  O166  1  0.67719736  0.93297887  0.57666646  1
  O2-  O167  1  0.67421574  0.93322701  0.91089582  1
  O2-  O168  1  0.43059766  0.31828632  0.09195043  1
  O2-  O169  1  0.42797366  0.32148136  0.42059897  1
  O2-  O170  1  0.42490172  0.31828127  0.76457797  1
  O2-  O171  1  0.43416645  0.82636859  0.09099659  1
  O2-  O172  1  0.42858196  0.82568686  0.42013546  1
  O2-  O173  1  0.43444023  0.82253034  0.76768647  1
  O2-  O174  1  0.92740991  0.32000927  0.09642496  1
  O2-  O175  1  0.92912920  0.31843830  0.43402924  1
  O2-  O176  1  0.93035124  0.31626748  0.75619434  1
  O2-  O177  1  0.93006449  0.82432099  0.10117607  1
  O2-  O178  1  0.92917281  0.82375501  0.42390293  1
  O2-  O179  1  0.92994386  0.82500961  0.76138695  1
  O2-  O180  1  0.32478039  0.07263867  0.24692860  1
  O2-  O181  1  0.31735757  0.06628606  0.56626057  1
  O2-  O182  1  0.32529164  0.06998133  0.90174715  1
  O2-  O183  1  0.32889849  0.56584473  0.24160143  1
  O2-  O184  1  0.31968555  0.57027601  0.56515119  1
  O2-  O185  1  0.32860956  0.57122170  0.91125716  1
  O2-  O186  1  0.81845969  0.07055715  0.23249494  1
  O2-  O187  1  0.82130459  0.07254953  0.57828112  1
  O2-  O188  1  0.81860727  0.07386090  0.90790350  1
  O2-  O189  1  0.81982597  0.57131424  0.23328471  1
  O2-  O190  1  0.82134723  0.57021777  0.56973714  1
  O2-  O191  1  0.81619414  0.57119260  0.90226435  1
  O2-  O192  1  0.04734097  0.08222657  0.27604249  1
  O2-  O193  1  0.04465402  0.08591512  0.60388515  1
  O2-  O194  1  0.04732224  0.08262561  0.92976725  1
  O2-  O195  1  0.03653442  0.58294153  0.26688241  1
  O2-  O196  1  0.04194706  0.57671310  0.59892194  1
  O2-  O197  1  0.04546198  0.58028987  0.93194576  1
  O2-  O198  1  0.54464768  0.08589768  0.26723721  1
  O2-  O199  1  0.54148692  0.08251971  0.59503070  1
  O2-  O200  1  0.54294669  0.08459353  0.94252464  1
  O2-  O201  1  0.54111161  0.58390354  0.26390184  1
  O2-  O202  1  0.54911969  0.58237693  0.60702371  1
  O2-  O203  1  0.54374037  0.58045258  0.93112622  1
  O2-  O204  1  0.16800500  0.20075312  0.27507484  1
  O2-  O205  1  0.16313209  0.20489096  0.60127666  1
  O2-  O206  1  0.17191853  0.21108682  0.93488687  1
  O2-  O207  1  0.16836513  0.70744598  0.26521212  1
  O2-  O208  1  0.16706972  0.70633243  0.59679368  1
  O2-  O209  1  0.17435836  0.70380062  0.93468139  1
  O2-  O210  1  0.66090060  0.20761742  0.26635309  1
  O2-  O211  1  0.67186611  0.20497798  0.59889926  1
  O2-  O212  1  0.66193645  0.20213149  0.93791843  1
  O2-  O213  1  0.66689767  0.71421059  0.26588930  1
  O2-  O214  1  0.66379808  0.70762375  0.60554198  1
  O2-  O215  1  0.66265034  0.71562914  0.92919603  1
  O2-  O216  1  0.08266522  0.45924249  0.06650262  1
  O2-  O217  1  0.08298742  0.45978593  0.40305854  1
  O2-  O218  1  0.08416994  0.45075773  0.73031077  1
  O2-  O219  1  0.08338793  0.95570596  0.06182054  1
  O2-  O220  1  0.08650799  0.95869003  0.40718569  1
  O2-  O221  1  0.08321887  0.95506083  0.73002309  1
  O2-  O222  1  0.58210372  0.45139420  0.06345450  1
  O2-  O223  1  0.57997646  0.45253316  0.39333918  1
  O2-  O224  1  0.57800350  0.44759206  0.73158227  1
  O2-  O225  1  0.59166221  0.96099189  0.06931951  1
  O2-  O226  1  0.58311537  0.95612833  0.39648937  1
  O2-  O227  1  0.58854515  0.96246845  0.73061904  1
  O2-  O228  1  0.21499842  0.33830086  0.07039962  1
  O2-  O229  1  0.20964325  0.33355282  0.40209436  1
  O2-  O230  1  0.20412001  0.33254189  0.72883688  1
  O2-  O231  1  0.20369960  0.83509156  0.06315205  1
  O2-  O232  1  0.21238138  0.83097434  0.40204411  1
  O2-  O233  1  0.20125540  0.83277161  0.72934708  1
  O2-  O234  1  0.69951429  0.33046351  0.06280773  1
  O2-  O235  1  0.69909705  0.33383460  0.39329411  1
  O2-  O236  1  0.70930011  0.32927532  0.73453402  1
  O2-  O237  1  0.70542595  0.83769793  0.06281619  1
  O2-  O238  1  0.70070594  0.83576213  0.39891759  1
  O2-  O239  1  0.70239854  0.83861392  0.73038214  1
  O2-  O240  1  0.45574335  0.40992392  0.26508767  1
  O2-  O241  1  0.45389737  0.42107313  0.59639770  1
  O2-  O242  1  0.45542396  0.41076889  0.93823189  1
  O2-  O243  1  0.45396080  0.91812563  0.26848563  1
  O2-  O244  1  0.46390963  0.91316130  0.59627484  1
  O2-  O245  1  0.46472597  0.91582654  0.93972179  1
  O2-  O246  1  0.96240253  0.41523511  0.26664511  1
  O2-  O247  1  0.95706732  0.41044372  0.60489990  1
  O2-  O248  1  0.95781833  0.41893375  0.92943065  1
  O2-  O249  1  0.95643410  0.91895434  0.27561021  1
  O2-  O250  1  0.95685197  0.92131517  0.59571021  1
  O2-  O251  1  0.95337725  0.92049766  0.93249964  1
  O2-  O252  1  0.33554727  0.29014997  0.26917437  1
  O2-  O253  1  0.33021692  0.29006756  0.59584902  1
  O2-  O254  1  0.33834074  0.29017153  0.93991413  1
  O2-  O255  1  0.33465621  0.79971141  0.26722269  1
  O2-  O256  1  0.33181625  0.79301213  0.60074884  1
  O2-  O257  1  0.33426441  0.80927928  0.94105191  1
  O2-  O258  1  0.83194117  0.29032590  0.26592799  1
  O2-  O259  1  0.83909838  0.28823468  0.60402468  1
  O2-  O260  1  0.82900488  0.29222502  0.92993698  1
  O2-  O261  1  0.83267410  0.80405994  0.27502966  1
  O2-  O262  1  0.82514918  0.80235289  0.59807826  1
  O2-  O263  1  0.82981651  0.79568370  0.93475827  1
  O2-  O264  1  0.41669129  0.03913845  0.07289692  1
  O2-  O265  1  0.41925675  0.04859288  0.39644407  1
  O2-  O266  1  0.41801304  0.03751747  0.73084227  1
  O2-  O267  1  0.41730697  0.54151036  0.06356965  1
  O2-  O268  1  0.41634938  0.54005769  0.39451973  1
  O2-  O269  1  0.41628136  0.54240111  0.73405704  1
  O2-  O270  1  0.91533818  0.04787033  0.05901530  1
  O2-  O271  1  0.91568992  0.04544245  0.40369012  1
  O2-  O272  1  0.91507225  0.04407769  0.73002782  1
  O2-  O273  1  0.91609546  0.54008004  0.06676630  1
  O2-  O274  1  0.91350031  0.53570077  0.40208066  1
  O2-  O275  1  0.91822891  0.53854487  0.73607707  1
  O2-  O276  1  0.29240882  0.16666481  0.07120036  1
  O2-  O277  1  0.29815002  0.16532966  0.39901592  1
  O2-  O278  1  0.28938016  0.16551381  0.73196847  1
  O2-  O279  1  0.30997244  0.67194171  0.05941293  1
  O2-  O280  1  0.30525594  0.66715752  0.38822596  1
  O2-  O281  1  0.29070691  0.66793711  0.73428120  1
  O2-  O282  1  0.78993945  0.16294068  0.06139195  1
  O2-  O283  1  0.78530249  0.16765121  0.40018621  1
  O2-  O284  1  0.79387118  0.16153044  0.73237914  1
  O2-  O285  1  0.78435708  0.66725920  0.06759292  1
  O2-  O286  1  0.79036955  0.66840759  0.40017800  1
  O2-  O287  1  0.79502887  0.67329319  0.73366595  1
