# generated using pymatgen
data_Ca2Al2SiO7
_symmetry_space_group_name_H-M   'P 1'
_cell_length_a   15.45785125
_cell_length_b   15.45810114
_cell_length_c   15.28375049
_cell_angle_alpha   90.00350820
_cell_angle_beta   89.99293148
_cell_angle_gamma   90.02030405
_symmetry_Int_Tables_number   1
_chemical_formula_structural   Ca2Al2SiO7
_chemical_formula_sum   'Ca48 Al48 Si24 O168'
_cell_volume   3652.03706046
_cell_formula_units_Z   24
loop_
 _symmetry_equiv_pos_site_id
 _symmetry_equiv_pos_as_xyz
  1  'x, y, z'
loop_
 _atom_type_symbol
 _atom_type_oxidation_number
  Ca2+  2.0
  Al0+  0.0
  Si0+  0.0
  O2-  -2.0
loop_
 _atom_site_type_symbol
 _atom_site_label
 _atom_site_symmetry_multiplicity
 _atom_site_fract_x
 _atom_site_fract_y
 _atom_site_fract_z
 _atom_site_occupancy
  Ca2+  Ca0  1  0.17301188  0.07493004  0.16684706  1
  Ca2+  Ca1  1  0.18077370  0.07950931  0.50533907  1
  Ca2+  Ca2  1  0.17452350  0.07574883  0.83681250  1
  Ca2+  Ca3  1  0.17216382  0.58336399  0.16186420  1
  Ca2+  Ca4  1  0.16948028  0.58179446  0.51289090  1
  Ca2+  Ca5  1  0.17434306  0.58122107  0.83421005  1
  Ca2+  Ca6  1  0.66858936  0.07021448  0.16538806  1
  Ca2+  Ca7  1  0.66670273  0.07535419  0.50796479  1
  Ca2+  Ca8  1  0.67395188  0.08160508  0.83671116  1
  Ca2+  Ca9  1  0.66873985  0.57948303  0.16916475  1
  Ca2+  Ca10  1  0.67613698  0.58396353  0.50988263  1
  Ca2+  Ca11  1  0.65879456  0.57784253  0.83379048  1
  Ca2+  Ca12  1  0.08511626  0.33089690  0.15896942  1
  Ca2+  Ca13  1  0.08511900  0.33501391  0.49904072  1
  Ca2+  Ca14  1  0.08584949  0.33899988  0.82916368  1
  Ca2+  Ca15  1  0.07144683  0.83891382  0.15759032  1
  Ca2+  Ca16  1  0.07549841  0.82551166  0.49792976  1
  Ca2+  Ca17  1  0.08049510  0.83073551  0.83002539  1
  Ca2+  Ca18  1  0.57877791  0.33145700  0.15518271  1
  Ca2+  Ca19  1  0.59227821  0.32626964  0.50333421  1
  Ca2+  Ca20  1  0.58419248  0.33268351  0.82727767  1
  Ca2+  Ca21  1  0.57652400  0.83953644  0.16143526  1
  Ca2+  Ca22  1  0.57644840  0.83207318  0.49846322  1
  Ca2+  Ca23  1  0.57350014  0.83141724  0.82718702  1
  Ca2+  Ca24  1  0.33546211  0.42121426  0.16273107  1
  Ca2+  Ca25  1  0.32499908  0.42599885  0.51262037  1
  Ca2+  Ca26  1  0.33116972  0.42907586  0.84155527  1
  Ca2+  Ca27  1  0.33171128  0.91346368  0.17147720  1
  Ca2+  Ca28  1  0.34500213  0.92256816  0.50357413  1
  Ca2+  Ca29  1  0.33503650  0.91609810  0.83875070  1
  Ca2+  Ca30  1  0.82634818  0.42294646  0.16927578  1
  Ca2+  Ca31  1  0.83026080  0.42962733  0.50958730  1
  Ca2+  Ca32  1  0.82026476  0.42281814  0.83275198  1
  Ca2+  Ca33  1  0.82297178  0.90741312  0.16934370  1
  Ca2+  Ca34  1  0.82738595  0.91483113  0.50246548  1
  Ca2+  Ca35  1  0.82965556  0.92533053  0.84439767  1
  Ca2+  Ca36  1  0.41470388  0.17177470  0.16087692  1
  Ca2+  Ca37  1  0.41975510  0.16096098  0.49925306  1
  Ca2+  Ca38  1  0.42218253  0.17223526  0.82499427  1
  Ca2+  Ca39  1  0.41647464  0.67624477  0.15731950  1
  Ca2+  Ca40  1  0.41836529  0.67426611  0.50027188  1
  Ca2+  Ca41  1  0.41358282  0.67446111  0.82474262  1
  Ca2+  Ca42  1  0.91740086  0.16523516  0.15812470  1
  Ca2+  Ca43  1  0.91530682  0.16631295  0.50033640  1
  Ca2+  Ca44  1  0.91291457  0.16400330  0.82724579  1
  Ca2+  Ca45  1  0.91136695  0.67637372  0.16439586  1
  Ca2+  Ca46  1  0.91939008  0.66160652  0.49529262  1
  Ca2+  Ca47  1  0.92065848  0.66942867  0.82661783  1
  Al0+  Al48  1  0.00312866  0.00214638  0.00143099  1
  Al0+  Al49  1  0.00126759  0.00009104  0.32946086  1
  Al0+  Al50  1  0.00037594  0.00164603  0.66652717  1
  Al0+  Al51  1  0.00090642  0.49904683  0.00353249  1
  Al0+  Al52  1  0.00007388  0.49798663  0.33311695  1
  Al0+  Al53  1  -0.00199958  0.50063713  0.66962575  1
  Al0+  Al54  1  0.50289749  0.00198540  -0.00201403  1
  Al0+  Al55  1  0.50161315  -0.00014695  0.33547589  1
  Al0+  Al56  1  0.50049474  0.00322954  0.66457651  1
  Al0+  Al57  1  0.49979158  0.49982852  0.00591439  1
  Al0+  Al58  1  0.49899166  0.49781987  0.33502859  1
  Al0+  Al59  1  0.49870894  0.50103017  0.66682283  1
  Al0+  Al60  1  0.25006434  0.25125082  -0.00265379  1
  Al0+  Al61  1  0.25055211  0.24846232  0.33627638  1
  Al0+  Al62  1  0.24915298  0.24705686  0.67209740  1
  Al0+  Al63  1  0.24888984  0.75048740  0.00505343  1
  Al0+  Al64  1  0.24880790  0.74867430  0.32999586  1
  Al0+  Al65  1  0.24553956  0.75112487  0.65864811  1
  Al0+  Al66  1  0.75187105  0.25123614  0.00818600  1
  Al0+  Al67  1  0.75017898  0.24850905  0.32935621  1
  Al0+  Al68  1  0.75058698  0.25005932  0.66698458  1
  Al0+  Al69  1  0.75001625  0.75113872  -0.00262197  1
  Al0+  Al70  1  0.75017882  0.74796209  0.33900213  1
  Al0+  Al71  1  0.74799244  0.75172754  0.66805623  1
  Al0+  Al72  1  0.57190689  0.18216604  0.65294133  1
  Al0+  Al73  1  0.82268646  0.07104828  0.01597324  1
  Al0+  Al74  1  0.82103886  0.06925609  0.67789345  1
  Al0+  Al75  1  0.92912222  0.81931353  0.32013626  1
  Al0+  Al76  1  0.92853080  0.82216530  0.98536263  1
  Al0+  Al77  1  0.67898716  0.43000075  0.01456898  1
  Al0+  Al78  1  0.17881136  0.42779849  0.01651564  1
  Al0+  Al79  1  0.43105260  0.82056822  0.31784420  1
  Al0+  Al80  1  0.32317533  0.06889325  0.68181634  1
  Al0+  Al81  1  0.42909841  0.32153746  0.98570114  1
  Al0+  Al82  1  0.32168551  0.57249228  0.01627934  1
  Al0+  Al83  1  0.81959319  0.56852242  0.34630583  1
  Al0+  Al84  1  0.67881313  0.92766911  0.01386620  1
  Al0+  Al85  1  0.42847805  0.82200613  0.98735760  1
  Al0+  Al86  1  0.18104560  0.92885254  0.01276488  1
  Al0+  Al87  1  0.82094601  0.57509888  0.68321874  1
  Al0+  Al88  1  0.06701795  0.67887216  0.65381010  1
  Al0+  Al89  1  0.42745976  0.82175644  0.65120340  1
  Al0+  Al90  1  0.32047350  0.57417006  0.67957243  1
  Al0+  Al91  1  0.68012592  0.92948588  0.34905065  1
  Al0+  Al92  1  0.57171852  0.67671449  0.65136915  1
  Al0+  Al93  1  0.31972045  0.06920123  0.34621789  1
  Al0+  Al94  1  0.67874108  0.42948048  0.67986512  1
  Al0+  Al95  1  0.17787463  0.42823594  0.68092882  1
  Si0+  Si96  1  0.82314426  0.57261409  0.01636220  1
  Si0+  Si97  1  0.82411291  0.07334516  0.34977764  1
  Si0+  Si98  1  0.93004765  0.31930651  0.65212049  1
  Si0+  Si99  1  0.57182508  0.17883842  0.31654843  1
  Si0+  Si100  1  0.92946088  0.32073078  0.31737423  1
  Si0+  Si101  1  0.57403909  0.18034288  0.98347158  1
  Si0+  Si102  1  0.32337854  0.07212787  0.01456922  1
  Si0+  Si103  1  0.57201290  0.67748208  0.98547535  1
  Si0+  Si104  1  0.42537921  0.32145302  0.64997138  1
  Si0+  Si105  1  0.07277973  0.18056027  0.31780323  1
  Si0+  Si106  1  0.32106180  0.57209229  0.34899545  1
  Si0+  Si107  1  0.07069152  0.67722052  0.98378625  1
  Si0+  Si108  1  0.92875062  0.32161757  0.98466112  1
  Si0+  Si109  1  0.07146336  0.18007521  0.98286831  1
  Si0+  Si110  1  0.57166963  0.67568645  0.31695626  1
  Si0+  Si111  1  0.67630436  0.42510574  0.35025690  1
  Si0+  Si112  1  0.67688007  0.92867773  0.68382565  1
  Si0+  Si113  1  0.07267432  0.17713856  0.65041325  1
  Si0+  Si114  1  0.17583176  0.92624979  0.35052530  1
  Si0+  Si115  1  0.17691983  0.92888524  0.68109498  1
  Si0+  Si116  1  0.92717984  0.82530690  0.65123754  1
  Si0+  Si117  1  0.42777180  0.32013120  0.31944885  1
  Si0+  Si118  1  0.18057343  0.42849770  0.34786288  1
  Si0+  Si119  1  0.07190597  0.67456075  0.31393280  1
  O2-  O120  1  0.26066863  -0.00134974  0.05990397  1
  O2-  O121  1  0.24923337  -0.00964911  0.39379400  1
  O2-  O122  1  0.25104463  -0.00876354  0.72590141  1
  O2-  O123  1  0.25096640  0.49863016  0.06722674  1
  O2-  O124  1  0.24829573  0.50194330  0.38995332  1
  O2-  O125  1  0.25235846  0.49799058  0.72912368  1
  O2-  O126  1  0.75441647  -0.00424685  0.06552290  1
  O2-  O127  1  0.75712033  0.00377172  0.39394194  1
  O2-  O128  1  0.75059676  -0.00721420  0.72623165  1
  O2-  O129  1  0.75257836  0.50580025  0.06088769  1
  O2-  O130  1  0.74431715  0.49438977  0.39288619  1
  O2-  O131  1  0.74335083  0.50777637  0.73087909  1
  O2-  O132  1  -0.00189660  0.24752188  0.27480369  1
  O2-  O133  1  0.00399684  0.25107185  0.60864670  1
  O2-  O134  1  -0.00053211  0.25078168  0.94149310  1
  O2-  O135  1  0.00521494  0.74613486  0.27161740  1
  O2-  O136  1  -0.01079740  0.75056926  0.60665280  1
  O2-  O137  1  0.00140532  0.74541699  0.93970954  1
  O2-  O138  1  0.50208749  0.25249317  0.27668473  1
  O2-  O139  1  0.49667460  0.25601555  0.60387061  1
  O2-  O140  1  0.50476276  0.24820550  0.93932765  1
  O2-  O141  1  0.50312090  0.74336536  0.27081617  1
  O2-  O142  1  0.49898279  0.74847618  0.60156683  1
  O2-  O143  1  0.50314277  0.74671209  0.94258635  1
  O2-  O144  1  0.07200909  0.18142646  0.08864472  1
  O2-  O145  1  0.07395980  0.18296319  0.42292174  1
  O2-  O146  1  0.07111733  0.17403827  0.75510338  1
  O2-  O147  1  0.06851640  0.67700991  0.08979764  1
  O2-  O148  1  0.07097235  0.67200606  0.41953049  1
  O2-  O149  1  0.06815903  0.68082611  0.76673461  1
  O2-  O150  1  0.57201994  0.18082295  0.08972522  1
  O2-  O151  1  0.57418905  0.17999780  0.42157115  1
  O2-  O152  1  0.57251729  0.18324410  0.76574382  1
  O2-  O153  1  0.57202634  0.67737676  0.09163516  1
  O2-  O154  1  0.56920260  0.67459117  0.42208285  1
  O2-  O155  1  0.57106843  0.67943094  0.76502197  1
  O2-  O156  1  0.18144212  0.42580959  0.24324622  1
  O2-  O157  1  0.17854471  0.42861633  0.56610139  1
  O2-  O158  1  0.17800051  0.42910906  0.90386947  1
  O2-  O159  1  0.17391952  0.93007142  0.24491557  1
  O2-  O160  1  0.17218984  0.93379528  0.57544891  1
  O2-  O161  1  0.17976826  0.93146439  0.89975652  1
  O2-  O162  1  0.67664405  0.42459723  0.24457977  1
  O2-  O163  1  0.68633801  0.42539004  0.56608587  1
  O2-  O164  1  0.68047683  0.42830224  0.90212191  1
  O2-  O165  1  0.67914892  0.93120268  0.23622409  1
  O2-  O166  1  0.67725692  0.93095613  0.57770072  1
  O2-  O167  1  0.67793157  0.93054210  0.90068090  1
  O2-  O168  1  0.42999747  0.31751626  0.10004165  1
  O2-  O169  1  0.42519275  0.31998506  0.42413556  1
  O2-  O170  1  0.42498684  0.31803692  0.75529315  1
  O2-  O171  1  0.42984534  0.82163439  0.10092424  1
  O2-  O172  1  0.43248244  0.82040243  0.43043641  1
  O2-  O173  1  0.42813885  0.82234626  0.76493618  1
  O2-  O174  1  0.93021357  0.32024898  0.09040936  1
  O2-  O175  1  0.93072478  0.32135789  0.42244976  1
  O2-  O176  1  0.92890175  0.31681725  0.75714742  1
  O2-  O177  1  0.92857228  0.81941410  0.09892114  1
  O2-  O178  1  0.93160567  0.81909896  0.43324338  1
  O2-  O179  1  0.93294317  0.82932164  0.75647595  1
  O2-  O180  1  0.31571718  0.07346436  0.23320815  1
  O2-  O181  1  0.32045106  0.07004506  0.56823179  1
  O2-  O182  1  0.32028727  0.07252389  0.90919968  1
  O2-  O183  1  0.32207022  0.57044388  0.24423975  1
  O2-  O184  1  0.31676556  0.57224676  0.56492947  1
  O2-  O185  1  0.32014622  0.57354314  0.90322888  1
  O2-  O186  1  0.82310118  0.07623804  0.24474179  1
  O2-  O187  1  0.82114632  0.06864662  0.56436378  1
  O2-  O188  1  0.82045556  0.07261984  0.90232771  1
  O2-  O189  1  0.81849180  0.56596979  0.23297658  1
  O2-  O190  1  0.82396567  0.56927491  0.56929802  1
  O2-  O191  1  0.82528421  0.57021638  0.91134991  1
  O2-  O192  1  0.04917280  0.08786555  0.26995170  1
  O2-  O193  1  0.04125677  0.08791130  0.59926394  1
  O2-  O194  1  0.04491816  0.08876019  0.93462437  1
  O2-  O195  1  0.04451486  0.58110077  0.26768260  1
  O2-  O196  1  0.03791845  0.58132187  0.59864457  1
  O2-  O197  1  0.04563044  0.58271341  0.93917791  1
  O2-  O198  1  0.54091924  0.08851992  0.26915487  1
  O2-  O199  1  0.54046295  0.08679026  0.59677323  1
  O2-  O200  1  0.55043994  0.08715525  0.93640959  1
  O2-  O201  1  0.54684892  0.58039184  0.27177377  1
  O2-  O202  1  0.54723712  0.57719236  0.59708971  1
  O2-  O203  1  0.54610481  0.58335666  0.94167191  1
  O2-  O204  1  0.16244548  0.21365125  0.26906387  1
  O2-  O205  1  0.16486928  0.20360616  0.60229837  1
  O2-  O206  1  0.16241419  0.20820997  0.93438747  1
  O2-  O207  1  0.16623119  0.69766875  0.26847623  1
  O2-  O208  1  0.15995467  0.71136296  0.59295442  1
  O2-  O209  1  0.16420417  0.70476240  0.93999153  1
  O2-  O210  1  0.66385392  0.20465246  0.26735635  1
  O2-  O211  1  0.66779468  0.21376297  0.59595656  1
  O2-  O212  1  0.66840250  0.20871004  0.94102757  1
  O2-  O213  1  0.66617281  0.70054079  0.27327329  1
  O2-  O214  1  0.67098672  0.70626645  0.59839799  1
  O2-  O215  1  0.66580165  0.69989277  0.93879834  1
  O2-  O216  1  0.08020582  0.45523791  0.07143935  1
  O2-  O217  1  0.08695451  0.45231112  0.39361381  1
  O2-  O218  1  0.08010201  0.45639731  0.73324996  1
  O2-  O219  1  0.08815624  0.96715814  0.06959977  1
  O2-  O220  1  0.08427011  0.95776946  0.39752551  1
  O2-  O221  1  0.08678584  0.96172470  0.72992316  1
  O2-  O222  1  0.58376411  0.45840921  0.07218637  1
  O2-  O223  1  0.58156748  0.44661784  0.39562793  1
  O2-  O224  1  0.57743326  0.44842974  0.72960178  1
  O2-  O225  1  0.58219828  0.96221611  0.06871424  1
  O2-  O226  1  0.58573813  0.96443827  0.40397148  1
  O2-  O227  1  0.58599065  0.96132652  0.72944096  1
  O2-  O228  1  0.20736245  0.32857383  0.06890471  1
  O2-  O229  1  0.21001846  0.33791502  0.39693132  1
  O2-  O230  1  0.19966696  0.32787933  0.73162741  1
  O2-  O231  1  0.20383598  0.83277598  0.07058423  1
  O2-  O232  1  0.19548650  0.82961009  0.39227302  1
  O2-  O233  1  0.19536897  0.83315747  0.72343384  1
  O2-  O234  1  0.71250034  0.33611323  0.07278778  1
  O2-  O235  1  0.70447955  0.33082309  0.39367303  1
  O2-  O236  1  0.71568386  0.33440172  0.73412698  1
  O2-  O237  1  0.70437054  0.82830915  0.06714647  1
  O2-  O238  1  0.70988168  0.83319640  0.40349541  1
  O2-  O239  1  0.69559064  0.83397993  0.72868013  1
  O2-  O240  1  0.45271500  0.41301967  0.27184569  1
  O2-  O241  1  0.44577063  0.41658785  0.60521080  1
  O2-  O242  1  0.45896765  0.41961665  0.93564627  1
  O2-  O243  1  0.46254953  0.91816634  0.26580266  1
  O2-  O244  1  0.46040442  0.91973889  0.59908176  1
  O2-  O245  1  0.45806786  0.91963542  0.93430931  1
  O2-  O246  1  0.95983943  0.41079565  0.26786435  1
  O2-  O247  1  0.95665749  0.41129250  0.60434486  1
  O2-  O248  1  0.95649163  0.41375043  0.93830816  1
  O2-  O249  1  0.95767485  0.91730476  0.26620051  1
  O2-  O250  1  0.95971009  0.91592127  0.60152143  1
  O2-  O251  1  0.96311900  0.91902275  0.93440130  1
  O2-  O252  1  0.33732378  0.28805587  0.27118462  1
  O2-  O253  1  0.33237684  0.29080653  0.60396706  1
  O2-  O254  1  0.33278423  0.29136092  0.93158079  1
  O2-  O255  1  0.33133330  0.79293601  0.26700832  1
  O2-  O256  1  0.32840715  0.79815048  0.59649365  1
  O2-  O257  1  0.32997879  0.79277788  0.93668090  1
  O2-  O258  1  0.83689105  0.29522740  0.26925825  1
  O2-  O259  1  0.84127790  0.28733329  0.60142133  1
  O2-  O260  1  0.83649460  0.29299994  0.93921508  1
  O2-  O261  1  0.83233585  0.78517547  0.26786587  1
  O2-  O262  1  0.83058431  0.80762897  0.60935873  1
  O2-  O263  1  0.83144204  0.79494937  0.93095704  1
  O2-  O264  1  0.41923863  0.05462886  0.05832106  1
  O2-  O265  1  0.41734321  0.04254989  0.39932642  1
  O2-  O266  1  0.42070015  0.04382559  0.73529143  1
  O2-  O267  1  0.41837419  0.54325718  0.07264912  1
  O2-  O268  1  0.41245024  0.54232436  0.39613009  1
  O2-  O269  1  0.41984296  0.55095354  0.73112409  1
  O2-  O270  1  0.92333498  0.04922708  0.06633776  1
  O2-  O271  1  0.92000921  0.05125184  0.39308505  1
  O2-  O272  1  0.91906536  0.04395419  0.73186141  1
  O2-  O273  1  0.91482570  0.54418422  0.06488427  1
  O2-  O274  1  0.91664365  0.53491180  0.39914605  1
  O2-  O275  1  0.91591401  0.53966377  0.73734213  1
  O2-  O276  1  0.29045429  0.16334709  0.06119660  1
  O2-  O277  1  0.28476642  0.16391123  0.40265087  1
  O2-  O278  1  0.28864366  0.16311882  0.73696513  1
  O2-  O279  1  0.28909387  0.66805708  0.07287568  1
  O2-  O280  1  0.29353891  0.66431762  0.39518035  1
  O2-  O281  1  0.28640467  0.67202033  0.72931821  1
  O2-  O282  1  0.79334914  0.16795492  0.07197963  1
  O2-  O283  1  0.79768421  0.16779676  0.39484886  1
  O2-  O284  1  0.78958183  0.16507894  0.73169489  1
  O2-  O285  1  0.79773195  0.66663834  0.06108522  1
  O2-  O286  1  0.79214923  0.66369296  0.40315616  1
  O2-  O287  1  0.80080707  0.67612492  0.73323114  1
