# generated using pymatgen
data_Ca2Al2SiO7
_symmetry_space_group_name_H-M   'P 1'
_cell_length_a   15.46133458
_cell_length_b   15.46101143
_cell_length_c   15.28589962
_cell_angle_alpha   89.99104170
_cell_angle_beta   90.00446254
_cell_angle_gamma   89.98073740
_symmetry_Int_Tables_number   1
_chemical_formula_structural   Ca2Al2SiO7
_chemical_formula_sum   'Ca48 Al48 Si24 O168'
_cell_volume   3654.06149235
_cell_formula_units_Z   24
loop_
 _symmetry_equiv_pos_site_id
 _symmetry_equiv_pos_as_xyz
  1  'x, y, z'
loop_
 _atom_type_symbol
 _atom_type_oxidation_number
  Ca2+  2.0
  Al0+  0.0
  Si0+  0.0
  O2-  -2.0
loop_
 _atom_site_type_symbol
 _atom_site_label
 _atom_site_symmetry_multiplicity
 _atom_site_fract_x
 _atom_site_fract_y
 _atom_site_fract_z
 _atom_site_occupancy
  Ca2+  Ca0  1  0.16033825  0.07808807  0.17152376  1
  Ca2+  Ca1  1  0.15806486  0.07895868  0.50137973  1
  Ca2+  Ca2  1  0.16202183  0.08067355  0.84128817  1
  Ca2+  Ca3  1  0.17628106  0.58038083  0.17612066  1
  Ca2+  Ca4  1  0.17185699  0.58905414  0.50263746  1
  Ca2+  Ca5  1  0.16657770  0.58380868  0.83629240  1
  Ca2+  Ca6  1  0.66925197  0.08644981  0.17324225  1
  Ca2+  Ca7  1  0.66980411  0.07883587  0.50229909  1
  Ca2+  Ca8  1  0.67813395  0.08873019  0.83993946  1
  Ca2+  Ca9  1  0.66795052  0.56941576  0.17889214  1
  Ca2+  Ca10  1  0.67317501  0.58597765  0.50057452  1
  Ca2+  Ca11  1  0.66974111  0.58172569  0.83592939  1
  Ca2+  Ca12  1  0.07203031  0.32470369  0.16184066  1
  Ca2+  Ca13  1  0.07490749  0.32133862  0.49046952  1
  Ca2+  Ca14  1  0.07720613  0.32168170  0.82884087  1
  Ca2+  Ca15  1  0.08088791  0.83979559  0.16823781  1
  Ca2+  Ca16  1  0.07548566  0.83001343  0.49281448  1
  Ca2+  Ca17  1  0.08484293  0.82963754  0.82948245  1
  Ca2+  Ca18  1  0.58839458  0.32816259  0.16064204  1
  Ca2+  Ca19  1  0.58922430  0.32729882  0.49174806  1
  Ca2+  Ca20  1  0.58664117  0.33322214  0.84161148  1
  Ca2+  Ca21  1  0.58646350  0.82927927  0.17032754  1
  Ca2+  Ca22  1  0.57823727  0.82654048  0.48715976  1
  Ca2+  Ca23  1  0.57605674  0.82766523  0.82182911  1
  Ca2+  Ca24  1  0.33732772  0.41972192  0.17360862  1
  Ca2+  Ca25  1  0.33511909  0.42464819  0.49992374  1
  Ca2+  Ca26  1  0.33393275  0.41647202  0.84070451  1
  Ca2+  Ca27  1  0.32154733  0.91378819  0.17598742  1
  Ca2+  Ca28  1  0.33185904  0.90899232  0.49837031  1
  Ca2+  Ca29  1  0.32786050  0.91597421  0.83832366  1
  Ca2+  Ca30  1  0.82828561  0.41425931  0.17402192  1
  Ca2+  Ca31  1  0.83301766  0.42277602  0.49871293  1
  Ca2+  Ca32  1  0.83108160  0.42149161  0.84030284  1
  Ca2+  Ca33  1  0.83018583  0.92462444  0.17463316  1
  Ca2+  Ca34  1  0.82867874  0.91649645  0.49995772  1
  Ca2+  Ca35  1  0.83680963  0.93042831  0.83699451  1
  Ca2+  Ca36  1  0.43200822  0.16922676  0.16197094  1
  Ca2+  Ca37  1  0.42452988  0.16847395  0.49139409  1
  Ca2+  Ca38  1  0.42066802  0.17154685  0.83468403  1
  Ca2+  Ca39  1  0.41891672  0.66680334  0.17100125  1
  Ca2+  Ca40  1  0.42655843  0.67428569  0.49305196  1
  Ca2+  Ca41  1  0.42461047  0.67387261  0.82302526  1
  Ca2+  Ca42  1  0.91917743  0.17485821  0.16074500  1
  Ca2+  Ca43  1  0.92261565  0.16632957  0.49253338  1
  Ca2+  Ca44  1  0.91905721  0.16504508  0.83272368  1
  Ca2+  Ca45  1  0.90349552  0.67500131  0.17074341  1
  Ca2+  Ca46  1  0.91670655  0.66425458  0.49253410  1
  Ca2+  Ca47  1  0.92215906  0.66678579  0.82369144  1
  Al0+  Al48  1  -0.00135087  -0.00126637  0.00508059  1
  Al0+  Al49  1  0.00109708  -0.00309679  0.33171560  1
  Al0+  Al50  1  0.00008608  -0.00072644  0.66831458  1
  Al0+  Al51  1  0.00192854  0.50187464  -0.00129274  1
  Al0+  Al52  1  0.00156887  0.49820345  0.33225791  1
  Al0+  Al53  1  0.00001594  0.49882988  0.66702954  1
  Al0+  Al54  1  0.49971628  -0.00127298  -0.00525004  1
  Al0+  Al55  1  0.49805970  -0.00013730  0.32869869  1
  Al0+  Al56  1  0.49648204  0.00236251  0.66539287  1
  Al0+  Al57  1  0.50175050  0.50143746  -0.00061855  1
  Al0+  Al58  1  0.50001448  0.50054735  0.34109727  1
  Al0+  Al59  1  0.49895162  0.50049609  0.66524622  1
  Al0+  Al60  1  0.25086415  0.24958909  -0.00439559  1
  Al0+  Al61  1  0.25086607  0.24847002  0.33059144  1
  Al0+  Al62  1  0.24882621  0.24861224  0.66305275  1
  Al0+  Al63  1  0.25006237  0.75049407  0.00374077  1
  Al0+  Al64  1  0.24985780  0.75048118  0.33917339  1
  Al0+  Al65  1  0.24931390  0.74971859  0.66174945  1
  Al0+  Al66  1  0.75115641  0.25199252  -0.00097632  1
  Al0+  Al67  1  0.75156293  0.25027695  0.33202001  1
  Al0+  Al68  1  0.74915777  0.25120122  0.67178729  1
  Al0+  Al69  1  0.75075146  0.75188047  -0.00427442  1
  Al0+  Al70  1  0.74972881  0.75045078  0.33172630  1
  Al0+  Al71  1  0.74960690  0.74937270  0.67053042  1
  Al0+  Al72  1  0.07195471  0.17675407  0.31727091  1
  Al0+  Al73  1  0.82195860  0.57132064  0.34698749  1
  Al0+  Al74  1  0.82049505  0.07006459  0.67971629  1
  Al0+  Al75  1  0.67934175  0.42623781  0.34974296  1
  Al0+  Al76  1  0.68089630  0.43298576  0.01367424  1
  Al0+  Al77  1  0.92831724  0.81892393  0.32006382  1
  Al0+  Al78  1  0.92924729  0.32207449  0.31841873  1
  Al0+  Al79  1  0.42754175  0.82043147  0.31546204  1
  Al0+  Al80  1  0.06941002  0.67715773  0.65330290  1
  Al0+  Al81  1  0.92864546  0.32387072  0.98251631  1
  Al0+  Al82  1  0.57296093  0.67854748  0.65067601  1
  Al0+  Al83  1  0.67718858  0.93029836  0.34496178  1
  Al0+  Al84  1  0.42872197  0.82328187  0.65087971  1
  Al0+  Al85  1  0.18089716  0.92961558  0.01412844  1
  Al0+  Al86  1  0.81898894  0.07037781  0.01519019  1
  Al0+  Al87  1  0.57176789  0.67783289  0.31670261  1
  Al0+  Al88  1  0.06914967  0.17697120  0.98456752  1
  Al0+  Al89  1  0.43003604  0.32318656  0.98624625  1
  Al0+  Al90  1  0.06963266  0.17786779  0.65197855  1
  Al0+  Al91  1  0.82159205  0.57103856  0.68123777  1
  Al0+  Al92  1  0.17820068  0.93065684  0.35043104  1
  Al0+  Al93  1  0.32054636  0.57058348  0.34932011  1
  Al0+  Al94  1  0.57128917  0.17888748  0.32204489  1
  Al0+  Al95  1  0.57277240  0.17712899  0.98349414  1
  Si0+  Si96  1  0.18064335  0.92949258  0.68183020  1
  Si0+  Si97  1  0.17881104  0.42783137  0.01379988  1
  Si0+  Si98  1  0.57123788  0.68011740  0.98467575  1
  Si0+  Si99  1  0.31935637  0.57056274  0.68333014  1
  Si0+  Si100  1  0.07279504  0.67752907  0.31667979  1
  Si0+  Si101  1  0.32423358  0.07327729  0.01643252  1
  Si0+  Si102  1  0.42844124  0.32297054  0.31967308  1
  Si0+  Si103  1  0.67493859  0.92917407  0.68251861  1
  Si0+  Si104  1  0.92864199  0.82201471  0.65218457  1
  Si0+  Si105  1  0.67602591  0.92617013  0.01487020  1
  Si0+  Si106  1  0.42683515  0.32083967  0.65109242  1
  Si0+  Si107  1  0.82498983  0.57484773  0.01597051  1
  Si0+  Si108  1  0.82186702  0.07102741  0.34920105  1
  Si0+  Si109  1  0.32060982  0.57047131  0.01353600  1
  Si0+  Si110  1  0.67563647  0.42818077  0.68618984  1
  Si0+  Si111  1  0.92879393  0.82030120  0.98395722  1
  Si0+  Si112  1  0.32174705  0.07238706  0.34995407  1
  Si0+  Si113  1  0.18015829  0.42713014  0.68180877  1
  Si0+  Si114  1  0.57134941  0.18126889  0.65245087  1
  Si0+  Si115  1  0.42626376  0.81899075  0.98521137  1
  Si0+  Si116  1  0.17879259  0.42543372  0.35013386  1
  Si0+  Si117  1  0.92643130  0.32158779  0.65004333  1
  Si0+  Si118  1  0.32146839  0.07427119  0.68308258  1
  Si0+  Si119  1  0.07399443  0.68074627  0.98659714  1
  O2-  O120  1  0.25386375  0.00639079  0.06011360  1
  O2-  O121  1  0.25133757  0.00697995  0.39695837  1
  O2-  O122  1  0.25164777  0.00084753  0.72379917  1
  O2-  O123  1  0.25284381  0.49629821  0.05551385  1
  O2-  O124  1  0.24557281  0.49538531  0.39594944  1
  O2-  O125  1  0.24943023  0.49931736  0.72692149  1
  O2-  O126  1  0.73934601  -0.00074668  0.05897207  1
  O2-  O127  1  0.75086767  0.00478369  0.39362091  1
  O2-  O128  1  0.74445388  -0.00362230  0.72768671  1
  O2-  O129  1  0.75857033  0.50470749  0.05929365  1
  O2-  O130  1  0.75006171  0.50015031  0.39842499  1
  O2-  O131  1  0.74444898  0.49850401  0.72793167  1
  O2-  O132  1  0.00036328  0.24906988  0.26893878  1
  O2-  O133  1  -0.00760703  0.24995855  0.60662002  1
  O2-  O134  1  -0.00104791  0.24969660  0.93251369  1
  O2-  O135  1  0.00075811  0.74184198  0.27167322  1
  O2-  O136  1  -0.00908538  0.74765146  0.60802081  1
  O2-  O137  1  -0.00053167  0.74772119  0.94376185  1
  O2-  O138  1  0.49918036  0.25682660  0.27655920  1
  O2-  O139  1  0.50070239  0.25263922  0.61003252  1
  O2-  O140  1  0.49932112  0.24930685  0.93445532  1
  O2-  O141  1  0.50015185  0.74962069  0.26469085  1
  O2-  O142  1  0.50556086  0.75583726  0.60282840  1
  O2-  O143  1  0.50226888  0.75367236  0.94300190  1
  O2-  O144  1  0.06823032  0.17843747  0.09738940  1
  O2-  O145  1  0.06941038  0.17806073  0.43154367  1
  O2-  O146  1  0.07171361  0.17856538  0.76474594  1
  O2-  O147  1  0.07905321  0.68107873  0.09095947  1
  O2-  O148  1  0.07251903  0.67992489  0.42252430  1
  O2-  O149  1  0.07206692  0.68064137  0.76728825  1
  O2-  O150  1  0.57073016  0.17676613  0.09677198  1
  O2-  O151  1  0.56906801  0.17880158  0.43603202  1
  O2-  O152  1  0.57020681  0.18121510  0.75726855  1
  O2-  O153  1  0.57115513  0.67897575  0.08906112  1
  O2-  O154  1  0.57142185  0.68004334  0.43003936  1
  O2-  O155  1  0.56824422  0.67864611  0.76560030  1
  O2-  O156  1  0.18151952  0.42690594  0.24427621  1
  O2-  O157  1  0.18384666  0.42704424  0.57709032  1
  O2-  O158  1  0.17881772  0.43160659  0.90824914  1
  O2-  O159  1  0.17973305  0.93019996  0.23726187  1
  O2-  O160  1  0.17943365  0.93034535  0.57727937  1
  O2-  O161  1  0.18408699  0.92508244  0.90030680  1
  O2-  O162  1  0.67885038  0.42633877  0.23614573  1
  O2-  O163  1  0.67519269  0.42410918  0.58123716  1
  O2-  O164  1  0.67896556  0.43883819  0.90021531  1
  O2-  O165  1  0.67986282  0.93234647  0.23167337  1
  O2-  O166  1  0.67470509  0.93131731  0.57714899  1
  O2-  O167  1  0.67903599  0.92214147  0.90910913  1
  O2-  O168  1  0.43131685  0.32561018  0.09933203  1
  O2-  O169  1  0.42612793  0.31971560  0.42589738  1
  O2-  O170  1  0.42410699  0.32013195  0.75598684  1
  O2-  O171  1  0.42221339  0.81566779  0.08941764  1
  O2-  O172  1  0.42918382  0.81866945  0.42887281  1
  O2-  O173  1  0.42719023  0.81993542  0.76573894  1
  O2-  O174  1  0.93177085  0.32560995  0.09541338  1
  O2-  O175  1  0.93076987  0.32083777  0.43262597  1
  O2-  O176  1  0.92899813  0.32258920  0.75558736  1
  O2-  O177  1  0.92594860  0.81893384  0.08862883  1
  O2-  O178  1  0.93043558  0.82039547  0.43335961  1
  O2-  O179  1  0.93375489  0.82351293  0.75833639  1
  O2-  O180  1  0.32158820  0.07203860  0.24454486  1
  O2-  O181  1  0.32320590  0.07858329  0.57860489  1
  O2-  O182  1  0.32468125  0.07053784  0.91020599  1
  O2-  O183  1  0.31882689  0.56847437  0.23525867  1
  O2-  O184  1  0.31840866  0.56899412  0.57875863  1
  O2-  O185  1  0.31791485  0.57281672  0.90805745  1
  O2-  O186  1  0.82109007  0.06995051  0.24363684  1
  O2-  O187  1  0.81917358  0.06921042  0.56684611  1
  O2-  O188  1  0.82052800  0.06625835  0.90148082  1
  O2-  O189  1  0.81940552  0.57082203  0.23312120  1
  O2-  O190  1  0.82445171  0.56845582  0.56904101  1
  O2-  O191  1  0.82406351  0.57648609  0.91008487  1
  O2-  O192  1  0.04448397  0.07813804  0.26671006  1
  O2-  O193  1  0.04008944  0.08017366  0.60013074  1
  O2-  O194  1  0.03943079  0.07740589  0.93353177  1
  O2-  O195  1  0.05514889  0.58171846  0.27254346  1
  O2-  O196  1  0.04520928  0.57886316  0.60031625  1
  O2-  O197  1  0.05032645  0.58832966  0.93812233  1
  O2-  O198  1  0.53738013  0.08563663  0.26466913  1
  O2-  O199  1  0.54251291  0.08964761  0.60574158  1
  O2-  O200  1  0.54578240  0.07817626  0.92871377  1
  O2-  O201  1  0.53901840  0.57866559  0.26746671  1
  O2-  O202  1  0.53990540  0.58105584  0.59950809  1
  O2-  O203  1  0.53978432  0.59082516  0.93516405  1
  O2-  O204  1  0.17133840  0.20371673  0.26569505  1
  O2-  O205  1  0.16586618  0.20958309  0.59778415  1
  O2-  O206  1  0.16938557  0.20254611  0.93303345  1
  O2-  O207  1  0.16498068  0.70789422  0.27127360  1
  O2-  O208  1  0.16424151  0.71030649  0.59868395  1
  O2-  O209  1  0.16393517  0.71222878  0.93614407  1
  O2-  O210  1  0.66808340  0.20627079  0.26863443  1
  O2-  O211  1  0.66337442  0.20903564  0.60591620  1
  O2-  O212  1  0.66930540  0.20961600  0.92988785  1
  O2-  O213  1  0.66894143  0.70708790  0.26281551  1
  O2-  O214  1  0.67434334  0.70080121  0.60258132  1
  O2-  O215  1  0.66339792  0.70671180  0.93599927  1
  O2-  O216  1  0.08923322  0.46017794  0.06259799  1
  O2-  O217  1  0.08505923  0.44901425  0.39602124  1
  O2-  O218  1  0.08831513  0.45373141  0.72947483  1
  O2-  O219  1  0.08344105  0.95571246  0.06752383  1
  O2-  O220  1  0.08115330  0.95939971  0.40523199  1
  O2-  O221  1  0.08917116  0.95648362  0.73064929  1
  O2-  O222  1  0.58452407  0.46576339  0.06739575  1
  O2-  O223  1  0.58046236  0.45080115  0.40347468  1
  O2-  O224  1  0.58098498  0.45399482  0.73127104  1
  O2-  O225  1  0.57919231  0.94431855  0.05694846  1
  O2-  O226  1  0.58004605  0.96025780  0.39825284  1
  O2-  O227  1  0.58085631  0.95586281  0.72847243  1
  O2-  O228  1  0.20380409  0.33509825  0.05954708  1
  O2-  O229  1  0.20647300  0.33231923  0.39674187  1
  O2-  O230  1  0.21087025  0.33599300  0.72965005  1
  O2-  O231  1  0.21396320  0.83405876  0.06952334  1
  O2-  O232  1  0.20949746  0.83466524  0.40499516  1
  O2-  O233  1  0.20950930  0.83703292  0.72876945  1
  O2-  O234  1  0.70662331  0.33440798  0.06431417  1
  O2-  O235  1  0.71035532  0.32856787  0.40403920  1
  O2-  O236  1  0.70233970  0.33561992  0.73447307  1
  O2-  O237  1  0.70726786  0.83402729  0.06149587  1
  O2-  O238  1  0.70962191  0.83469565  0.39919316  1
  O2-  O239  1  0.69761078  0.83486567  0.72888635  1
  O2-  O240  1  0.44983841  0.41811758  0.27691458  1
  O2-  O241  1  0.45118480  0.41406913  0.60546608  1
  O2-  O242  1  0.45983128  0.42119753  0.93054928  1
  O2-  O243  1  0.45230462  0.91919800  0.26273923  1
  O2-  O244  1  0.44789434  0.92492743  0.60093107  1
  O2-  O245  1  0.44768578  0.91225061  0.93753331  1
  O2-  O246  1  0.95845673  0.41977160  0.26399139  1
  O2-  O247  1  0.95662614  0.41333766  0.60393661  1
  O2-  O248  1  0.95975953  0.42303090  0.93020333  1
  O2-  O249  1  0.96269448  0.91311321  0.26421070  1
  O2-  O250  1  0.96063323  0.91225329  0.60429976  1
  O2-  O251  1  0.96002108  0.91068548  0.93679351  1
  O2-  O252  1  0.33588753  0.29748565  0.27164132  1
  O2-  O253  1  0.33714823  0.29069909  0.60157519  1
  O2-  O254  1  0.33129674  0.29749096  0.93119644  1
  O2-  O255  1  0.32863770  0.78772242  0.26568237  1
  O2-  O256  1  0.33228192  0.79008101  0.59842599  1
  O2-  O257  1  0.33701742  0.78503320  0.93553839  1
  O2-  O258  1  0.83176094  0.29340046  0.26534808  1
  O2-  O259  1  0.83093332  0.29883214  0.60738085  1
  O2-  O260  1  0.83016296  0.29786154  0.92992866  1
  O2-  O261  1  0.83290544  0.79132975  0.26252632  1
  O2-  O262  1  0.83179583  0.80411346  0.61145497  1
  O2-  O263  1  0.83770706  0.79465242  0.93281262  1
  O2-  O264  1  0.41813726  0.04561043  0.06086943  1
  O2-  O265  1  0.41421035  0.04421215  0.39711488  1
  O2-  O266  1  0.41320541  0.04794304  0.73265355  1
  O2-  O267  1  0.41307690  0.54576209  0.06000757  1
  O2-  O268  1  0.41485128  0.54000567  0.40718817  1
  O2-  O269  1  0.41150261  0.54263305  0.73083331  1
  O2-  O270  1  0.91264354  0.03419281  0.07038466  1
  O2-  O271  1  0.91408532  0.04053798  0.39466276  1
  O2-  O272  1  0.91607579  0.03606806  0.73556578  1
  O2-  O273  1  0.92068536  0.55503553  0.05990654  1
  O2-  O274  1  0.92232022  0.54447262  0.39809096  1
  O2-  O275  1  0.91889846  0.53970320  0.73614039  1
  O2-  O276  1  0.30269708  0.16865441  0.06007713  1
  O2-  O277  1  0.30021454  0.16754083  0.39604661  1
  O2-  O278  1  0.29097603  0.16498978  0.73176438  1
  O2-  O279  1  0.28856492  0.65966844  0.06294198  1
  O2-  O280  1  0.28715520  0.66495986  0.40511435  1
  O2-  O281  1  0.28967413  0.66263560  0.73001966  1
  O2-  O282  1  0.79275025  0.16879747  0.06607633  1
  O2-  O283  1  0.79873255  0.16473892  0.39512044  1
  O2-  O284  1  0.79025401  0.16672322  0.73485294  1
  O2-  O285  1  0.79627949  0.66908145  0.05917476  1
  O2-  O286  1  0.79529007  0.67038189  0.39908720  1
  O2-  O287  1  0.79563397  0.66907806  0.73747873  1
