# generated using pymatgen
data_Ca2Al2SiO7
_symmetry_space_group_name_H-M   'P 1'
_cell_length_a   15.46247880
_cell_length_b   15.46369641
_cell_length_c   15.28757510
_cell_angle_alpha   90.00670533
_cell_angle_beta   90.01092476
_cell_angle_gamma   89.99109692
_symmetry_Int_Tables_number   1
_chemical_formula_structural   Ca2Al2SiO7
_chemical_formula_sum   'Ca48 Al48 Si24 O168'
_cell_volume   3655.36727541
_cell_formula_units_Z   24
loop_
 _symmetry_equiv_pos_site_id
 _symmetry_equiv_pos_as_xyz
  1  'x, y, z'
loop_
 _atom_type_symbol
 _atom_type_oxidation_number
  Ca2+  2.0
  Al0+  0.0
  Si0+  0.0
  O2-  -2.0
loop_
 _atom_site_type_symbol
 _atom_site_label
 _atom_site_symmetry_multiplicity
 _atom_site_fract_x
 _atom_site_fract_y
 _atom_site_fract_z
 _atom_site_occupancy
  Ca2+  Ca0  1  0.16570121  0.07494826  0.17119714  1
  Ca2+  Ca1  1  0.17326380  0.07163835  0.51046555  1
  Ca2+  Ca2  1  0.16893196  0.08244440  0.83368039  1
  Ca2+  Ca3  1  0.16729859  0.58707484  0.16880596  1
  Ca2+  Ca4  1  0.16665815  0.57770535  0.51191832  1
  Ca2+  Ca5  1  0.15792820  0.58509529  0.83499125  1
  Ca2+  Ca6  1  0.66500892  0.07318648  0.16276152  1
  Ca2+  Ca7  1  0.66367320  0.07499428  0.50177682  1
  Ca2+  Ca8  1  0.67510928  0.07777365  0.84724262  1
  Ca2+  Ca9  1  0.66626968  0.58874116  0.17069902  1
  Ca2+  Ca10  1  0.67441330  0.58612882  0.50509210  1
  Ca2+  Ca11  1  0.66503968  0.57628626  0.83805849  1
  Ca2+  Ca12  1  0.07795083  0.32379891  0.15813386  1
  Ca2+  Ca13  1  0.09224265  0.32677229  0.50087812  1
  Ca2+  Ca14  1  0.08637549  0.32268039  0.82641770  1
  Ca2+  Ca15  1  0.07646963  0.83113833  0.15592156  1
  Ca2+  Ca16  1  0.08198314  0.83538923  0.50184556  1
  Ca2+  Ca17  1  0.07220619  0.82700427  0.82470981  1
  Ca2+  Ca18  1  0.58003625  0.33215598  0.15859715  1
  Ca2+  Ca19  1  0.58014313  0.33393283  0.49564218  1
  Ca2+  Ca20  1  0.59380603  0.32965829  0.83189700  1
  Ca2+  Ca21  1  0.58233019  0.82941781  0.15958451  1
  Ca2+  Ca22  1  0.57242474  0.83224824  0.48993992  1
  Ca2+  Ca23  1  0.57581130  0.83884915  0.83017448  1
  Ca2+  Ca24  1  0.33449800  0.41773841  0.17099232  1
  Ca2+  Ca25  1  0.33171734  0.41805971  0.50770010  1
  Ca2+  Ca26  1  0.32608738  0.41910339  0.83462679  1
  Ca2+  Ca27  1  0.32908825  0.90861702  0.17287395  1
  Ca2+  Ca28  1  0.32633931  0.91352235  0.50864185  1
  Ca2+  Ca29  1  0.33138919  0.91203305  0.83261587  1
  Ca2+  Ca30  1  0.82526811  0.42453251  0.17069800  1
  Ca2+  Ca31  1  0.82793969  0.43114107  0.51030936  1
  Ca2+  Ca32  1  0.82595482  0.42373784  0.83659325  1
  Ca2+  Ca33  1  0.82316546  0.91216423  0.16456561  1
  Ca2+  Ca34  1  0.82583776  0.91009111  0.50266106  1
  Ca2+  Ca35  1  0.83412368  0.91662692  0.84280713  1
  Ca2+  Ca36  1  0.42307987  0.17258755  0.16255403  1
  Ca2+  Ca37  1  0.41023546  0.17220855  0.49878421  1
  Ca2+  Ca38  1  0.42415985  0.16096922  0.82963422  1
  Ca2+  Ca39  1  0.42777681  0.67894856  0.16144226  1
  Ca2+  Ca40  1  0.42211002  0.67657846  0.49394099  1
  Ca2+  Ca41  1  0.42213473  0.67876331  0.83357985  1
  Ca2+  Ca42  1  0.92041727  0.16249542  0.15586049  1
  Ca2+  Ca43  1  0.92447148  0.16582658  0.50117498  1
  Ca2+  Ca44  1  0.92766002  0.15926943  0.82930493  1
  Ca2+  Ca45  1  0.92013133  0.67115952  0.16004145  1
  Ca2+  Ca46  1  0.91582125  0.66419780  0.50244000  1
  Ca2+  Ca47  1  0.91822962  0.67585918  0.82655627  1
  Al0+  Al48  1  0.00233524  0.00027850  -0.00347417  1
  Al0+  Al49  1  0.00123978  -0.00076135  0.33714043  1
  Al0+  Al50  1  0.00077955  -0.00062053  0.65885002  1
  Al0+  Al51  1  -0.00014286  0.49710239  0.00045425  1
  Al0+  Al52  1  -0.00107532  0.49810550  0.33644017  1
  Al0+  Al53  1  -0.00170380  0.49933440  0.67294341  1
  Al0+  Al54  1  0.49905117  0.00408913  -0.00265579  1
  Al0+  Al55  1  0.49886575  0.00348681  0.33423356  1
  Al0+  Al56  1  0.49987278  0.00116997  0.66372076  1
  Al0+  Al57  1  0.49629414  0.50191905  0.00105896  1
  Al0+  Al58  1  0.49899155  0.49959557  0.32666309  1
  Al0+  Al59  1  0.49949187  0.49871491  0.67097272  1
  Al0+  Al60  1  0.24894008  0.25039199  -0.00087409  1
  Al0+  Al61  1  0.24968702  0.24875966  0.32695420  1
  Al0+  Al62  1  0.25216328  0.24970605  0.67042550  1
  Al0+  Al63  1  0.25133858  0.74884976  -0.00530814  1
  Al0+  Al64  1  0.24940094  0.74757232  0.33607848  1
  Al0+  Al65  1  0.24970161  0.74979080  0.66395348  1
  Al0+  Al66  1  0.74961495  0.25207831  0.00590577  1
  Al0+  Al67  1  0.75195826  0.25076905  0.33377924  1
  Al0+  Al68  1  0.75064677  0.24849034  0.66615538  1
  Al0+  Al69  1  0.74969296  0.74812821  -0.00327545  1
  Al0+  Al70  1  0.75165818  0.75080404  0.33879024  1
  Al0+  Al71  1  0.74991183  0.74937790  0.66769814  1
  Al0+  Al72  1  0.42669916  0.82299610  0.31926659  1
  Al0+  Al73  1  0.67881052  0.93137309  0.34688434  1
  Al0+  Al74  1  0.67711621  0.92746367  0.01304625  1
  Al0+  Al75  1  0.82419163  0.07030285  0.01338984  1
  Al0+  Al76  1  0.82120238  0.57068396  0.34731898  1
  Al0+  Al77  1  0.42988947  0.82426597  0.98448214  1
  Al0+  Al78  1  0.32197408  0.07038666  0.68280801  1
  Al0+  Al79  1  0.92693453  0.82165336  0.64801250  1
  Al0+  Al80  1  0.57090407  0.18259122  0.98673540  1
  Al0+  Al81  1  0.57186241  0.67777284  0.98391710  1
  Al0+  Al82  1  0.67757881  0.42768171  0.68118867  1
  Al0+  Al83  1  0.07094051  0.17903083  0.98599653  1
  Al0+  Al84  1  0.92884208  0.82050296  0.98681100  1
  Al0+  Al85  1  0.57341978  0.68139470  0.31963345  1
  Al0+  Al86  1  0.42873260  0.32013123  0.32016482  1
  Al0+  Al87  1  0.82029461  0.57302337  0.68555105  1
  Al0+  Al88  1  0.17799005  0.92751995  0.68428923  1
  Al0+  Al89  1  0.07346435  0.18035221  0.65060798  1
  Al0+  Al90  1  0.17951404  0.42915855  0.68040188  1
  Al0+  Al91  1  0.07187229  0.67689270  0.98678972  1
  Al0+  Al92  1  0.17944642  0.92696512  0.34669361  1
  Al0+  Al93  1  0.06951184  0.67699350  0.65027754  1
  Al0+  Al94  1  0.67707358  0.43063613  0.01611811  1
  Al0+  Al95  1  0.43057207  0.82192764  0.65097030  1
  Si0+  Si96  1  0.57043765  0.67596230  0.65070770  1
  Si0+  Si97  1  0.93063609  0.82170449  0.31849285  1
  Si0+  Si98  1  0.82285929  0.57100614  0.01786623  1
  Si0+  Si99  1  0.17971249  0.42785375  0.34666223  1
  Si0+  Si100  1  0.07015859  0.67561539  0.32032842  1
  Si0+  Si101  1  0.82099579  0.07046876  0.67881531  1
  Si0+  Si102  1  0.32092582  0.07433549  0.01686257  1
  Si0+  Si103  1  0.92702944  0.32163063  0.98348973  1
  Si0+  Si104  1  0.32256601  0.57278625  0.68435341  1
  Si0+  Si105  1  0.43019391  0.32108016  0.65386806  1
  Si0+  Si106  1  0.18229045  0.92900881  0.01338624  1
  Si0+  Si107  1  0.31859065  0.57193763  0.01705010  1
  Si0+  Si108  1  0.42671483  0.32305281  0.98147124  1
  Si0+  Si109  1  0.82399745  0.07407570  0.35134842  1
  Si0+  Si110  1  0.32126146  0.56907785  0.34808962  1
  Si0+  Si111  1  0.92707324  0.32013400  0.64992804  1
  Si0+  Si112  1  0.17873089  0.42737387  0.01736482  1
  Si0+  Si113  1  0.57322244  0.17933622  0.65072995  1
  Si0+  Si114  1  0.32022305  0.07407869  0.34814287  1
  Si0+  Si115  1  0.57568408  0.17873547  0.31599307  1
  Si0+  Si116  1  0.92967694  0.32235907  0.31878044  1
  Si0+  Si117  1  0.06887468  0.17882863  0.31762139  1
  Si0+  Si118  1  0.67622471  0.42753722  0.34904441  1
  Si0+  Si119  1  0.67873283  0.93009886  0.67971666  1
  O2-  O120  1  0.25362668  -0.00085951  0.05799018  1
  O2-  O121  1  0.25869816  -0.00131655  0.39091388  1
  O2-  O122  1  0.25087760  -0.00116130  0.73447141  1
  O2-  O123  1  0.24652086  0.50097427  0.06007427  1
  O2-  O124  1  0.25071317  0.49737283  0.39027787  1
  O2-  O125  1  0.24881450  0.50846582  0.72791686  1
  O2-  O126  1  0.75207737  -0.00211360  0.06262011  1
  O2-  O127  1  0.75271302  0.00767442  0.39464101  1
  O2-  O128  1  0.75432870  -0.00383603  0.72101052  1
  O2-  O129  1  0.74989808  0.50702968  0.06316699  1
  O2-  O130  1  0.74279207  0.49810960  0.39233487  1
  O2-  O131  1  0.74656843  0.50110050  0.73244971  1
  O2-  O132  1  -0.00447578  0.24706992  0.27512079  1
  O2-  O133  1  -0.00014157  0.25651573  0.60320812  1
  O2-  O134  1  -0.00665408  0.25062626  0.93971885  1
  O2-  O135  1  0.00260659  0.75001863  0.27817260  1
  O2-  O136  1  -0.00075402  0.74926290  0.59775201  1
  O2-  O137  1  -0.00188018  0.74602247  0.93737664  1
  O2-  O138  1  0.50725447  0.24937278  0.27423389  1
  O2-  O139  1  0.50272318  0.25208467  0.61057917  1
  O2-  O140  1  0.49812962  0.25794392  0.93704392  1
  O2-  O141  1  0.50383823  0.75632459  0.27006375  1
  O2-  O142  1  0.50422402  0.74599970  0.60522740  1
  O2-  O143  1  0.50710246  0.75707638  0.93520937  1
  O2-  O144  1  0.07189015  0.18103865  0.09996303  1
  O2-  O145  1  0.07097832  0.18173003  0.42240660  1
  O2-  O146  1  0.07187235  0.18159082  0.76344116  1
  O2-  O147  1  0.07208794  0.67931375  0.10162025  1
  O2-  O148  1  0.06933779  0.67140762  0.42464789  1
  O2-  O149  1  0.06668137  0.67824483  0.76345948  1
  O2-  O150  1  0.56682664  0.18306251  0.10001709  1
  O2-  O151  1  0.57706769  0.17994813  0.42194166  1
  O2-  O152  1  0.57477567  0.17874302  0.75544845  1
  O2-  O153  1  0.56795677  0.67713679  0.09763703  1
  O2-  O154  1  0.57037289  0.68007873  0.43348182  1
  O2-  O155  1  0.56739002  0.67511711  0.75592574  1
  O2-  O156  1  0.17925623  0.42833455  0.24146756  1
  O2-  O157  1  0.18552148  0.42717964  0.56641123  1
  O2-  O158  1  0.18107551  0.42440037  0.91278395  1
  O2-  O159  1  0.17580484  0.92981349  0.23290253  1
  O2-  O160  1  0.18039703  0.93018257  0.57012000  1
  O2-  O161  1  0.18257067  0.93027852  0.90910367  1
  O2-  O162  1  0.67860757  0.42542870  0.24366036  1
  O2-  O163  1  0.67751631  0.42695212  0.56707375  1
  O2-  O164  1  0.68033941  0.42980597  0.90342859  1
  O2-  O165  1  0.68057210  0.93120981  0.23425881  1
  O2-  O166  1  0.67773556  0.93364450  0.57421705  1
  O2-  O167  1  0.67638451  0.93266973  0.89929722  1
  O2-  O168  1  0.42514110  0.32004586  0.08755820  1
  O2-  O169  1  0.42592565  0.31864082  0.43352265  1
  O2-  O170  1  0.42919625  0.32102092  0.75847328  1
  O2-  O171  1  0.42548384  0.82042488  0.09805940  1
  O2-  O172  1  0.42649537  0.81874630  0.43274244  1
  O2-  O173  1  0.43431994  0.82329441  0.76367611  1
  O2-  O174  1  0.93189097  0.32338969  0.08985810  1
  O2-  O175  1  0.93264344  0.32310328  0.42347703  1
  O2-  O176  1  0.92497944  0.31428312  0.75512206  1
  O2-  O177  1  0.93166182  0.82038714  0.10144810  1
  O2-  O178  1  0.93101649  0.82275356  0.42309030  1
  O2-  O179  1  0.92627557  0.82337889  0.76115774  1
  O2-  O180  1  0.31548704  0.07937104  0.24259631  1
  O2-  O181  1  0.32095696  0.07215570  0.56868840  1
  O2-  O182  1  0.31873202  0.07895041  0.91247094  1
  O2-  O183  1  0.31798578  0.56871145  0.24297532  1
  O2-  O184  1  0.32577050  0.56749468  0.57827444  1
  O2-  O185  1  0.31865463  0.56983378  0.91223490  1
  O2-  O186  1  0.82711013  0.07423422  0.24627483  1
  O2-  O187  1  0.81654879  0.07393247  0.57340263  1
  O2-  O188  1  0.82394154  0.07000558  0.89943958  1
  O2-  O189  1  0.82591300  0.56712632  0.23445096  1
  O2-  O190  1  0.81833864  0.57027330  0.57126609  1
  O2-  O191  1  0.82606903  0.56641690  0.91311840  1
  O2-  O192  1  0.04209940  0.08608030  0.27159583  1
  O2-  O193  1  0.04070893  0.08600691  0.59402200  1
  O2-  O194  1  0.04443908  0.08307472  0.93062591  1
  O2-  O195  1  0.04062891  0.58436239  0.27152469  1
  O2-  O196  1  0.04223414  0.57589361  0.60016663  1
  O2-  O197  1  0.04907806  0.57538946  0.93837790  1
  O2-  O198  1  0.54716231  0.08651830  0.26966598  1
  O2-  O199  1  0.54248407  0.08985262  0.60054154  1
  O2-  O200  1  0.53933724  0.08790849  0.93045017  1
  O2-  O201  1  0.54391392  0.58314844  0.26684991  1
  O2-  O202  1  0.54288626  0.58222260  0.60490856  1
  O2-  O203  1  0.53363469  0.58217885  0.93109007  1
  O2-  O204  1  0.15885519  0.20902113  0.26799763  1
  O2-  O205  1  0.17022563  0.21396925  0.59787237  1
  O2-  O206  1  0.16580860  0.21471869  0.93239326  1
  O2-  O207  1  0.16350006  0.69962161  0.27450023  1
  O2-  O208  1  0.17004165  0.70071104  0.59895936  1
  O2-  O209  1  0.16917951  0.70369804  0.93314315  1
  O2-  O210  1  0.67014290  0.20220831  0.27064013  1
  O2-  O211  1  0.66421535  0.20608415  0.60067644  1
  O2-  O212  1  0.66886440  0.21215048  0.93492280  1
  O2-  O213  1  0.67344284  0.70751071  0.26878422  1
  O2-  O214  1  0.66503291  0.69989447  0.60726814  1
  O2-  O215  1  0.67294233  0.69397714  0.93387701  1
  O2-  O216  1  0.08573387  0.45082162  0.06535362  1
  O2-  O217  1  0.08852339  0.45446828  0.39509038  1
  O2-  O218  1  0.08149836  0.45082940  0.73445847  1
  O2-  O219  1  0.09115390  0.95895472  0.06134936  1
  O2-  O220  1  0.08511366  0.96237358  0.40233860  1
  O2-  O221  1  0.07814367  0.95889786  0.73167703  1
  O2-  O222  1  0.57761190  0.45736177  0.06718968  1
  O2-  O223  1  0.58035892  0.44949563  0.39201037  1
  O2-  O224  1  0.57842671  0.45122989  0.73509255  1
  O2-  O225  1  0.57969654  0.96192117  0.06595785  1
  O2-  O226  1  0.58185957  0.96319239  0.40171099  1
  O2-  O227  1  0.58927429  0.96386160  0.72658827  1
  O2-  O228  1  0.21024835  0.33706874  0.06703855  1
  O2-  O229  1  0.20815654  0.33499247  0.39186030  1
  O2-  O230  1  0.21634574  0.33583383  0.73639827  1
  O2-  O231  1  0.20926896  0.83626597  0.06027659  1
  O2-  O232  1  0.20508961  0.82908276  0.40063687  1
  O2-  O233  1  0.20538145  0.82780133  0.73407305  1
  O2-  O234  1  0.70912358  0.33568279  0.07307883  1
  O2-  O235  1  0.70331017  0.33397744  0.39539280  1
  O2-  O236  1  0.70920986  0.32890199  0.73241313  1
  O2-  O237  1  0.70404176  0.82780283  0.06497037  1
  O2-  O238  1  0.71115177  0.83655000  0.40310951  1
  O2-  O239  1  0.69925979  0.83631286  0.72465591  1
  O2-  O240  1  0.45435648  0.41641270  0.26315044  1
  O2-  O241  1  0.45575258  0.41322591  0.60506280  1
  O2-  O242  1  0.44628113  0.41835327  0.93850213  1
  O2-  O243  1  0.44576122  0.92584260  0.27205133  1
  O2-  O244  1  0.46265570  0.91816836  0.59616208  1
  O2-  O245  1  0.45007724  0.92473301  0.93328934  1
  O2-  O246  1  0.96276343  0.41121442  0.26855414  1
  O2-  O247  1  0.94861150  0.41579457  0.60790685  1
  O2-  O248  1  0.95623939  0.41316723  0.93636148  1
  O2-  O249  1  0.95903830  0.91388648  0.27196416  1
  O2-  O250  1  0.95386914  0.91966603  0.59261474  1
  O2-  O251  1  0.96020319  0.91725088  0.93343795  1
  O2-  O252  1  0.33370700  0.28765696  0.26212213  1
  O2-  O253  1  0.33997946  0.29107822  0.60448101  1
  O2-  O254  1  0.33388407  0.29432999  0.93632771  1
  O2-  O255  1  0.32929780  0.78786573  0.26699437  1
  O2-  O256  1  0.33339619  0.79187763  0.59874888  1
  O2-  O257  1  0.33485425  0.78765098  0.92995433  1
  O2-  O258  1  0.83595119  0.29987108  0.27233857  1
  O2-  O259  1  0.83613364  0.28896942  0.60001431  1
  O2-  O260  1  0.83218809  0.30042812  0.94062095  1
  O2-  O261  1  0.83903694  0.79274460  0.27256127  1
  O2-  O262  1  0.82732275  0.79208207  0.59630164  1
  O2-  O263  1  0.82997850  0.79710108  0.93412627  1
  O2-  O264  1  0.41399506  0.05170035  0.06341702  1
  O2-  O265  1  0.41682835  0.06075014  0.39192331  1
  O2-  O266  1  0.42189200  0.04319776  0.73367239  1
  O2-  O267  1  0.40843053  0.54207867  0.06701828  1
  O2-  O268  1  0.41311437  0.54019769  0.39463698  1
  O2-  O269  1  0.41264386  0.54052014  0.73332546  1
  O2-  O270  1  0.92350550  0.04313423  0.06684345  1
  O2-  O271  1  0.91644559  0.04623293  0.39882499  1
  O2-  O272  1  0.91512692  0.04707074  0.72190645  1
  O2-  O273  1  0.91522036  0.53998971  0.06593622  1
  O2-  O274  1  0.91571899  0.53397755  0.40321776  1
  O2-  O275  1  0.91728138  0.54282459  0.73888627  1
  O2-  O276  1  0.28858364  0.16466564  0.06606699  1
  O2-  O277  1  0.28622697  0.16511341  0.39608965  1
  O2-  O278  1  0.29538165  0.16867079  0.73634774  1
  O2-  O279  1  0.28965984  0.66316175  0.06547304  1
  O2-  O280  1  0.29298917  0.65922814  0.39779067  1
  O2-  O281  1  0.30164021  0.66749972  0.72806437  1
  O2-  O282  1  0.79657852  0.16872078  0.06741447  1
  O2-  O283  1  0.80175795  0.16926456  0.39716686  1
  O2-  O284  1  0.79104333  0.16043131  0.72779741  1
  O2-  O285  1  0.80192135  0.66624991  0.06205667  1
  O2-  O286  1  0.79487276  0.66710844  0.40299824  1
  O2-  O287  1  0.79272666  0.67170694  0.73730477  1
