# generated using pymatgen
data_Ca2Al2SiO7
_symmetry_space_group_name_H-M   'P 1'
_cell_length_a   15.46713904
_cell_length_b   15.46993661
_cell_length_c   15.28986826
_cell_angle_alpha   90.00632339
_cell_angle_beta   90.00210492
_cell_angle_gamma   89.97560116
_symmetry_Int_Tables_number   1
_chemical_formula_structural   Ca2Al2SiO7
_chemical_formula_sum   'Ca48 Al48 Si24 O168'
_cell_volume   3658.49297096
_cell_formula_units_Z   24
loop_
 _symmetry_equiv_pos_site_id
 _symmetry_equiv_pos_as_xyz
  1  'x, y, z'
loop_
 _atom_type_symbol
 _atom_type_oxidation_number
  Ca2+  2.0
  Al0+  0.0
  Si0+  0.0
  O2-  -2.0
loop_
 _atom_site_type_symbol
 _atom_site_label
 _atom_site_symmetry_multiplicity
 _atom_site_fract_x
 _atom_site_fract_y
 _atom_site_fract_z
 _atom_site_occupancy
  Ca2+  Ca0  1  0.17005588  0.08812846  0.17190386  1
  Ca2+  Ca1  1  0.17462096  0.07807481  0.50642257  1
  Ca2+  Ca2  1  0.16266350  0.07939186  0.83834475  1
  Ca2+  Ca3  1  0.15955428  0.57226618  0.16678241  1
  Ca2+  Ca4  1  0.17230735  0.57890397  0.50787716  1
  Ca2+  Ca5  1  0.17100972  0.58532260  0.83551660  1
  Ca2+  Ca6  1  0.66478427  0.08420999  0.16698612  1
  Ca2+  Ca7  1  0.66170840  0.07811212  0.51037499  1
  Ca2+  Ca8  1  0.65673410  0.08044462  0.83566296  1
  Ca2+  Ca9  1  0.67146927  0.57267333  0.17118958  1
  Ca2+  Ca10  1  0.67847875  0.58102345  0.50644271  1
  Ca2+  Ca11  1  0.66942454  0.58361099  0.83864921  1
  Ca2+  Ca12  1  0.07475812  0.33730661  0.15949268  1
  Ca2+  Ca13  1  0.07261258  0.34391328  0.49518026  1
  Ca2+  Ca14  1  0.07308878  0.34330907  0.83302473  1
  Ca2+  Ca15  1  0.07421639  0.82428486  0.15453522  1
  Ca2+  Ca16  1  0.09349429  0.82537368  0.50243395  1
  Ca2+  Ca17  1  0.08095206  0.82451783  0.82756520  1
  Ca2+  Ca18  1  0.58074283  0.33645129  0.16069217  1
  Ca2+  Ca19  1  0.57094138  0.33937044  0.49670933  1
  Ca2+  Ca20  1  0.58537384  0.32548713  0.82583920  1
  Ca2+  Ca21  1  0.58227935  0.82347489  0.15900050  1
  Ca2+  Ca22  1  0.58726266  0.82793732  0.50604503  1
  Ca2+  Ca23  1  0.58056821  0.82252675  0.82401516  1
  Ca2+  Ca24  1  0.31976742  0.40927379  0.17216547  1
  Ca2+  Ca25  1  0.32967369  0.41372742  0.50579916  1
  Ca2+  Ca26  1  0.33324845  0.42078097  0.83710802  1
  Ca2+  Ca27  1  0.33171867  0.92702156  0.17339976  1
  Ca2+  Ca28  1  0.33427846  0.92113316  0.51081588  1
  Ca2+  Ca29  1  0.33049777  0.91060965  0.83051917  1
  Ca2+  Ca30  1  0.82501242  0.41323781  0.17313837  1
  Ca2+  Ca31  1  0.83524033  0.42292104  0.50359275  1
  Ca2+  Ca32  1  0.83104255  0.41672925  0.83698116  1
  Ca2+  Ca33  1  0.83620391  0.91742641  0.16833350  1
  Ca2+  Ca34  1  0.82642662  0.92231345  0.51076573  1
  Ca2+  Ca35  1  0.83052872  0.91573892  0.83587262  1
  Ca2+  Ca36  1  0.41884855  0.17129252  0.16590612  1
  Ca2+  Ca37  1  0.41859622  0.17364257  0.49821188  1
  Ca2+  Ca38  1  0.42611139  0.17527101  0.82734244  1
  Ca2+  Ca39  1  0.42393331  0.66674758  0.16085231  1
  Ca2+  Ca40  1  0.41680612  0.66735227  0.50442431  1
  Ca2+  Ca41  1  0.42780094  0.66458597  0.82154717  1
  Ca2+  Ca42  1  0.92240582  0.17960561  0.15766918  1
  Ca2+  Ca43  1  0.91572501  0.18150722  0.49765012  1
  Ca2+  Ca44  1  0.92108476  0.17991422  0.83218959  1
  Ca2+  Ca45  1  0.91747938  0.66846628  0.15964922  1
  Ca2+  Ca46  1  0.91977950  0.65734782  0.49931297  1
  Ca2+  Ca47  1  0.92748215  0.66245729  0.82805570  1
  Al0+  Al48  1  -0.00156690  0.00105889  -0.00426023  1
  Al0+  Al49  1  -0.00031152  -0.00230084  0.33522599  1
  Al0+  Al50  1  0.00014484  0.00012651  0.67097714  1
  Al0+  Al51  1  0.00057364  0.50254436  -0.00319422  1
  Al0+  Al52  1  0.00035040  0.49992424  0.33410353  1
  Al0+  Al53  1  -0.00034226  0.50177469  0.66252284  1
  Al0+  Al54  1  0.49915559  0.00088068  0.00019895  1
  Al0+  Al55  1  0.49869111  -0.00060859  0.33658905  1
  Al0+  Al56  1  0.49940600  -0.00041610  0.66686117  1
  Al0+  Al57  1  0.50026717  0.50154662  0.00145063  1
  Al0+  Al58  1  0.49879547  0.50041369  0.32952941  1
  Al0+  Al59  1  0.50120737  0.49897178  0.66197008  1
  Al0+  Al60  1  0.25077819  0.24933126  0.00112625  1
  Al0+  Al61  1  0.25105851  0.24825661  0.34019862  1
  Al0+  Al62  1  0.24829740  0.24813540  0.66712076  1
  Al0+  Al63  1  0.24929138  0.75293202  0.00172627  1
  Al0+  Al64  1  0.25010581  0.74925524  0.32818452  1
  Al0+  Al65  1  0.25069453  0.74851537  0.66734455  1
  Al0+  Al66  1  0.74952507  0.24821546  -0.00256559  1
  Al0+  Al67  1  0.74868090  0.24808058  0.33384124  1
  Al0+  Al68  1  0.75294027  0.24915857  0.65850405  1
  Al0+  Al69  1  0.74740731  0.75155292  -0.00489411  1
  Al0+  Al70  1  0.75076214  0.74991661  0.33542982  1
  Al0+  Al71  1  0.75191727  0.75148797  0.67192974  1
  Al0+  Al72  1  0.92711572  0.82230600  0.98414307  1
  Al0+  Al73  1  0.42731810  0.32203694  0.65258864  1
  Al0+  Al74  1  0.57574065  0.67760333  0.65005383  1
  Al0+  Al75  1  0.07183038  0.67928115  0.98409994  1
  Al0+  Al76  1  0.42800271  0.32137591  0.31797298  1
  Al0+  Al77  1  0.07412045  0.17995637  0.98630599  1
  Al0+  Al78  1  0.17972288  0.92847176  0.68175151  1
  Al0+  Al79  1  0.32247953  0.56832553  0.67897715  1
  Al0+  Al80  1  0.67623612  0.42602510  0.34891138  1
  Al0+  Al81  1  0.92895844  0.32128646  0.31841197  1
  Al0+  Al82  1  0.18005069  0.42961286  0.34699102  1
  Al0+  Al83  1  0.81990898  0.57087779  0.34732715  1
  Al0+  Al84  1  0.82163283  0.57035328  0.68263588  1
  Al0+  Al85  1  0.93188751  0.32148553  0.65120695  1
  Al0+  Al86  1  0.92851578  0.32257728  0.98540726  1
  Al0+  Al87  1  0.42926520  0.81854031  0.65221517  1
  Al0+  Al88  1  0.67934678  0.42694631  0.01164201  1
  Al0+  Al89  1  0.07078609  0.68070871  0.65083453  1
  Al0+  Al90  1  0.32099864  0.06970714  0.34896973  1
  Al0+  Al91  1  0.57093846  0.17886056  0.65130594  1
  Al0+  Al92  1  0.17983192  0.42997863  0.01241663  1
  Al0+  Al93  1  0.67866005  0.93137299  0.68261712  1
  Al0+  Al94  1  0.57012957  0.17949057  0.98802639  1
  Al0+  Al95  1  0.56859071  0.67789213  0.98711907  1
  Si0+  Si96  1  0.67959443  0.92920613  0.34740435  1
  Si0+  Si97  1  0.57293505  0.68079993  0.31772119  1
  Si0+  Si98  1  0.42775715  0.32246002  0.98556971  1
  Si0+  Si99  1  0.57039385  0.17510408  0.31625265  1
  Si0+  Si100  1  0.92916072  0.82367548  0.64888287  1
  Si0+  Si101  1  0.32267574  0.57446922  0.01723623  1
  Si0+  Si102  1  0.32151699  0.07240949  0.68736138  1
  Si0+  Si103  1  0.82056785  0.57330253  0.01477434  1
  Si0+  Si104  1  0.67768414  0.92953052  0.01640681  1
  Si0+  Si105  1  0.07060332  0.17551834  0.31969945  1
  Si0+  Si106  1  0.17650442  0.93019161  0.01666346  1
  Si0+  Si107  1  0.82272587  0.07410298  0.68551061  1
  Si0+  Si108  1  0.07168022  0.67959999  0.31721980  1
  Si0+  Si109  1  0.17743140  0.42755043  0.68271772  1
  Si0+  Si110  1  0.42870980  0.82157238  0.31744254  1
  Si0+  Si111  1  0.82130721  0.07013965  0.01578207  1
  Si0+  Si112  1  0.82254455  0.07020094  0.34772013  1
  Si0+  Si113  1  0.42843352  0.82341529  0.98549387  1
  Si0+  Si114  1  0.92790116  0.82152890  0.31973229  1
  Si0+  Si115  1  0.17786756  0.92633466  0.34863018  1
  Si0+  Si116  1  0.07174231  0.17472816  0.64907406  1
  Si0+  Si117  1  0.32214945  0.57465548  0.34837620  1
  Si0+  Si118  1  0.67937932  0.42694402  0.68132306  1
  Si0+  Si119  1  0.32138421  0.06999884  0.01588196  1
  O2-  O120  1  0.24689173  0.00198396  0.05874653  1
  O2-  O121  1  0.24584085  -0.00552830  0.39351537  1
  O2-  O122  1  0.25196846  0.00430182  0.73117396  1
  O2-  O123  1  0.25350565  0.50593405  0.06096154  1
  O2-  O124  1  0.25693503  0.50281404  0.39186589  1
  O2-  O125  1  0.25146506  0.49044409  0.72624682  1
  O2-  O126  1  0.75062289  -0.00177250  0.05939533  1
  O2-  O127  1  0.74866297  0.00190207  0.38931749  1
  O2-  O128  1  0.75125495  0.00816535  0.72975432  1
  O2-  O129  1  0.75516498  0.50129880  0.05865850  1
  O2-  O130  1  0.75027764  0.49668274  0.39767255  1
  O2-  O131  1  0.74412523  0.49809529  0.72775516  1
  O2-  O132  1  0.00362479  0.24486688  0.27426592  1
  O2-  O133  1  0.00768896  0.24709933  0.60460389  1
  O2-  O134  1  0.00595525  0.25520718  0.93653957  1
  O2-  O135  1  -0.00114298  0.75056243  0.27779275  1
  O2-  O136  1  -0.00316932  0.75570720  0.60218711  1
  O2-  O137  1  -0.00187808  0.74978098  0.93466739  1
  O2-  O138  1  0.50679913  0.24905787  0.27275981  1
  O2-  O139  1  0.50059532  0.25174112  0.60109138  1
  O2-  O140  1  0.50124009  0.25905779  0.94207599  1
  O2-  O141  1  0.49904310  0.75003679  0.27566545  1
  O2-  O142  1  0.50192379  0.74836457  0.59986692  1
  O2-  O143  1  0.49057149  0.74940786  0.94228231  1
  O2-  O144  1  0.07174732  0.17875341  0.10053276  1
  O2-  O145  1  0.06638872  0.17060917  0.42485081  1
  O2-  O146  1  0.06966945  0.17272899  0.75440790  1
  O2-  O147  1  0.07059760  0.68141232  0.09862062  1
  O2-  O148  1  0.07554735  0.68222872  0.42195239  1
  O2-  O149  1  0.07042737  0.68122817  0.76341414  1
  O2-  O150  1  0.56633670  0.17535841  0.10118534  1
  O2-  O151  1  0.56751589  0.16862231  0.42095576  1
  O2-  O152  1  0.56906282  0.18037458  0.76521458  1
  O2-  O153  1  0.56861724  0.68166626  0.10113980  1
  O2-  O154  1  0.57533395  0.68424810  0.42205808  1
  O2-  O155  1  0.57364560  0.67926833  0.76376069  1
  O2-  O156  1  0.17885517  0.43145675  0.23358893  1
  O2-  O157  1  0.17707269  0.43031424  0.57681491  1
  O2-  O158  1  0.18326041  0.42962025  0.89969591  1
  O2-  O159  1  0.17822931  0.92687204  0.24281944  1
  O2-  O160  1  0.18163331  0.93116183  0.56801738  1
  O2-  O161  1  0.17831285  0.92903632  0.91205987  1
  O2-  O162  1  0.67769307  0.42903258  0.23462550  1
  O2-  O163  1  0.68177433  0.42771671  0.57582634  1
  O2-  O164  1  0.67952505  0.42678942  0.89884362  1
  O2-  O165  1  0.68037009  0.92822452  0.24185515  1
  O2-  O166  1  0.68214863  0.93208236  0.56850259  1
  O2-  O167  1  0.67498820  0.93157256  0.91210947  1
  O2-  O168  1  0.42607703  0.31887837  0.09136273  1
  O2-  O169  1  0.42704855  0.31897940  0.43042142  1
  O2-  O170  1  0.42735402  0.32044775  0.76661935  1
  O2-  O171  1  0.43154986  0.82571727  0.09198185  1
  O2-  O172  1  0.42662599  0.82235459  0.42164498  1
  O2-  O173  1  0.42991554  0.81667638  0.76606667  1
  O2-  O174  1  0.92765560  0.31948368  0.09926016  1
  O2-  O175  1  0.93153803  0.32031132  0.43134477  1
  O2-  O176  1  0.93197336  0.32105306  0.76412711  1
  O2-  O177  1  0.92853690  0.82186237  0.09906042  1
  O2-  O178  1  0.92668810  0.82502895  0.42407782  1
  O2-  O179  1  0.93136720  0.82390783  0.75417213  1
  O2-  O180  1  0.32125277  0.06706628  0.23512331  1
  O2-  O181  1  0.32037603  0.07137987  0.58157534  1
  O2-  O182  1  0.32403891  0.06759410  0.91153098  1
  O2-  O183  1  0.31955982  0.57927818  0.24271341  1
  O2-  O184  1  0.31817860  0.56973666  0.56564439  1
  O2-  O185  1  0.32402262  0.57423662  0.91195603  1
  O2-  O186  1  0.82468694  0.06719215  0.24248214  1
  O2-  O187  1  0.82428792  0.07052336  0.57929831  1
  O2-  O188  1  0.82089886  0.06959295  0.91130975  1
  O2-  O189  1  0.81752286  0.57643820  0.23358828  1
  O2-  O190  1  0.82266904  0.56809081  0.56940393  1
  O2-  O191  1  0.81859127  0.57421399  0.90947892  1
  O2-  O192  1  0.04515475  0.08140884  0.27223507  1
  O2-  O193  1  0.04277146  0.08227781  0.60210293  1
  O2-  O194  1  0.04211849  0.08331170  0.93300683  1
  O2-  O195  1  0.04280549  0.58845372  0.27023597  1
  O2-  O196  1  0.03925672  0.58553478  0.59523763  1
  O2-  O197  1  0.04703376  0.58151359  0.93016587  1
  O2-  O198  1  0.53947560  0.08274866  0.26815482  1
  O2-  O199  1  0.54084655  0.08073185  0.59937168  1
  O2-  O200  1  0.53465366  0.08434250  0.93404136  1
  O2-  O201  1  0.54613804  0.58931518  0.26958764  1
  O2-  O202  1  0.54964180  0.57936220  0.59745368  1
  O2-  O203  1  0.54125513  0.58125469  0.93245207  1
  O2-  O204  1  0.16592194  0.19927852  0.27762508  1
  O2-  O205  1  0.16738214  0.19477471  0.60548885  1
  O2-  O206  1  0.17443908  0.20021633  0.93459391  1
  O2-  O207  1  0.16214939  0.70798161  0.26665340  1
  O2-  O208  1  0.16647702  0.71288561  0.59645388  1
  O2-  O209  1  0.17091545  0.71014983  0.93421159  1
  O2-  O210  1  0.66677059  0.19330816  0.27282496  1
  O2-  O211  1  0.67115561  0.19929427  0.59920791  1
  O2-  O212  1  0.66750838  0.20231641  0.93369910  1
  O2-  O213  1  0.66273723  0.71409118  0.26893742  1
  O2-  O214  1  0.67307100  0.71272469  0.59852579  1
  O2-  O215  1  0.66266197  0.71186428  0.93247213  1
  O2-  O216  1  0.08225260  0.46122729  0.06621684  1
  O2-  O217  1  0.08520513  0.46395813  0.40120655  1
  O2-  O218  1  0.08643427  0.46113566  0.72796106  1
  O2-  O219  1  0.08398497  0.95731697  0.06342891  1
  O2-  O220  1  0.08387840  0.94907443  0.39530762  1
  O2-  O221  1  0.08248399  0.95737641  0.73565383  1
  O2-  O222  1  0.58263529  0.45882426  0.06675962  1
  O2-  O223  1  0.57696462  0.45701333  0.39801240  1
  O2-  O224  1  0.58368894  0.44653763  0.72473040  1
  O2-  O225  1  0.58694845  0.96013405  0.06593316  1
  O2-  O226  1  0.58745178  0.95473444  0.39433508  1
  O2-  O227  1  0.58132149  0.95988378  0.73644695  1
  O2-  O228  1  0.21097015  0.33305691  0.06755574  1
  O2-  O229  1  0.20649169  0.33284133  0.40183697  1
  O2-  O230  1  0.19412742  0.33088275  0.72574606  1
  O2-  O231  1  0.20493832  0.83925133  0.06676297  1
  O2-  O232  1  0.20532585  0.83231538  0.39242656  1
  O2-  O233  1  0.21278944  0.83318967  0.73611607  1
  O2-  O234  1  0.70782049  0.32938525  0.06626425  1
  O2-  O235  1  0.69825764  0.32492032  0.39868193  1
  O2-  O236  1  0.70974580  0.33323350  0.72498110  1
  O2-  O237  1  0.70433333  0.83715823  0.06423219  1
  O2-  O238  1  0.70970027  0.83912496  0.39590287  1
  O2-  O239  1  0.71120984  0.83617545  0.73741541  1
  O2-  O240  1  0.45234018  0.41969933  0.26304169  1
  O2-  O241  1  0.45329919  0.41931918  0.59675976  1
  O2-  O242  1  0.44728939  0.41828090  0.94331574  1
  O2-  O243  1  0.45883749  0.91273403  0.26935660  1
  O2-  O244  1  0.45626202  0.91774598  0.60095814  1
  O2-  O245  1  0.45923863  0.91404287  0.93813884  1
  O2-  O246  1  0.96054287  0.41792655  0.26527858  1
  O2-  O247  1  0.96407642  0.41653872  0.59579144  1
  O2-  O248  1  0.95300334  0.42166732  0.93353824  1
  O2-  O249  1  0.95630315  0.91282247  0.27014061  1
  O2-  O250  1  0.95389665  0.91830883  0.60386475  1
  O2-  O251  1  0.95478237  0.92004911  0.93139059  1
  O2-  O252  1  0.33156719  0.28444976  0.26593919  1
  O2-  O253  1  0.32782896  0.29241975  0.60137483  1
  O2-  O254  1  0.33722729  0.29133389  0.93801759  1
  O2-  O255  1  0.33721853  0.79496442  0.26718925  1
  O2-  O256  1  0.33205514  0.78956906  0.59772865  1
  O2-  O257  1  0.33196014  0.80586339  0.94387726  1
  O2-  O258  1  0.83120778  0.28903838  0.26692634  1
  O2-  O259  1  0.83735469  0.28944151  0.59423888  1
  O2-  O260  1  0.83309569  0.28748873  0.93179867  1
  O2-  O261  1  0.83613724  0.79463352  0.27088579  1
  O2-  O262  1  0.83483362  0.79936851  0.60500242  1
  O2-  O263  1  0.82733388  0.79986878  0.93326287  1
  O2-  O264  1  0.41078534  0.03677334  0.06641987  1
  O2-  O265  1  0.41622414  0.03622864  0.40372194  1
  O2-  O266  1  0.41455840  0.04514293  0.73260621  1
  O2-  O267  1  0.41589071  0.54946115  0.06481017  1
  O2-  O268  1  0.41765812  0.55438060  0.39097073  1
  O2-  O269  1  0.42080544  0.54111918  0.73218297  1
  O2-  O270  1  0.91269299  0.04164089  0.06486101  1
  O2-  O271  1  0.91223360  0.03873541  0.39742477  1
  O2-  O272  1  0.91468734  0.04559335  0.73289179  1
  O2-  O273  1  0.91615343  0.55307062  0.05871662  1
  O2-  O274  1  0.91926613  0.54493052  0.39864931  1
  O2-  O275  1  0.91845927  0.53702268  0.73465859  1
  O2-  O276  1  0.29678367  0.16213811  0.06450503  1
  O2-  O277  1  0.29058240  0.16381894  0.40616510  1
  O2-  O278  1  0.29549114  0.16591252  0.73359456  1
  O2-  O279  1  0.29898377  0.66933666  0.06340471  1
  O2-  O280  1  0.29268057  0.66748166  0.39480868  1
  O2-  O281  1  0.28911813  0.66334467  0.73397135  1
  O2-  O282  1  0.79122388  0.16044589  0.06482140  1
  O2-  O283  1  0.79774026  0.16208383  0.39520222  1
  O2-  O284  1  0.80019733  0.16933185  0.72855573  1
  O2-  O285  1  0.79104272  0.66677040  0.06062902  1
  O2-  O286  1  0.79108083  0.66933118  0.40174269  1
  O2-  O287  1  0.79618935  0.66831845  0.73553896  1
