# generated using pymatgen
data_Ca2Al2SiO7
_symmetry_space_group_name_H-M   'P 1'
_cell_length_a   15.45951208
_cell_length_b   15.45955414
_cell_length_c   15.28556129
_cell_angle_alpha   90.00039041
_cell_angle_beta   89.99130533
_cell_angle_gamma   89.99418518
_symmetry_Int_Tables_number   1
_chemical_formula_structural   Ca2Al2SiO7
_chemical_formula_sum   'Ca48 Al48 Si24 O168'
_cell_volume   3653.20573609
_cell_formula_units_Z   24
loop_
 _symmetry_equiv_pos_site_id
 _symmetry_equiv_pos_as_xyz
  1  'x, y, z'
loop_
 _atom_type_symbol
 _atom_type_oxidation_number
  Ca2+  2.0
  Al0+  0.0
  Si0+  0.0
  O2-  -2.0
loop_
 _atom_site_type_symbol
 _atom_site_label
 _atom_site_symmetry_multiplicity
 _atom_site_fract_x
 _atom_site_fract_y
 _atom_site_fract_z
 _atom_site_occupancy
  Ca2+  Ca0  1  0.17277219  0.08470743  0.17675117  1
  Ca2+  Ca1  1  0.17743320  0.08308421  0.50323383  1
  Ca2+  Ca2  1  0.17442338  0.07636930  0.83152671  1
  Ca2+  Ca3  1  0.17345306  0.58309153  0.17227453  1
  Ca2+  Ca4  1  0.17864552  0.58068560  0.49846657  1
  Ca2+  Ca5  1  0.17782857  0.59217547  0.83955636  1
  Ca2+  Ca6  1  0.66704585  0.07741670  0.17557896  1
  Ca2+  Ca7  1  0.66567089  0.07988769  0.49305639  1
  Ca2+  Ca8  1  0.66491447  0.07589176  0.84375465  1
  Ca2+  Ca9  1  0.66972428  0.57504807  0.17613635  1
  Ca2+  Ca10  1  0.66097360  0.57893158  0.50049192  1
  Ca2+  Ca11  1  0.66414645  0.58551690  0.83584743  1
  Ca2+  Ca12  1  0.07984608  0.33211409  0.16852788  1
  Ca2+  Ca13  1  0.08081458  0.32775265  0.48501839  1
  Ca2+  Ca14  1  0.07742906  0.33630875  0.83331240  1
  Ca2+  Ca15  1  0.07019857  0.83129672  0.16103789  1
  Ca2+  Ca16  1  0.08143460  0.83807161  0.49353342  1
  Ca2+  Ca17  1  0.08397706  0.83265813  0.83322786  1
  Ca2+  Ca18  1  0.58540359  0.32300018  0.16962000  1
  Ca2+  Ca19  1  0.57548715  0.32712666  0.48621500  1
  Ca2+  Ca20  1  0.58349522  0.32486929  0.83282312  1
  Ca2+  Ca21  1  0.57374054  0.84391302  0.16435275  1
  Ca2+  Ca22  1  0.57315590  0.82997344  0.49350786  1
  Ca2+  Ca23  1  0.57209555  0.83103897  0.82895961  1
  Ca2+  Ca24  1  0.33187214  0.42886177  0.17979695  1
  Ca2+  Ca25  1  0.33400010  0.42237557  0.49953876  1
  Ca2+  Ca26  1  0.33529743  0.43263251  0.83990244  1
  Ca2+  Ca27  1  0.33611638  0.91850148  0.17439306  1
  Ca2+  Ca28  1  0.33796334  0.92563892  0.50327716  1
  Ca2+  Ca29  1  0.33549000  0.91245413  0.83320909  1
  Ca2+  Ca30  1  0.83271136  0.41147425  0.17471740  1
  Ca2+  Ca31  1  0.82567035  0.40675875  0.49662932  1
  Ca2+  Ca32  1  0.83299275  0.41749305  0.84067608  1
  Ca2+  Ca33  1  0.82287062  0.91484087  0.17692741  1
  Ca2+  Ca34  1  0.83144361  0.91898495  0.49683374  1
  Ca2+  Ca35  1  0.82370737  0.91403057  0.84457348  1
  Ca2+  Ca36  1  0.42580513  0.16591986  0.16828016  1
  Ca2+  Ca37  1  0.41627208  0.16821905  0.48574936  1
  Ca2+  Ca38  1  0.42191987  0.16196580  0.83037402  1
  Ca2+  Ca39  1  0.40933698  0.67550233  0.16341776  1
  Ca2+  Ca40  1  0.41016386  0.67447609  0.49695143  1
  Ca2+  Ca41  1  0.41425156  0.67496355  0.82631809  1
  Ca2+  Ca42  1  0.91434619  0.17340691  0.17036998  1
  Ca2+  Ca43  1  0.92593004  0.16660304  0.48471575  1
  Ca2+  Ca44  1  0.91601502  0.17205389  0.83321234  1
  Ca2+  Ca45  1  0.92149322  0.67604417  0.16131533  1
  Ca2+  Ca46  1  0.92092165  0.67573563  0.49091816  1
  Ca2+  Ca47  1  0.92314056  0.67102555  0.83465535  1
  Al0+  Al48  1  0.00010889  0.00274875  -0.00443248  1
  Al0+  Al49  1  -0.00132305  -0.00025537  0.32634436  1
  Al0+  Al50  1  -0.00004936  0.00224863  0.67215784  1
  Al0+  Al51  1  0.00044733  0.49953612  -0.00837772  1
  Al0+  Al52  1  0.00134691  0.50093653  0.33465030  1
  Al0+  Al53  1  -0.00278816  0.50151341  0.66498874  1
  Al0+  Al54  1  0.50081501  -0.00008674  -0.00525971  1
  Al0+  Al55  1  0.49994128  -0.00198072  0.33468286  1
  Al0+  Al56  1  0.50268484  -0.00054780  0.66662563  1
  Al0+  Al57  1  0.49985555  0.49935437  0.00619028  1
  Al0+  Al58  1  0.50188335  0.50139771  0.33858360  1
  Al0+  Al59  1  0.50130995  0.49729923  0.67022428  1
  Al0+  Al60  1  0.24998267  0.25119776  -0.00164936  1
  Al0+  Al61  1  0.25015051  0.25170515  0.33135128  1
  Al0+  Al62  1  0.24845146  0.24943371  0.67361913  1
  Al0+  Al63  1  0.24980993  0.75199741  -0.00195673  1
  Al0+  Al64  1  0.25003322  0.74998348  0.33304793  1
  Al0+  Al65  1  0.24795851  0.75006845  0.66835469  1
  Al0+  Al66  1  0.75024434  0.24886047  -0.00928668  1
  Al0+  Al67  1  0.75062980  0.24859165  0.33587964  1
  Al0+  Al68  1  0.74919142  0.25031949  0.66809565  1
  Al0+  Al69  1  0.74871011  0.74879356  0.00289044  1
  Al0+  Al70  1  0.74843996  0.74917838  0.33519940  1
  Al0+  Al71  1  0.75080725  0.74825462  0.66375394  1
  Al0+  Al72  1  0.82169576  0.07001203  0.34712899  1
  Al0+  Al73  1  0.67730084  0.92680589  0.35063893  1
  Al0+  Al74  1  0.17747393  0.92936709  0.68187756  1
  Al0+  Al75  1  0.42791849  0.82049364  0.64917342  1
  Al0+  Al76  1  0.57022529  0.17799629  0.31973337  1
  Al0+  Al77  1  0.92601012  0.82272686  0.98468533  1
  Al0+  Al78  1  0.32426652  0.07170032  0.68277728  1
  Al0+  Al79  1  0.32022672  0.57250336  0.01519842  1
  Al0+  Al80  1  0.17825292  0.42897576  0.34711898  1
  Al0+  Al81  1  0.93056412  0.31885182  0.98518285  1
  Al0+  Al82  1  0.32056490  0.07025667  0.34290946  1
  Al0+  Al83  1  0.42925350  0.81921044  0.31945539  1
  Al0+  Al84  1  0.92900805  0.32209311  0.32032513  1
  Al0+  Al85  1  0.56885080  0.18049927  0.98571268  1
  Al0+  Al86  1  0.07358605  0.17768103  0.31870848  1
  Al0+  Al87  1  0.43040514  0.82022078  0.98618381  1
  Al0+  Al88  1  0.92745074  0.82137405  0.32062033  1
  Al0+  Al89  1  0.32043884  0.56863615  0.68163804  1
  Al0+  Al90  1  0.68102682  0.42823930  0.34660888  1
  Al0+  Al91  1  0.57236374  0.67672989  0.65139591  1
  Al0+  Al92  1  0.07036457  0.68079182  0.98472571  1
  Al0+  Al93  1  0.67909589  0.92870162  0.01344740  1
  Al0+  Al94  1  0.32235888  0.57361496  0.34956088  1
  Al0+  Al95  1  0.42775096  0.32457907  0.31915303  1
  Si0+  Si96  1  0.07024662  0.67889136  0.64983790  1
  Si0+  Si97  1  0.82230813  0.07357198  0.01557846  1
  Si0+  Si98  1  0.68181068  0.92752389  0.68223315  1
  Si0+  Si99  1  0.17833351  0.93058047  0.01566951  1
  Si0+  Si100  1  0.17675670  0.92806626  0.34564899  1
  Si0+  Si101  1  0.68058223  0.42675652  0.01441639  1
  Si0+  Si102  1  0.92911268  0.82253833  0.65211795  1
  Si0+  Si103  1  0.17663812  0.42777197  0.01608823  1
  Si0+  Si104  1  0.82174860  0.57180368  0.68316607  1
  Si0+  Si105  1  0.07203012  0.67881726  0.31766613  1
  Si0+  Si106  1  0.57203698  0.17908836  0.65117381  1
  Si0+  Si107  1  0.32138079  0.07140394  0.01473498  1
  Si0+  Si108  1  0.82219097  0.56930387  0.01421888  1
  Si0+  Si109  1  0.57189324  0.67351622  0.98644648  1
  Si0+  Si110  1  0.07687210  0.17726633  0.97894565  1
  Si0+  Si111  1  0.57266417  0.67730193  0.31597347  1
  Si0+  Si112  1  0.42725546  0.32395759  0.98316339  1
  Si0+  Si113  1  0.92824468  0.32165890  0.65062825  1
  Si0+  Si114  1  0.82296279  0.57270335  0.35039129  1
  Si0+  Si115  1  0.82052985  0.07208802  0.68347491  1
  Si0+  Si116  1  0.68076287  0.42789133  0.68455617  1
  Si0+  Si117  1  0.06929902  0.18012741  0.65276045  1
  Si0+  Si118  1  0.42852544  0.31919530  0.65495113  1
  Si0+  Si119  1  0.17469713  0.42817097  0.68466761  1
  O2-  O120  1  0.24769109  0.00336334  0.05690156  1
  O2-  O121  1  0.24405304  -0.00232599  0.39004920  1
  O2-  O122  1  0.25541425  -0.00424543  0.73208333  1
  O2-  O123  1  0.24653655  0.49535042  0.05906322  1
  O2-  O124  1  0.25314544  0.49756866  0.39765790  1
  O2-  O125  1  0.24394314  0.49559312  0.72978406  1
  O2-  O126  1  0.75933414  -0.00087877  0.05759853  1
  O2-  O127  1  0.75109788  -0.00198391  0.39987151  1
  O2-  O128  1  0.75098285  0.00010189  0.72600632  1
  O2-  O129  1  0.75049517  0.49898710  0.05589031  1
  O2-  O130  1  0.75666739  0.50173512  0.39503319  1
  O2-  O131  1  0.74997104  0.50129348  0.72608398  1
  O2-  O132  1  0.00147574  0.25100869  0.27036089  1
  O2-  O133  1  0.00166864  0.25381420  0.60974616  1
  O2-  O134  1  0.00604872  0.24563530  0.93662909  1
  O2-  O135  1  0.00183186  0.74648585  0.27475457  1
  O2-  O136  1  0.00218325  0.75379667  0.60937354  1
  O2-  O137  1  -0.00070356  0.75338053  0.93255188  1
  O2-  O138  1  0.49872710  0.25091452  0.27001401  1
  O2-  O139  1  0.49407857  0.24339041  0.61197137  1
  O2-  O140  1  0.49345052  0.25380232  0.93692713  1
  O2-  O141  1  0.50347913  0.74470977  0.27140223  1
  O2-  O142  1  0.49860043  0.74600599  0.60063530  1
  O2-  O143  1  0.50354476  0.74229990  0.94234581  1
  O2-  O144  1  0.08084503  0.17667842  0.08358817  1
  O2-  O145  1  0.07244759  0.17721317  0.43313251  1
  O2-  O146  1  0.06638211  0.18112293  0.75807570  1
  O2-  O147  1  0.06736209  0.68117769  0.09809253  1
  O2-  O148  1  0.07118291  0.68005605  0.42383507  1
  O2-  O149  1  0.06722452  0.67603963  0.75477070  1
  O2-  O150  1  0.57047306  0.18153450  0.09782756  1
  O2-  O151  1  0.56832389  0.17983166  0.43400428  1
  O2-  O152  1  0.57580396  0.18223186  0.75664730  1
  O2-  O153  1  0.57257004  0.66957633  0.09145093  1
  O2-  O154  1  0.57354810  0.67859705  0.42157968  1
  O2-  O155  1  0.57475851  0.67994264  0.76545858  1
  O2-  O156  1  0.17540397  0.43362841  0.23350527  1
  O2-  O157  1  0.17362105  0.42767080  0.57965996  1
  O2-  O158  1  0.17786120  0.42773250  0.90990143  1
  O2-  O159  1  0.17847771  0.92735842  0.23976087  1
  O2-  O160  1  0.16983920  0.93552667  0.56888558  1
  O2-  O161  1  0.17916637  0.93118710  0.91046882  1
  O2-  O162  1  0.68308586  0.42972627  0.23305532  1
  O2-  O163  1  0.68310029  0.42388070  0.58011474  1
  O2-  O164  1  0.68160062  0.42777514  0.90864894  1
  O2-  O165  1  0.67788302  0.92833438  0.23697456  1
  O2-  O166  1  0.68355399  0.92794809  0.57776532  1
  O2-  O167  1  0.67912186  0.93096594  0.89935037  1
  O2-  O168  1  0.42830435  0.32423371  0.08793449  1
  O2-  O169  1  0.42983016  0.32261367  0.43373179  1
  O2-  O170  1  0.43318074  0.32024984  0.76037474  1
  O2-  O171  1  0.43048089  0.82222208  0.09897214  1
  O2-  O172  1  0.42831721  0.81966198  0.43222360  1
  O2-  O173  1  0.43109524  0.81963160  0.76324954  1
  O2-  O174  1  0.92849582  0.31863282  0.09721338  1
  O2-  O175  1  0.93011044  0.31948462  0.43452760  1
  O2-  O176  1  0.92754774  0.32076401  0.75602630  1
  O2-  O177  1  0.92642900  0.81952583  0.09778503  1
  O2-  O178  1  0.93069651  0.81997316  0.43467256  1
  O2-  O179  1  0.92680408  0.81975079  0.75706212  1
  O2-  O180  1  0.32129855  0.06731188  0.22938232  1
  O2-  O181  1  0.32131259  0.07631218  0.56968509  1
  O2-  O182  1  0.32059378  0.07056815  0.90945594  1
  O2-  O183  1  0.31792083  0.57569382  0.23596192  1
  O2-  O184  1  0.31907783  0.56643741  0.56928965  1
  O2-  O185  1  0.32055192  0.57086236  0.90155301  1
  O2-  O186  1  0.82052504  0.06990392  0.23359564  1
  O2-  O187  1  0.82201801  0.07335034  0.57914467  1
  O2-  O188  1  0.81865334  0.07503071  0.90896272  1
  O2-  O189  1  0.82115567  0.57374878  0.24453435  1
  O2-  O190  1  0.82511599  0.57121512  0.57869280  1
  O2-  O191  1  0.82080277  0.56851156  0.90853239  1
  O2-  O192  1  0.04491935  0.08117651  0.26248867  1
  O2-  O193  1  0.03772515  0.08934440  0.60641380  1
  O2-  O194  1  0.05020612  0.08459866  0.93115756  1
  O2-  O195  1  0.04685390  0.58574294  0.27150514  1
  O2-  O196  1  0.03710799  0.58874861  0.60181258  1
  O2-  O197  1  0.04168581  0.58370432  0.92823308  1
  O2-  O198  1  0.54095861  0.08041762  0.26702226  1
  O2-  O199  1  0.55335177  0.08462382  0.60688913  1
  O2-  O200  1  0.53722886  0.08580942  0.92818334  1
  O2-  O201  1  0.55011977  0.58266819  0.27161740  1
  O2-  O202  1  0.54914584  0.57459724  0.60373843  1
  O2-  O203  1  0.54765925  0.57963211  0.93889483  1
  O2-  O204  1  0.17009119  0.20667044  0.26333638  1
  O2-  O205  1  0.16345421  0.20461411  0.60890016  1
  O2-  O206  1  0.16905747  0.20537798  0.93003072  1
  O2-  O207  1  0.16397702  0.70590240  0.27046221  1
  O2-  O208  1  0.16227771  0.70346272  0.60296426  1
  O2-  O209  1  0.16712361  0.71242501  0.93047758  1
  O2-  O210  1  0.66852713  0.20743550  0.26842620  1
  O2-  O211  1  0.66188638  0.21408078  0.60426103  1
  O2-  O212  1  0.66335454  0.21251357  0.92676073  1
  O2-  O213  1  0.66671331  0.70107052  0.27012848  1
  O2-  O214  1  0.67152681  0.70358021  0.59828765  1
  O2-  O215  1  0.66607795  0.69801365  0.94077622  1
  O2-  O216  1  0.08204181  0.45416991  0.05875940  1
  O2-  O217  1  0.08092170  0.45903385  0.40340126  1
  O2-  O218  1  0.08010924  0.45577506  0.72924657  1
  O2-  O219  1  0.08453641  0.95681596  0.06035802  1
  O2-  O220  1  0.08238589  0.95134393  0.39014654  1
  O2-  O221  1  0.08158308  0.96372323  0.73964272  1
  O2-  O222  1  0.58874269  0.45124981  0.06221654  1
  O2-  O223  1  0.58650354  0.45984641  0.40425519  1
  O2-  O224  1  0.58915761  0.45217345  0.73402314  1
  O2-  O225  1  0.58344436  0.96531622  0.06504555  1
  O2-  O226  1  0.58116547  0.95883692  0.40536176  1
  O2-  O227  1  0.58983809  0.95487264  0.72938908  1
  O2-  O228  1  0.19942609  0.33267871  0.06011953  1
  O2-  O229  1  0.20354661  0.33014682  0.40030773  1
  O2-  O230  1  0.19722120  0.33443355  0.73221642  1
  O2-  O231  1  0.20675207  0.83948992  0.06267818  1
  O2-  O232  1  0.20197842  0.83536695  0.39323046  1
  O2-  O233  1  0.19911766  0.82905715  0.73395960  1
  O2-  O234  1  0.71221716  0.33501700  0.05839886  1
  O2-  O235  1  0.71122014  0.33319468  0.40416013  1
  O2-  O236  1  0.71289992  0.33760713  0.73456199  1
  O2-  O237  1  0.70363207  0.83039694  0.06697602  1
  O2-  O238  1  0.70575016  0.82838711  0.40373559  1
  O2-  O239  1  0.71216350  0.83589715  0.72894577  1
  O2-  O240  1  0.45927453  0.42293637  0.26834040  1
  O2-  O241  1  0.46157948  0.40869688  0.60737581  1
  O2-  O242  1  0.45781121  0.41659772  0.93677109  1
  O2-  O243  1  0.46115630  0.91507797  0.26540214  1
  O2-  O244  1  0.45958912  0.91985676  0.59950554  1
  O2-  O245  1  0.46350854  0.91457808  0.92918386  1
  O2-  O246  1  0.95408370  0.42203246  0.26877082  1
  O2-  O247  1  0.95037319  0.41541188  0.60517853  1
  O2-  O248  1  0.95960373  0.41453320  0.92684263  1
  O2-  O249  1  0.95638573  0.91539905  0.26261229  1
  O2-  O250  1  0.95508338  0.91652648  0.60847586  1
  O2-  O251  1  0.95106899  0.92275843  0.93255904  1
  O2-  O252  1  0.32976324  0.30001020  0.26556385  1
  O2-  O253  1  0.33315345  0.29810055  0.61220695  1
  O2-  O254  1  0.33275006  0.30170861  0.93677427  1
  O2-  O255  1  0.33199814  0.78988748  0.26532769  1
  O2-  O256  1  0.32686397  0.79540390  0.60054860  1
  O2-  O257  1  0.33368377  0.79164739  0.93196044  1
  O2-  O258  1  0.83126386  0.29240090  0.26775689  1
  O2-  O259  1  0.83602381  0.29113841  0.60587066  1
  O2-  O260  1  0.83598722  0.28724470  0.92579193  1
  O2-  O261  1  0.83097993  0.78873078  0.26835540  1
  O2-  O262  1  0.83937939  0.79133648  0.60330001  1
  O2-  O263  1  0.82806805  0.78977907  0.93215314  1
  O2-  O264  1  0.41286752  0.04085981  0.05947396  1
  O2-  O265  1  0.41459901  0.03764791  0.39977255  1
  O2-  O266  1  0.42474441  0.04644760  0.73429126  1
  O2-  O267  1  0.41711515  0.54283306  0.06909615  1
  O2-  O268  1  0.42145231  0.54988487  0.40202722  1
  O2-  O269  1  0.41697472  0.53599353  0.73628192  1
  O2-  O270  1  0.91974614  0.05764898  0.05630005  1
  O2-  O271  1  0.92068455  0.03993948  0.39962201  1
  O2-  O272  1  0.91196641  0.04724151  0.73303675  1
  O2-  O273  1  0.91423218  0.53973826  0.05905127  1
  O2-  O274  1  0.91733696  0.55147467  0.39633749  1
  O2-  O275  1  0.91242462  0.54159190  0.73279027  1
  O2-  O276  1  0.29671778  0.16547950  0.05908368  1
  O2-  O277  1  0.29317460  0.16759762  0.39641599  1
  O2-  O278  1  0.29183846  0.16837580  0.73955984  1
  O2-  O279  1  0.28723251  0.66926032  0.06690676  1
  O2-  O280  1  0.28659256  0.66955893  0.40400921  1
  O2-  O281  1  0.28875023  0.66565806  0.73407612  1
  O2-  O282  1  0.78992975  0.16582862  0.05941332  1
  O2-  O283  1  0.79446423  0.16729210  0.40317627  1
  O2-  O284  1  0.79002058  0.16372299  0.73156863  1
  O2-  O285  1  0.79575761  0.66047883  0.06296722  1
  O2-  O286  1  0.79429698  0.66409075  0.39937413  1
  O2-  O287  1  0.79477147  0.66379282  0.73127263  1
