# generated using pymatgen
data_Ca2Al2SiO7
_symmetry_space_group_name_H-M   'P 1'
_cell_length_a   15.46426688
_cell_length_b   15.46294616
_cell_length_c   15.28715057
_cell_angle_alpha   89.99054776
_cell_angle_beta   90.01957293
_cell_angle_gamma   89.98454724
_symmetry_Int_Tables_number   1
_chemical_formula_structural   Ca2Al2SiO7
_chemical_formula_sum   'Ca48 Al48 Si24 O168'
_cell_volume   3655.51084009
_cell_formula_units_Z   24
loop_
 _symmetry_equiv_pos_site_id
 _symmetry_equiv_pos_as_xyz
  1  'x, y, z'
loop_
 _atom_type_symbol
 _atom_type_oxidation_number
  Ca2+  2.0
  Al0+  0.0
  Si0+  0.0
  O2-  -2.0
loop_
 _atom_site_type_symbol
 _atom_site_label
 _atom_site_symmetry_multiplicity
 _atom_site_fract_x
 _atom_site_fract_y
 _atom_site_fract_z
 _atom_site_occupancy
  Ca2+  Ca0  1  0.17796525  0.08016609  0.17502398  1
  Ca2+  Ca1  1  0.16816022  0.08652601  0.49920824  1
  Ca2+  Ca2  1  0.17243672  0.07971819  0.84340561  1
  Ca2+  Ca3  1  0.16279700  0.57821939  0.16730752  1
  Ca2+  Ca4  1  0.16804302  0.58198859  0.50650042  1
  Ca2+  Ca5  1  0.16452093  0.57979147  0.84368766  1
  Ca2+  Ca6  1  0.66182324  0.07964179  0.17561816  1
  Ca2+  Ca7  1  0.65586925  0.07304197  0.50436527  1
  Ca2+  Ca8  1  0.66023907  0.08149954  0.83667810  1
  Ca2+  Ca9  1  0.66315479  0.58051117  0.17354654  1
  Ca2+  Ca10  1  0.67012989  0.59156999  0.50243771  1
  Ca2+  Ca11  1  0.66171481  0.57876952  0.83987329  1
  Ca2+  Ca12  1  0.08656470  0.32964994  0.16491979  1
  Ca2+  Ca13  1  0.08497345  0.32008041  0.49560403  1
  Ca2+  Ca14  1  0.08681680  0.32954107  0.82970704  1
  Ca2+  Ca15  1  0.08159680  0.83707347  0.16217500  1
  Ca2+  Ca16  1  0.07189822  0.83662451  0.49287816  1
  Ca2+  Ca17  1  0.08423371  0.82508545  0.82657768  1
  Ca2+  Ca18  1  0.57286201  0.32526457  0.15685310  1
  Ca2+  Ca19  1  0.57359540  0.32196055  0.49266631  1
  Ca2+  Ca20  1  0.57546871  0.32506399  0.82928203  1
  Ca2+  Ca21  1  0.59103320  0.82387824  0.16539768  1
  Ca2+  Ca22  1  0.59582059  0.82719242  0.49523815  1
  Ca2+  Ca23  1  0.58748456  0.82350979  0.82724611  1
  Ca2+  Ca24  1  0.33431012  0.41000508  0.16686842  1
  Ca2+  Ca25  1  0.34037444  0.41270154  0.50161871  1
  Ca2+  Ca26  1  0.33255851  0.41261067  0.83940151  1
  Ca2+  Ca27  1  0.32474606  0.92672543  0.17325955  1
  Ca2+  Ca28  1  0.33045165  0.92374015  0.50050197  1
  Ca2+  Ca29  1  0.32673696  0.92514125  0.84559447  1
  Ca2+  Ca30  1  0.82392543  0.42490366  0.17181641  1
  Ca2+  Ca31  1  0.83361225  0.42569999  0.50197567  1
  Ca2+  Ca32  1  0.82373445  0.41901530  0.84357360  1
  Ca2+  Ca33  1  0.82863066  0.91517034  0.17494457  1
  Ca2+  Ca34  1  0.82726679  0.91018962  0.50213842  1
  Ca2+  Ca35  1  0.83140471  0.91292110  0.82783953  1
  Ca2+  Ca36  1  0.41954676  0.16741424  0.16381747  1
  Ca2+  Ca37  1  0.42044079  0.17371640  0.49236443  1
  Ca2+  Ca38  1  0.41976311  0.17332550  0.83176300  1
  Ca2+  Ca39  1  0.42688973  0.66830343  0.16320938  1
  Ca2+  Ca40  1  0.42949932  0.66981156  0.49595946  1
  Ca2+  Ca41  1  0.42707797  0.66541179  0.83134569  1
  Ca2+  Ca42  1  0.92521780  0.16104110  0.16620388  1
  Ca2+  Ca43  1  0.93007662  0.15750348  0.49719256  1
  Ca2+  Ca44  1  0.92456851  0.16895574  0.82720093  1
  Ca2+  Ca45  1  0.91818582  0.67073568  0.16549481  1
  Ca2+  Ca46  1  0.91591043  0.67722821  0.49550449  1
  Ca2+  Ca47  1  0.92960258  0.67148453  0.82765161  1
  Al0+  Al48  1  -0.00319015  -0.00023295  0.00043508  1
  Al0+  Al49  1  -0.00101367  -0.00115731  0.32648146  1
  Al0+  Al50  1  -0.00092915  -0.00043098  0.66192219  1
  Al0+  Al51  1  -0.00036514  0.50150846  0.00112959  1
  Al0+  Al52  1  -0.00079867  0.50059640  0.33995993  1
  Al0+  Al53  1  0.00079533  0.50007341  0.66615746  1
  Al0+  Al54  1  0.50043234  -0.00101968  0.00195277  1
  Al0+  Al55  1  0.49734791  -0.00116788  0.33956761  1
  Al0+  Al56  1  0.49851519  -0.00095554  0.67286619  1
  Al0+  Al57  1  0.49921128  0.49916846  -0.00247959  1
  Al0+  Al58  1  0.49902014  0.49915849  0.32762172  1
  Al0+  Al59  1  0.50009038  0.50155782  0.66035677  1
  Al0+  Al60  1  0.25004926  0.25058844  0.00464356  1
  Al0+  Al61  1  0.24854551  0.24999236  0.33005917  1
  Al0+  Al62  1  0.24952204  0.25113291  0.66116566  1
  Al0+  Al63  1  0.24967066  0.74891428  0.00079060  1
  Al0+  Al64  1  0.24972276  0.74751809  0.33844774  1
  Al0+  Al65  1  0.25261108  0.74819548  0.66547539  1
  Al0+  Al66  1  0.75025721  0.25061799  0.00218975  1
  Al0+  Al67  1  0.75106836  0.25106849  0.33342788  1
  Al0+  Al68  1  0.75000863  0.24992238  0.66372899  1
  Al0+  Al69  1  0.75272870  0.75092437  -0.00587497  1
  Al0+  Al70  1  0.75299565  0.74948412  0.33124436  1
  Al0+  Al71  1  0.75249283  0.75008407  0.66779545  1
  Al0+  Al72  1  0.32180897  0.07130643  0.01564527  1
  Al0+  Al73  1  0.06820818  0.18009111  0.31702337  1
  Al0+  Al74  1  0.07436180  0.67667698  0.65066198  1
  Al0+  Al75  1  0.57245285  0.17590628  0.65149454  1
  Al0+  Al76  1  0.17786869  0.43009931  0.01358099  1
  Al0+  Al77  1  0.93090586  0.81921754  0.31714660  1
  Al0+  Al78  1  0.31947093  0.07230859  0.35187606  1
  Al0+  Al79  1  0.57189382  0.17552572  0.31876163  1
  Al0+  Al80  1  0.67725931  0.42935880  0.01323067  1
  Al0+  Al81  1  0.93170532  0.81937011  0.65038461  1
  Al0+  Al82  1  0.07084576  0.67959917  0.98839150  1
  Al0+  Al83  1  0.17659729  0.92691015  0.01355589  1
  Al0+  Al84  1  0.17662092  0.92782523  0.35000601  1
  Al0+  Al85  1  0.57358305  0.17649574  0.98477158  1
  Al0+  Al86  1  0.42908779  0.32042199  0.31510171  1
  Al0+  Al87  1  0.42728939  0.31952268  0.98351512  1
  Al0+  Al88  1  0.68001227  0.93043630  0.34511653  1
  Al0+  Al89  1  0.42972287  0.32039827  0.65112635  1
  Al0+  Al90  1  0.57132144  0.68226214  0.31980439  1
  Al0+  Al91  1  0.67934559  0.92937512  0.68230208  1
  Al0+  Al92  1  0.57076144  0.68147149  0.65311872  1
  Al0+  Al93  1  0.57172447  0.67994612  0.98634224  1
  Al0+  Al94  1  0.06990180  0.18039346  0.65531751  1
  Al0+  Al95  1  0.81964128  0.57028201  0.34786905  1
  Si0+  Si96  1  0.67874596  0.42960724  0.68027671  1
  Si0+  Si97  1  0.17999712  0.42949004  0.68095620  1
  Si0+  Si98  1  0.92918233  0.32228073  0.98687834  1
  Si0+  Si99  1  0.92810123  0.82434293  0.98018706  1
  Si0+  Si100  1  0.32273717  0.57228147  0.01724115  1
  Si0+  Si101  1  0.82377573  0.07298688  0.68333965  1
  Si0+  Si102  1  0.82185977  0.57049701  0.68426377  1
  Si0+  Si103  1  0.06932559  0.17952917  0.98650744  1
  Si0+  Si104  1  0.82109006  0.07289131  0.01458416  1
  Si0+  Si105  1  0.92583466  0.32353063  0.65092703  1
  Si0+  Si106  1  0.92830465  0.32646469  0.31652411  1
  Si0+  Si107  1  0.82100576  0.57236953  0.01574870  1
  Si0+  Si108  1  0.42424267  0.82132422  0.31759124  1
  Si0+  Si109  1  0.67604389  0.42804434  0.35139652  1
  Si0+  Si110  1  0.82269839  0.07399532  0.34906129  1
  Si0+  Si111  1  0.42718006  0.82331423  0.65139266  1
  Si0+  Si112  1  0.31866060  0.07280423  0.68296692  1
  Si0+  Si113  1  0.32309078  0.57105212  0.68217038  1
  Si0+  Si114  1  0.17816490  0.92875041  0.68072815  1
  Si0+  Si115  1  0.17894188  0.43015428  0.35010795  1
  Si0+  Si116  1  0.32324073  0.57043861  0.34952846  1
  Si0+  Si117  1  0.68106965  0.92801923  0.01368969  1
  Si0+  Si118  1  0.42780619  0.82149196  0.98494131  1
  Si0+  Si119  1  0.07368077  0.67582568  0.31726234  1
  O2-  O120  1  0.24821817  -0.00098463  0.06297009  1
  O2-  O121  1  0.24735044  -0.00023387  0.40222170  1
  O2-  O122  1  0.24849943  -0.00018669  0.72427586  1
  O2-  O123  1  0.25295652  0.50410351  0.06087500  1
  O2-  O124  1  0.25159728  0.49955592  0.39177873  1
  O2-  O125  1  0.24865398  0.50264086  0.72346483  1
  O2-  O126  1  0.74718203  0.00393367  0.05485650  1
  O2-  O127  1  0.74854196  0.01126801  0.39245637  1
  O2-  O128  1  0.75100957  0.00861013  0.72823763  1
  O2-  O129  1  0.74818004  0.50834286  0.05971233  1
  O2-  O130  1  0.74460779  0.49662939  0.39664300  1
  O2-  O131  1  0.75170012  0.49805725  0.72525280  1
  O2-  O132  1  -0.00806069  0.25400938  0.27101055  1
  O2-  O133  1  -0.00689497  0.25307349  0.60810226  1
  O2-  O134  1  0.00020817  0.25190707  0.94323325  1
  O2-  O135  1  0.00987457  0.74804469  0.27225456  1
  O2-  O136  1  0.00526507  0.74962897  0.59948741  1
  O2-  O137  1  0.00153110  0.75850909  0.94023093  1
  O2-  O138  1  0.50202243  0.24847099  0.26746321  1
  O2-  O139  1  0.50059070  0.24761182  0.60203242  1
  O2-  O140  1  0.50055115  0.24786441  0.93538160  1
  O2-  O141  1  0.49697396  0.75695285  0.27271713  1
  O2-  O142  1  0.50027963  0.75971918  0.60660021  1
  O2-  O143  1  0.49755016  0.75459847  0.93904483  1
  O2-  O144  1  0.06583822  0.17957226  0.09112000  1
  O2-  O145  1  0.06724625  0.18224655  0.43048596  1
  O2-  O146  1  0.06982852  0.18261737  0.76902409  1
  O2-  O147  1  0.06583035  0.67605512  0.10108770  1
  O2-  O148  1  0.07163577  0.67374253  0.42257536  1
  O2-  O149  1  0.07280384  0.67601984  0.76460261  1
  O2-  O150  1  0.57593674  0.17703363  0.09774543  1
  O2-  O151  1  0.57019265  0.17747267  0.43231837  1
  O2-  O152  1  0.57177612  0.17884876  0.76502822  1
  O2-  O153  1  0.57295342  0.68218928  0.09932989  1
  O2-  O154  1  0.57061469  0.68333029  0.43301008  1
  O2-  O155  1  0.56839814  0.67918875  0.76636655  1
  O2-  O156  1  0.17571832  0.43280028  0.24505694  1
  O2-  O157  1  0.17974713  0.42920247  0.57598192  1
  O2-  O158  1  0.17602992  0.43095316  0.90005274  1
  O2-  O159  1  0.17897870  0.92876261  0.23650679  1
  O2-  O160  1  0.17905636  0.92963363  0.57616239  1
  O2-  O161  1  0.17722776  0.92941281  0.89889357  1
  O2-  O162  1  0.67784869  0.42998287  0.24573326  1
  O2-  O163  1  0.68120571  0.43186405  0.57540902  1
  O2-  O164  1  0.68129821  0.42976633  0.89937982  1
  O2-  O165  1  0.68400100  0.92807967  0.23147027  1
  O2-  O166  1  0.68280098  0.92721106  0.56959807  1
  O2-  O167  1  0.68396111  0.92563662  0.90866093  1
  O2-  O168  1  0.42832207  0.31914814  0.09635808  1
  O2-  O169  1  0.43069580  0.32144819  0.42880986  1
  O2-  O170  1  0.42786795  0.32040063  0.76439991  1
  O2-  O171  1  0.42872988  0.81954230  0.09035077  1
  O2-  O172  1  0.42197867  0.81697561  0.42325722  1
  O2-  O173  1  0.42503734  0.81970311  0.75710039  1
  O2-  O174  1  0.92982172  0.32205002  0.09159447  1
  O2-  O175  1  0.93260807  0.32932444  0.42221402  1
  O2-  O176  1  0.92647359  0.32453390  0.75704936  1
  O2-  O177  1  0.92356836  0.82390268  0.08529699  1
  O2-  O178  1  0.92895205  0.81721967  0.42979949  1
  O2-  O179  1  0.93369610  0.81818383  0.76434443  1
  O2-  O180  1  0.31821096  0.07142527  0.23853456  1
  O2-  O181  1  0.31736165  0.07301302  0.57829862  1
  O2-  O182  1  0.31788957  0.07068253  0.90096316  1
  O2-  O183  1  0.32274366  0.57234318  0.24466015  1
  O2-  O184  1  0.32388962  0.57040823  0.57711353  1
  O2-  O185  1  0.32194965  0.57284633  0.91126155  1
  O2-  O186  1  0.82427316  0.07138004  0.24304232  1
  O2-  O187  1  0.82806695  0.07165164  0.57842211  1
  O2-  O188  1  0.82599741  0.07332218  0.90962097  1
  O2-  O189  1  0.82002502  0.56812082  0.23464322  1
  O2-  O190  1  0.82173181  0.57002214  0.57924444  1
  O2-  O191  1  0.82271331  0.56916513  0.90979883  1
  O2-  O192  1  0.03716019  0.08496246  0.26140518  1
  O2-  O193  1  0.04041532  0.08488538  0.59966323  1
  O2-  O194  1  0.03857586  0.08859893  0.93847248  1
  O2-  O195  1  0.04230701  0.58308181  0.27235900  1
  O2-  O196  1  0.04538950  0.57785455  0.59910233  1
  O2-  O197  1  0.03569783  0.58443995  0.93238570  1
  O2-  O198  1  0.54318256  0.07562225  0.26922581  1
  O2-  O199  1  0.54364514  0.07568648  0.60404646  1
  O2-  O200  1  0.54679121  0.07638552  0.93380890  1
  O2-  O201  1  0.53951537  0.58593072  0.26671534  1
  O2-  O202  1  0.53778888  0.58749669  0.59663157  1
  O2-  O203  1  0.53989564  0.58407672  0.93215618  1
  O2-  O204  1  0.16274987  0.21441094  0.26310105  1
  O2-  O205  1  0.16293581  0.21444899  0.59788440  1
  O2-  O206  1  0.16123450  0.20692285  0.94062067  1
  O2-  O207  1  0.16982579  0.69463393  0.27401999  1
  O2-  O208  1  0.17505612  0.69938062  0.60093512  1
  O2-  O209  1  0.16943883  0.70321145  0.93431256  1
  O2-  O210  1  0.67395961  0.19953155  0.27033042  1
  O2-  O211  1  0.67223631  0.20098589  0.59986818  1
  O2-  O212  1  0.67313482  0.20560596  0.93293220  1
  O2-  O213  1  0.66706643  0.71231358  0.26488388  1
  O2-  O214  1  0.66884762  0.70947213  0.60221130  1
  O2-  O215  1  0.66839806  0.70981057  0.93131083  1
  O2-  O216  1  0.08186669  0.46205228  0.06904440  1
  O2-  O217  1  0.08862073  0.45850995  0.40048496  1
  O2-  O218  1  0.08662541  0.45347148  0.72856867  1
  O2-  O219  1  0.07668966  0.95422355  0.06351723  1
  O2-  O220  1  0.07691294  0.95842935  0.39884031  1
  O2-  O221  1  0.08574574  0.95637403  0.72696066  1
  O2-  O222  1  0.58053529  0.45866974  0.06643028  1
  O2-  O223  1  0.58202547  0.45480980  0.39512285  1
  O2-  O224  1  0.58761460  0.46196127  0.72625136  1
  O2-  O225  1  0.58757569  0.94809375  0.06020808  1
  O2-  O226  1  0.58161927  0.95076809  0.40035801  1
  O2-  O227  1  0.58093727  0.95298207  0.73761568  1
  O2-  O228  1  0.20567298  0.33395949  0.06895258  1
  O2-  O229  1  0.20553037  0.33774978  0.39604180  1
  O2-  O230  1  0.20912739  0.33782958  0.72862580  1
  O2-  O231  1  0.20268798  0.82791422  0.06592711  1
  O2-  O232  1  0.20281257  0.82783200  0.40210529  1
  O2-  O233  1  0.20704176  0.83585140  0.72660602  1
  O2-  O234  1  0.71309058  0.33506188  0.06851949  1
  O2-  O235  1  0.70291861  0.33452413  0.39759111  1
  O2-  O236  1  0.70448818  0.33656021  0.72699239  1
  O2-  O237  1  0.71491727  0.83745060  0.06084960  1
  O2-  O238  1  0.71823212  0.83571923  0.39817513  1
  O2-  O239  1  0.71597192  0.83384015  0.73724359  1
  O2-  O240  1  0.45499064  0.41934537  0.26205960  1
  O2-  O241  1  0.45819098  0.41837749  0.59771270  1
  O2-  O242  1  0.45364208  0.41902171  0.93173622  1
  O2-  O243  1  0.44571899  0.91658766  0.27538324  1
  O2-  O244  1  0.44691799  0.91879035  0.60860735  1
  O2-  O245  1  0.45200169  0.91511265  0.93870308  1
  O2-  O246  1  0.95948086  0.41812219  0.26953466  1
  O2-  O247  1  0.95394112  0.41597111  0.60450011  1
  O2-  O248  1  0.95652194  0.41344047  0.93786891  1
  O2-  O249  1  0.95641359  0.91574353  0.26088335  1
  O2-  O250  1  0.95550186  0.91839182  0.59755504  1
  O2-  O251  1  0.94894007  0.91921792  0.93405824  1
  O2-  O252  1  0.32925755  0.29470564  0.26526078  1
  O2-  O253  1  0.33129719  0.29402737  0.59754286  1
  O2-  O254  1  0.32739642  0.29147746  0.93189873  1
  O2-  O255  1  0.33268035  0.78984171  0.27034339  1
  O2-  O256  1  0.33652110  0.79328056  0.60223564  1
  O2-  O257  1  0.33476951  0.79516099  0.93753873  1
  O2-  O258  1  0.83256708  0.30659708  0.27318521  1
  O2-  O259  1  0.83265614  0.30212163  0.60334304  1
  O2-  O260  1  0.83857070  0.29337722  0.93786913  1
  O2-  O261  1  0.83743581  0.78296664  0.26088177  1
  O2-  O262  1  0.83434895  0.78681728  0.59910254  1
  O2-  O263  1  0.83778422  0.79349919  0.93014791  1
  O2-  O264  1  0.42012535  0.04199753  0.06832970  1
  O2-  O265  1  0.41666065  0.04314351  0.40690783  1
  O2-  O266  1  0.40989719  0.04624944  0.73194960  1
  O2-  O267  1  0.41567623  0.54585941  0.06356431  1
  O2-  O268  1  0.41471527  0.54083231  0.39732372  1
  O2-  O269  1  0.41418616  0.54034385  0.73001432  1
  O2-  O270  1  0.91081380  0.04158503  0.06478183  1
  O2-  O271  1  0.91425280  0.04109728  0.39463864  1
  O2-  O272  1  0.91588846  0.04230396  0.73213032  1
  O2-  O273  1  0.91179986  0.54170752  0.06383049  1
  O2-  O274  1  0.91507468  0.53876107  0.40537668  1
  O2-  O275  1  0.91441689  0.54225479  0.73132313  1
  O2-  O276  1  0.29147674  0.16803176  0.06903862  1
  O2-  O277  1  0.28627913  0.17084000  0.40278488  1
  O2-  O278  1  0.28680115  0.16430263  0.72887591  1
  O2-  O279  1  0.29826588  0.66548275  0.06433231  1
  O2-  O280  1  0.29679487  0.66099427  0.40030393  1
  O2-  O281  1  0.29982368  0.66394285  0.73053604  1
  O2-  O282  1  0.79926968  0.16510144  0.06354811  1
  O2-  O283  1  0.80876756  0.17093813  0.39339413  1
  O2-  O284  1  0.80410791  0.16939199  0.72765520  1
  O2-  O285  1  0.79985408  0.66847052  0.05822474  1
  O2-  O286  1  0.78757498  0.66576905  0.40224240  1
  O2-  O287  1  0.79380596  0.66130075  0.73252565  1
