# generated using pymatgen
data_Ca2Al2SiO7
_symmetry_space_group_name_H-M   'P 1'
_cell_length_a   15.45938037
_cell_length_b   15.46011856
_cell_length_c   15.28502564
_cell_angle_alpha   89.99307278
_cell_angle_beta   89.99787624
_cell_angle_gamma   90.00291042
_symmetry_Int_Tables_number   1
_chemical_formula_structural   Ca2Al2SiO7
_chemical_formula_sum   'Ca48 Al48 Si24 O168'
_cell_volume   3653.17999264
_cell_formula_units_Z   24
loop_
 _symmetry_equiv_pos_site_id
 _symmetry_equiv_pos_as_xyz
  1  'x, y, z'
loop_
 _atom_type_symbol
 _atom_type_oxidation_number
  Ca2+  2.0
  Al0+  0.0
  Si0+  0.0
  O2-  -2.0
loop_
 _atom_site_type_symbol
 _atom_site_label
 _atom_site_symmetry_multiplicity
 _atom_site_fract_x
 _atom_site_fract_y
 _atom_site_fract_z
 _atom_site_occupancy
  Ca2+  Ca0  1  0.15410184  0.08182534  0.16921474  1
  Ca2+  Ca1  1  0.17113198  0.09171134  0.50820691  1
  Ca2+  Ca2  1  0.16731673  0.08560411  0.83599016  1
  Ca2+  Ca3  1  0.17903592  0.57383574  0.17575681  1
  Ca2+  Ca4  1  0.16421918  0.56820279  0.50380391  1
  Ca2+  Ca5  1  0.16529203  0.57778995  0.83466770  1
  Ca2+  Ca6  1  0.67040684  0.08015315  0.17452285  1
  Ca2+  Ca7  1  0.67785401  0.09129086  0.50646274  1
  Ca2+  Ca8  1  0.67172810  0.09403924  0.83288089  1
  Ca2+  Ca9  1  0.67790495  0.58482420  0.17626341  1
  Ca2+  Ca10  1  0.66932706  0.57804374  0.50090006  1
  Ca2+  Ca11  1  0.67207229  0.57321617  0.83789422  1
  Ca2+  Ca12  1  0.07648880  0.32778706  0.16579627  1
  Ca2+  Ca13  1  0.07863744  0.32843594  0.49327086  1
  Ca2+  Ca14  1  0.07336550  0.33137953  0.82482948  1
  Ca2+  Ca15  1  0.08250383  0.83398806  0.16115502  1
  Ca2+  Ca16  1  0.08452261  0.82447755  0.49951065  1
  Ca2+  Ca17  1  0.09050285  0.82552210  0.82860539  1
  Ca2+  Ca18  1  0.57735154  0.33180662  0.16420661  1
  Ca2+  Ca19  1  0.58024929  0.33358087  0.49874528  1
  Ca2+  Ca20  1  0.58458126  0.32544955  0.82708548  1
  Ca2+  Ca21  1  0.58873319  0.82845450  0.16897854  1
  Ca2+  Ca22  1  0.58101207  0.83122928  0.49386994  1
  Ca2+  Ca23  1  0.57413342  0.82946848  0.82427774  1
  Ca2+  Ca24  1  0.33128752  0.42124163  0.17821043  1
  Ca2+  Ca25  1  0.32155046  0.40976209  0.50135159  1
  Ca2+  Ca26  1  0.32260616  0.41896844  0.83673208  1
  Ca2+  Ca27  1  0.32527485  0.92044107  0.16723038  1
  Ca2+  Ca28  1  0.33574083  0.92307496  0.50778046  1
  Ca2+  Ca29  1  0.32996978  0.92075009  0.83374472  1
  Ca2+  Ca30  1  0.84170654  0.42250512  0.17049593  1
  Ca2+  Ca31  1  0.83538364  0.41500390  0.50565173  1
  Ca2+  Ca32  1  0.83319802  0.41154824  0.83407200  1
  Ca2+  Ca33  1  0.82699544  0.92689012  0.17961283  1
  Ca2+  Ca34  1  0.82808771  0.93041959  0.50021829  1
  Ca2+  Ca35  1  0.83836047  0.92777679  0.83399301  1
  Ca2+  Ca36  1  0.42149464  0.17447681  0.16482329  1
  Ca2+  Ca37  1  0.42072590  0.16918427  0.49686660  1
  Ca2+  Ca38  1  0.42833785  0.15843868  0.82643713  1
  Ca2+  Ca39  1  0.42121592  0.65730550  0.16559156  1
  Ca2+  Ca40  1  0.42091194  0.66942295  0.49229919  1
  Ca2+  Ca41  1  0.40768660  0.67358258  0.82757522  1
  Ca2+  Ca42  1  0.92034000  0.17597844  0.16235641  1
  Ca2+  Ca43  1  0.92000169  0.17474264  0.49414051  1
  Ca2+  Ca44  1  0.92600375  0.17513578  0.82465611  1
  Ca2+  Ca45  1  0.91297906  0.66412963  0.16300692  1
  Ca2+  Ca46  1  0.92123777  0.66108374  0.49599205  1
  Ca2+  Ca47  1  0.92025253  0.66727739  0.82797249  1
  Al0+  Al48  1  -0.00085332  -0.00012940  0.00077113  1
  Al0+  Al49  1  -0.00131589  -0.00233658  0.33623406  1
  Al0+  Al50  1  0.00000180  -0.00182911  0.66795518  1
  Al0+  Al51  1  0.00005858  0.50094934  0.00053024  1
  Al0+  Al52  1  0.00200601  0.49974409  0.33582238  1
  Al0+  Al53  1  0.00094611  0.50128214  0.66462165  1
  Al0+  Al54  1  0.49872846  -0.00179716  -0.00190974  1
  Al0+  Al55  1  0.49730842  -0.00340451  0.33354206  1
  Al0+  Al56  1  0.49994467  -0.00077051  0.66153434  1
  Al0+  Al57  1  0.50146771  0.49956234  0.00081418  1
  Al0+  Al58  1  0.50173102  0.50252598  0.32810792  1
  Al0+  Al59  1  0.50100356  0.50101412  0.67273268  1
  Al0+  Al60  1  0.25131245  0.24931656  -0.00142928  1
  Al0+  Al61  1  0.25047671  0.24845266  0.32655360  1
  Al0+  Al62  1  0.25111653  0.25056384  0.67749981  1
  Al0+  Al63  1  0.25025524  0.75135820  0.00925008  1
  Al0+  Al64  1  0.25135098  0.75110605  0.33499346  1
  Al0+  Al65  1  0.25002718  0.75095975  0.65541564  1
  Al0+  Al66  1  0.74885220  0.25063753  -0.00458290  1
  Al0+  Al67  1  0.75075339  0.25122644  0.33122470  1
  Al0+  Al68  1  0.74987116  0.25084935  0.66818428  1
  Al0+  Al69  1  0.74923150  0.74971992  -0.00013186  1
  Al0+  Al70  1  0.74931307  0.74997218  0.33892621  1
  Al0+  Al71  1  0.74931482  0.75078332  0.66705981  1
  Al0+  Al72  1  0.32179173  0.07112907  0.67996367  1
  Al0+  Al73  1  0.56807126  0.17822943  0.98694642  1
  Al0+  Al74  1  0.18147916  0.42716426  0.34788628  1
  Al0+  Al75  1  0.07389700  0.17804231  0.65290594  1
  Al0+  Al76  1  0.17906474  0.93161650  0.01302035  1
  Al0+  Al77  1  0.82058404  0.07372822  0.34795977  1
  Al0+  Al78  1  0.43004685  0.81999019  0.65218296  1
  Al0+  Al79  1  0.57090534  0.68114770  0.31930635  1
  Al0+  Al80  1  0.92768572  0.32322641  0.31729460  1
  Al0+  Al81  1  0.93047595  0.32328711  0.98306376  1
  Al0+  Al82  1  0.32042680  0.57066790  0.01322477  1
  Al0+  Al83  1  0.67842571  0.42964885  0.68068295  1
  Al0+  Al84  1  0.07120850  0.17608054  0.98310529  1
  Al0+  Al85  1  0.17813716  0.42885144  0.68208558  1
  Al0+  Al86  1  0.57028645  0.18059791  0.65211963  1
  Al0+  Al87  1  0.82020503  0.57119374  0.01282789  1
  Al0+  Al88  1  0.82147712  0.07088562  0.68228966  1
  Al0+  Al89  1  0.92943740  0.32042940  0.65026730  1
  Al0+  Al90  1  0.32434350  0.57166788  0.35025568  1
  Al0+  Al91  1  0.07091732  0.17662321  0.31857002  1
  Al0+  Al92  1  0.82189816  0.56978154  0.34799509  1
  Al0+  Al93  1  0.42989195  0.32039985  0.32159585  1
  Al0+  Al94  1  0.67718519  0.92940370  0.34890290  1
  Al0+  Al95  1  0.06973125  0.67994057  0.65262585  1
  Si0+  Si96  1  0.57289604  0.67855709  0.98389749  1
  Si0+  Si97  1  0.32073692  0.57372769  0.68102284  1
  Si0+  Si98  1  0.07177203  0.68211968  0.98848848  1
  Si0+  Si99  1  0.17715407  0.92804157  0.35006549  1
  Si0+  Si100  1  0.57324001  0.67634260  0.65096310  1
  Si0+  Si101  1  0.82228095  0.57340985  0.68338961  1
  Si0+  Si102  1  0.42850269  0.81816302  0.98570262  1
  Si0+  Si103  1  0.67720400  0.42785713  0.34787767  1
  Si0+  Si104  1  0.92993151  0.81851092  0.31902608  1
  Si0+  Si105  1  0.17900031  0.92606056  0.68127507  1
  Si0+  Si106  1  0.81923435  0.07084673  0.01431142  1
  Si0+  Si107  1  0.42777181  0.32466077  0.65343482  1
  Si0+  Si108  1  0.31974949  0.06986375  0.34668346  1
  Si0+  Si109  1  0.32455107  0.07184642  0.01750067  1
  Si0+  Si110  1  0.42575904  0.82319514  0.31189564  1
  Si0+  Si111  1  0.07257677  0.67920007  0.31656148  1
  Si0+  Si112  1  0.67776229  0.92762251  0.68458801  1
  Si0+  Si113  1  0.17768024  0.42687057  0.01744281  1
  Si0+  Si114  1  0.57214010  0.17595870  0.31824238  1
  Si0+  Si115  1  0.92488586  0.82292759  0.64875549  1
  Si0+  Si116  1  0.67710514  0.92821352  0.01346703  1
  Si0+  Si117  1  0.92657938  0.82101796  0.98629930  1
  Si0+  Si118  1  0.67889295  0.42658157  0.01841127  1
  Si0+  Si119  1  0.42826002  0.32480847  0.98182767  1
  O2-  O120  1  0.24809997  0.01123543  0.06127027  1
  O2-  O121  1  0.24680073  0.00099372  0.38959499  1
  O2-  O122  1  0.24314031  -0.00102476  0.72539640  1
  O2-  O123  1  0.25127482  0.49144679  0.06028880  1
  O2-  O124  1  0.25356657  0.49897198  0.39962730  1
  O2-  O125  1  0.25372996  0.50465020  0.72696487  1
  O2-  O126  1  0.74687000  0.00023119  0.05549907  1
  O2-  O127  1  0.74240829  0.00751993  0.39777962  1
  O2-  O128  1  0.74692696  -0.00511185  0.73039914  1
  O2-  O129  1  0.74787609  0.49543459  0.06149249  1
  O2-  O130  1  0.75074681  0.49122792  0.39246310  1
  O2-  O131  1  0.75391599  0.50443694  0.72706408  1
  O2-  O132  1  -0.00239594  0.24783275  0.26945356  1
  O2-  O133  1  0.00203025  0.24855745  0.60145333  1
  O2-  O134  1  0.00341742  0.25187820  0.93381913  1
  O2-  O135  1  0.00054064  0.74876927  0.27336809  1
  O2-  O136  1  -0.00769427  0.75233412  0.60588894  1
  O2-  O137  1  -0.00132428  0.75070243  0.94476981  1
  O2-  O138  1  0.50588582  0.24679744  0.27390853  1
  O2-  O139  1  0.49483344  0.25520481  0.60769341  1
  O2-  O140  1  0.49303610  0.25203133  0.93865400  1
  O2-  O141  1  0.49436457  0.75337338  0.26943563  1
  O2-  O142  1  0.50512980  0.74538927  0.60722307  1
  O2-  O143  1  0.49793254  0.74580342  0.94222063  1
  O2-  O144  1  0.06470802  0.17349416  0.09637368  1
  O2-  O145  1  0.07321718  0.17658719  0.43165955  1
  O2-  O146  1  0.07189094  0.17967130  0.76645075  1
  O2-  O147  1  0.07109647  0.68507034  0.09352994  1
  O2-  O148  1  0.07179044  0.68164432  0.42157144  1
  O2-  O149  1  0.07070025  0.68254267  0.76680054  1
  O2-  O150  1  0.56648975  0.17762924  0.10030791  1
  O2-  O151  1  0.57004864  0.17581591  0.42357821  1
  O2-  O152  1  0.56880508  0.18056045  0.76554992  1
  O2-  O153  1  0.57563918  0.68166911  0.08863553  1
  O2-  O154  1  0.57074823  0.68337266  0.43230300  1
  O2-  O155  1  0.57351351  0.67825310  0.75712824  1
  O2-  O156  1  0.18263264  0.42950513  0.23386755  1
  O2-  O157  1  0.17897563  0.42778875  0.56955043  1
  O2-  O158  1  0.17688136  0.43109388  0.91167649  1
  O2-  O159  1  0.17743056  0.92650586  0.24459261  1
  O2-  O160  1  0.18167901  0.92342215  0.57576470  1
  O2-  O161  1  0.18402305  0.92473126  0.90050122  1
  O2-  O162  1  0.67534630  0.43047431  0.24210631  1
  O2-  O163  1  0.67511556  0.43310925  0.56777520  1
  O2-  O164  1  0.67736733  0.42867963  0.91275608  1
  O2-  O165  1  0.68056681  0.92969293  0.23412201  1
  O2-  O166  1  0.67947922  0.92654726  0.57950571  1
  O2-  O167  1  0.67723201  0.92547632  0.90860000  1
  O2-  O168  1  0.43103426  0.32602387  0.08759497  1
  O2-  O169  1  0.42947819  0.31692826  0.43469422  1
  O2-  O170  1  0.43038343  0.32556550  0.75918070  1
  O2-  O171  1  0.42990821  0.81971515  0.09034681  1
  O2-  O172  1  0.42499778  0.82495149  0.41717580  1
  O2-  O173  1  0.42868313  0.81731099  0.76634695  1
  O2-  O174  1  0.93071402  0.32356269  0.09640673  1
  O2-  O175  1  0.92824755  0.32358786  0.43031954  1
  O2-  O176  1  0.93013654  0.32038554  0.76397366  1
  O2-  O177  1  0.92533596  0.82076946  0.09144995  1
  O2-  O178  1  0.93314918  0.81799325  0.42386541  1
  O2-  O179  1  0.92411619  0.82187100  0.75505069  1
  O2-  O180  1  0.32281575  0.06678154  0.24144827  1
  O2-  O181  1  0.32294855  0.06937038  0.56651251  1
  O2-  O182  1  0.32988639  0.06527641  0.91240896  1
  O2-  O183  1  0.32150000  0.56975655  0.23604492  1
  O2-  O184  1  0.32128170  0.57286018  0.57614915  1
  O2-  O185  1  0.31557538  0.57439059  0.89992693  1
  O2-  O186  1  0.81992970  0.06975587  0.23341317  1
  O2-  O187  1  0.81994801  0.06989512  0.56977195  1
  O2-  O188  1  0.81935670  0.06799096  0.90920968  1
  O2-  O189  1  0.81975636  0.57253612  0.23456185  1
  O2-  O190  1  0.82050006  0.57517613  0.57801076  1
  O2-  O191  1  0.81683476  0.57664743  0.90009406  1
  O2-  O192  1  0.04254443  0.07595490  0.26830870  1
  O2-  O193  1  0.05093393  0.07603607  0.60487265  1
  O2-  O194  1  0.04108030  0.07725345  0.93085778  1
  O2-  O195  1  0.04631443  0.58726827  0.26991943  1
  O2-  O196  1  0.03972614  0.58481934  0.59682052  1
  O2-  O197  1  0.04671522  0.59004053  0.94111608  1
  O2-  O198  1  0.54277978  0.08283465  0.27233864  1
  O2-  O199  1  0.54107037  0.08419089  0.59810462  1
  O2-  O200  1  0.53790294  0.08106169  0.93227243  1
  O2-  O201  1  0.54412353  0.58556580  0.26092984  1
  O2-  O202  1  0.54659283  0.58307859  0.60585601  1
  O2-  O203  1  0.54934648  0.58482215  0.93854701  1
  O2-  O204  1  0.16872668  0.20277095  0.26254779  1
  O2-  O205  1  0.17504866  0.20607109  0.60589901  1
  O2-  O206  1  0.17496850  0.19520692  0.93737841  1
  O2-  O207  1  0.16419627  0.71004292  0.27012080  1
  O2-  O208  1  0.16277085  0.71328062  0.59407509  1
  O2-  O209  1  0.16248359  0.71483314  0.94167778  1
  O2-  O210  1  0.66596517  0.19860602  0.27183151  1
  O2-  O211  1  0.66566468  0.21356923  0.59913622  1
  O2-  O212  1  0.66412285  0.20884161  0.93228534  1
  O2-  O213  1  0.66731276  0.71611798  0.26537575  1
  O2-  O214  1  0.66715889  0.70128883  0.60540111  1
  O2-  O215  1  0.66209039  0.71107288  0.93396114  1
  O2-  O216  1  0.08634857  0.45825577  0.06381004  1
  O2-  O217  1  0.08476920  0.45898335  0.40117498  1
  O2-  O218  1  0.08309517  0.46555540  0.73624728  1
  O2-  O219  1  0.08024682  0.95564826  0.06774839  1
  O2-  O220  1  0.08468900  0.94981064  0.39788618  1
  O2-  O221  1  0.08332692  0.94238556  0.72664247  1
  O2-  O222  1  0.58512371  0.45296650  0.06385216  1
  O2-  O223  1  0.58632540  0.45985538  0.39495083  1
  O2-  O224  1  0.58356368  0.46138046  0.73995367  1
  O2-  O225  1  0.58497334  0.95425893  0.06128605  1
  O2-  O226  1  0.57500875  0.94785087  0.39751264  1
  O2-  O227  1  0.58365750  0.95332310  0.72902616  1
  O2-  O228  1  0.19910638  0.33099004  0.06040152  1
  O2-  O229  1  0.21187966  0.32804408  0.39804595  1
  O2-  O230  1  0.21013782  0.33593257  0.74201017  1
  O2-  O231  1  0.21408720  0.83865840  0.07270757  1
  O2-  O232  1  0.20769466  0.83736980  0.39777597  1
  O2-  O233  1  0.21170184  0.83389078  0.72756194  1
  O2-  O234  1  0.70225882  0.33217818  0.06348736  1
  O2-  O235  1  0.69510476  0.33201501  0.39164511  1
  O2-  O236  1  0.70892611  0.33419186  0.73648628  1
  O2-  O237  1  0.70679489  0.83724068  0.06172577  1
  O2-  O238  1  0.71180233  0.83471154  0.40406398  1
  O2-  O239  1  0.70112371  0.83280361  0.73125762  1
  O2-  O240  1  0.46051377  0.41614387  0.26552284  1
  O2-  O241  1  0.45445071  0.41828736  0.60808162  1
  O2-  O242  1  0.45704480  0.41712151  0.93424237  1
  O2-  O243  1  0.45215062  0.91605619  0.26363336  1
  O2-  O244  1  0.46170793  0.91451313  0.59566006  1
  O2-  O245  1  0.45753446  0.90886027  0.93681407  1
  O2-  O246  1  0.96031328  0.42147717  0.26499687  1
  O2-  O247  1  0.95518243  0.42056657  0.60085415  1
  O2-  O248  1  0.95722250  0.42325533  0.93080421  1
  O2-  O249  1  0.95778752  0.90980167  0.27021070  1
  O2-  O250  1  0.95305466  0.91496626  0.60214097  1
  O2-  O251  1  0.95413778  0.91231998  0.93850058  1
  O2-  O252  1  0.33712895  0.28685494  0.26183999  1
  O2-  O253  1  0.33357637  0.29846328  0.61082356  1
  O2-  O254  1  0.33253012  0.30434812  0.93871398  1
  O2-  O255  1  0.33123541  0.79861620  0.26643311  1
  O2-  O256  1  0.33562228  0.79160794  0.59382110  1
  O2-  O257  1  0.33613960  0.78936081  0.93967444  1
  O2-  O258  1  0.82770697  0.29922572  0.26372059  1
  O2-  O259  1  0.83040343  0.29271453  0.59991517  1
  O2-  O260  1  0.83090804  0.29490858  0.93267935  1
  O2-  O261  1  0.83778770  0.79081218  0.27265273  1
  O2-  O262  1  0.83069897  0.79919300  0.60329784  1
  O2-  O263  1  0.83593074  0.79266430  0.93651844  1
  O2-  O264  1  0.41391827  0.03607918  0.06690671  1
  O2-  O265  1  0.41034391  0.03987350  0.39537120  1
  O2-  O266  1  0.41710422  0.03323409  0.73349887  1
  O2-  O267  1  0.42018599  0.54475741  0.06406560  1
  O2-  O268  1  0.42517009  0.54795961  0.39860471  1
  O2-  O269  1  0.41481576  0.55291480  0.72895244  1
  O2-  O270  1  0.90950790  0.04017125  0.06214063  1
  O2-  O271  1  0.91554486  0.03593639  0.40174979  1
  O2-  O272  1  0.91741903  0.03661524  0.73741082  1
  O2-  O273  1  0.91867929  0.54576900  0.06623723  1
  O2-  O274  1  0.91985078  0.54475844  0.40083473  1
  O2-  O275  1  0.91633308  0.54967288  0.72865866  1
  O2-  O276  1  0.30927486  0.16934224  0.05911405  1
  O2-  O277  1  0.29480366  0.16225850  0.39257684  1
  O2-  O278  1  0.29830496  0.16649656  0.73938967  1
  O2-  O279  1  0.28836982  0.66482391  0.07097150  1
  O2-  O280  1  0.29667851  0.67183819  0.39946362  1
  O2-  O281  1  0.29089668  0.66768814  0.72496583  1
  O2-  O282  1  0.79065423  0.16302274  0.05976678  1
  O2-  O283  1  0.79637325  0.17349751  0.39940585  1
  O2-  O284  1  0.78768626  0.16581374  0.73688409  1
  O2-  O285  1  0.78756452  0.66794748  0.06749474  1
  O2-  O286  1  0.78844222  0.66449340  0.40322831  1
  O2-  O287  1  0.79695077  0.66769172  0.72983379  1
