# generated using pymatgen
data_Ca2Al2SiO7
_symmetry_space_group_name_H-M   'P 1'
_cell_length_a   15.46400371
_cell_length_b   15.46519626
_cell_length_c   15.28848851
_cell_angle_alpha   89.99817225
_cell_angle_beta   89.98372978
_cell_angle_gamma   90.02454815
_symmetry_Int_Tables_number   1
_chemical_formula_structural   Ca2Al2SiO7
_chemical_formula_sum   'Ca48 Al48 Si24 O168'
_cell_volume   3656.30043753
_cell_formula_units_Z   24
loop_
 _symmetry_equiv_pos_site_id
 _symmetry_equiv_pos_as_xyz
  1  'x, y, z'
loop_
 _atom_type_symbol
 _atom_type_oxidation_number
  Ca2+  2.0
  Al0+  0.0
  Si0+  0.0
  O2-  -2.0
loop_
 _atom_site_type_symbol
 _atom_site_label
 _atom_site_symmetry_multiplicity
 _atom_site_fract_x
 _atom_site_fract_y
 _atom_site_fract_z
 _atom_site_occupancy
  Ca2+  Ca0  1  0.17021955  0.07527886  0.16254567  1
  Ca2+  Ca1  1  0.17233785  0.07787792  0.50726953  1
  Ca2+  Ca2  1  0.17414375  0.07836736  0.84171289  1
  Ca2+  Ca3  1  0.16362017  0.58531192  0.16497027  1
  Ca2+  Ca4  1  0.16933356  0.59147982  0.50611429  1
  Ca2+  Ca5  1  0.17432283  0.58499644  0.84154190  1
  Ca2+  Ca6  1  0.67545547  0.07464437  0.16883290  1
  Ca2+  Ca7  1  0.66998967  0.07588202  0.49712819  1
  Ca2+  Ca8  1  0.67391833  0.07566997  0.84280505  1
  Ca2+  Ca9  1  0.67417497  0.58710748  0.16427227  1
  Ca2+  Ca10  1  0.68230640  0.59032317  0.50315708  1
  Ca2+  Ca11  1  0.67936558  0.58230371  0.84367824  1
  Ca2+  Ca12  1  0.08446524  0.33221166  0.15872058  1
  Ca2+  Ca13  1  0.07621156  0.33385568  0.50107470  1
  Ca2+  Ca14  1  0.08043109  0.33614231  0.83109951  1
  Ca2+  Ca15  1  0.07790708  0.82431376  0.16053049  1
  Ca2+  Ca16  1  0.07307325  0.82192218  0.49431228  1
  Ca2+  Ca17  1  0.08025274  0.82587673  0.82980540  1
  Ca2+  Ca18  1  0.57983572  0.33475264  0.15413558  1
  Ca2+  Ca19  1  0.57643974  0.33373408  0.49895428  1
  Ca2+  Ca20  1  0.57194534  0.34189547  0.83266258  1
  Ca2+  Ca21  1  0.58240840  0.83672609  0.16167899  1
  Ca2+  Ca22  1  0.57615047  0.83611399  0.49273046  1
  Ca2+  Ca23  1  0.58836460  0.82855697  0.83694773  1
  Ca2+  Ca24  1  0.33267361  0.42240860  0.15977173  1
  Ca2+  Ca25  1  0.33016354  0.42409037  0.51041936  1
  Ca2+  Ca26  1  0.33074459  0.42212544  0.84159168  1
  Ca2+  Ca27  1  0.32861695  0.91031165  0.16761008  1
  Ca2+  Ca28  1  0.33382571  0.91892930  0.50704904  1
  Ca2+  Ca29  1  0.32694369  0.92804834  0.84230072  1
  Ca2+  Ca30  1  0.83101011  0.43034960  0.16589387  1
  Ca2+  Ca31  1  0.83744596  0.42839837  0.50612217  1
  Ca2+  Ca32  1  0.83270594  0.42526329  0.83976390  1
  Ca2+  Ca33  1  0.82474238  0.91879815  0.17438442  1
  Ca2+  Ca34  1  0.83298996  0.90802216  0.50076507  1
  Ca2+  Ca35  1  0.83187244  0.91875004  0.84264296  1
  Ca2+  Ca36  1  0.41651060  0.17302812  0.15502638  1
  Ca2+  Ca37  1  0.41274606  0.17068743  0.49941710  1
  Ca2+  Ca38  1  0.40756931  0.17656297  0.83005223  1
  Ca2+  Ca39  1  0.42385686  0.67100961  0.15659608  1
  Ca2+  Ca40  1  0.41694106  0.67151668  0.49381818  1
  Ca2+  Ca41  1  0.42330088  0.65447671  0.83289763  1
  Ca2+  Ca42  1  0.90929433  0.16473445  0.16108117  1
  Ca2+  Ca43  1  0.90960047  0.17327109  0.49584615  1
  Ca2+  Ca44  1  0.91435572  0.17260881  0.82818719  1
  Ca2+  Ca45  1  0.92147038  0.66311315  0.16149607  1
  Ca2+  Ca46  1  0.92231168  0.66945504  0.49492925  1
  Ca2+  Ca47  1  0.92715899  0.66296780  0.82612116  1
  Al0+  Al48  1  0.00281252  0.00146458  0.00523119  1
  Al0+  Al49  1  0.00231235  0.00108622  0.33492898  1
  Al0+  Al50  1  -0.00081044  -0.00125666  0.66332490  1
  Al0+  Al51  1  0.00140050  0.49926659  0.00188582  1
  Al0+  Al52  1  0.00010265  0.49614540  0.33381172  1
  Al0+  Al53  1  0.00098688  0.49817973  0.66160256  1
  Al0+  Al54  1  0.50175880  0.00253742  0.00367022  1
  Al0+  Al55  1  0.50043280  0.00259704  0.33242470  1
  Al0+  Al56  1  0.50138702  0.00080653  0.67165785  1
  Al0+  Al57  1  0.49956775  0.50069371  -0.00115149  1
  Al0+  Al58  1  0.49745780  0.49975787  0.33373655  1
  Al0+  Al59  1  0.50013433  0.49882894  0.66146309  1
  Al0+  Al60  1  0.24896511  0.25067092  0.00235478  1
  Al0+  Al61  1  0.24853688  0.25132506  0.33408169  1
  Al0+  Al62  1  0.25059747  0.25039791  0.66374129  1
  Al0+  Al63  1  0.25028863  0.75147112  0.00201956  1
  Al0+  Al64  1  0.25011348  0.74972495  0.32697223  1
  Al0+  Al65  1  0.25171554  0.75018557  0.66918427  1
  Al0+  Al66  1  0.74844767  0.25105746  0.00400760  1
  Al0+  Al67  1  0.74748842  0.24951900  0.33618832  1
  Al0+  Al68  1  0.74747444  0.24796269  0.66056178  1
  Al0+  Al69  1  0.74970285  0.75164105  0.00275936  1
  Al0+  Al70  1  0.74887615  0.74932094  0.33951626  1
  Al0+  Al71  1  0.74962051  0.74890579  0.66888031  1
  Al0+  Al72  1  0.82262193  0.07240355  0.01228877  1
  Al0+  Al73  1  0.42903970  0.32053082  0.65102759  1
  Al0+  Al74  1  0.07081265  0.67806259  0.98461896  1
  Al0+  Al75  1  0.06957754  0.67673994  0.31588545  1
  Al0+  Al76  1  0.92696510  0.82125240  0.65280355  1
  Al0+  Al77  1  0.92715234  0.82174154  0.31706776  1
  Al0+  Al78  1  0.17881646  0.42981481  0.01401605  1
  Al0+  Al79  1  0.82318006  0.57185477  0.01337608  1
  Al0+  Al80  1  0.07344410  0.67867305  0.65271781  1
  Al0+  Al81  1  0.42867550  0.31992852  0.98569110  1
  Al0+  Al82  1  0.82120788  0.56885201  0.34860353  1
  Al0+  Al83  1  0.67766490  0.43030768  0.01242102  1
  Al0+  Al84  1  0.32116115  0.07126502  0.67983097  1
  Al0+  Al85  1  0.82312957  0.07111892  0.35110258  1
  Al0+  Al86  1  0.43015796  0.82241250  0.32040710  1
  Al0+  Al87  1  0.82163438  0.56987376  0.68100154  1
  Al0+  Al88  1  0.67831376  0.92873143  0.35072813  1
  Al0+  Al89  1  0.17942612  0.92741357  0.01594813  1
  Al0+  Al90  1  0.32230540  0.57228892  0.01527674  1
  Al0+  Al91  1  0.32097313  0.07226216  0.01530224  1
  Al0+  Al92  1  0.57127324  0.68070704  0.98623128  1
  Al0+  Al93  1  0.32203917  0.57207215  0.67921285  1
  Al0+  Al94  1  0.92732165  0.31944870  0.65322577  1
  Al0+  Al95  1  0.67974426  0.92789520  0.01489619  1
  Si0+  Si96  1  0.57088910  0.67840499  0.65134732  1
  Si0+  Si97  1  0.31976398  0.07249595  0.34865013  1
  Si0+  Si98  1  0.67903602  0.92858999  0.68282593  1
  Si0+  Si99  1  0.17852769  0.42782562  0.68155474  1
  Si0+  Si100  1  0.07324998  0.17967946  0.31796736  1
  Si0+  Si101  1  0.82102049  0.07196922  0.67999744  1
  Si0+  Si102  1  0.07071788  0.17856295  0.98516582  1
  Si0+  Si103  1  0.57115481  0.17484494  0.64753187  1
  Si0+  Si104  1  0.92784425  0.32008531  0.98645592  1
  Si0+  Si105  1  0.92784742  0.31818815  0.31697920  1
  Si0+  Si106  1  0.18080489  0.92729747  0.35012042  1
  Si0+  Si107  1  0.42731040  0.32137330  0.31692349  1
  Si0+  Si108  1  0.57000198  0.18124629  0.31665153  1
  Si0+  Si109  1  0.17984999  0.42667563  0.35084718  1
  Si0+  Si110  1  0.92920997  0.82362481  0.98537228  1
  Si0+  Si111  1  0.67815629  0.42596377  0.68111210  1
  Si0+  Si112  1  0.07183388  0.17727033  0.65009231  1
  Si0+  Si113  1  0.67481214  0.42787494  0.35132813  1
  Si0+  Si114  1  0.57103149  0.67649976  0.31808210  1
  Si0+  Si115  1  0.31968629  0.57087346  0.34816779  1
  Si0+  Si116  1  0.43152252  0.82270636  0.65532969  1
  Si0+  Si117  1  0.42818548  0.82491194  0.98182889  1
  Si0+  Si118  1  0.17743949  0.92813757  0.68241903  1
  Si0+  Si119  1  0.57340592  0.17822626  0.98204186  1
  O2-  O120  1  0.25577220  -0.00470556  0.06673235  1
  O2-  O121  1  0.25274960  -0.00156444  0.39220346  1
  O2-  O122  1  0.24461299  -0.00107662  0.72561110  1
  O2-  O123  1  0.24704521  0.50411256  0.06619354  1
  O2-  O124  1  0.24734149  0.50164303  0.39166553  1
  O2-  O125  1  0.24556102  0.49848393  0.72382752  1
  O2-  O126  1  0.75405497  -0.00174727  0.06277089  1
  O2-  O127  1  0.75596703  -0.00530760  0.40224388  1
  O2-  O128  1  0.75452561  -0.00311831  0.72185624  1
  O2-  O129  1  0.74820993  0.50256354  0.06320022  1
  O2-  O130  1  0.74343254  0.49612507  0.39562506  1
  O2-  O131  1  0.74854051  0.49223241  0.72525458  1
  O2-  O132  1  -0.00405824  0.24391677  0.27571888  1
  O2-  O133  1  0.00059437  0.24307052  0.60520599  1
  O2-  O134  1  -0.00292310  0.24719409  0.94378783  1
  O2-  O135  1  -0.00466251  0.74665222  0.26632793  1
  O2-  O136  1  -0.00120116  0.74846166  0.60380249  1
  O2-  O137  1  -0.00494965  0.75284944  0.93984425  1
  O2-  O138  1  0.50069815  0.25385548  0.27462648  1
  O2-  O139  1  0.50223760  0.24428278  0.60363628  1
  O2-  O140  1  0.50300357  0.24502447  0.93769411  1
  O2-  O141  1  0.50624271  0.74909164  0.27486586  1
  O2-  O142  1  0.49861427  0.74914839  0.61068094  1
  O2-  O143  1  0.49526073  0.75437136  0.93749983  1
  O2-  O144  1  0.07193849  0.17995780  0.09042267  1
  O2-  O145  1  0.07857840  0.18458357  0.42303376  1
  O2-  O146  1  0.07179583  0.17767319  0.75553351  1
  O2-  O147  1  0.06763185  0.67758746  0.09742688  1
  O2-  O148  1  0.07290112  0.67887184  0.42963222  1
  O2-  O149  1  0.07408144  0.68040676  0.76609031  1
  O2-  O150  1  0.57328713  0.18076328  0.08785465  1
  O2-  O151  1  0.56768736  0.18171743  0.42212407  1
  O2-  O152  1  0.57344515  0.17301238  0.75232767  1
  O2-  O153  1  0.56987496  0.68145524  0.09938235  1
  O2-  O154  1  0.56605873  0.67385660  0.42426642  1
  O2-  O155  1  0.57190112  0.67825536  0.75614760  1
  O2-  O156  1  0.18207812  0.42098417  0.24654381  1
  O2-  O157  1  0.18087804  0.42544756  0.57532444  1
  O2-  O158  1  0.17857974  0.42786299  0.90041113  1
  O2-  O159  1  0.18163895  0.92877996  0.24555695  1
  O2-  O160  1  0.18039137  0.92897654  0.57635394  1
  O2-  O161  1  0.17772422  0.93179490  0.90190642  1
  O2-  O162  1  0.67361906  0.42724098  0.24625824  1
  O2-  O163  1  0.67784064  0.42778483  0.57508830  1
  O2-  O164  1  0.68056983  0.42957992  0.89855627  1
  O2-  O165  1  0.67484709  0.93406427  0.23817151  1
  O2-  O166  1  0.67431725  0.92991241  0.57806941  1
  O2-  O167  1  0.68124939  0.92960373  0.90037739  1
  O2-  O168  1  0.42984395  0.31788507  0.09939534  1
  O2-  O169  1  0.42682570  0.32011852  0.42222017  1
  O2-  O170  1  0.42912768  0.32094587  0.76343484  1
  O2-  O171  1  0.43042756  0.82448907  0.08763548  1
  O2-  O172  1  0.42893637  0.82052864  0.43467864  1
  O2-  O173  1  0.43454839  0.82608960  0.75962696  1
  O2-  O174  1  0.92913524  0.31874147  0.09176193  1
  O2-  O175  1  0.93016714  0.31867008  0.42235918  1
  O2-  O176  1  0.92711372  0.31733007  0.76631950  1
  O2-  O177  1  0.93087030  0.82465795  0.09064615  1
  O2-  O178  1  0.93159594  0.81941942  0.43082463  1
  O2-  O179  1  0.92777350  0.82484927  0.76623472  1
  O2-  O180  1  0.31711015  0.07599106  0.24435891  1
  O2-  O181  1  0.32027229  0.06810563  0.56580434  1
  O2-  O182  1  0.31612395  0.07301371  0.90148617  1
  O2-  O183  1  0.32289370  0.56808386  0.24389547  1
  O2-  O184  1  0.32249306  0.57142200  0.56523544  1
  O2-  O185  1  0.32251183  0.56768798  0.90151564  1
  O2-  O186  1  0.81791485  0.07462411  0.23828043  1
  O2-  O187  1  0.81822943  0.07403278  0.57537399  1
  O2-  O188  1  0.82143405  0.07288421  0.89778031  1
  O2-  O189  1  0.82146166  0.56603433  0.23603715  1
  O2-  O190  1  0.81941097  0.56963816  0.56763667  1
  O2-  O191  1  0.82425939  0.56845984  0.89965172  1
  O2-  O192  1  0.05423815  0.08541649  0.27294097  1
  O2-  O193  1  0.04997472  0.08314610  0.60334993  1
  O2-  O194  1  0.04606469  0.08648410  0.93653458  1
  O2-  O195  1  0.04488232  0.57511647  0.26743223  1
  O2-  O196  1  0.04958696  0.57929657  0.59960609  1
  O2-  O197  1  0.04105736  0.58018686  0.93185732  1
  O2-  O198  1  0.54023031  0.09090997  0.26890286  1
  O2-  O199  1  0.54240021  0.08211734  0.60039632  1
  O2-  O200  1  0.55073239  0.08357927  0.93665625  1
  O2-  O201  1  0.54102269  0.58416587  0.27134228  1
  O2-  O202  1  0.54471131  0.58763515  0.60133791  1
  O2-  O203  1  0.54062956  0.58451385  0.93096803  1
  O2-  O204  1  0.16183711  0.21520896  0.26831363  1
  O2-  O205  1  0.16377865  0.20578018  0.60141482  1
  O2-  O206  1  0.16063617  0.21004511  0.93649337  1
  O2-  O207  1  0.16793064  0.70649711  0.26391501  1
  O2-  O208  1  0.17214108  0.71002506  0.59957350  1
  O2-  O209  1  0.16924130  0.70878660  0.93382925  1
  O2-  O210  1  0.66230528  0.20820657  0.27015772  1
  O2-  O211  1  0.66315659  0.20081897  0.59770295  1
  O2-  O212  1  0.66673751  0.20550200  0.93557218  1
  O2-  O213  1  0.66664499  0.69702940  0.27634481  1
  O2-  O214  1  0.66136896  0.70940519  0.60344574  1
  O2-  O215  1  0.66796190  0.71253982  0.93102971  1
  O2-  O216  1  0.08067232  0.45358677  0.06919928  1
  O2-  O217  1  0.08629330  0.44911242  0.39689819  1
  O2-  O218  1  0.08364208  0.44870912  0.72552473  1
  O2-  O219  1  0.08500709  0.96225145  0.07216319  1
  O2-  O220  1  0.09056196  0.95750685  0.39888659  1
  O2-  O221  1  0.08316343  0.95302964  0.72698311  1
  O2-  O222  1  0.58012687  0.45695997  0.06636017  1
  O2-  O223  1  0.58020057  0.45291638  0.39747217  1
  O2-  O224  1  0.58465862  0.45407383  0.72494627  1
  O2-  O225  1  0.58227286  0.95759857  0.06781489  1
  O2-  O226  1  0.58100684  0.96602813  0.40430580  1
  O2-  O227  1  0.59003311  0.96046148  0.73285762  1
  O2-  O228  1  0.20919583  0.33312812  0.06937882  1
  O2-  O229  1  0.21247263  0.33741753  0.40162670  1
  O2-  O230  1  0.20512684  0.33443987  0.72698984  1
  O2-  O231  1  0.20514184  0.82999576  0.07068556  1
  O2-  O232  1  0.21076259  0.83557621  0.39648665  1
  O2-  O233  1  0.20597312  0.83662837  0.72961076  1
  O2-  O234  1  0.70555928  0.33317629  0.06789849  1
  O2-  O235  1  0.69954664  0.33419089  0.39764424  1
  O2-  O236  1  0.69924180  0.33011677  0.72390815  1
  O2-  O237  1  0.70394905  0.83041410  0.06980706  1
  O2-  O238  1  0.69703547  0.82827021  0.40403704  1
  O2-  O239  1  0.70361247  0.83617907  0.72984920  1
  O2-  O240  1  0.45202959  0.41465160  0.27138627  1
  O2-  O241  1  0.46196964  0.41541581  0.59300761  1
  O2-  O242  1  0.45981367  0.41601863  0.93142549  1
  O2-  O243  1  0.45705862  0.92046575  0.26769404  1
  O2-  O244  1  0.46244538  0.91324736  0.60576976  1
  O2-  O245  1  0.45615657  0.91893739  0.93687803  1
  O2-  O246  1  0.95979181  0.40787126  0.26903428  1
  O2-  O247  1  0.96148248  0.41303177  0.59517898  1
  O2-  O248  1  0.95885400  0.41013521  0.93813848  1
  O2-  O249  1  0.95787049  0.92166052  0.26824611  1
  O2-  O250  1  0.95328980  0.92014745  0.59805626  1
  O2-  O251  1  0.95816957  0.91734204  0.93977648  1
  O2-  O252  1  0.33613709  0.28992503  0.27117340  1
  O2-  O253  1  0.33273378  0.28987444  0.59485500  1
  O2-  O254  1  0.33165984  0.28781222  0.93277080  1
  O2-  O255  1  0.33561439  0.79017817  0.26470876  1
  O2-  O256  1  0.33871076  0.79839088  0.60817166  1
  O2-  O257  1  0.33308102  0.80357832  0.93790453  1
  O2-  O258  1  0.83390436  0.29351896  0.27266882  1
  O2-  O259  1  0.83134276  0.28947862  0.59644762  1
  O2-  O260  1  0.83567125  0.29362470  0.93909545  1
  O2-  O261  1  0.82453620  0.79882159  0.27122318  1
  O2-  O262  1  0.82776535  0.79279313  0.60087506  1
  O2-  O263  1  0.83390861  0.80254126  0.94147798  1
  O2-  O264  1  0.42202822  0.05340508  0.06494398  1
  O2-  O265  1  0.41282829  0.04885573  0.39492491  1
  O2-  O266  1  0.41703866  0.04106846  0.73434554  1
  O2-  O267  1  0.41814558  0.53902802  0.06954425  1
  O2-  O268  1  0.41085708  0.54148649  0.39737417  1
  O2-  O269  1  0.41924997  0.53846037  0.72977091  1
  O2-  O270  1  0.92210697  0.05186189  0.06477383  1
  O2-  O271  1  0.92587678  0.05413233  0.40030481  1
  O2-  O272  1  0.91558948  0.05061437  0.72468991  1
  O2-  O273  1  0.91775592  0.53696448  0.06834007  1
  O2-  O274  1  0.91670382  0.53220685  0.40212055  1
  O2-  O275  1  0.91968806  0.53823678  0.73054072  1
  O2-  O276  1  0.28595997  0.16719479  0.07015802  1
  O2-  O277  1  0.28721557  0.16305364  0.39750472  1
  O2-  O278  1  0.29069523  0.16880763  0.73086183  1
  O2-  O279  1  0.30066333  0.67240068  0.06576269  1
  O2-  O280  1  0.29327473  0.66395534  0.39407514  1
  O2-  O281  1  0.29722996  0.66941399  0.73407808  1
  O2-  O282  1  0.79171334  0.16885309  0.06731765  1
  O2-  O283  1  0.78686391  0.16848345  0.40436017  1
  O2-  O284  1  0.78911600  0.16273189  0.72732426  1
  O2-  O285  1  0.79632314  0.66992207  0.06562522  1
  O2-  O286  1  0.79161811  0.66494727  0.40418277  1
  O2-  O287  1  0.78803253  0.66529582  0.73493940  1
