# generated using pymatgen
data_Ca2Al2SiO7
_symmetry_space_group_name_H-M   'P 1'
_cell_length_a   15.46260932
_cell_length_b   15.46147155
_cell_length_c   15.28700243
_cell_angle_alpha   90.00630466
_cell_angle_beta   90.00433360
_cell_angle_gamma   90.01093324
_symmetry_Int_Tables_number   1
_chemical_formula_structural   Ca2Al2SiO7
_chemical_formula_sum   'Ca48 Al48 Si24 O168'
_cell_volume   3654.73533219
_cell_formula_units_Z   24
loop_
 _symmetry_equiv_pos_site_id
 _symmetry_equiv_pos_as_xyz
  1  'x, y, z'
loop_
 _atom_type_symbol
 _atom_type_oxidation_number
  Ca2+  2.0
  Al0+  0.0
  Si0+  0.0
  O2-  -2.0
loop_
 _atom_site_type_symbol
 _atom_site_label
 _atom_site_symmetry_multiplicity
 _atom_site_fract_x
 _atom_site_fract_y
 _atom_site_fract_z
 _atom_site_occupancy
  Ca2+  Ca0  1  0.17379986  0.08097401  0.16298253  1
  Ca2+  Ca1  1  0.16836806  0.07797055  0.51361747  1
  Ca2+  Ca2  1  0.17159676  0.07314810  0.83363356  1
  Ca2+  Ca3  1  0.16655224  0.58009612  0.16765987  1
  Ca2+  Ca4  1  0.16225733  0.57999664  0.50449283  1
  Ca2+  Ca5  1  0.17454462  0.58537979  0.84040935  1
  Ca2+  Ca6  1  0.66837152  0.07234339  0.17201582  1
  Ca2+  Ca7  1  0.67971671  0.07580883  0.50476523  1
  Ca2+  Ca8  1  0.67063545  0.07375069  0.83332436  1
  Ca2+  Ca9  1  0.66458876  0.57551570  0.16579466  1
  Ca2+  Ca10  1  0.66901453  0.58143651  0.50588248  1
  Ca2+  Ca11  1  0.66780143  0.57818398  0.83897273  1
  Ca2+  Ca12  1  0.08281529  0.33886814  0.16365007  1
  Ca2+  Ca13  1  0.08236628  0.32457512  0.49393961  1
  Ca2+  Ca14  1  0.09190015  0.32512018  0.82914632  1
  Ca2+  Ca15  1  0.08852195  0.82265830  0.15814462  1
  Ca2+  Ca16  1  0.08669610  0.82585423  0.50108844  1
  Ca2+  Ca17  1  0.08905035  0.82760077  0.82441232  1
  Ca2+  Ca18  1  0.57707829  0.33047009  0.15402864  1
  Ca2+  Ca19  1  0.57475189  0.33182513  0.49902302  1
  Ca2+  Ca20  1  0.57200530  0.33444618  0.82930224  1
  Ca2+  Ca21  1  0.58035142  0.83803676  0.15829212  1
  Ca2+  Ca22  1  0.57824543  0.84749720  0.50193954  1
  Ca2+  Ca23  1  0.57361568  0.84419209  0.83034789  1
  Ca2+  Ca24  1  0.32251228  0.41793896  0.16445343  1
  Ca2+  Ca25  1  0.32775717  0.42316890  0.50861107  1
  Ca2+  Ca26  1  0.33458853  0.42717072  0.84101363  1
  Ca2+  Ca27  1  0.33142934  0.91428532  0.16124009  1
  Ca2+  Ca28  1  0.32772733  0.92286001  0.51390065  1
  Ca2+  Ca29  1  0.32703101  0.91768410  0.83944090  1
  Ca2+  Ca30  1  0.83061192  0.41373325  0.17103707  1
  Ca2+  Ca31  1  0.83699766  0.41447592  0.50083619  1
  Ca2+  Ca32  1  0.82625492  0.41730308  0.83967303  1
  Ca2+  Ca33  1  0.82071082  0.91940045  0.17556840  1
  Ca2+  Ca34  1  0.82760690  0.92009946  0.51297556  1
  Ca2+  Ca35  1  0.82920057  0.91446811  0.83394760  1
  Ca2+  Ca36  1  0.41540731  0.17128127  0.15529751  1
  Ca2+  Ca37  1  0.41126929  0.16988836  0.50190354  1
  Ca2+  Ca38  1  0.40144758  0.17707144  0.82873626  1
  Ca2+  Ca39  1  0.41649963  0.67196588  0.15656948  1
  Ca2+  Ca40  1  0.41180135  0.67308677  0.50462650  1
  Ca2+  Ca41  1  0.40887915  0.67630465  0.82905546  1
  Ca2+  Ca42  1  0.91082246  0.17045821  0.16770818  1
  Ca2+  Ca43  1  0.91861977  0.16302346  0.49726565  1
  Ca2+  Ca44  1  0.92319941  0.16523024  0.82417976  1
  Ca2+  Ca45  1  0.93053763  0.66474518  0.16121636  1
  Ca2+  Ca46  1  0.92739700  0.67346894  0.49865979  1
  Ca2+  Ca47  1  0.93112942  0.67357415  0.82646711  1
  Al0+  Al48  1  -0.00001537  0.00102109  0.00543237  1
  Al0+  Al49  1  0.00152326  -0.00015843  0.33263474  1
  Al0+  Al50  1  -0.00017602  0.00009437  0.66638077  1
  Al0+  Al51  1  -0.00038724  0.50036350  -0.00386936  1
  Al0+  Al52  1  -0.00020932  0.49830423  0.32981086  1
  Al0+  Al53  1  -0.00175560  0.49925318  0.66517604  1
  Al0+  Al54  1  0.50286271  0.00150988  0.00288803  1
  Al0+  Al55  1  0.49929454  0.00180733  0.33564692  1
  Al0+  Al56  1  0.50175082  0.00467414  0.66776669  1
  Al0+  Al57  1  0.50111600  0.49997640  0.00465848  1
  Al0+  Al58  1  0.49852739  0.50183148  0.33273824  1
  Al0+  Al59  1  0.49803066  0.49979810  0.66411592  1
  Al0+  Al60  1  0.24937112  0.25082274  0.00313807  1
  Al0+  Al61  1  0.24866946  0.25211746  0.33534109  1
  Al0+  Al62  1  0.24745601  0.25135477  0.65792757  1
  Al0+  Al63  1  0.25201896  0.74974631  0.00025871  1
  Al0+  Al64  1  0.25252780  0.75013951  0.32880321  1
  Al0+  Al65  1  0.25252089  0.74791041  0.66263411  1
  Al0+  Al66  1  0.74939670  0.25023445  0.00188856  1
  Al0+  Al67  1  0.74825499  0.24820593  0.33309284  1
  Al0+  Al68  1  0.74773627  0.24927902  0.66996778  1
  Al0+  Al69  1  0.75185629  0.74948925  0.00499669  1
  Al0+  Al70  1  0.74715313  0.74730682  0.33650768  1
  Al0+  Al71  1  0.75002314  0.74770884  0.66835596  1
  Al0+  Al72  1  0.18025086  0.92731345  0.67919916  1
  Al0+  Al73  1  0.82276828  0.07174365  0.68325592  1
  Al0+  Al74  1  0.67967686  0.42884324  0.01312918  1
  Al0+  Al75  1  0.32068383  0.56928834  0.67957123  1
  Al0+  Al76  1  0.82156147  0.07074963  0.34862192  1
  Al0+  Al77  1  0.67910221  0.92692254  0.68394786  1
  Al0+  Al78  1  0.43223146  0.82139317  0.98642132  1
  Al0+  Al79  1  0.07141128  0.67959800  0.98503693  1
  Al0+  Al80  1  0.32113945  0.07466671  0.68001693  1
  Al0+  Al81  1  0.07358606  0.67777554  0.65109617  1
  Al0+  Al82  1  0.67773374  0.92679943  0.35058361  1
  Al0+  Al83  1  0.17750619  0.42891674  0.01346997  1
  Al0+  Al84  1  0.68084392  0.92902972  0.01427137  1
  Al0+  Al85  1  0.17826362  0.92748191  0.01542641  1
  Al0+  Al86  1  0.92794549  0.82077096  0.65286740  1
  Al0+  Al87  1  0.17808022  0.43087547  0.34893589  1
  Al0+  Al88  1  0.32122729  0.07152926  0.01395027  1
  Al0+  Al89  1  0.42857993  0.32180129  0.65159343  1
  Al0+  Al90  1  0.07035744  0.68032687  0.31761673  1
  Al0+  Al91  1  0.43139576  0.82344881  0.65394045  1
  Al0+  Al92  1  0.42858817  0.32052291  0.98661067  1
  Al0+  Al93  1  0.92930182  0.31786744  0.31956222  1
  Al0+  Al94  1  0.06922504  0.17953182  0.65396608  1
  Al0+  Al95  1  0.32176546  0.57240996  0.01565642  1
  Si0+  Si96  1  0.42774996  0.32293004  0.31658955  1
  Si0+  Si97  1  0.57233439  0.67599264  0.31709108  1
  Si0+  Si98  1  0.32258936  0.57303185  0.35163312  1
  Si0+  Si99  1  0.92751789  0.82313496  0.98610363  1
  Si0+  Si100  1  0.92719220  0.32042566  0.98453986  1
  Si0+  Si101  1  0.67687266  0.42855892  0.34875985  1
  Si0+  Si102  1  0.82085238  0.56854298  0.34833265  1
  Si0+  Si103  1  0.57188201  0.67670798  0.65079771  1
  Si0+  Si104  1  0.17555182  0.42887548  0.68150370  1
  Si0+  Si105  1  0.31969095  0.07202327  0.34814034  1
  Si0+  Si106  1  0.82234912  0.57075457  0.01753784  1
  Si0+  Si107  1  0.57482783  0.67759568  0.98450927  1
  Si0+  Si108  1  0.18117378  0.92684078  0.34709681  1
  Si0+  Si109  1  0.56790087  0.18086307  0.31779160  1
  Si0+  Si110  1  0.82329678  0.07320886  0.01820166  1
  Si0+  Si111  1  0.67788881  0.42958698  0.68022559  1
  Si0+  Si112  1  0.43229721  0.82189066  0.31812590  1
  Si0+  Si113  1  0.82198428  0.57001772  0.68194590  1
  Si0+  Si114  1  0.07051250  0.17881423  0.98596307  1
  Si0+  Si115  1  0.92425934  0.32151891  0.65169075  1
  Si0+  Si116  1  0.57356072  0.17854113  0.98187538  1
  Si0+  Si117  1  0.07482785  0.17610526  0.31364331  1
  Si0+  Si118  1  0.92584805  0.82211178  0.31696811  1
  Si0+  Si119  1  0.57423399  0.17981067  0.64766666  1
  O2-  O120  1  0.25175287  -0.00174711  0.06610945  1
  O2-  O121  1  0.24641635  0.00321572  0.38903108  1
  O2-  O122  1  0.25496922  -0.00287762  0.72870759  1
  O2-  O123  1  0.24776504  0.50194797  0.06486610  1
  O2-  O124  1  0.25273584  0.50549862  0.39524366  1
  O2-  O125  1  0.24252713  0.49837940  0.72551676  1
  O2-  O126  1  0.75667155  0.00216923  0.06117053  1
  O2-  O127  1  0.75718649  -0.00831089  0.39819581  1
  O2-  O128  1  0.75401901  -0.00338369  0.73278256  1
  O2-  O129  1  0.75407199  0.50204778  0.06281656  1
  O2-  O130  1  0.74819105  0.49868946  0.39169656  1
  O2-  O131  1  0.75046863  0.49856630  0.72275068  1
  O2-  O132  1  0.00271595  0.24258744  0.27081866  1
  O2-  O133  1  -0.00797899  0.25252738  0.60790638  1
  O2-  O134  1  -0.00118782  0.25011900  0.94368593  1
  O2-  O135  1  -0.00357403  0.75646824  0.27082529  1
  O2-  O136  1  0.00276129  0.75189599  0.60196281  1
  O2-  O137  1  0.00007991  0.75904128  0.94157106  1
  O2-  O138  1  0.49769150  0.25160059  0.27376292  1
  O2-  O139  1  0.50141960  0.24533089  0.60392643  1
  O2-  O140  1  0.50189883  0.24469433  0.93866399  1
  O2-  O141  1  0.50557978  0.75188303  0.27756474  1
  O2-  O142  1  0.50884499  0.75067117  0.60625615  1
  O2-  O143  1  0.50753761  0.74651769  0.94011624  1
  O2-  O144  1  0.06916362  0.17907208  0.09120661  1
  O2-  O145  1  0.07751905  0.17758565  0.41897384  1
  O2-  O146  1  0.07019672  0.18286453  0.76738826  1
  O2-  O147  1  0.06771014  0.67816147  0.09866715  1
  O2-  O148  1  0.06921622  0.68091466  0.43030813  1
  O2-  O149  1  0.07061013  0.67540304  0.76438143  1
  O2-  O150  1  0.57492027  0.18159751  0.08822000  1
  O2-  O151  1  0.56623185  0.18307218  0.42265085  1
  O2-  O152  1  0.58066490  0.18450774  0.75259937  1
  O2-  O153  1  0.57499029  0.67813073  0.09065640  1
  O2-  O154  1  0.57155753  0.66777471  0.42156526  1
  O2-  O155  1  0.57073911  0.67039035  0.75577722  1
  O2-  O156  1  0.17984934  0.43083355  0.23620094  1
  O2-  O157  1  0.17585381  0.42983779  0.57550644  1
  O2-  O158  1  0.17836728  0.42747241  0.90011066  1
  O2-  O159  1  0.18468675  0.92505294  0.24224605  1
  O2-  O160  1  0.18206465  0.92915246  0.56457249  1
  O2-  O161  1  0.17688561  0.92876609  0.90252079  1
  O2-  O162  1  0.67634583  0.42998599  0.24389037  1
  O2-  O163  1  0.67806780  0.43107611  0.57453512  1
  O2-  O164  1  0.68170094  0.43014606  0.89978979  1
  O2-  O165  1  0.67602132  0.92978026  0.23675627  1
  O2-  O166  1  0.68023227  0.92979810  0.57031970  1
  O2-  O167  1  0.68197031  0.92973312  0.90195727  1
  O2-  O168  1  0.43110911  0.31844991  0.10049419  1
  O2-  O169  1  0.43012500  0.32327188  0.42173522  1
  O2-  O170  1  0.43125178  0.32381484  0.76438422  1
  O2-  O171  1  0.43508078  0.82004449  0.10045750  1
  O2-  O172  1  0.43112655  0.82208880  0.42314493  1
  O2-  O173  1  0.43123293  0.82155273  0.76648302  1
  O2-  O174  1  0.92480052  0.31933402  0.08967426  1
  O2-  O175  1  0.92978649  0.31800499  0.43252853  1
  O2-  O176  1  0.92290311  0.32277294  0.75740652  1
  O2-  O177  1  0.92548303  0.81920585  0.09196328  1
  O2-  O178  1  0.92596694  0.81931669  0.42217625  1
  O2-  O179  1  0.92576263  0.81571002  0.76645582  1
  O2-  O180  1  0.32174097  0.07221957  0.24326710  1
  O2-  O181  1  0.31750490  0.07327782  0.56534222  1
  O2-  O182  1  0.31667340  0.07381624  0.90128246  1
  O2-  O183  1  0.32521912  0.57258383  0.24648740  1
  O2-  O184  1  0.32315529  0.56664350  0.56607565  1
  O2-  O185  1  0.32226655  0.57112560  0.90222219  1
  O2-  O186  1  0.81538260  0.07244721  0.23481158  1
  O2-  O187  1  0.81922023  0.07479765  0.56984956  1
  O2-  O188  1  0.82392441  0.07581344  0.91313420  1
  O2-  O189  1  0.81902851  0.56690271  0.24333021  1
  O2-  O190  1  0.82149350  0.56797383  0.57645098  1
  O2-  O191  1  0.82080265  0.56921520  0.91186393  1
  O2-  O192  1  0.05415039  0.08084486  0.26823910  1
  O2-  O193  1  0.04151964  0.08331460  0.59810628  1
  O2-  O194  1  0.04264184  0.08657202  0.93956629  1
  O2-  O195  1  0.03599930  0.58453794  0.26441911  1
  O2-  O196  1  0.03897432  0.57997056  0.59829174  1
  O2-  O197  1  0.03683308  0.58437409  0.93012975  1
  O2-  O198  1  0.53870743  0.08906753  0.27040977  1
  O2-  O199  1  0.55202480  0.08622472  0.60089447  1
  O2-  O200  1  0.55257353  0.08387829  0.93827392  1
  O2-  O201  1  0.54041256  0.58611038  0.26637385  1
  O2-  O202  1  0.54116817  0.58610798  0.59995657  1
  O2-  O203  1  0.55063306  0.58303891  0.94027893  1
  O2-  O204  1  0.16718696  0.20728769  0.26728752  1
  O2-  O205  1  0.16177545  0.21307357  0.59309421  1
  O2-  O206  1  0.16124684  0.20881844  0.93904371  1
  O2-  O207  1  0.16830813  0.71009811  0.26492705  1
  O2-  O208  1  0.17134320  0.70293500  0.59560603  1
  O2-  O209  1  0.16929449  0.70707445  0.93411757  1
  O2-  O210  1  0.65913128  0.20864604  0.26968348  1
  O2-  O211  1  0.66501731  0.21230959  0.59838511  1
  O2-  O212  1  0.66598677  0.20854513  0.93561252  1
  O2-  O213  1  0.66593835  0.69733279  0.26977107  1
  O2-  O214  1  0.66753696  0.69531406  0.60578543  1
  O2-  O215  1  0.67024652  0.70015860  0.94046280  1
  O2-  O216  1  0.07723967  0.45540778  0.06456754  1
  O2-  O217  1  0.08049657  0.46030701  0.40125211  1
  O2-  O218  1  0.08038022  0.44912215  0.72682709  1
  O2-  O219  1  0.08050960  0.95643590  0.07084610  1
  O2-  O220  1  0.08635203  0.94771488  0.39084131  1
  O2-  O221  1  0.08237127  0.95570930  0.73122633  1
  O2-  O222  1  0.58566795  0.45992885  0.07137057  1
  O2-  O223  1  0.58527140  0.45852106  0.39602762  1
  O2-  O224  1  0.58740015  0.46035139  0.72720774  1
  O2-  O225  1  0.58633770  0.96236268  0.07074991  1
  O2-  O226  1  0.58138614  0.96431642  0.40239273  1
  O2-  O227  1  0.58223723  0.96157253  0.73544402  1
  O2-  O228  1  0.20677247  0.33238680  0.06985121  1
  O2-  O229  1  0.20890983  0.33367713  0.40256085  1
  O2-  O230  1  0.20359361  0.33522762  0.72413168  1
  O2-  O231  1  0.20974998  0.83071279  0.06940643  1
  O2-  O232  1  0.21462514  0.83694862  0.39472755  1
  O2-  O233  1  0.20773252  0.82815799  0.72907817  1
  O2-  O234  1  0.71041723  0.33292702  0.06899417  1
  O2-  O235  1  0.70372984  0.33679028  0.39571308  1
  O2-  O236  1  0.70336440  0.33848005  0.72883921  1
  O2-  O237  1  0.70894618  0.83169706  0.06974539  1
  O2-  O238  1  0.69413683  0.82391959  0.39916542  1
  O2-  O239  1  0.70196894  0.82590011  0.73413785  1
  O2-  O240  1  0.45688208  0.41495275  0.27059580  1
  O2-  O241  1  0.46481689  0.41566052  0.59423389  1
  O2-  O242  1  0.46333085  0.41735442  0.93553375  1
  O2-  O243  1  0.45864838  0.91465445  0.27139074  1
  O2-  O244  1  0.46007154  0.92137808  0.59950494  1
  O2-  O245  1  0.46333177  0.91899594  0.93509081  1
  O2-  O246  1  0.95837138  0.41417324  0.26388935  1
  O2-  O247  1  0.94919546  0.41488838  0.60472132  1
  O2-  O248  1  0.95087915  0.41282397  0.93670747  1
  O2-  O249  1  0.94777998  0.91734040  0.27222440  1
  O2-  O250  1  0.95106469  0.92026415  0.60099895  1
  O2-  O251  1  0.94687903  0.91971896  0.94419230  1
  O2-  O252  1  0.33524193  0.29483986  0.27146334  1
  O2-  O253  1  0.33315009  0.29297718  0.59424594  1
  O2-  O254  1  0.33118301  0.29093844  0.93401831  1
  O2-  O255  1  0.34206094  0.79205724  0.26878787  1
  O2-  O256  1  0.33777678  0.78889629  0.59590767  1
  O2-  O257  1  0.33554809  0.79108447  0.93388606  1
  O2-  O258  1  0.83079238  0.28904725  0.26562166  1
  O2-  O259  1  0.82982030  0.29845144  0.60567937  1
  O2-  O260  1  0.83538396  0.29214693  0.93667050  1
  O2-  O261  1  0.83136367  0.79353853  0.27290935  1
  O2-  O262  1  0.83067960  0.78658788  0.59898040  1
  O2-  O263  1  0.83546455  0.79229029  0.93945263  1
  O2-  O264  1  0.42085484  0.04746716  0.06687381  1
  O2-  O265  1  0.41061518  0.04298070  0.39620386  1
  O2-  O266  1  0.42329286  0.05933700  0.72781881  1
  O2-  O267  1  0.41986142  0.54414507  0.06975780  1
  O2-  O268  1  0.41593655  0.54532173  0.39800145  1
  O2-  O269  1  0.41648525  0.53561717  0.73317790  1
  O2-  O270  1  0.91670781  0.05199151  0.06630397  1
  O2-  O271  1  0.92495709  0.05303016  0.39512364  1
  O2-  O272  1  0.92160210  0.04712027  0.73551633  1
  O2-  O273  1  0.91488129  0.54229478  0.06339224  1
  O2-  O274  1  0.91089359  0.53752009  0.39613219  1
  O2-  O275  1  0.91241424  0.54057840  0.73113601  1
  O2-  O276  1  0.28894541  0.16765688  0.07038362  1
  O2-  O277  1  0.29505459  0.16511301  0.39447675  1
  O2-  O278  1  0.28571647  0.17235804  0.72939124  1
  O2-  O279  1  0.29489605  0.67003058  0.07005213  1
  O2-  O280  1  0.29823659  0.66811448  0.39523491  1
  O2-  O281  1  0.29418810  0.66688194  0.73146754  1
  O2-  O282  1  0.79359345  0.16571486  0.06482362  1
  O2-  O283  1  0.78597528  0.16726935  0.40176488  1
  O2-  O284  1  0.79100971  0.16986259  0.73681096  1
  O2-  O285  1  0.79778145  0.66315033  0.06627481  1
  O2-  O286  1  0.79325502  0.65973281  0.39688561  1
  O2-  O287  1  0.79366030  0.65969724  0.73167742  1
