# generated using pymatgen
data_Ca2Al2SiO7
_symmetry_space_group_name_H-M   'P 1'
_cell_length_a   15.46479395
_cell_length_b   15.46489863
_cell_length_c   15.28920822
_cell_angle_alpha   90.01415123
_cell_angle_beta   89.99825767
_cell_angle_gamma   89.98851921
_symmetry_Int_Tables_number   1
_chemical_formula_structural   Ca2Al2SiO7
_chemical_formula_sum   'Ca48 Al48 Si24 O168'
_cell_volume   3656.58933896
_cell_formula_units_Z   24
loop_
 _symmetry_equiv_pos_site_id
 _symmetry_equiv_pos_as_xyz
  1  'x, y, z'
loop_
 _atom_type_symbol
 _atom_type_oxidation_number
  Ca2+  2.0
  Al0+  0.0
  Si0+  0.0
  O2-  -2.0
loop_
 _atom_site_type_symbol
 _atom_site_label
 _atom_site_symmetry_multiplicity
 _atom_site_fract_x
 _atom_site_fract_y
 _atom_site_fract_z
 _atom_site_occupancy
  Ca2+  Ca0  1  0.17278002  0.08418499  0.17016425  1
  Ca2+  Ca1  1  0.18195475  0.08441326  0.50972501  1
  Ca2+  Ca2  1  0.16897150  0.08033036  0.83687025  1
  Ca2+  Ca3  1  0.17118975  0.57418551  0.17362408  1
  Ca2+  Ca4  1  0.16810833  0.57416890  0.49952171  1
  Ca2+  Ca5  1  0.17074968  0.57985159  0.83725766  1
  Ca2+  Ca6  1  0.65050954  0.07713027  0.16921273  1
  Ca2+  Ca7  1  0.65687603  0.08292931  0.49926358  1
  Ca2+  Ca8  1  0.65648219  0.08161318  0.83764454  1
  Ca2+  Ca9  1  0.67685765  0.57270824  0.17594291  1
  Ca2+  Ca10  1  0.67338479  0.57601503  0.50260315  1
  Ca2+  Ca11  1  0.67649836  0.58190054  0.84048920  1
  Ca2+  Ca12  1  0.07656956  0.33220514  0.16319260  1
  Ca2+  Ca13  1  0.08175250  0.32971778  0.49381890  1
  Ca2+  Ca14  1  0.08103857  0.31873634  0.83406058  1
  Ca2+  Ca15  1  0.08329928  0.83162022  0.15971515  1
  Ca2+  Ca16  1  0.08551583  0.83324703  0.49850507  1
  Ca2+  Ca17  1  0.08642017  0.83758079  0.82815224  1
  Ca2+  Ca18  1  0.58139104  0.32530651  0.16033545  1
  Ca2+  Ca19  1  0.57630561  0.32280989  0.48948855  1
  Ca2+  Ca20  1  0.57581878  0.32377762  0.82601669  1
  Ca2+  Ca21  1  0.57500513  0.84138619  0.16350766  1
  Ca2+  Ca22  1  0.57264841  0.83746942  0.49246520  1
  Ca2+  Ca23  1  0.57102551  0.84067584  0.83210719  1
  Ca2+  Ca24  1  0.32967384  0.40571530  0.17423362  1
  Ca2+  Ca25  1  0.33113281  0.40446172  0.50183742  1
  Ca2+  Ca26  1  0.33774878  0.40986556  0.83708207  1
  Ca2+  Ca27  1  0.33499086  0.92258110  0.17202277  1
  Ca2+  Ca28  1  0.33694932  0.92779047  0.50620596  1
  Ca2+  Ca29  1  0.32920261  0.92043471  0.83698318  1
  Ca2+  Ca30  1  0.83562071  0.42009957  0.17623222  1
  Ca2+  Ca31  1  0.83038271  0.41831485  0.49917885  1
  Ca2+  Ca32  1  0.83989847  0.42627015  0.83957067  1
  Ca2+  Ca33  1  0.81857013  0.92177807  0.17105665  1
  Ca2+  Ca34  1  0.82366694  0.91720292  0.50127831  1
  Ca2+  Ca35  1  0.82318269  0.92181488  0.84277228  1
  Ca2+  Ca36  1  0.42269818  0.17309025  0.16751269  1
  Ca2+  Ca37  1  0.42193336  0.16621109  0.49501537  1
  Ca2+  Ca38  1  0.42376922  0.17103926  0.82803787  1
  Ca2+  Ca39  1  0.41557548  0.68012596  0.16188308  1
  Ca2+  Ca40  1  0.41187664  0.68206685  0.49589296  1
  Ca2+  Ca41  1  0.41450714  0.68050512  0.82884827  1
  Ca2+  Ca42  1  0.92043242  0.18108339  0.15841285  1
  Ca2+  Ca43  1  0.92768327  0.16849988  0.49336273  1
  Ca2+  Ca44  1  0.92826681  0.16293545  0.83043330  1
  Ca2+  Ca45  1  0.91309741  0.66162056  0.16414599  1
  Ca2+  Ca46  1  0.91329639  0.66086012  0.49665967  1
  Ca2+  Ca47  1  0.91305576  0.66567357  0.83024559  1
  Al0+  Al48  1  -0.00103548  -0.00204189  0.00245277  1
  Al0+  Al49  1  -0.00073130  -0.00310137  0.33115825  1
  Al0+  Al50  1  -0.00182152  -0.00172445  0.66327967  1
  Al0+  Al51  1  0.00328175  0.50119371  -0.00021664  1
  Al0+  Al52  1  0.00348754  0.49977837  0.33780564  1
  Al0+  Al53  1  0.00085187  0.50131104  0.67134916  1
  Al0+  Al54  1  0.49674361  0.00060591  -0.00312727  1
  Al0+  Al55  1  0.49785948  -0.00030418  0.33388001  1
  Al0+  Al56  1  0.49803715  0.00047761  0.66461003  1
  Al0+  Al57  1  0.50192234  0.50346315  -0.00153124  1
  Al0+  Al58  1  0.49978397  0.50285449  0.33548966  1
  Al0+  Al59  1  0.50030439  0.50101106  0.66503693  1
  Al0+  Al60  1  0.24891406  0.24968941  -0.00505325  1
  Al0+  Al61  1  0.25114745  0.24752148  0.33900916  1
  Al0+  Al62  1  0.24810185  0.24864248  0.66744318  1
  Al0+  Al63  1  0.24895496  0.75023168  -0.00003053  1
  Al0+  Al64  1  0.24814465  0.74885356  0.32815714  1
  Al0+  Al65  1  0.24775136  0.74775546  0.66416743  1
  Al0+  Al66  1  0.75057681  0.25225649  -0.01003323  1
  Al0+  Al67  1  0.75253985  0.24868476  0.32885272  1
  Al0+  Al68  1  0.75005775  0.25034197  0.66455713  1
  Al0+  Al69  1  0.75040945  0.75075383  0.00905034  1
  Al0+  Al70  1  0.75009165  0.75142030  0.34062600  1
  Al0+  Al71  1  0.75030704  0.74952821  0.67126020  1
  Al0+  Al72  1  0.82250024  0.56928655  0.01552350  1
  Al0+  Al73  1  0.17783011  0.92805453  0.01517927  1
  Al0+  Al74  1  0.93176240  0.32076072  0.32166385  1
  Al0+  Al75  1  0.32165637  0.07166618  0.68557161  1
  Al0+  Al76  1  0.57160401  0.17953142  0.31718060  1
  Al0+  Al77  1  0.67680672  0.42487168  0.34778173  1
  Al0+  Al78  1  0.82158471  0.56944714  0.34980241  1
  Al0+  Al79  1  0.42926920  0.81975423  0.31848964  1
  Al0+  Al80  1  0.42759283  0.32323773  0.31950011  1
  Al0+  Al81  1  0.06888631  0.17654328  0.65135582  1
  Al0+  Al82  1  0.67725157  0.93274708  0.01334693  1
  Al0+  Al83  1  0.18287730  0.42918813  0.34643189  1
  Al0+  Al84  1  0.42812847  0.81897507  0.65241598  1
  Al0+  Al85  1  0.31878516  0.06840575  0.34662986  1
  Al0+  Al86  1  0.57062816  0.17879889  0.98407513  1
  Al0+  Al87  1  0.42900464  0.32409237  0.98590690  1
  Al0+  Al88  1  0.67906374  0.93229910  0.34770753  1
  Al0+  Al89  1  0.06957516  0.17606316  0.98615424  1
  Al0+  Al90  1  0.81989232  0.56952704  0.68307747  1
  Al0+  Al91  1  0.92936491  0.32452318  0.98410469  1
  Al0+  Al92  1  0.57209289  0.17878432  0.64909566  1
  Al0+  Al93  1  0.42823505  0.32310260  0.65054786  1
  Al0+  Al94  1  0.17816117  0.92771924  0.68043262  1
  Al0+  Al95  1  0.42793343  0.81999720  0.98556667  1
  Si0+  Si96  1  0.18263525  0.42958719  0.01408357  1
  Si0+  Si97  1  0.32253899  0.57286179  0.01376931  1
  Si0+  Si98  1  0.92689196  0.81967204  0.65192601  1
  Si0+  Si99  1  0.07102711  0.68005959  0.98428213  1
  Si0+  Si100  1  0.57431180  0.68019258  0.98467739  1
  Si0+  Si101  1  0.31952285  0.07265175  0.01782611  1
  Si0+  Si102  1  0.67756921  0.42792919  0.01482185  1
  Si0+  Si103  1  0.32219982  0.57602109  0.34934736  1
  Si0+  Si104  1  0.67713102  0.42715404  0.68470795  1
  Si0+  Si105  1  0.82280589  0.07426215  0.01516727  1
  Si0+  Si106  1  0.57511638  0.67891434  0.31726357  1
  Si0+  Si107  1  0.32116015  0.57177082  0.68097451  1
  Si0+  Si108  1  0.06934073  0.67930886  0.31739991  1
  Si0+  Si109  1  0.93064838  0.32422398  0.65025513  1
  Si0+  Si110  1  0.17584038  0.92509869  0.34913032  1
  Si0+  Si111  1  0.57443225  0.67927669  0.65050329  1
  Si0+  Si112  1  0.07319263  0.17586068  0.31776001  1
  Si0+  Si113  1  0.17929453  0.42929113  0.68380517  1
  Si0+  Si114  1  0.67927214  0.93006094  0.68157493  1
  Si0+  Si115  1  0.82601792  0.07191621  0.34937160  1
  Si0+  Si116  1  0.06977162  0.67764696  0.65073349  1
  Si0+  Si117  1  0.82207667  0.07137810  0.68002997  1
  Si0+  Si118  1  0.92757910  0.81930836  0.98636020  1
  Si0+  Si119  1  0.92673813  0.82090132  0.31736309  1
  O2-  O120  1  0.25004083  0.00394939  0.06193788  1
  O2-  O121  1  0.24217222  -0.00539589  0.39284247  1
  O2-  O122  1  0.24856361  -0.00128521  0.73332671  1
  O2-  O123  1  0.25900648  0.49527186  0.05591009  1
  O2-  O124  1  0.26225224  0.49951569  0.39353634  1
  O2-  O125  1  0.25633895  0.49535559  0.72441624  1
  O2-  O126  1  0.74780536  0.01235347  0.05936818  1
  O2-  O127  1  0.75335601  0.00760622  0.39440997  1
  O2-  O128  1  0.74668982  0.00504576  0.72279331  1
  O2-  O129  1  0.75100514  0.49143414  0.05995615  1
  O2-  O130  1  0.74889351  0.49776893  0.39844509  1
  O2-  O131  1  0.74677348  0.49461768  0.73059980  1
  O2-  O132  1  0.00341232  0.24332762  0.27430882  1
  O2-  O133  1  -0.00489596  0.25241995  0.60505632  1
  O2-  O134  1  -0.00525239  0.24557152  0.93579509  1
  O2-  O135  1  -0.00211092  0.74979212  0.27524643  1
  O2-  O136  1  -0.00076318  0.74964326  0.60985883  1
  O2-  O137  1  -0.00017294  0.75061971  0.94192050  1
  O2-  O138  1  0.50564506  0.25849196  0.26937289  1
  O2-  O139  1  0.50035021  0.25164970  0.60094467  1
  O2-  O140  1  0.50160944  0.25397280  0.93528607  1
  O2-  O141  1  0.50358795  0.74426716  0.27200205  1
  O2-  O142  1  0.50400566  0.74539852  0.60543925  1
  O2-  O143  1  0.50469138  0.74706301  0.93889546  1
  O2-  O144  1  0.07045937  0.17952073  0.09989793  1
  O2-  O145  1  0.07113620  0.17596075  0.42347065  1
  O2-  O146  1  0.06648191  0.17600092  0.76433623  1
  O2-  O147  1  0.07169171  0.67931743  0.08933234  1
  O2-  O148  1  0.07123082  0.68037723  0.42257366  1
  O2-  O149  1  0.07048977  0.67589464  0.75592465  1
  O2-  O150  1  0.56761269  0.17804157  0.09722183  1
  O2-  O151  1  0.56833062  0.17729734  0.43033964  1
  O2-  O152  1  0.57225194  0.17916441  0.76251264  1
  O2-  O153  1  0.57234976  0.67999729  0.08999463  1
  O2-  O154  1  0.57565424  0.68261343  0.42304130  1
  O2-  O155  1  0.57511485  0.68192454  0.75631885  1
  O2-  O156  1  0.18073616  0.43272150  0.23297925  1
  O2-  O157  1  0.17535424  0.43315247  0.57879664  1
  O2-  O158  1  0.18058408  0.43325236  0.90879281  1
  O2-  O159  1  0.17526334  0.92414535  0.24348446  1
  O2-  O160  1  0.17846276  0.92644196  0.56684195  1
  O2-  O161  1  0.17925573  0.92503308  0.90255249  1
  O2-  O162  1  0.67964013  0.42742244  0.23394182  1
  O2-  O163  1  0.67855880  0.42905489  0.57944956  1
  O2-  O164  1  0.67531555  0.43387376  0.90936442  1
  O2-  O165  1  0.68039702  0.93214253  0.23462650  1
  O2-  O166  1  0.68238761  0.92683257  0.57660211  1
  O2-  O167  1  0.68049651  0.92980197  0.89978633  1
  O2-  O168  1  0.42829137  0.32398876  0.09909872  1
  O2-  O169  1  0.42577352  0.31737075  0.43237639  1
  O2-  O170  1  0.43197603  0.32450400  0.76417988  1
  O2-  O171  1  0.42757810  0.81841764  0.09856377  1
  O2-  O172  1  0.42875781  0.81828356  0.43163904  1
  O2-  O173  1  0.42851718  0.81697081  0.76566366  1
  O2-  O174  1  0.93448027  0.32688678  0.09773017  1
  O2-  O175  1  0.93546165  0.32043367  0.43498330  1
  O2-  O176  1  0.93464501  0.32546658  0.75565715  1
  O2-  O177  1  0.92841005  0.81746933  0.09138242  1
  O2-  O178  1  0.92811452  0.82227671  0.42258092  1
  O2-  O179  1  0.92514577  0.81847500  0.75716854  1
  O2-  O180  1  0.31670065  0.06786930  0.23331394  1
  O2-  O181  1  0.32149513  0.06907772  0.57190133  1
  O2-  O182  1  0.31903722  0.07130614  0.91248953  1
  O2-  O183  1  0.31509427  0.58253903  0.24398055  1
  O2-  O184  1  0.31570211  0.57639165  0.57633664  1
  O2-  O185  1  0.31730950  0.57606371  0.90850477  1
  O2-  O186  1  0.83320431  0.06670519  0.24438506  1
  O2-  O187  1  0.82567928  0.06707239  0.57518431  1
  O2-  O188  1  0.82703939  0.06655014  0.90942022  1
  O2-  O189  1  0.82239967  0.56890143  0.23617018  1
  O2-  O190  1  0.82042609  0.56954270  0.57067006  1
  O2-  O191  1  0.82117906  0.57131635  0.90218790  1
  O2-  O192  1  0.04977823  0.08087363  0.27296571  1
  O2-  O193  1  0.03627855  0.08117865  0.59581627  1
  O2-  O194  1  0.04209835  0.07663639  0.93386300  1
  O2-  O195  1  0.04222172  0.58767961  0.26984635  1
  O2-  O196  1  0.03934214  0.58680858  0.60260139  1
  O2-  O197  1  0.04432829  0.58904248  0.93497468  1
  O2-  O198  1  0.53370738  0.08341490  0.26553129  1
  O2-  O199  1  0.54381937  0.07960086  0.59829904  1
  O2-  O200  1  0.53833620  0.08184214  0.93032354  1
  O2-  O201  1  0.55383840  0.58402214  0.27242881  1
  O2-  O202  1  0.55181185  0.58489275  0.60576430  1
  O2-  O203  1  0.55110738  0.58712861  0.93649212  1
  O2-  O204  1  0.16573573  0.20402913  0.27297598  1
  O2-  O205  1  0.16516580  0.20876954  0.59958207  1
  O2-  O206  1  0.16516854  0.20896165  0.93083090  1
  O2-  O207  1  0.15951483  0.70696915  0.26630140  1
  O2-  O208  1  0.16037041  0.70363184  0.60044514  1
  O2-  O209  1  0.16199008  0.70767078  0.93521513  1
  O2-  O210  1  0.67339731  0.19639167  0.26632403  1
  O2-  O211  1  0.67300018  0.20294053  0.59783693  1
  O2-  O212  1  0.67088107  0.19927167  0.93075911  1
  O2-  O213  1  0.66816716  0.70811700  0.27207723  1
  O2-  O214  1  0.66741891  0.70758619  0.60464837  1
  O2-  O215  1  0.66815604  0.70803947  0.94004967  1
  O2-  O216  1  0.09387066  0.46499863  0.06260894  1
  O2-  O217  1  0.09051905  0.46696859  0.40424725  1
  O2-  O218  1  0.09146076  0.46576793  0.73354136  1
  O2-  O219  1  0.07929801  0.95324268  0.06916933  1
  O2-  O220  1  0.08022054  0.94597000  0.39348092  1
  O2-  O221  1  0.07694136  0.95309602  0.73032686  1
  O2-  O222  1  0.58596588  0.45868946  0.06292453  1
  O2-  O223  1  0.57829826  0.45421448  0.40138245  1
  O2-  O224  1  0.58381592  0.45534891  0.73050334  1
  O2-  O225  1  0.57893224  0.96005622  0.06581901  1
  O2-  O226  1  0.58275502  0.96134327  0.40185143  1
  O2-  O227  1  0.58654722  0.95512116  0.72751812  1
  O2-  O228  1  0.20444472  0.33616548  0.06049592  1
  O2-  O229  1  0.20737547  0.33243536  0.40227573  1
  O2-  O230  1  0.20088888  0.33644470  0.73086316  1
  O2-  O231  1  0.20855508  0.83060625  0.06877575  1
  O2-  O232  1  0.20144448  0.83062186  0.39332582  1
  O2-  O233  1  0.20347696  0.82677261  0.73108706  1
  O2-  O234  1  0.69783615  0.33129753  0.05582516  1
  O2-  O235  1  0.70809162  0.32659761  0.39950399  1
  O2-  O236  1  0.70180092  0.33271177  0.72948568  1
  O2-  O237  1  0.71237234  0.83860646  0.06954457  1
  O2-  O238  1  0.71230320  0.83766642  0.40433039  1
  O2-  O239  1  0.71138237  0.84035686  0.73071421  1
  O2-  O240  1  0.44153492  0.42803341  0.27373771  1
  O2-  O241  1  0.45068030  0.42459331  0.59986718  1
  O2-  O242  1  0.45246568  0.42538044  0.93484332  1
  O2-  O243  1  0.46201241  0.91485233  0.26467374  1
  O2-  O244  1  0.45973068  0.91480292  0.59960889  1
  O2-  O245  1  0.45769668  0.91569607  0.93114950  1
  O2-  O246  1  0.96768128  0.41671349  0.26910914  1
  O2-  O247  1  0.96172959  0.41675308  0.60497757  1
  O2-  O248  1  0.96701753  0.42018421  0.93026483  1
  O2-  O249  1  0.95421984  0.91166909  0.26740116  1
  O2-  O250  1  0.95240039  0.91026712  0.60169290  1
  O2-  O251  1  0.95264715  0.91141081  0.93872228  1
  O2-  O252  1  0.33032819  0.28691645  0.26743815  1
  O2-  O253  1  0.32702867  0.29749141  0.60363785  1
  O2-  O254  1  0.33044355  0.29627782  0.93305088  1
  O2-  O255  1  0.33228416  0.78848121  0.26445230  1
  O2-  O256  1  0.33254425  0.78421044  0.59865876  1
  O2-  O257  1  0.33267674  0.78441370  0.93173173  1
  O2-  O258  1  0.83607776  0.29368679  0.26488296  1
  O2-  O259  1  0.83482773  0.30361526  0.60785445  1
  O2-  O260  1  0.82949562  0.30707682  0.93064631  1
  O2-  O261  1  0.83483262  0.79270449  0.27093814  1
  O2-  O262  1  0.83605628  0.78910018  0.60387062  1
  O2-  O263  1  0.83630082  0.78938819  0.93880116  1
  O2-  O264  1  0.41204840  0.04364136  0.06317941  1
  O2-  O265  1  0.41284700  0.03358477  0.40173668  1
  O2-  O266  1  0.42010022  0.04047082  0.73709063  1
  O2-  O267  1  0.41741840  0.55595509  0.05887818  1
  O2-  O268  1  0.41897446  0.56496932  0.39230629  1
  O2-  O269  1  0.41576950  0.55317506  0.72690529  1
  O2-  O270  1  0.91254029  0.04205866  0.06496235  1
  O2-  O271  1  0.91729532  0.03959009  0.39873146  1
  O2-  O272  1  0.91056975  0.03675637  0.72990732  1
  O2-  O273  1  0.92197381  0.54308867  0.06651441  1
  O2-  O274  1  0.92050608  0.54221510  0.40222341  1
  O2-  O275  1  0.91797694  0.54138247  0.73696401  1
  O2-  O276  1  0.29220393  0.16654420  0.06266448  1
  O2-  O277  1  0.28861532  0.16283566  0.40438001  1
  O2-  O278  1  0.29119857  0.17007889  0.73734761  1
  O2-  O279  1  0.28600715  0.66043618  0.06396610  1
  O2-  O280  1  0.28397128  0.66488406  0.39862829  1
  O2-  O281  1  0.28514318  0.65975251  0.73144953  1
  O2-  O282  1  0.80569082  0.17235405  0.05403123  1
  O2-  O283  1  0.80695590  0.16713719  0.39306819  1
  O2-  O284  1  0.80183408  0.16570844  0.72559771  1
  O2-  O285  1  0.79184403  0.66521448  0.07072041  1
  O2-  O286  1  0.79536618  0.66868816  0.40264938  1
  O2-  O287  1  0.78988001  0.66690722  0.73765485  1
