# generated using pymatgen
data_Ca2Al2SiO7
_symmetry_space_group_name_H-M   'P 1'
_cell_length_a   15.46574200
_cell_length_b   15.46615313
_cell_length_c   15.28999511
_cell_angle_alpha   90.00585712
_cell_angle_beta   89.98998487
_cell_angle_gamma   90.02125420
_symmetry_Int_Tables_number   1
_chemical_formula_structural   Ca2Al2SiO7
_chemical_formula_sum   'Ca48 Al48 Si24 O168'
_cell_volume   3657.29822078
_cell_formula_units_Z   24
loop_
 _symmetry_equiv_pos_site_id
 _symmetry_equiv_pos_as_xyz
  1  'x, y, z'
loop_
 _atom_type_symbol
 _atom_type_oxidation_number
  Ca2+  2.0
  Al0+  0.0
  Si0+  0.0
  O2-  -2.0
loop_
 _atom_site_type_symbol
 _atom_site_label
 _atom_site_symmetry_multiplicity
 _atom_site_fract_x
 _atom_site_fract_y
 _atom_site_fract_z
 _atom_site_occupancy
  Ca2+  Ca0  1  0.17962432  0.08013197  0.16965588  1
  Ca2+  Ca1  1  0.17318934  0.07794228  0.50203041  1
  Ca2+  Ca2  1  0.17202586  0.07580913  0.83826214  1
  Ca2+  Ca3  1  0.17664246  0.57741729  0.17142604  1
  Ca2+  Ca4  1  0.17877899  0.58522552  0.49653430  1
  Ca2+  Ca5  1  0.18382974  0.57882185  0.83917542  1
  Ca2+  Ca6  1  0.65553238  0.07379108  0.16760381  1
  Ca2+  Ca7  1  0.66498663  0.07530063  0.50391479  1
  Ca2+  Ca8  1  0.65615020  0.06918100  0.83661223  1
  Ca2+  Ca9  1  0.66902721  0.57678888  0.16817079  1
  Ca2+  Ca10  1  0.67260204  0.58211782  0.50375340  1
  Ca2+  Ca11  1  0.67291851  0.58916340  0.84116025  1
  Ca2+  Ca12  1  0.08070660  0.34921502  0.16508310  1
  Ca2+  Ca13  1  0.07694442  0.34163057  0.48925121  1
  Ca2+  Ca14  1  0.08647538  0.33709969  0.83329291  1
  Ca2+  Ca15  1  0.08233007  0.82294817  0.16591238  1
  Ca2+  Ca16  1  0.08475156  0.82676401  0.49348672  1
  Ca2+  Ca17  1  0.08269204  0.83367895  0.82715152  1
  Ca2+  Ca18  1  0.57471093  0.34112720  0.16242144  1
  Ca2+  Ca19  1  0.57340027  0.33643311  0.49400218  1
  Ca2+  Ca20  1  0.56984849  0.34532249  0.83369266  1
  Ca2+  Ca21  1  0.57545309  0.82538793  0.15771154  1
  Ca2+  Ca22  1  0.58215309  0.82547662  0.49676144  1
  Ca2+  Ca23  1  0.58262995  0.82551767  0.83280630  1
  Ca2+  Ca24  1  0.33311234  0.42574050  0.17395452  1
  Ca2+  Ca25  1  0.33991925  0.42537888  0.50106394  1
  Ca2+  Ca26  1  0.33703880  0.42358798  0.84138569  1
  Ca2+  Ca27  1  0.35111300  0.92662438  0.17101510  1
  Ca2+  Ca28  1  0.33297296  0.91812453  0.50065332  1
  Ca2+  Ca29  1  0.33465054  0.92105974  0.84051966  1
  Ca2+  Ca30  1  0.82204093  0.42269810  0.17422134  1
  Ca2+  Ca31  1  0.83141720  0.42380272  0.49855413  1
  Ca2+  Ca32  1  0.82364016  0.42890713  0.84300798  1
  Ca2+  Ca33  1  0.82566854  0.91558457  0.16616587  1
  Ca2+  Ca34  1  0.82660998  0.91685000  0.50742233  1
  Ca2+  Ca35  1  0.81754721  0.91310957  0.83732835  1
  Ca2+  Ca36  1  0.40602206  0.17767152  0.16334539  1
  Ca2+  Ca37  1  0.41177463  0.17822058  0.49379598  1
  Ca2+  Ca38  1  0.41032488  0.17866509  0.83473513  1
  Ca2+  Ca39  1  0.41490698  0.67351622  0.15729103  1
  Ca2+  Ca40  1  0.41804862  0.66787481  0.49412338  1
  Ca2+  Ca41  1  0.43019496  0.65687295  0.83089165  1
  Ca2+  Ca42  1  0.91882759  0.17600776  0.16427715  1
  Ca2+  Ca43  1  0.92128932  0.17427620  0.48943747  1
  Ca2+  Ca44  1  0.91924010  0.16868376  0.82922955  1
  Ca2+  Ca45  1  0.92181727  0.65014197  0.16687239  1
  Ca2+  Ca46  1  0.92283913  0.65729841  0.49250066  1
  Ca2+  Ca47  1  0.91487134  0.66143571  0.82985220  1
  Al0+  Al48  1  -0.00011265  0.00029925  -0.00102312  1
  Al0+  Al49  1  -0.00083060  -0.00069876  0.33112713  1
  Al0+  Al50  1  0.00061511  0.00059038  0.66845222  1
  Al0+  Al51  1  0.00017070  0.50028766  0.00000085  1
  Al0+  Al52  1  -0.00006000  0.49984964  0.33041130  1
  Al0+  Al53  1  0.00041675  0.50039020  0.66955620  1
  Al0+  Al54  1  0.49928291  0.00047723  0.00384740  1
  Al0+  Al55  1  0.49965092  -0.00039638  0.33855395  1
  Al0+  Al56  1  0.49882069  0.00127458  0.67061697  1
  Al0+  Al57  1  0.50136827  0.50203747  -0.00084964  1
  Al0+  Al58  1  0.50199072  0.49963529  0.33662802  1
  Al0+  Al59  1  0.50163379  0.50105526  0.65930397  1
  Al0+  Al60  1  0.24689988  0.24666429  0.00102081  1
  Al0+  Al61  1  0.24917611  0.24723541  0.33793930  1
  Al0+  Al62  1  0.24839200  0.24940435  0.66058650  1
  Al0+  Al63  1  0.24630923  0.75111983  -0.00297907  1
  Al0+  Al64  1  0.24858025  0.75082711  0.32661479  1
  Al0+  Al65  1  0.24969870  0.74958209  0.67520887  1
  Al0+  Al66  1  0.75094477  0.24920994  -0.00120116  1
  Al0+  Al67  1  0.75058542  0.24771642  0.33234414  1
  Al0+  Al68  1  0.75007597  0.25024070  0.66563078  1
  Al0+  Al69  1  0.75175483  0.75247695  0.00654019  1
  Al0+  Al70  1  0.75042966  0.75082153  0.33620518  1
  Al0+  Al71  1  0.75006999  0.75115942  0.66901289  1
  Al0+  Al72  1  0.42709598  0.82315471  0.98361405  1
  Al0+  Al73  1  0.32245807  0.57406174  0.34738388  1
  Al0+  Al74  1  0.18060887  0.42775677  0.01290534  1
  Al0+  Al75  1  0.42901585  0.32085812  0.31923528  1
  Al0+  Al76  1  0.31950646  0.06801422  0.01344562  1
  Al0+  Al77  1  0.17995237  0.42933895  0.34804962  1
  Al0+  Al78  1  0.67828100  0.92978304  0.68026323  1
  Al0+  Al79  1  0.67774501  0.42693924  0.01387145  1
  Al0+  Al80  1  0.67806312  0.42559609  0.35058963  1
  Al0+  Al81  1  0.57256776  0.68151288  0.65120077  1
  Al0+  Al82  1  0.06967414  0.67939469  0.31915559  1
  Al0+  Al83  1  0.82168088  0.56961782  0.68071356  1
  Al0+  Al84  1  0.57180807  0.68027232  0.98622827  1
  Al0+  Al85  1  0.43033626  0.81998712  0.32181850  1
  Al0+  Al86  1  0.32322507  0.56979020  0.68034929  1
  Al0+  Al87  1  0.32297468  0.57231562  0.01410998  1
  Al0+  Al88  1  0.82108400  0.57231579  0.01595809  1
  Al0+  Al89  1  0.81980872  0.57068545  0.34937192  1
  Al0+  Al90  1  0.32134952  0.06978322  0.34925802  1
  Al0+  Al91  1  0.17941732  0.92918365  0.67951772  1
  Al0+  Al92  1  0.42823236  0.32058192  0.98857996  1
  Al0+  Al93  1  0.42923069  0.32051943  0.65184495  1
  Al0+  Al94  1  0.67925688  0.93094701  0.01572019  1
  Al0+  Al95  1  0.92987908  0.31995682  0.31821989  1
  Si0+  Si96  1  0.06913486  0.17712254  0.98278569  1
  Si0+  Si97  1  0.07152796  0.67953662  0.65272084  1
  Si0+  Si98  1  0.57235601  0.17572157  0.65034430  1
  Si0+  Si99  1  0.82207331  0.07337978  0.68254509  1
  Si0+  Si100  1  0.06894919  0.67762295  0.98123180  1
  Si0+  Si101  1  0.92972926  0.32139268  0.65208227  1
  Si0+  Si102  1  0.93054769  0.82345081  0.98351608  1
  Si0+  Si103  1  0.82450678  0.07230553  0.01668780  1
  Si0+  Si104  1  0.07191575  0.17486340  0.31490469  1
  Si0+  Si105  1  0.32048725  0.07405475  0.68431162  1
  Si0+  Si106  1  0.57453659  0.67816132  0.31713230  1
  Si0+  Si107  1  0.06938751  0.17716467  0.64987093  1
  Si0+  Si108  1  0.92985675  0.82169616  0.65272029  1
  Si0+  Si109  1  0.57343658  0.17766740  0.98378660  1
  Si0+  Si110  1  0.17814188  0.42715840  0.68162069  1
  Si0+  Si111  1  0.92566980  0.82403208  0.31618321  1
  Si0+  Si112  1  0.67844421  0.42677846  0.68293262  1
  Si0+  Si113  1  0.17448938  0.92754494  0.01774850  1
  Si0+  Si114  1  0.67927391  0.93004530  0.34980569  1
  Si0+  Si115  1  0.92890880  0.32154822  0.98255170  1
  Si0+  Si116  1  0.17534351  0.92801220  0.34820466  1
  Si0+  Si117  1  0.57182581  0.17669264  0.31782384  1
  Si0+  Si118  1  0.42624622  0.82352132  0.65150586  1
  Si0+  Si119  1  0.82298733  0.06988949  0.34787186  1
  O2-  O120  1  0.25050316  -0.01224459  0.06097620  1
  O2-  O121  1  0.24541845  -0.00535189  0.39302804  1
  O2-  O122  1  0.25499822  0.00187424  0.72745741  1
  O2-  O123  1  0.25504731  0.49607363  0.06297884  1
  O2-  O124  1  0.25487548  0.49762442  0.39870871  1
  O2-  O125  1  0.25118188  0.49084672  0.72470607  1
  O2-  O126  1  0.75182444  0.00886433  0.06178835  1
  O2-  O127  1  0.75276044  -0.00081101  0.39126438  1
  O2-  O128  1  0.75135563  0.00738617  0.72654913  1
  O2-  O129  1  0.74857107  0.50014066  0.06329283  1
  O2-  O130  1  0.74741198  0.50040631  0.40083897  1
  O2-  O131  1  0.74608319  0.49639501  0.72696823  1
  O2-  O132  1  0.00780515  0.24791179  0.27097232  1
  O2-  O133  1  -0.00001808  0.24992195  0.60872215  1
  O2-  O134  1  -0.00016365  0.24996560  0.93998553  1
  O2-  O135  1  -0.00827203  0.75272949  0.27319892  1
  O2-  O136  1  0.00008307  0.75063620  0.61011887  1
  O2-  O137  1  -0.00126437  0.75062526  0.93990567  1
  O2-  O138  1  0.50648122  0.24778714  0.27360587  1
  O2-  O139  1  0.50465135  0.24477596  0.60655157  1
  O2-  O140  1  0.50781274  0.24983937  0.94073637  1
  O2-  O141  1  0.50031819  0.74160576  0.27474446  1
  O2-  O142  1  0.49534777  0.75562835  0.60679861  1
  O2-  O143  1  0.49604059  0.74813698  0.93394487  1
  O2-  O144  1  0.06599886  0.17142285  0.08708613  1
  O2-  O145  1  0.06603937  0.16933307  0.42072294  1
  O2-  O146  1  0.06823906  0.17568538  0.75506821  1
  O2-  O147  1  0.06776117  0.67808539  0.08608454  1
  O2-  O148  1  0.06984812  0.68323307  0.43308433  1
  O2-  O149  1  0.06925816  0.68041257  0.75774615  1
  O2-  O150  1  0.57359344  0.17564444  0.08916659  1
  O2-  O151  1  0.57124570  0.17406687  0.42373886  1
  O2-  O152  1  0.57273124  0.17340928  0.75555433  1
  O2-  O153  1  0.57375609  0.68278972  0.09964082  1
  O2-  O154  1  0.57850830  0.68382091  0.42300932  1
  O2-  O155  1  0.57535405  0.68213314  0.76384454  1
  O2-  O156  1  0.18084105  0.43235793  0.23491565  1
  O2-  O157  1  0.17338029  0.42905876  0.57668070  1
  O2-  O158  1  0.18012664  0.43005811  0.89847346  1
  O2-  O159  1  0.16939559  0.93118325  0.24321746  1
  O2-  O160  1  0.17752000  0.93090050  0.56649744  1
  O2-  O161  1  0.16904843  0.93344770  0.91199785  1
  O2-  O162  1  0.67954247  0.42417683  0.23743841  1
  O2-  O163  1  0.68203820  0.42433329  0.57766112  1
  O2-  O164  1  0.68142899  0.42523666  0.89983564  1
  O2-  O165  1  0.67954769  0.93195991  0.24502392  1
  O2-  O166  1  0.68194078  0.93157988  0.56683798  1
  O2-  O167  1  0.68156338  0.93170417  0.90250696  1
  O2-  O168  1  0.42644962  0.31788981  0.10115243  1
  O2-  O169  1  0.42984426  0.31758375  0.43266336  1
  O2-  O170  1  0.42784645  0.31885301  0.76520477  1
  O2-  O171  1  0.43252888  0.82413418  0.09728469  1
  O2-  O172  1  0.43324880  0.82200488  0.43552825  1
  O2-  O173  1  0.42761769  0.82521792  0.75656688  1
  O2-  O174  1  0.92928502  0.31967360  0.08719762  1
  O2-  O175  1  0.93105445  0.31648301  0.43220615  1
  O2-  O176  1  0.93085373  0.31916494  0.75720774  1
  O2-  O177  1  0.93396945  0.82968601  0.08815523  1
  O2-  O178  1  0.92689826  0.82937025  0.42191886  1
  O2-  O179  1  0.93100219  0.82305413  0.75781396  1
  O2-  O180  1  0.32137841  0.06817981  0.23639314  1
  O2-  O181  1  0.31857718  0.07421227  0.57883211  1
  O2-  O182  1  0.31498389  0.07014999  0.90001425  1
  O2-  O183  1  0.32048993  0.57610257  0.23439809  1
  O2-  O184  1  0.32003427  0.57324921  0.56761985  1
  O2-  O185  1  0.32197813  0.56975390  0.89998915  1
  O2-  O186  1  0.82509834  0.06833400  0.24311900  1
  O2-  O187  1  0.82407464  0.07197848  0.57679426  1
  O2-  O188  1  0.82819497  0.06936176  0.91099725  1
  O2-  O189  1  0.81799567  0.56925178  0.23643793  1
  O2-  O190  1  0.82586346  0.56698979  0.56828278  1
  O2-  O191  1  0.82176922  0.57067051  0.90172944  1
  O2-  O192  1  0.04050637  0.08375916  0.26614770  1
  O2-  O193  1  0.03886966  0.08648634  0.60100368  1
  O2-  O194  1  0.03735097  0.08715511  0.93201889  1
  O2-  O195  1  0.03865298  0.58437575  0.26334088  1
  O2-  O196  1  0.04248428  0.58764196  0.60617708  1
  O2-  O197  1  0.03877884  0.58718717  0.93214356  1
  O2-  O198  1  0.54228285  0.08378986  0.27249504  1
  O2-  O199  1  0.54632801  0.08213429  0.60314972  1
  O2-  O200  1  0.54167740  0.08604225  0.93708374  1
  O2-  O201  1  0.55613954  0.58190103  0.27598302  1
  O2-  O202  1  0.54500875  0.58512399  0.59582129  1
  O2-  O203  1  0.54876977  0.58115248  0.93117994  1
  O2-  O204  1  0.16770004  0.19447666  0.27314855  1
  O2-  O205  1  0.16135746  0.20103758  0.60155811  1
  O2-  O206  1  0.16010780  0.20313998  0.93308919  1
  O2-  O207  1  0.16265628  0.71371292  0.26063521  1
  O2-  O208  1  0.16319802  0.70953682  0.60666130  1
  O2-  O209  1  0.16008782  0.70540220  0.93224302  1
  O2-  O210  1  0.66740438  0.19439708  0.27265381  1
  O2-  O211  1  0.66773922  0.19855796  0.60470094  1
  O2-  O212  1  0.66939616  0.19502715  0.93762844  1
  O2-  O213  1  0.66601534  0.71074384  0.27061050  1
  O2-  O214  1  0.66857769  0.71637676  0.59707349  1
  O2-  O215  1  0.67096846  0.71485952  0.93582060  1
  O2-  O216  1  0.08300915  0.46047670  0.06377032  1
  O2-  O217  1  0.08192472  0.46122634  0.39989672  1
  O2-  O218  1  0.08659662  0.45609056  0.73066962  1
  O2-  O219  1  0.08427985  0.96180817  0.06553186  1
  O2-  O220  1  0.08215002  0.95511718  0.39634345  1
  O2-  O221  1  0.08335753  0.96266827  0.73498789  1
  O2-  O222  1  0.57995041  0.45464449  0.06617240  1
  O2-  O223  1  0.58033143  0.45294850  0.40449219  1
  O2-  O224  1  0.58419543  0.45324044  0.72505255  1
  O2-  O225  1  0.58401630  0.96219920  0.07095850  1
  O2-  O226  1  0.59057130  0.96132651  0.40045783  1
  O2-  O227  1  0.58184534  0.95943742  0.73519210  1
  O2-  O228  1  0.19633696  0.32612994  0.06264278  1
  O2-  O229  1  0.19768336  0.32756394  0.39876235  1
  O2-  O230  1  0.19778043  0.33037288  0.72408308  1
  O2-  O231  1  0.18889937  0.83047858  0.05832440  1
  O2-  O232  1  0.20067767  0.83452724  0.39302411  1
  O2-  O233  1  0.20476864  0.83361455  0.73723425  1
  O2-  O234  1  0.70640815  0.32754121  0.06496230  1
  O2-  O235  1  0.70882273  0.32639931  0.40203685  1
  O2-  O236  1  0.70375577  0.33272190  0.72885739  1
  O2-  O237  1  0.71530183  0.83856029  0.07282051  1
  O2-  O238  1  0.70699676  0.83891624  0.39800065  1
  O2-  O239  1  0.71442345  0.83657457  0.73598964  1
  O2-  O240  1  0.45794390  0.41927265  0.26816503  1
  O2-  O241  1  0.46130822  0.41534922  0.59599382  1
  O2-  O242  1  0.45767657  0.41720310  0.93354917  1
  O2-  O243  1  0.46771486  0.91577671  0.26981317  1
  O2-  O244  1  0.45005030  0.91895266  0.60701387  1
  O2-  O245  1  0.45942681  0.92173291  0.93217278  1
  O2-  O246  1  0.95867989  0.41585965  0.26354801  1
  O2-  O247  1  0.95986111  0.41273848  0.60523691  1
  O2-  O248  1  0.95892161  0.41233547  0.93401722  1
  O2-  O249  1  0.95347646  0.91611569  0.26726697  1
  O2-  O250  1  0.95754228  0.91409631  0.60497208  1
  O2-  O251  1  0.96009714  0.91403009  0.93321354  1
  O2-  O252  1  0.33185952  0.28545881  0.26928507  1
  O2-  O253  1  0.33238680  0.28960744  0.59732640  1
  O2-  O254  1  0.33264075  0.28360946  0.93449992  1
  O2-  O255  1  0.33196783  0.80002421  0.26739965  1
  O2-  O256  1  0.33149490  0.79700877  0.60791622  1
  O2-  O257  1  0.32393275  0.80519452  0.93554850  1
  O2-  O258  1  0.83508577  0.28308107  0.26411024  1
  O2-  O259  1  0.83754306  0.29453326  0.60463186  1
  O2-  O260  1  0.83803439  0.29242454  0.93315627  1
  O2-  O261  1  0.83087269  0.80176334  0.27148779  1
  O2-  O262  1  0.83794937  0.79618541  0.60534683  1
  O2-  O263  1  0.83758364  0.79723619  0.93839034  1
  O2-  O264  1  0.41657307  0.04392125  0.06880517  1
  O2-  O265  1  0.41640539  0.03775492  0.40598096  1
  O2-  O266  1  0.41512392  0.05332950  0.72950194  1
  O2-  O267  1  0.42252999  0.55058022  0.06486365  1
  O2-  O268  1  0.42201573  0.55014539  0.39955085  1
  O2-  O269  1  0.42131660  0.53924098  0.73067683  1
  O2-  O270  1  0.91564621  0.04128294  0.06465851  1
  O2-  O271  1  0.91431036  0.04182766  0.39712349  1
  O2-  O272  1  0.91474073  0.04615288  0.72956531  1
  O2-  O273  1  0.91862767  0.53936374  0.06610043  1
  O2-  O274  1  0.91827447  0.53941358  0.40004721  1
  O2-  O275  1  0.91776064  0.53803327  0.73641776  1
  O2-  O276  1  0.28112568  0.16115835  0.06846147  1
  O2-  O277  1  0.28792537  0.16355423  0.40641515  1
  O2-  O278  1  0.28848988  0.16617132  0.72976826  1
  O2-  O279  1  0.28887444  0.67088234  0.06320541  1
  O2-  O280  1  0.28725993  0.67175841  0.39934972  1
  O2-  O281  1  0.28924694  0.66370940  0.73689254  1
  O2-  O282  1  0.80485688  0.16778270  0.05997034  1
  O2-  O283  1  0.79559588  0.16049425  0.39709048  1
  O2-  O284  1  0.80015376  0.16803626  0.72834108  1
  O2-  O285  1  0.80093474  0.67197948  0.06829669  1
  O2-  O286  1  0.79688542  0.67176017  0.40126915  1
  O2-  O287  1  0.79435393  0.66790813  0.73241215  1
