# generated using pymatgen
data_Ca2Al2SiO7
_symmetry_space_group_name_H-M   'P 1'
_cell_length_a   15.45599206
_cell_length_b   15.45759128
_cell_length_c   15.28250845
_cell_angle_alpha   90.00149876
_cell_angle_beta   89.98795782
_cell_angle_gamma   90.00944348
_symmetry_Int_Tables_number   1
_chemical_formula_structural   Ca2Al2SiO7
_chemical_formula_sum   'Ca48 Al48 Si24 O168'
_cell_volume   3651.18076288
_cell_formula_units_Z   24
loop_
 _symmetry_equiv_pos_site_id
 _symmetry_equiv_pos_as_xyz
  1  'x, y, z'
loop_
 _atom_type_symbol
 _atom_type_oxidation_number
  Ca2+  2.0
  Al0+  0.0
  Si0+  0.0
  O2-  -2.0
loop_
 _atom_site_type_symbol
 _atom_site_label
 _atom_site_symmetry_multiplicity
 _atom_site_fract_x
 _atom_site_fract_y
 _atom_site_fract_z
 _atom_site_occupancy
  Ca2+  Ca0  1  0.17198181  0.09093813  0.16795812  1
  Ca2+  Ca1  1  0.16557453  0.08942895  0.50620249  1
  Ca2+  Ca2  1  0.17599694  0.09533433  0.83399795  1
  Ca2+  Ca3  1  0.17104201  0.58188323  0.16700162  1
  Ca2+  Ca4  1  0.17232804  0.57683382  0.50438494  1
  Ca2+  Ca5  1  0.16982692  0.57095608  0.84384620  1
  Ca2+  Ca6  1  0.67350401  0.07518435  0.16700938  1
  Ca2+  Ca7  1  0.67372416  0.07785309  0.50507955  1
  Ca2+  Ca8  1  0.67964544  0.08313756  0.84184356  1
  Ca2+  Ca9  1  0.66753145  0.57949632  0.16805919  1
  Ca2+  Ca10  1  0.67676840  0.57815638  0.50250593  1
  Ca2+  Ca11  1  0.66594429  0.57354876  0.83945926  1
  Ca2+  Ca12  1  0.07318148  0.33632232  0.16191356  1
  Ca2+  Ca13  1  0.07851835  0.32478276  0.49783206  1
  Ca2+  Ca14  1  0.07376154  0.33523456  0.82558380  1
  Ca2+  Ca15  1  0.07689241  0.82576624  0.16212626  1
  Ca2+  Ca16  1  0.07496875  0.83252978  0.49155958  1
  Ca2+  Ca17  1  0.09041453  0.82379242  0.83387823  1
  Ca2+  Ca18  1  0.57790553  0.33681647  0.15572667  1
  Ca2+  Ca19  1  0.58080335  0.33565515  0.50287143  1
  Ca2+  Ca20  1  0.57181665  0.34441944  0.83019130  1
  Ca2+  Ca21  1  0.58442369  0.83051041  0.16079386  1
  Ca2+  Ca22  1  0.57811828  0.83486426  0.48966356  1
  Ca2+  Ca23  1  0.58948053  0.82930280  0.83644245  1
  Ca2+  Ca24  1  0.33214810  0.42667492  0.16540156  1
  Ca2+  Ca25  1  0.32791719  0.41817657  0.50732578  1
  Ca2+  Ca26  1  0.32136732  0.41078508  0.84233134  1
  Ca2+  Ca27  1  0.33622467  0.92060299  0.16994607  1
  Ca2+  Ca28  1  0.33277542  0.92290324  0.50430879  1
  Ca2+  Ca29  1  0.33448072  0.93228066  0.83894258  1
  Ca2+  Ca30  1  0.83367348  0.41717974  0.16944976  1
  Ca2+  Ca31  1  0.83463015  0.41374334  0.50380779  1
  Ca2+  Ca32  1  0.82289557  0.40446062  0.83914450  1
  Ca2+  Ca33  1  0.82382118  0.91312009  0.17154369  1
  Ca2+  Ca34  1  0.83152841  0.91934237  0.50350093  1
  Ca2+  Ca35  1  0.83276808  0.93238166  0.84139489  1
  Ca2+  Ca36  1  0.41909831  0.17237340  0.15709838  1
  Ca2+  Ca37  1  0.41210405  0.17243634  0.50128838  1
  Ca2+  Ca38  1  0.41140374  0.17542006  0.82914488  1
  Ca2+  Ca39  1  0.41615693  0.66844553  0.15789580  1
  Ca2+  Ca40  1  0.41761288  0.67227173  0.48998782  1
  Ca2+  Ca41  1  0.42322008  0.65768698  0.83536701  1
  Ca2+  Ca42  1  0.91933808  0.17486492  0.16071103  1
  Ca2+  Ca43  1  0.92280771  0.17355061  0.49491525  1
  Ca2+  Ca44  1  0.91616844  0.17340646  0.82568259  1
  Ca2+  Ca45  1  0.91475821  0.66854324  0.16205609  1
  Ca2+  Ca46  1  0.91605897  0.66927517  0.49029525  1
  Ca2+  Ca47  1  0.92413454  0.66479971  0.83471193  1
  Al0+  Al48  1  0.00190894  0.00145818  0.00303155  1
  Al0+  Al49  1  0.00102244  -0.00055175  0.32363944  1
  Al0+  Al50  1  0.00022827  -0.00264860  0.66866259  1
  Al0+  Al51  1  -0.00102834  0.49965422  -0.00589396  1
  Al0+  Al52  1  0.00079943  0.49833502  0.33575146  1
  Al0+  Al53  1  0.00066417  0.50173833  0.66497866  1
  Al0+  Al54  1  0.50070731  0.00000981  0.00599005  1
  Al0+  Al55  1  0.49989841  0.00007176  0.33389280  1
  Al0+  Al56  1  0.49930246  -0.00093225  0.67067949  1
  Al0+  Al57  1  0.49980191  0.50122775  -0.00073186  1
  Al0+  Al58  1  0.49976612  0.50042968  0.33925906  1
  Al0+  Al59  1  0.50241930  0.50180393  0.66158906  1
  Al0+  Al60  1  0.24870651  0.25093223  0.00758495  1
  Al0+  Al61  1  0.25117431  0.25078094  0.33003677  1
  Al0+  Al62  1  0.24983410  0.25144364  0.66533103  1
  Al0+  Al63  1  0.25031412  0.75191405  -0.00354732  1
  Al0+  Al64  1  0.25117493  0.75222015  0.33434876  1
  Al0+  Al65  1  0.25165174  0.75042789  0.66521696  1
  Al0+  Al66  1  0.74933267  0.24895450  0.00672245  1
  Al0+  Al67  1  0.74927404  0.24819173  0.33074931  1
  Al0+  Al68  1  0.74763299  0.24945996  0.66938689  1
  Al0+  Al69  1  0.74935006  0.75070392  -0.00470464  1
  Al0+  Al70  1  0.74859923  0.74797695  0.33857724  1
  Al0+  Al71  1  0.74976188  0.74790964  0.66665310  1
  Al0+  Al72  1  0.92769017  0.32175376  0.31694367  1
  Al0+  Al73  1  0.31976005  0.07157593  0.01526259  1
  Al0+  Al74  1  0.42935577  0.32042201  0.98772865  1
  Al0+  Al75  1  0.17526827  0.42871587  0.01654883  1
  Al0+  Al76  1  0.42918767  0.32117660  0.65281118  1
  Al0+  Al77  1  0.92792115  0.31963732  0.98502323  1
  Al0+  Al78  1  0.07055667  0.17831797  0.65333419  1
  Al0+  Al79  1  0.92673006  0.81896360  0.32012256  1
  Al0+  Al80  1  0.82142714  0.56865485  0.34523574  1
  Al0+  Al81  1  0.17976073  0.43051096  0.67926034  1
  Al0+  Al82  1  0.67937191  0.92941615  0.34827951  1
  Al0+  Al83  1  0.07287823  0.17899154  0.31558891  1
  Al0+  Al84  1  0.07165379  0.67942351  0.98642786  1
  Al0+  Al85  1  0.42909133  0.82174620  0.31920771  1
  Al0+  Al86  1  0.57090909  0.67981846  0.98598725  1
  Al0+  Al87  1  0.68103921  0.92760674  0.01508514  1
  Al0+  Al88  1  0.32088736  0.57149145  0.01291228  1
  Al0+  Al89  1  0.92523014  0.32177591  0.65128654  1
  Al0+  Al90  1  0.31967627  0.07069706  0.67911030  1
  Al0+  Al91  1  0.32088476  0.57248241  0.34802091  1
  Al0+  Al92  1  0.68014378  0.43014135  0.68015412  1
  Al0+  Al93  1  0.67832438  0.43003179  0.01328846  1
  Al0+  Al94  1  0.82416705  0.07284825  0.01806342  1
  Al0+  Al95  1  0.82137834  0.06942028  0.67827058  1
  Si0+  Si96  1  0.92799746  0.82323765  0.98212444  1
  Si0+  Si97  1  0.07251741  0.17746462  0.98270057  1
  Si0+  Si98  1  0.17735134  0.92525443  0.68309848  1
  Si0+  Si99  1  0.57021078  0.17810235  0.31900468  1
  Si0+  Si100  1  0.32269336  0.57407466  0.68250577  1
  Si0+  Si101  1  0.92913628  0.81908970  0.65261535  1
  Si0+  Si102  1  0.43007029  0.82226341  0.65163719  1
  Si0+  Si103  1  0.57114691  0.17663418  0.98422181  1
  Si0+  Si104  1  0.82354471  0.07116889  0.35017885  1
  Si0+  Si105  1  0.57170843  0.67954571  0.64822725  1
  Si0+  Si106  1  0.17884082  0.92614621  0.01811688  1
  Si0+  Si107  1  0.42794441  0.82453018  0.98124285  1
  Si0+  Si108  1  0.07281671  0.67800698  0.31872605  1
  Si0+  Si109  1  0.82179548  0.57205434  0.01367426  1
  Si0+  Si110  1  0.32064658  0.07174299  0.34920507  1
  Si0+  Si111  1  0.17807938  0.92978026  0.34742433  1
  Si0+  Si112  1  0.07273597  0.67924546  0.64990848  1
  Si0+  Si113  1  0.57051003  0.67757489  0.31745558  1
  Si0+  Si114  1  0.17940080  0.42741839  0.35190268  1
  Si0+  Si115  1  0.67727226  0.92589968  0.68352518  1
  Si0+  Si116  1  0.43078109  0.32246468  0.31842248  1
  Si0+  Si117  1  0.82277570  0.57397170  0.68482522  1
  Si0+  Si118  1  0.67701510  0.42493176  0.35081792  1
  Si0+  Si119  1  0.57107140  0.17506075  0.65084900  1
  O2-  O120  1  0.24572341  -0.00360936  0.06265309  1
  O2-  O121  1  0.24685130  0.00291306  0.39053926  1
  O2-  O122  1  0.24324791  -0.00275821  0.72564833  1
  O2-  O123  1  0.24742311  0.50221309  0.06452303  1
  O2-  O124  1  0.24743612  0.49752116  0.39586859  1
  O2-  O125  1  0.25526113  0.50478454  0.72584374  1
  O2-  O126  1  0.75486023  -0.00318574  0.06598602  1
  O2-  O127  1  0.75613000  0.00139209  0.39578499  1
  O2-  O128  1  0.74559598  -0.00471679  0.72540844  1
  O2-  O129  1  0.75431407  0.50331967  0.05909916  1
  O2-  O130  1  0.75025318  0.49037560  0.39256026  1
  O2-  O131  1  0.75923949  0.50020962  0.72737614  1
  O2-  O132  1  -0.00045472  0.24983223  0.26683779  1
  O2-  O133  1  -0.00289459  0.24856143  0.60272791  1
  O2-  O134  1  0.00167210  0.24357192  0.93880762  1
  O2-  O135  1  -0.00037860  0.74190025  0.27442392  1
  O2-  O136  1  0.00011733  0.74887369  0.60842813  1
  O2-  O137  1  -0.00174728  0.75568532  0.93798478  1
  O2-  O138  1  0.50397827  0.25374342  0.27705975  1
  O2-  O139  1  0.50296592  0.24467296  0.60602206  1
  O2-  O140  1  0.50296067  0.24517841  0.93918532  1
  O2-  O141  1  0.50059762  0.74447325  0.27284823  1
  O2-  O142  1  0.50085887  0.75176532  0.60796635  1
  O2-  O143  1  0.49579317  0.75443944  0.93754063  1
  O2-  O144  1  0.07196286  0.17831190  0.08825329  1
  O2-  O145  1  0.07369144  0.17918856  0.42935169  1
  O2-  O146  1  0.07085738  0.17979572  0.76648044  1
  O2-  O147  1  0.07008053  0.68188444  0.09960357  1
  O2-  O148  1  0.07310697  0.68210779  0.42491444  1
  O2-  O149  1  0.07425330  0.68102255  0.75488229  1
  O2-  O150  1  0.56809731  0.17711572  0.09043002  1
  O2-  O151  1  0.56879519  0.17712018  0.42434447  1
  O2-  O152  1  0.56975026  0.17185030  0.75594796  1
  O2-  O153  1  0.57084149  0.68045585  0.09901392  1
  O2-  O154  1  0.56890134  0.67947665  0.42362759  1
  O2-  O155  1  0.57221557  0.67898661  0.75321361  1
  O2-  O156  1  0.17994918  0.42845817  0.24667589  1
  O2-  O157  1  0.18222133  0.43353410  0.56578624  1
  O2-  O158  1  0.17607264  0.42861474  0.90261205  1
  O2-  O159  1  0.18081727  0.92691352  0.24276682  1
  O2-  O160  1  0.17882430  0.92075527  0.57739305  1
  O2-  O161  1  0.18089456  0.92429686  0.91227641  1
  O2-  O162  1  0.67221906  0.42722406  0.24554933  1
  O2-  O163  1  0.67871716  0.43453329  0.56676749  1
  O2-  O164  1  0.67742224  0.43204956  0.90017043  1
  O2-  O165  1  0.67897916  0.93054962  0.23591556  1
  O2-  O166  1  0.67682551  0.92522605  0.57768082  1
  O2-  O167  1  0.68324842  0.92911991  0.90094975  1
  O2-  O168  1  0.43243621  0.31981048  0.10152782  1
  O2-  O169  1  0.42978468  0.32090912  0.42378959  1
  O2-  O170  1  0.42902636  0.32104122  0.76551905  1
  O2-  O171  1  0.42778517  0.82429233  0.08687098  1
  O2-  O172  1  0.43058798  0.82235801  0.43312219  1
  O2-  O173  1  0.42963786  0.82294981  0.75628539  1
  O2-  O174  1  0.92897524  0.32112367  0.09800344  1
  O2-  O175  1  0.92769887  0.31975794  0.43054981  1
  O2-  O176  1  0.92518400  0.32029166  0.76468570  1
  O2-  O177  1  0.92684248  0.81970260  0.08772565  1
  O2-  O178  1  0.93001265  0.81911113  0.43401290  1
  O2-  O179  1  0.92956965  0.81732849  0.75750280  1
  O2-  O180  1  0.32188181  0.07087241  0.24430469  1
  O2-  O181  1  0.32106226  0.06709007  0.56562365  1
  O2-  O182  1  0.31898168  0.07146863  0.90191107  1
  O2-  O183  1  0.32131659  0.57193545  0.23550417  1
  O2-  O184  1  0.31994596  0.57709353  0.57656470  1
  O2-  O185  1  0.32013257  0.56890945  0.89904254  1
  O2-  O186  1  0.82020652  0.07079657  0.24513034  1
  O2-  O187  1  0.82024095  0.06505450  0.56491871  1
  O2-  O188  1  0.82268021  0.07197738  0.90385554  1
  O2-  O189  1  0.81829441  0.57106085  0.23234372  1
  O2-  O190  1  0.81944014  0.58005408  0.57929170  1
  O2-  O191  1  0.82038451  0.57288929  0.90789649  1
  O2-  O192  1  0.04985524  0.07985596  0.26196398  1
  O2-  O193  1  0.04666231  0.07654145  0.60277865  1
  O2-  O194  1  0.05365522  0.08111712  0.93841081  1
  O2-  O195  1  0.05314067  0.58236478  0.27632291  1
  O2-  O196  1  0.04612802  0.58842365  0.60067517  1
  O2-  O197  1  0.03872170  0.58564198  0.92847254  1
  O2-  O198  1  0.53658873  0.08922644  0.27014339  1
  O2-  O199  1  0.54428274  0.08140461  0.60358495  1
  O2-  O200  1  0.54624965  0.08248418  0.93912115  1
  O2-  O201  1  0.54688499  0.58223362  0.27432313  1
  O2-  O202  1  0.54395738  0.58977360  0.59731696  1
  O2-  O203  1  0.53791538  0.58503511  0.92933458  1
  O2-  O204  1  0.17203349  0.20814006  0.26355683  1
  O2-  O205  1  0.16807990  0.20814699  0.59871935  1
  O2-  O206  1  0.16659810  0.20548095  0.93965494  1
  O2-  O207  1  0.16391710  0.71006370  0.27220113  1
  O2-  O208  1  0.16444695  0.70873449  0.60206970  1
  O2-  O209  1  0.16702311  0.71185677  0.92924531  1
  O2-  O210  1  0.66319076  0.19960406  0.27140591  1
  O2-  O211  1  0.66363775  0.20149245  0.60329649  1
  O2-  O212  1  0.66561357  0.20162424  0.94122150  1
  O2-  O213  1  0.66375673  0.70420611  0.27293839  1
  O2-  O214  1  0.66412568  0.70737913  0.60094576  1
  O2-  O215  1  0.66635323  0.71059966  0.92785955  1
  O2-  O216  1  0.07719514  0.46123520  0.06743521  1
  O2-  O217  1  0.08580666  0.45133202  0.39857980  1
  O2-  O218  1  0.08301649  0.46283373  0.73205734  1
  O2-  O219  1  0.08413560  0.94805018  0.06305912  1
  O2-  O220  1  0.08472441  0.95509256  0.39367994  1
  O2-  O221  1  0.08302269  0.94411283  0.72956116  1
  O2-  O222  1  0.58381487  0.46428876  0.06846589  1
  O2-  O223  1  0.58566942  0.45446924  0.40020106  1
  O2-  O224  1  0.58430333  0.46775729  0.73229305  1
  O2-  O225  1  0.58281149  0.95463156  0.06839282  1
  O2-  O226  1  0.58328641  0.96383505  0.40281901  1
  O2-  O227  1  0.58350405  0.94886048  0.72967793  1
  O2-  O228  1  0.20388587  0.33244027  0.07197865  1
  O2-  O229  1  0.21008996  0.33450912  0.39710717  1
  O2-  O230  1  0.21036607  0.33452652  0.73270455  1
  O2-  O231  1  0.20608718  0.83382618  0.06540801  1
  O2-  O232  1  0.20719115  0.83971001  0.39830620  1
  O2-  O233  1  0.20851595  0.83334834  0.73083531  1
  O2-  O234  1  0.70435620  0.33351900  0.06862726  1
  O2-  O235  1  0.69838699  0.32943779  0.39539205  1
  O2-  O236  1  0.70109070  0.33146576  0.73362557  1
  O2-  O237  1  0.70856876  0.82817369  0.06690043  1
  O2-  O238  1  0.70639861  0.83235269  0.40353396  1
  O2-  O239  1  0.70407269  0.83196127  0.72831945  1
  O2-  O240  1  0.45765706  0.41557976  0.27340682  1
  O2-  O241  1  0.46199839  0.41714640  0.59699266  1
  O2-  O242  1  0.46075745  0.41607725  0.93327133  1
  O2-  O243  1  0.46069658  0.91815563  0.26583165  1
  O2-  O244  1  0.45751671  0.91402624  0.60322870  1
  O2-  O245  1  0.45724901  0.91780602  0.93578938  1
  O2-  O246  1  0.95658079  0.42131671  0.26596680  1
  O2-  O247  1  0.95333169  0.42208331  0.60064800  1
  O2-  O248  1  0.95528925  0.41641585  0.92982298  1
  O2-  O249  1  0.95826763  0.91315815  0.26333413  1
  O2-  O250  1  0.95671247  0.91012886  0.60400817  1
  O2-  O251  1  0.95454978  0.91775168  0.93830809  1
  O2-  O252  1  0.34018330  0.29330414  0.27072307  1
  O2-  O253  1  0.33449967  0.28921960  0.59603001  1
  O2-  O254  1  0.33122417  0.28853979  0.93762219  1
  O2-  O255  1  0.33132473  0.79467604  0.26615729  1
  O2-  O256  1  0.33782946  0.79521153  0.60327460  1
  O2-  O257  1  0.33402847  0.80278886  0.93445212  1
  O2-  O258  1  0.82746116  0.29576197  0.26594379  1
  O2-  O259  1  0.82575390  0.29401625  0.59963013  1
  O2-  O260  1  0.82934571  0.28763025  0.93514929  1
  O2-  O261  1  0.82971893  0.78721712  0.26820865  1
  O2-  O262  1  0.83667446  0.79132141  0.60535905  1
  O2-  O263  1  0.83613423  0.79673522  0.93337598  1
  O2-  O264  1  0.41601240  0.04104244  0.06992229  1
  O2-  O265  1  0.41095065  0.04100960  0.39753333  1
  O2-  O266  1  0.41505732  0.03805224  0.73485267  1
  O2-  O267  1  0.41793293  0.54208620  0.06711810  1
  O2-  O268  1  0.41740461  0.54286594  0.40417876  1
  O2-  O269  1  0.41851925  0.55058483  0.72305883  1
  O2-  O270  1  0.92426999  0.04869285  0.06872177  1
  O2-  O271  1  0.91873024  0.04500376  0.39212617  1
  O2-  O272  1  0.91640444  0.03618648  0.73425205  1
  O2-  O273  1  0.91540702  0.54800032  0.05886447  1
  O2-  O274  1  0.91949361  0.54452270  0.40116440  1
  O2-  O275  1  0.91944614  0.55625035  0.72637177  1
  O2-  O276  1  0.28946769  0.16600374  0.07302169  1
  O2-  O277  1  0.29507779  0.16502255  0.39538662  1
  O2-  O278  1  0.29043324  0.16737647  0.73245525  1
  O2-  O279  1  0.29561243  0.67241409  0.06224069  1
  O2-  O280  1  0.29033574  0.66967957  0.40253893  1
  O2-  O281  1  0.29776653  0.66797089  0.72846575  1
  O2-  O282  1  0.78971271  0.16721433  0.07439617  1
  O2-  O283  1  0.79459465  0.16433529  0.39600655  1
  O2-  O284  1  0.78977467  0.16488224  0.73289437  1
  O2-  O285  1  0.79569336  0.66607157  0.05818250  1
  O2-  O286  1  0.78704977  0.66240569  0.40424473  1
  O2-  O287  1  0.79139262  0.66516220  0.73347873  1
