# generated using pymatgen
data_Ca2Al2SiO7
_symmetry_space_group_name_H-M   'P 1'
_cell_length_a   15.45767507
_cell_length_b   15.45681402
_cell_length_c   15.28240438
_cell_angle_alpha   90.01043358
_cell_angle_beta   89.99836710
_cell_angle_gamma   90.00939582
_symmetry_Int_Tables_number   1
_chemical_formula_structural   Ca2Al2SiO7
_chemical_formula_sum   'Ca48 Al48 Si24 O168'
_cell_volume   3651.36988369
_cell_formula_units_Z   24
loop_
 _symmetry_equiv_pos_site_id
 _symmetry_equiv_pos_as_xyz
  1  'x, y, z'
loop_
 _atom_type_symbol
 _atom_type_oxidation_number
  Ca2+  2.0
  Al0+  0.0
  Si0+  0.0
  O2-  -2.0
loop_
 _atom_site_type_symbol
 _atom_site_label
 _atom_site_symmetry_multiplicity
 _atom_site_fract_x
 _atom_site_fract_y
 _atom_site_fract_z
 _atom_site_occupancy
  Ca2+  Ca0  1  0.17246472  0.08904181  0.16359606  1
  Ca2+  Ca1  1  0.16713943  0.07515555  0.50478586  1
  Ca2+  Ca2  1  0.16611750  0.07927226  0.84191475  1
  Ca2+  Ca3  1  0.16568704  0.57557618  0.16985448  1
  Ca2+  Ca4  1  0.17796132  0.58733037  0.50356386  1
  Ca2+  Ca5  1  0.16847910  0.57963448  0.83978269  1
  Ca2+  Ca6  1  0.68116828  0.07518696  0.17310246  1
  Ca2+  Ca7  1  0.66978433  0.07334056  0.50481227  1
  Ca2+  Ca8  1  0.67018281  0.08087678  0.83710312  1
  Ca2+  Ca9  1  0.65693866  0.57500811  0.16654935  1
  Ca2+  Ca10  1  0.67163479  0.57099995  0.50834877  1
  Ca2+  Ca11  1  0.67123929  0.57650036  0.83727893  1
  Ca2+  Ca12  1  0.08756813  0.33070273  0.15677786  1
  Ca2+  Ca13  1  0.07665256  0.33878109  0.49772917  1
  Ca2+  Ca14  1  0.08306821  0.32747157  0.83066776  1
  Ca2+  Ca15  1  0.07384560  0.82611525  0.15746824  1
  Ca2+  Ca16  1  0.07211767  0.83557290  0.49750030  1
  Ca2+  Ca17  1  0.07238111  0.83415570  0.82902636  1
  Ca2+  Ca18  1  0.57714550  0.33908296  0.15808601  1
  Ca2+  Ca19  1  0.59353066  0.32912673  0.49907348  1
  Ca2+  Ca20  1  0.58485687  0.33120363  0.82864372  1
  Ca2+  Ca21  1  0.58022520  0.82729521  0.15769163  1
  Ca2+  Ca22  1  0.58821565  0.83402989  0.49575264  1
  Ca2+  Ca23  1  0.58113239  0.83173808  0.83065028  1
  Ca2+  Ca24  1  0.32329860  0.41910475  0.16983043  1
  Ca2+  Ca25  1  0.32857167  0.42827572  0.50129171  1
  Ca2+  Ca26  1  0.33215903  0.42006003  0.84153174  1
  Ca2+  Ca27  1  0.33833038  0.91991608  0.16425679  1
  Ca2+  Ca28  1  0.32296785  0.91477094  0.50985295  1
  Ca2+  Ca29  1  0.32900546  0.92179754  0.83968203  1
  Ca2+  Ca30  1  0.81901177  0.41718431  0.17116023  1
  Ca2+  Ca31  1  0.82744974  0.41997834  0.51122960  1
  Ca2+  Ca32  1  0.82547494  0.41310084  0.83590211  1
  Ca2+  Ca33  1  0.84012177  0.92310626  0.17100066  1
  Ca2+  Ca34  1  0.82888644  0.91583096  0.50415252  1
  Ca2+  Ca35  1  0.83283457  0.91610693  0.83789746  1
  Ca2+  Ca36  1  0.41830534  0.17370185  0.15440501  1
  Ca2+  Ca37  1  0.42720399  0.16584993  0.49903103  1
  Ca2+  Ca38  1  0.41823238  0.17297265  0.83041282  1
  Ca2+  Ca39  1  0.42022374  0.66988426  0.15766451  1
  Ca2+  Ca40  1  0.41426671  0.66180442  0.49678537  1
  Ca2+  Ca41  1  0.42147999  0.66556529  0.83311258  1
  Ca2+  Ca42  1  0.91987646  0.16289298  0.15980279  1
  Ca2+  Ca43  1  0.91264743  0.17115900  0.49848863  1
  Ca2+  Ca44  1  0.91693956  0.17007730  0.83181867  1
  Ca2+  Ca45  1  0.91844844  0.67894492  0.15775646  1
  Ca2+  Ca46  1  0.90478846  0.67769610  0.49889241  1
  Ca2+  Ca47  1  0.91836758  0.67181761  0.82836586  1
  Al0+  Al48  1  0.00092517  0.00070748  -0.00302239  1
  Al0+  Al49  1  0.00159843  0.00252062  0.33278657  1
  Al0+  Al50  1  0.00007088  -0.00119853  0.66542744  1
  Al0+  Al51  1  -0.00219818  0.50049638  0.00176288  1
  Al0+  Al52  1  -0.00124134  0.49986128  0.33488570  1
  Al0+  Al53  1  0.00257107  0.50067790  0.66434747  1
  Al0+  Al54  1  0.50037067  0.00065238  0.00145472  1
  Al0+  Al55  1  0.50176393  0.00065333  0.33391535  1
  Al0+  Al56  1  0.50023680  0.00037147  0.66483116  1
  Al0+  Al57  1  0.49875121  0.50011184  -0.00483293  1
  Al0+  Al58  1  0.49905478  0.49876201  0.34121956  1
  Al0+  Al59  1  0.49879087  0.49997999  0.67232339  1
  Al0+  Al60  1  0.25022557  0.24985470  -0.00220540  1
  Al0+  Al61  1  0.25065676  0.25108376  0.33967737  1
  Al0+  Al62  1  0.25205143  0.25035804  0.66089989  1
  Al0+  Al63  1  0.24969464  0.75078156  -0.00609832  1
  Al0+  Al64  1  0.25025186  0.75090847  0.33421874  1
  Al0+  Al65  1  0.24936991  0.75099209  0.67608756  1
  Al0+  Al66  1  0.74962919  0.24892087  0.01058904  1
  Al0+  Al67  1  0.75141167  0.24755968  0.33761072  1
  Al0+  Al68  1  0.75028036  0.24827249  0.66100257  1
  Al0+  Al69  1  0.74883737  0.74875100  -0.00715326  1
  Al0+  Al70  1  0.74782474  0.75027090  0.32782971  1
  Al0+  Al71  1  0.74866178  0.74943121  0.66995630  1
  Al0+  Al72  1  0.67895459  0.42926863  0.34780834  1
  Al0+  Al73  1  0.93102051  0.32080878  0.65396610  1
  Al0+  Al74  1  0.67836518  0.43022536  0.01396964  1
  Al0+  Al75  1  0.31937860  0.57201204  0.34624872  1
  Al0+  Al76  1  0.17619598  0.42725187  0.34983133  1
  Al0+  Al77  1  0.57030466  0.17891262  0.65251648  1
  Al0+  Al78  1  0.92874294  0.82122099  0.31911826  1
  Al0+  Al79  1  0.42901185  0.82455708  0.98370090  1
  Al0+  Al80  1  0.67889830  0.92779892  0.34701693  1
  Al0+  Al81  1  0.82302978  0.57164688  0.68174880  1
  Al0+  Al82  1  0.32133273  0.07085545  0.01227598  1
  Al0+  Al83  1  0.92947779  0.82208272  0.98339157  1
  Al0+  Al84  1  0.07096008  0.18131098  0.98740473  1
  Al0+  Al85  1  0.57008151  0.67759206  0.98286017  1
  Al0+  Al86  1  0.17788398  0.42960541  0.01106725  1
  Al0+  Al87  1  0.82185117  0.06908492  0.01275046  1
  Al0+  Al88  1  0.32031225  0.57089759  0.68421114  1
  Al0+  Al89  1  0.07070883  0.67544155  0.98477529  1
  Al0+  Al90  1  0.92780501  0.81959316  0.65094705  1
  Al0+  Al91  1  0.82466727  0.06938758  0.35111709  1
  Al0+  Al92  1  0.67810396  0.92898689  0.68173781  1
  Al0+  Al93  1  0.42880424  0.31996080  0.98753634  1
  Al0+  Al94  1  0.17736115  0.93118153  0.68139291  1
  Al0+  Al95  1  0.68083091  0.42613850  0.68304258  1
  Si0+  Si96  1  0.17861015  0.42634411  0.68361054  1
  Si0+  Si97  1  0.07390766  0.17720100  0.64846616  1
  Si0+  Si98  1  0.07291672  0.18109627  0.31822401  1
  Si0+  Si99  1  0.92792969  0.32158303  0.31742969  1
  Si0+  Si100  1  0.32220785  0.07239206  0.68162409  1
  Si0+  Si101  1  0.32115965  0.57312656  0.01580472  1
  Si0+  Si102  1  0.57202281  0.17796060  0.31605670  1
  Si0+  Si103  1  0.07423250  0.67873759  0.31765558  1
  Si0+  Si104  1  0.32292814  0.07254149  0.34871795  1
  Si0+  Si105  1  0.17843176  0.92777049  0.01777821  1
  Si0+  Si106  1  0.07415086  0.67901069  0.64878972  1
  Si0+  Si107  1  0.92465409  0.32150911  0.98712614  1
  Si0+  Si108  1  0.82139754  0.57378353  0.01775428  1
  Si0+  Si109  1  0.42734988  0.32442108  0.64648214  1
  Si0+  Si110  1  0.18115804  0.93024355  0.34608045  1
  Si0+  Si111  1  0.56825611  0.67746778  0.32072908  1
  Si0+  Si112  1  0.56950093  0.67833505  0.65004587  1
  Si0+  Si113  1  0.82180544  0.07109884  0.68332837  1
  Si0+  Si114  1  0.42691429  0.82263932  0.32003975  1
  Si0+  Si115  1  0.67785536  0.92610445  0.01582701  1
  Si0+  Si116  1  0.42876935  0.82019346  0.65117021  1
  Si0+  Si117  1  0.43036931  0.31987970  0.31944483  1
  Si0+  Si118  1  0.57403810  0.17914651  0.98638439  1
  Si0+  Si119  1  0.82147471  0.57274121  0.34734954  1
  O2-  O120  1  0.24976341  -0.00578220  0.06231275  1
  O2-  O121  1  0.25429289  -0.00109781  0.38977460  1
  O2-  O122  1  0.24934235  0.00928407  0.72603642  1
  O2-  O123  1  0.24902149  0.50754676  0.05910238  1
  O2-  O124  1  0.24454227  0.50365060  0.39758963  1
  O2-  O125  1  0.24768979  0.49346160  0.72853490  1
  O2-  O126  1  0.75025491  -0.00893369  0.05955726  1
  O2-  O127  1  0.75290019  -0.00371045  0.39904249  1
  O2-  O128  1  0.75458558  0.00159663  0.72796122  1
  O2-  O129  1  0.75136208  0.50606505  0.06219336  1
  O2-  O130  1  0.75668136  0.50112311  0.39267503  1
  O2-  O131  1  0.75405092  0.49692132  0.73236411  1
  O2-  O132  1  0.00290191  0.25365094  0.27642137  1
  O2-  O133  1  0.00719421  0.24776252  0.60456239  1
  O2-  O134  1  -0.00407478  0.25598024  0.94220499  1
  O2-  O135  1  0.00210042  0.74406067  0.27418639  1
  O2-  O136  1  0.00154187  0.74331599  0.60344429  1
  O2-  O137  1  -0.00010246  0.74807088  0.93428197  1
  O2-  O138  1  0.50179931  0.25026150  0.27455838  1
  O2-  O139  1  0.49796893  0.25634715  0.60382565  1
  O2-  O140  1  0.50518694  0.24679930  0.94135741  1
  O2-  O141  1  0.49825908  0.75093833  0.28005625  1
  O2-  O142  1  0.49852346  0.74938022  0.60625539  1
  O2-  O143  1  0.50029343  0.75241815  0.93325749  1
  O2-  O144  1  0.07181118  0.18244716  0.10109656  1
  O2-  O145  1  0.07372245  0.17954800  0.42330056  1
  O2-  O146  1  0.07552642  0.17765727  0.75376969  1
  O2-  O147  1  0.06886013  0.67691621  0.09933158  1
  O2-  O148  1  0.07885694  0.68305240  0.42297550  1
  O2-  O149  1  0.07479916  0.68093711  0.75391599  1
  O2-  O150  1  0.57214327  0.18062244  0.09240691  1
  O2-  O151  1  0.56877719  0.17649634  0.42118506  1
  O2-  O152  1  0.56753802  0.17868272  0.76563506  1
  O2-  O153  1  0.56649111  0.67676144  0.09767276  1
  O2-  O154  1  0.56779227  0.67724073  0.42593065  1
  O2-  O155  1  0.56781604  0.67927871  0.75449594  1
  O2-  O156  1  0.17982065  0.42402228  0.23626799  1
  O2-  O157  1  0.18000271  0.42720337  0.57785466  1
  O2-  O158  1  0.18118588  0.42785463  0.89819032  1
  O2-  O159  1  0.18261044  0.93044069  0.24135115  1
  O2-  O160  1  0.17974190  0.93148553  0.56703101  1
  O2-  O161  1  0.17760088  0.93143545  0.91238461  1
  O2-  O162  1  0.67560980  0.43180202  0.23463364  1
  O2-  O163  1  0.68217710  0.42832481  0.56893464  1
  O2-  O164  1  0.68151927  0.42682893  0.90165724  1
  O2-  O165  1  0.67475014  0.93003594  0.23375166  1
  O2-  O166  1  0.67769596  0.92975722  0.56855095  1
  O2-  O167  1  0.67613966  0.92991589  0.91029171  1
  O2-  O168  1  0.42893913  0.31940607  0.10150529  1
  O2-  O169  1  0.43085740  0.31725275  0.42439194  1
  O2-  O170  1  0.42315930  0.32175848  0.75178494  1
  O2-  O171  1  0.43126460  0.82373825  0.09851779  1
  O2-  O172  1  0.42418924  0.82365795  0.42522593  1
  O2-  O173  1  0.43063045  0.82151686  0.75549850  1
  O2-  O174  1  0.92411755  0.31916062  0.09311701  1
  O2-  O175  1  0.92804930  0.32033429  0.42251278  1
  O2-  O176  1  0.93135563  0.31707525  0.76713220  1
  O2-  O177  1  0.93224169  0.82230828  0.09769530  1
  O2-  O178  1  0.92982495  0.82025090  0.43230401  1
  O2-  O179  1  0.93013029  0.82125518  0.76323804  1
  O2-  O180  1  0.32228933  0.07461979  0.24379351  1
  O2-  O181  1  0.32212885  0.06892664  0.57514239  1
  O2-  O182  1  0.31861191  0.07137326  0.89941183  1
  O2-  O183  1  0.32077651  0.57159787  0.23303985  1
  O2-  O184  1  0.31902259  0.57194374  0.57066886  1
  O2-  O185  1  0.32180451  0.56962269  0.91039633  1
  O2-  O186  1  0.82490189  0.06909379  0.23736839  1
  O2-  O187  1  0.82131290  0.06988913  0.57761237  1
  O2-  O188  1  0.81862630  0.07254093  0.89985163  1
  O2-  O189  1  0.82057025  0.57116201  0.24180813  1
  O2-  O190  1  0.81751234  0.57192285  0.56732035  1
  O2-  O191  1  0.82227140  0.57156723  0.91259609  1
  O2-  O192  1  0.04586008  0.08974218  0.26955661  1
  O2-  O193  1  0.04575014  0.08461066  0.60132891  1
  O2-  O194  1  0.04144161  0.08552812  0.93245621  1
  O2-  O195  1  0.05182883  0.58260682  0.27496852  1
  O2-  O196  1  0.05656500  0.58342314  0.60338881  1
  O2-  O197  1  0.04257534  0.57688582  0.93151503  1
  O2-  O198  1  0.54206293  0.08690019  0.26805673  1
  O2-  O199  1  0.53484586  0.08413784  0.59510601  1
  O2-  O200  1  0.55005170  0.08521895  0.94146913  1
  O2-  O201  1  0.53718093  0.58594614  0.27394772  1
  O2-  O202  1  0.54026641  0.58582210  0.60382860  1
  O2-  O203  1  0.53880359  0.58156820  0.92755172  1
  O2-  O204  1  0.16646688  0.20812643  0.27265324  1
  O2-  O205  1  0.16855534  0.19906155  0.60100675  1
  O2-  O206  1  0.16553016  0.21206393  0.93051226  1
  O2-  O207  1  0.16613005  0.70792084  0.26906279  1
  O2-  O208  1  0.16683089  0.71204659  0.60371335  1
  O2-  O209  1  0.17004576  0.69999704  0.93316622  1
  O2-  O210  1  0.66571159  0.20347655  0.27184794  1
  O2-  O211  1  0.66628261  0.20640716  0.59528581  1
  O2-  O212  1  0.66736181  0.20651394  0.94142790  1
  O2-  O213  1  0.65899089  0.70236789  0.26996330  1
  O2-  O214  1  0.66109635  0.70648660  0.60281884  1
  O2-  O215  1  0.66883218  0.70104993  0.92953295  1
  O2-  O216  1  0.07994109  0.45491176  0.06655334  1
  O2-  O217  1  0.07574024  0.45089644  0.40054565  1
  O2-  O218  1  0.08500184  0.45083445  0.72858255  1
  O2-  O219  1  0.08646370  0.95748506  0.06434141  1
  O2-  O220  1  0.09148496  0.96226798  0.39478323  1
  O2-  O221  1  0.08119486  0.96142643  0.73539452  1
  O2-  O222  1  0.58056694  0.46216471  0.06632053  1
  O2-  O223  1  0.58437461  0.46015292  0.40476254  1
  O2-  O224  1  0.58133526  0.45324120  0.73269390  1
  O2-  O225  1  0.58575417  0.95438777  0.06372988  1
  O2-  O226  1  0.58071699  0.95838775  0.40132778  1
  O2-  O227  1  0.58132401  0.96185575  0.73390605  1
  O2-  O228  1  0.21314194  0.33464969  0.06576985  1
  O2-  O229  1  0.20889219  0.33136313  0.40612958  1
  O2-  O230  1  0.20336695  0.33043637  0.72564911  1
  O2-  O231  1  0.20247884  0.83293797  0.06237033  1
  O2-  O232  1  0.20728629  0.83902468  0.39536098  1
  O2-  O233  1  0.21031376  0.83755556  0.73741284  1
  O2-  O234  1  0.70865536  0.33531405  0.07233655  1
  O2-  O235  1  0.70827522  0.33170388  0.39919863  1
  O2-  O236  1  0.70876380  0.32627693  0.73259344  1
  O2-  O237  1  0.69846201  0.82988579  0.05836636  1
  O2-  O238  1  0.70294701  0.82720797  0.39750053  1
  O2-  O239  1  0.70523480  0.83214442  0.73500384  1
  O2-  O240  1  0.45779962  0.41276938  0.27414383  1
  O2-  O241  1  0.45204300  0.41920870  0.60272897  1
  O2-  O242  1  0.45704503  0.41537000  0.93202788  1
  O2-  O243  1  0.45461474  0.91485000  0.27268901  1
  O2-  O244  1  0.45486800  0.91213487  0.60233859  1
  O2-  O245  1  0.45680255  0.92354665  0.93118982  1
  O2-  O246  1  0.94967131  0.41570650  0.27114007  1
  O2-  O247  1  0.96076601  0.41748698  0.59758225  1
  O2-  O248  1  0.94509743  0.41633004  0.94319695  1
  O2-  O249  1  0.96416238  0.91773247  0.26733226  1
  O2-  O250  1  0.96134519  0.91625127  0.59711056  1
  O2-  O251  1  0.96024633  0.91919697  0.92997565  1
  O2-  O252  1  0.33763101  0.29060210  0.27416128  1
  O2-  O253  1  0.33511014  0.29703054  0.59679761  1
  O2-  O254  1  0.33546229  0.28573254  0.93052185  1
  O2-  O255  1  0.33571837  0.79594797  0.27052326  1
  O2-  O256  1  0.33544896  0.79158800  0.60607941  1
  O2-  O257  1  0.32973559  0.80041018  0.93174075  1
  O2-  O258  1  0.83685295  0.28987580  0.27020866  1
  O2-  O259  1  0.83627525  0.28829601  0.59680906  1
  O2-  O260  1  0.83254366  0.29014370  0.94137357  1
  O2-  O261  1  0.83186762  0.79256914  0.26386753  1
  O2-  O262  1  0.82992195  0.78863880  0.59827353  1
  O2-  O263  1  0.82996877  0.79771584  0.93246431  1
  O2-  O264  1  0.41835549  0.04333646  0.06896041  1
  O2-  O265  1  0.41513076  0.04613816  0.39552783  1
  O2-  O266  1  0.41353747  0.04263520  0.72792197  1
  O2-  O267  1  0.41350819  0.54359287  0.06174222  1
  O2-  O268  1  0.41449219  0.53953577  0.40383863  1
  O2-  O269  1  0.41672708  0.54168231  0.73806442  1
  O2-  O270  1  0.91962122  0.04055031  0.06664607  1
  O2-  O271  1  0.92428467  0.04491118  0.40349339  1
  O2-  O272  1  0.91659570  0.04807172  0.72717396  1
  O2-  O273  1  0.91395785  0.54830658  0.06606874  1
  O2-  O274  1  0.91631977  0.55342101  0.39333435  1
  O2-  O275  1  0.92452138  0.54872464  0.72980368  1
  O2-  O276  1  0.28678438  0.16549520  0.06834625  1
  O2-  O277  1  0.29339481  0.16181473  0.39960900  1
  O2-  O278  1  0.30233952  0.16908793  0.72311156  1
  O2-  O279  1  0.30058340  0.66923851  0.05913171  1
  O2-  O280  1  0.29424914  0.67156954  0.40088958  1
  O2-  O281  1  0.29023564  0.66649878  0.73891350  1
  O2-  O282  1  0.79006012  0.16285911  0.07251049  1
  O2-  O283  1  0.79392649  0.16694805  0.40366976  1
  O2-  O284  1  0.79413172  0.16421127  0.72772451  1
  O2-  O285  1  0.79555989  0.66835340  0.06232281  1
  O2-  O286  1  0.79110135  0.66518837  0.39235257  1
  O2-  O287  1  0.79100057  0.66771132  0.73570839  1
