# generated using pymatgen
data_Ca2Al2SiO7
_symmetry_space_group_name_H-M   'P 1'
_cell_length_a   15.45627389
_cell_length_b   15.45647965
_cell_length_c   15.28251092
_cell_angle_alpha   89.98642750
_cell_angle_beta   89.99391313
_cell_angle_gamma   89.99631409
_symmetry_Int_Tables_number   1
_chemical_formula_structural   Ca2Al2SiO7
_chemical_formula_sum   'Ca48 Al48 Si24 O168'
_cell_volume   3650.98535301
_cell_formula_units_Z   24
loop_
 _symmetry_equiv_pos_site_id
 _symmetry_equiv_pos_as_xyz
  1  'x, y, z'
loop_
 _atom_type_symbol
 _atom_type_oxidation_number
  Ca2+  2.0
  Al0+  0.0
  Si0+  0.0
  O2-  -2.0
loop_
 _atom_site_type_symbol
 _atom_site_label
 _atom_site_symmetry_multiplicity
 _atom_site_fract_x
 _atom_site_fract_y
 _atom_site_fract_z
 _atom_site_occupancy
  Ca2+  Ca0  1  0.17056823  0.08987969  0.17152617  1
  Ca2+  Ca1  1  0.16630327  0.08089849  0.50198411  1
  Ca2+  Ca2  1  0.16859515  0.07721679  0.83933594  1
  Ca2+  Ca3  1  0.17620830  0.58113013  0.17879406  1
  Ca2+  Ca4  1  0.16006361  0.57457742  0.50423005  1
  Ca2+  Ca5  1  0.16605235  0.57731900  0.83679691  1
  Ca2+  Ca6  1  0.67141577  0.08290374  0.17392035  1
  Ca2+  Ca7  1  0.67603163  0.08331235  0.50019534  1
  Ca2+  Ca8  1  0.66579466  0.08118322  0.84063345  1
  Ca2+  Ca9  1  0.67691277  0.58908234  0.16879056  1
  Ca2+  Ca10  1  0.67904276  0.58674935  0.50431339  1
  Ca2+  Ca11  1  0.67371974  0.59376042  0.83701634  1
  Ca2+  Ca12  1  0.08647534  0.32776911  0.17224079  1
  Ca2+  Ca13  1  0.08583796  0.33133940  0.48877323  1
  Ca2+  Ca14  1  0.09130294  0.32806686  0.83153811  1
  Ca2+  Ca15  1  0.07231220  0.82971169  0.16596432  1
  Ca2+  Ca16  1  0.07998072  0.82337909  0.49614724  1
  Ca2+  Ca17  1  0.07516842  0.82712719  0.82356928  1
  Ca2+  Ca18  1  0.57785228  0.32771205  0.16337240  1
  Ca2+  Ca19  1  0.56896485  0.33907793  0.49492039  1
  Ca2+  Ca20  1  0.57581141  0.32898973  0.82856687  1
  Ca2+  Ca21  1  0.58064981  0.82768039  0.16153746  1
  Ca2+  Ca22  1  0.58315850  0.82746999  0.50023855  1
  Ca2+  Ca23  1  0.57946086  0.82218576  0.83061623  1
  Ca2+  Ca24  1  0.33000958  0.42399700  0.17579561  1
  Ca2+  Ca25  1  0.32384670  0.41337343  0.50020221  1
  Ca2+  Ca26  1  0.33024295  0.41774701  0.83401697  1
  Ca2+  Ca27  1  0.33447953  0.93120785  0.17350907  1
  Ca2+  Ca28  1  0.32434405  0.92346328  0.50421443  1
  Ca2+  Ca29  1  0.32370427  0.91778233  0.83929854  1
  Ca2+  Ca30  1  0.83485361  0.42487556  0.17491471  1
  Ca2+  Ca31  1  0.84719695  0.43123280  0.50059206  1
  Ca2+  Ca32  1  0.83331502  0.43390706  0.83848333  1
  Ca2+  Ca33  1  0.83691038  0.91693058  0.17277234  1
  Ca2+  Ca34  1  0.84855395  0.92049972  0.49935298  1
  Ca2+  Ca35  1  0.83601163  0.91042945  0.83654088  1
  Ca2+  Ca36  1  0.41174819  0.17158493  0.16186589  1
  Ca2+  Ca37  1  0.41002343  0.17814761  0.49333711  1
  Ca2+  Ca38  1  0.41779355  0.16811423  0.83131550  1
  Ca2+  Ca39  1  0.41971188  0.65982811  0.15955364  1
  Ca2+  Ca40  1  0.42300308  0.65854095  0.49481440  1
  Ca2+  Ca41  1  0.42839313  0.65244790  0.83126580  1
  Ca2+  Ca42  1  0.92675841  0.16727797  0.16529265  1
  Ca2+  Ca43  1  0.92380930  0.17440716  0.48533907  1
  Ca2+  Ca44  1  0.92449075  0.16857094  0.83158044  1
  Ca2+  Ca45  1  0.91677734  0.66975758  0.16442774  1
  Ca2+  Ca46  1  0.92571111  0.66855367  0.49241475  1
  Ca2+  Ca47  1  0.91485363  0.67469990  0.82467832  1
  Al0+  Al48  1  -0.00137581  0.00040136  -0.00860072  1
  Al0+  Al49  1  -0.00023958  -0.00104115  0.32989785  1
  Al0+  Al50  1  0.00222154  0.00086679  0.66934892  1
  Al0+  Al51  1  -0.00098060  0.49974012  0.00586247  1
  Al0+  Al52  1  0.00140029  0.49982688  0.33128596  1
  Al0+  Al53  1  0.00053813  0.49985406  0.67714867  1
  Al0+  Al54  1  0.49901555  -0.00032493  -0.00017287  1
  Al0+  Al55  1  0.50034829  -0.00123312  0.34095632  1
  Al0+  Al56  1  0.50340216  0.00062644  0.66626167  1
  Al0+  Al57  1  0.50028891  0.49816108  -0.00138783  1
  Al0+  Al58  1  0.50106796  0.49903720  0.32990706  1
  Al0+  Al59  1  0.50107920  0.49761282  0.65733139  1
  Al0+  Al60  1  0.24838529  0.24892552  -0.00170154  1
  Al0+  Al61  1  0.25203553  0.25146544  0.33175762  1
  Al0+  Al62  1  0.25154905  0.25115268  0.66829247  1
  Al0+  Al63  1  0.24696974  0.75023529  0.00531983  1
  Al0+  Al64  1  0.25316209  0.75193539  0.33282953  1
  Al0+  Al65  1  0.25096111  0.75071271  0.66948622  1
  Al0+  Al66  1  0.74928700  0.25056038  -0.00540706  1
  Al0+  Al67  1  0.74868845  0.24926780  0.33571683  1
  Al0+  Al68  1  0.75036839  0.25016695  0.66850987  1
  Al0+  Al69  1  0.74814699  0.75098812  -0.00235242  1
  Al0+  Al70  1  0.74801999  0.74970811  0.33455337  1
  Al0+  Al71  1  0.74837808  0.75424972  0.66198291  1
  Al0+  Al72  1  0.92942424  0.82249067  0.64992011  1
  Al0+  Al73  1  0.56959745  0.68000742  0.65107330  1
  Al0+  Al74  1  0.82170539  0.07032198  0.34503466  1
  Al0+  Al75  1  0.42968033  0.31816427  0.65183546  1
  Al0+  Al76  1  0.81865422  0.57286607  0.01466161  1
  Al0+  Al77  1  0.31975887  0.06890013  0.01321469  1
  Al0+  Al78  1  0.81891922  0.57220854  0.68051115  1
  Al0+  Al79  1  0.32425825  0.57365930  0.34921530  1
  Al0+  Al80  1  0.07183316  0.17851018  0.31949940  1
  Al0+  Al81  1  0.56793267  0.67933974  0.98748653  1
  Al0+  Al82  1  0.07209186  0.67618443  0.65367733  1
  Al0+  Al83  1  0.18070442  0.43138292  0.34785094  1
  Al0+  Al84  1  0.82034332  0.57073352  0.34679385  1
  Al0+  Al85  1  0.07012843  0.18100554  0.98388593  1
  Al0+  Al86  1  0.42996139  0.32038745  0.31709949  1
  Al0+  Al87  1  0.32099727  0.07200322  0.34794398  1
  Al0+  Al88  1  0.17926449  0.42884258  0.68233482  1
  Al0+  Al89  1  0.57157897  0.17757926  0.98734107  1
  Al0+  Al90  1  0.32117193  0.56972999  0.01213061  1
  Al0+  Al91  1  0.07404679  0.67747278  0.31768248  1
  Al0+  Al92  1  0.17939151  0.92828830  0.68107069  1
  Al0+  Al93  1  0.92964806  0.81850211  0.98510492  1
  Al0+  Al94  1  0.92809641  0.81907382  0.31739001  1
  Al0+  Al95  1  0.92632126  0.32268709  0.31907157  1
  Si0+  Si96  1  0.42753038  0.82509802  0.65037897  1
  Si0+  Si97  1  0.82113852  0.07229939  0.01285198  1
  Si0+  Si98  1  0.67926518  0.93016107  0.01423027  1
  Si0+  Si99  1  0.32250677  0.07188373  0.68351092  1
  Si0+  Si100  1  0.07062138  0.18077444  0.65249907  1
  Si0+  Si101  1  0.42796796  0.32063382  0.98235090  1
  Si0+  Si102  1  0.67567259  0.42805032  0.68320445  1
  Si0+  Si103  1  0.42956062  0.82395521  0.31916727  1
  Si0+  Si104  1  0.57135316  0.17549962  0.31870336  1
  Si0+  Si105  1  0.57479790  0.17631060  0.64787142  1
  Si0+  Si106  1  0.07345520  0.67608108  0.98391942  1
  Si0+  Si107  1  0.17745746  0.92817681  0.34903439  1
  Si0+  Si108  1  0.67789810  0.42655537  0.34976538  1
  Si0+  Si109  1  0.67811481  0.93078596  0.68441386  1
  Si0+  Si110  1  0.17408311  0.92874276  0.01812451  1
  Si0+  Si111  1  0.42543144  0.82271329  0.98535328  1
  Si0+  Si112  1  0.92642486  0.32428402  0.98160096  1
  Si0+  Si113  1  0.67806004  0.42581591  0.01586886  1
  Si0+  Si114  1  0.56947648  0.67977997  0.31707444  1
  Si0+  Si115  1  0.17780360  0.42661410  0.01857826  1
  Si0+  Si116  1  0.67767175  0.92721990  0.35227722  1
  Si0+  Si117  1  0.92833156  0.32087803  0.65485910  1
  Si0+  Si118  1  0.32486609  0.57149301  0.68148501  1
  Si0+  Si119  1  0.82173562  0.07207140  0.68349554  1
  O2-  O120  1  0.24559224  -0.00518686  0.06201077  1
  O2-  O121  1  0.24439185  -0.00087795  0.39346755  1
  O2-  O122  1  0.25726414  0.00044774  0.72797904  1
  O2-  O123  1  0.24409454  0.49879446  0.05998206  1
  O2-  O124  1  0.24861159  0.50654747  0.39985806  1
  O2-  O125  1  0.25218516  0.50719979  0.72641989  1
  O2-  O126  1  0.74878314  0.00284212  0.05542155  1
  O2-  O127  1  0.74908925  -0.00555838  0.39448021  1
  O2-  O128  1  0.75066833  0.00093707  0.72602674  1
  O2-  O129  1  0.74622934  0.49473435  0.06004819  1
  O2-  O130  1  0.75037923  0.49120709  0.39389475  1
  O2-  O131  1  0.74270366  0.49800962  0.72782542  1
  O2-  O132  1  -0.00285483  0.24875171  0.27016021  1
  O2-  O133  1  -0.00029367  0.25143311  0.61109727  1
  O2-  O134  1  -0.00298691  0.25744843  0.93677166  1
  O2-  O135  1  -0.00129470  0.74624836  0.26713646  1
  O2-  O136  1  -0.00065782  0.74734256  0.60293799  1
  O2-  O137  1  0.00342193  0.74291982  0.93905014  1
  O2-  O138  1  0.50291003  0.24266798  0.27245093  1
  O2-  O139  1  0.50517318  0.24361735  0.60480480  1
  O2-  O140  1  0.49636235  0.25059614  0.93915453  1
  O2-  O141  1  0.49530186  0.74830095  0.27607246  1
  O2-  O142  1  0.49106552  0.75179336  0.60549920  1
  O2-  O143  1  0.48707987  0.74789837  0.94042128  1
  O2-  O144  1  0.06951744  0.18002695  0.09626508  1
  O2-  O145  1  0.07058643  0.17852990  0.43377168  1
  O2-  O146  1  0.06945012  0.18091913  0.75797718  1
  O2-  O147  1  0.07449294  0.67851348  0.08909530  1
  O2-  O148  1  0.07326468  0.67818966  0.43131509  1
  O2-  O149  1  0.07033090  0.67676963  0.76780976  1
  O2-  O150  1  0.57323867  0.17865753  0.10003564  1
  O2-  O151  1  0.57106153  0.17610763  0.42432960  1
  O2-  O152  1  0.57504333  0.17559012  0.75378845  1
  O2-  O153  1  0.56924440  0.68329245  0.10048494  1
  O2-  O154  1  0.57069467  0.68152191  0.42220442  1
  O2-  O155  1  0.56880938  0.68145986  0.76454571  1
  O2-  O156  1  0.18461122  0.42976497  0.23413483  1
  O2-  O157  1  0.17902928  0.42346551  0.57032101  1
  O2-  O158  1  0.17963739  0.42592155  0.91244726  1
  O2-  O159  1  0.18016514  0.92845623  0.24333163  1
  O2-  O160  1  0.17950076  0.93283714  0.56814226  1
  O2-  O161  1  0.17588196  0.93001399  0.91220972  1
  O2-  O162  1  0.67623332  0.42808067  0.24391066  1
  O2-  O163  1  0.67584030  0.42727285  0.57799029  1
  O2-  O164  1  0.67852725  0.42505077  0.91011628  1
  O2-  O165  1  0.67370286  0.92811012  0.24640419  1
  O2-  O166  1  0.67311800  0.93311265  0.57989564  1
  O2-  O167  1  0.67920596  0.93029720  0.90893348  1
  O2-  O168  1  0.42925285  0.32046519  0.08766276  1
  O2-  O169  1  0.43074189  0.31936477  0.43021091  1
  O2-  O170  1  0.43106644  0.31574460  0.76539285  1
  O2-  O171  1  0.43117551  0.82659416  0.09083404  1
  O2-  O172  1  0.43321129  0.82709387  0.42408319  1
  O2-  O173  1  0.43160202  0.82984927  0.75594948  1
  O2-  O174  1  0.92301039  0.32203719  0.08651951  1
  O2-  O175  1  0.92776159  0.32060550  0.43350762  1
  O2-  O176  1  0.92715126  0.31673657  0.76014630  1
  O2-  O177  1  0.92877745  0.81991868  0.09769010  1
  O2-  O178  1  0.93071947  0.81921512  0.43057578  1
  O2-  O179  1  0.92971585  0.82122450  0.76392091  1
  O2-  O180  1  0.32391497  0.06953862  0.23475024  1
  O2-  O181  1  0.32033606  0.07231621  0.57802688  1
  O2-  O182  1  0.31971832  0.06628463  0.89977607  1
  O2-  O183  1  0.32588437  0.57000556  0.23524710  1
  O2-  O184  1  0.32654997  0.56909881  0.57649714  1
  O2-  O185  1  0.32297256  0.56566163  0.89877926  1
  O2-  O186  1  0.81853318  0.06951545  0.23154229  1
  O2-  O187  1  0.82104818  0.07373522  0.57862205  1
  O2-  O188  1  0.81963784  0.07134659  0.90729992  1
  O2-  O189  1  0.81490246  0.57307051  0.23361766  1
  O2-  O190  1  0.81980583  0.56974330  0.56762567  1
  O2-  O191  1  0.81591628  0.57405917  0.90128324  1
  O2-  O192  1  0.04486520  0.08060757  0.26533953  1
  O2-  O193  1  0.04224797  0.08925998  0.60632126  1
  O2-  O194  1  0.03669834  0.08637117  0.92685930  1
  O2-  O195  1  0.04866365  0.57909343  0.26455940  1
  O2-  O196  1  0.04296399  0.57602743  0.60486597  1
  O2-  O197  1  0.05019778  0.58006936  0.94171002  1
  O2-  O198  1  0.54771238  0.08021357  0.27522350  1
  O2-  O199  1  0.55217454  0.08194234  0.60231371  1
  O2-  O200  1  0.54102837  0.08096173  0.93195056  1
  O2-  O201  1  0.54576772  0.58764251  0.26900960  1
  O2-  O202  1  0.54413737  0.58300000  0.59601203  1
  O2-  O203  1  0.54316961  0.58098385  0.93293890  1
  O2-  O204  1  0.16871648  0.20996306  0.26576485  1
  O2-  O205  1  0.16333234  0.20725349  0.60768458  1
  O2-  O206  1  0.16677195  0.21068626  0.92811151  1
  O2-  O207  1  0.17286729  0.70887601  0.26584021  1
  O2-  O208  1  0.17236778  0.70330562  0.60395415  1
  O2-  O209  1  0.16726053  0.70225215  0.93751900  1
  O2-  O210  1  0.66473649  0.20089970  0.27232604  1
  O2-  O211  1  0.66905175  0.20280233  0.60327600  1
  O2-  O212  1  0.66713030  0.20722208  0.92922431  1
  O2-  O213  1  0.65911604  0.71264881  0.26872322  1
  O2-  O214  1  0.66289702  0.71719788  0.59541423  1
  O2-  O215  1  0.66073992  0.71787531  0.93153531  1
  O2-  O216  1  0.08251889  0.44628884  0.06291294  1
  O2-  O217  1  0.08030267  0.45337269  0.39955502  1
  O2-  O218  1  0.08397699  0.45522965  0.74188166  1
  O2-  O219  1  0.08095104  0.95949498  0.06126499  1
  O2-  O220  1  0.08373402  0.95219956  0.39446408  1
  O2-  O221  1  0.08508932  0.96377385  0.73781102  1
  O2-  O222  1  0.58403041  0.44994954  0.06134174  1
  O2-  O223  1  0.58656156  0.45894589  0.39630655  1
  O2-  O224  1  0.58118833  0.45201405  0.72844835  1
  O2-  O225  1  0.58734235  0.95628998  0.06241609  1
  O2-  O226  1  0.58675723  0.95516968  0.40314797  1
  O2-  O227  1  0.58734241  0.96001887  0.73493748  1
  O2-  O228  1  0.20694640  0.33388803  0.06341598  1
  O2-  O229  1  0.21329839  0.33376929  0.40033230  1
  O2-  O230  1  0.21549594  0.33360594  0.73821474  1
  O2-  O231  1  0.19476436  0.83421037  0.06384077  1
  O2-  O232  1  0.20760593  0.83676862  0.39678605  1
  O2-  O233  1  0.20828047  0.83200871  0.73818861  1
  O2-  O234  1  0.70365084  0.33181353  0.06185584  1
  O2-  O235  1  0.69473209  0.33139387  0.39603835  1
  O2-  O236  1  0.70184880  0.33386047  0.72978161  1
  O2-  O237  1  0.70848129  0.83984782  0.06309901  1
  O2-  O238  1  0.70087037  0.83351720  0.39841251  1
  O2-  O239  1  0.70464324  0.83883590  0.73183866  1
  O2-  O240  1  0.46457891  0.41536921  0.26173121  1
  O2-  O241  1  0.46013130  0.41280147  0.59479631  1
  O2-  O242  1  0.45633977  0.41253254  0.93433561  1
  O2-  O243  1  0.46437962  0.91363974  0.27054034  1
  O2-  O244  1  0.45956914  0.91662006  0.60228024  1
  O2-  O245  1  0.45783752  0.91258480  0.93559360  1
  O2-  O246  1  0.95484685  0.41948995  0.26441866  1
  O2-  O247  1  0.95563234  0.41394072  0.61206823  1
  O2-  O248  1  0.95161087  0.41921205  0.93746658  1
  O2-  O249  1  0.95653887  0.91727162  0.26379272  1
  O2-  O250  1  0.96184493  0.92167908  0.60047446  1
  O2-  O251  1  0.95771469  0.91518747  0.92927534  1
  O2-  O252  1  0.33513728  0.28933033  0.26164584  1
  O2-  O253  1  0.33370644  0.28517508  0.59808464  1
  O2-  O254  1  0.33471598  0.29455136  0.93629694  1
  O2-  O255  1  0.33684993  0.80499500  0.27071418  1
  O2-  O256  1  0.33203184  0.80596641  0.60701361  1
  O2-  O257  1  0.32834482  0.80461851  0.94397192  1
  O2-  O258  1  0.82625347  0.29579148  0.26813273  1
  O2-  O259  1  0.83641859  0.29360264  0.60739215  1
  O2-  O260  1  0.83429458  0.29713484  0.93261249  1
  O2-  O261  1  0.82701197  0.79406773  0.26727796  1
  O2-  O262  1  0.82816124  0.80414979  0.59998502  1
  O2-  O263  1  0.83215592  0.78939783  0.93142177  1
  O2-  O264  1  0.41679591  0.03875373  0.06748945  1
  O2-  O265  1  0.41595548  0.03884721  0.40451303  1
  O2-  O266  1  0.41908767  0.04979566  0.72585349  1
  O2-  O267  1  0.41830477  0.53832362  0.06557908  1
  O2-  O268  1  0.42276696  0.54089411  0.39966997  1
  O2-  O269  1  0.41740350  0.53801393  0.72680459  1
  O2-  O270  1  0.91286305  0.04245941  0.05807979  1
  O2-  O271  1  0.91840411  0.04057541  0.39997469  1
  O2-  O272  1  0.91340191  0.04496170  0.73146096  1
  O2-  O273  1  0.91627084  0.54512474  0.06785945  1
  O2-  O274  1  0.91808862  0.54258239  0.39892769  1
  O2-  O275  1  0.91284608  0.53979868  0.73891710  1
  O2-  O276  1  0.28930778  0.16655596  0.06466311  1
  O2-  O277  1  0.29109587  0.16821821  0.40121928  1
  O2-  O278  1  0.29384575  0.16355900  0.73114622  1
  O2-  O279  1  0.29696980  0.66884626  0.06548236  1
  O2-  O280  1  0.30723337  0.67651127  0.39747712  1
  O2-  O281  1  0.30895173  0.66763993  0.72620657  1
  O2-  O282  1  0.79454915  0.16510562  0.05819713  1
  O2-  O283  1  0.78914182  0.16547052  0.40249250  1
  O2-  O284  1  0.79322288  0.16356129  0.73247960  1
  O2-  O285  1  0.78197147  0.66793730  0.06795181  1
  O2-  O286  1  0.78342724  0.66518393  0.40115554  1
  O2-  O287  1  0.78546782  0.67043195  0.73044003  1
