# generated using pymatgen
data_Ca2Al2SiO7
_symmetry_space_group_name_H-M   'P 1'
_cell_length_a   15.46367933
_cell_length_b   15.46256146
_cell_length_c   15.28707879
_cell_angle_alpha   89.99800498
_cell_angle_beta   90.01046043
_cell_angle_gamma   90.02788952
_symmetry_Int_Tables_number   1
_chemical_formula_structural   Ca2Al2SiO7
_chemical_formula_sum   'Ca48 Al48 Si24 O168'
_cell_volume   3655.26374783
_cell_formula_units_Z   24
loop_
 _symmetry_equiv_pos_site_id
 _symmetry_equiv_pos_as_xyz
  1  'x, y, z'
loop_
 _atom_type_symbol
 _atom_type_oxidation_number
  Ca2+  2.0
  Al0+  0.0
  Si0+  0.0
  O2-  -2.0
loop_
 _atom_site_type_symbol
 _atom_site_label
 _atom_site_symmetry_multiplicity
 _atom_site_fract_x
 _atom_site_fract_y
 _atom_site_fract_z
 _atom_site_occupancy
  Ca2+  Ca0  1  0.17085751  0.07402601  0.17894248  1
  Ca2+  Ca1  1  0.17066407  0.07780298  0.50905834  1
  Ca2+  Ca2  1  0.16142758  0.07175434  0.83303649  1
  Ca2+  Ca3  1  0.17239303  0.58404413  0.16708753  1
  Ca2+  Ca4  1  0.16212123  0.57820203  0.50792958  1
  Ca2+  Ca5  1  0.16564963  0.58168808  0.83345673  1
  Ca2+  Ca6  1  0.65905579  0.08228210  0.16858813  1
  Ca2+  Ca7  1  0.67096099  0.08746786  0.50733242  1
  Ca2+  Ca8  1  0.66865116  0.08428300  0.83511717  1
  Ca2+  Ca9  1  0.67521432  0.57254986  0.17532793  1
  Ca2+  Ca10  1  0.67551357  0.57393081  0.50663735  1
  Ca2+  Ca11  1  0.67679850  0.57446641  0.84013792  1
  Ca2+  Ca12  1  0.08484660  0.32539118  0.16527762  1
  Ca2+  Ca13  1  0.08944573  0.32156284  0.49723502  1
  Ca2+  Ca14  1  0.08218723  0.32878474  0.82138547  1
  Ca2+  Ca15  1  0.07834129  0.84042872  0.16565117  1
  Ca2+  Ca16  1  0.07426904  0.83835025  0.49818299  1
  Ca2+  Ca17  1  0.08078580  0.82906691  0.82185995  1
  Ca2+  Ca18  1  0.59389555  0.32510395  0.16313633  1
  Ca2+  Ca19  1  0.59213242  0.32537550  0.49761673  1
  Ca2+  Ca20  1  0.58938042  0.32864567  0.82806810  1
  Ca2+  Ca21  1  0.57484370  0.83814176  0.16132775  1
  Ca2+  Ca22  1  0.57477342  0.83344117  0.49230236  1
  Ca2+  Ca23  1  0.58407439  0.83501509  0.82981625  1
  Ca2+  Ca24  1  0.33977792  0.42482118  0.16648220  1
  Ca2+  Ca25  1  0.32751884  0.41712341  0.50584232  1
  Ca2+  Ca26  1  0.32666464  0.41996947  0.83275406  1
  Ca2+  Ca27  1  0.32252134  0.91951125  0.17666301  1
  Ca2+  Ca28  1  0.32544103  0.92527181  0.50225363  1
  Ca2+  Ca29  1  0.32114946  0.92105914  0.83391806  1
  Ca2+  Ca30  1  0.82597103  0.42471201  0.17317603  1
  Ca2+  Ca31  1  0.82711576  0.42484702  0.50690259  1
  Ca2+  Ca32  1  0.82699056  0.42560678  0.83742022  1
  Ca2+  Ca33  1  0.82625790  0.91361577  0.16997233  1
  Ca2+  Ca34  1  0.83905060  0.91949052  0.50597988  1
  Ca2+  Ca35  1  0.83514214  0.92285869  0.83319733  1
  Ca2+  Ca36  1  0.42530141  0.16375788  0.16521135  1
  Ca2+  Ca37  1  0.42497452  0.15792603  0.49492371  1
  Ca2+  Ca38  1  0.42831627  0.16198339  0.82605130  1
  Ca2+  Ca39  1  0.41268451  0.67289825  0.16162891  1
  Ca2+  Ca40  1  0.41693228  0.67514700  0.49297365  1
  Ca2+  Ca41  1  0.41573153  0.66555950  0.82990127  1
  Ca2+  Ca42  1  0.92412300  0.16453894  0.16696558  1
  Ca2+  Ca43  1  0.92980857  0.15859588  0.49898271  1
  Ca2+  Ca44  1  0.91979073  0.16753265  0.82247243  1
  Ca2+  Ca45  1  0.91054685  0.66725120  0.16638984  1
  Ca2+  Ca46  1  0.91395157  0.67342822  0.49796482  1
  Ca2+  Ca47  1  0.91527546  0.67141407  0.82276017  1
  Al0+  Al48  1  -0.00060397  -0.00151610  0.00282166  1
  Al0+  Al49  1  -0.00138014  -0.00236728  0.32571647  1
  Al0+  Al50  1  -0.00094936  0.00001109  0.66826624  1
  Al0+  Al51  1  0.00131005  0.49977871  0.00377523  1
  Al0+  Al52  1  0.00021142  0.50092134  0.33498693  1
  Al0+  Al53  1  -0.00008768  0.50058152  0.67105957  1
  Al0+  Al54  1  0.49916680  0.00069895  -0.00343418  1
  Al0+  Al55  1  0.49827764  -0.00083997  0.32728253  1
  Al0+  Al56  1  0.49911990  0.00041441  0.66551516  1
  Al0+  Al57  1  0.49916672  0.49972934  0.00642215  1
  Al0+  Al58  1  0.50071311  0.49839698  0.33839950  1
  Al0+  Al59  1  0.49991262  0.49902405  0.66857763  1
  Al0+  Al60  1  0.25193120  0.24926203  -0.00265287  1
  Al0+  Al61  1  0.25406164  0.25004837  0.32858731  1
  Al0+  Al62  1  0.25329049  0.25155695  0.67176406  1
  Al0+  Al63  1  0.24818190  0.75083764  0.00622877  1
  Al0+  Al64  1  0.24823021  0.75015302  0.33296005  1
  Al0+  Al65  1  0.24964264  0.75059657  0.66479269  1
  Al0+  Al66  1  0.75335490  0.24984425  -0.00145988  1
  Al0+  Al67  1  0.75112056  0.24940601  0.33151068  1
  Al0+  Al68  1  0.75028108  0.24891160  0.66987069  1
  Al0+  Al69  1  0.74874919  0.75234920  0.00583249  1
  Al0+  Al70  1  0.75010863  0.74934165  0.33245018  1
  Al0+  Al71  1  0.74800894  0.74973239  0.66432295  1
  Al0+  Al72  1  0.67913089  0.42627398  0.35115075  1
  Al0+  Al73  1  0.31942632  0.57042605  0.01257286  1
  Al0+  Al74  1  0.32208257  0.07166979  0.34755592  1
  Al0+  Al75  1  0.17869838  0.42898944  0.67824955  1
  Al0+  Al76  1  0.07231617  0.18023575  0.65522010  1
  Al0+  Al77  1  0.67973359  0.42714459  0.01651398  1
  Al0+  Al78  1  0.67798493  0.93149894  0.01276875  1
  Al0+  Al79  1  0.92756339  0.82076826  0.65258554  1
  Al0+  Al80  1  0.82267996  0.57245420  0.01663153  1
  Al0+  Al81  1  0.82220410  0.57262490  0.35183988  1
  Al0+  Al82  1  0.07299900  0.17896839  0.31973636  1
  Al0+  Al83  1  0.57087429  0.18014213  0.98394067  1
  Al0+  Al84  1  0.07218053  0.67734085  0.65225480  1
  Al0+  Al85  1  0.17863044  0.93033087  0.01533968  1
  Al0+  Al86  1  0.57093959  0.17979562  0.65245017  1
  Al0+  Al87  1  0.92815828  0.81970020  0.31672561  1
  Al0+  Al88  1  0.17597417  0.92898894  0.35063654  1
  Al0+  Al89  1  0.67846587  0.42813993  0.68353201  1
  Al0+  Al90  1  0.17836176  0.92953689  0.68145883  1
  Al0+  Al91  1  0.42825962  0.81930665  0.31829373  1
  Al0+  Al92  1  0.57176422  0.18036110  0.31918521  1
  Al0+  Al93  1  0.82081346  0.57333914  0.68261494  1
  Al0+  Al94  1  0.82098234  0.06938703  0.67803247  1
  Al0+  Al95  1  0.32359933  0.07225966  0.68301409  1
  Si0+  Si96  1  0.57050255  0.67706809  0.31648885  1
  Si0+  Si97  1  0.42881868  0.32395920  0.64965528  1
  Si0+  Si98  1  0.07154497  0.67950722  0.98652761  1
  Si0+  Si99  1  0.18008908  0.42854795  0.34581310  1
  Si0+  Si100  1  0.17818868  0.42536209  0.01738690  1
  Si0+  Si101  1  0.07157657  0.67537631  0.31431641  1
  Si0+  Si102  1  0.93218634  0.32152157  0.98496047  1
  Si0+  Si103  1  0.82051098  0.06969482  0.34615128  1
  Si0+  Si104  1  0.42878898  0.82084850  0.65187589  1
  Si0+  Si105  1  0.32203872  0.07223592  0.01661842  1
  Si0+  Si106  1  0.42790139  0.32490687  0.31505743  1
  Si0+  Si107  1  0.92797773  0.32219825  0.65101907  1
  Si0+  Si108  1  0.07144583  0.17764985  0.98468980  1
  Si0+  Si109  1  0.56983982  0.67741863  0.65235488  1
  Si0+  Si110  1  0.42714190  0.32494347  0.98082477  1
  Si0+  Si111  1  0.67567740  0.92770643  0.67999593  1
  Si0+  Si112  1  0.82285657  0.07201965  0.01803775  1
  Si0+  Si113  1  0.42687856  0.81991750  0.98313853  1
  Si0+  Si114  1  0.32227738  0.57340821  0.68076995  1
  Si0+  Si115  1  0.92732940  0.82030333  0.98461664  1
  Si0+  Si116  1  0.32097994  0.57163448  0.34841880  1
  Si0+  Si117  1  0.57005629  0.67949663  0.98655637  1
  Si0+  Si118  1  0.67726369  0.92949275  0.34660335  1
  Si0+  Si119  1  0.93023978  0.32265172  0.31709877  1
  O2-  O120  1  0.25039170  0.00760876  0.06146144  1
  O2-  O121  1  0.24590833  0.00443722  0.39776188  1
  O2-  O122  1  0.24815728  0.00345763  0.73246389  1
  O2-  O123  1  0.24772328  0.49343965  0.06110588  1
  O2-  O124  1  0.25021474  0.50011241  0.38885174  1
  O2-  O125  1  0.25075849  0.50717885  0.72374492  1
  O2-  O126  1  0.75023610  0.00731420  0.06164790  1
  O2-  O127  1  0.74843664  -0.00021425  0.38874161  1
  O2-  O128  1  0.74620170  -0.00565161  0.72378106  1
  O2-  O129  1  0.75025201  0.50072233  0.06585710  1
  O2-  O130  1  0.75023087  0.49968653  0.39941637  1
  O2-  O131  1  0.74973061  0.50086951  0.73262413  1
  O2-  O132  1  -0.00063027  0.25447618  0.27158577  1
  O2-  O133  1  -0.00086321  0.25579501  0.60661480  1
  O2-  O134  1  0.00339401  0.25083703  0.94217350  1
  O2-  O135  1  0.00286709  0.74427830  0.27028368  1
  O2-  O136  1  -0.00040412  0.74863508  0.60240495  1
  O2-  O137  1  -0.00334357  0.74664574  0.94468287  1
  O2-  O138  1  0.49872247  0.25720271  0.27302077  1
  O2-  O139  1  0.49682652  0.25477212  0.60552701  1
  O2-  O140  1  0.49749069  0.25717300  0.93799012  1
  O2-  O141  1  0.50186375  0.74431499  0.26946628  1
  O2-  O142  1  0.49933052  0.74895546  0.60998095  1
  O2-  O143  1  0.49886153  0.74950546  0.94095567  1
  O2-  O144  1  0.07018692  0.17865068  0.08991960  1
  O2-  O145  1  0.07218061  0.17996655  0.43268287  1
  O2-  O146  1  0.06837140  0.18109844  0.76890893  1
  O2-  O147  1  0.07346820  0.68049138  0.09151783  1
  O2-  O148  1  0.07247414  0.67224956  0.41928712  1
  O2-  O149  1  0.07376672  0.67987149  0.76662477  1
  O2-  O150  1  0.56760653  0.17921695  0.09712343  1
  O2-  O151  1  0.57234132  0.17912975  0.43199530  1
  O2-  O152  1  0.57025074  0.17931496  0.76560775  1
  O2-  O153  1  0.56718880  0.68228652  0.09138449  1
  O2-  O154  1  0.56721727  0.67964464  0.42247472  1
  O2-  O155  1  0.56823051  0.67816875  0.75785830  1
  O2-  O156  1  0.18112141  0.43001541  0.24040129  1
  O2-  O157  1  0.18263180  0.42774335  0.56477381  1
  O2-  O158  1  0.17714514  0.42588908  0.91206685  1
  O2-  O159  1  0.17816071  0.93013113  0.23641823  1
  O2-  O160  1  0.17919015  0.92976932  0.56849829  1
  O2-  O161  1  0.17829383  0.92884190  0.90255965  1
  O2-  O162  1  0.68105638  0.42693999  0.23748671  1
  O2-  O163  1  0.67928747  0.42958669  0.57021465  1
  O2-  O164  1  0.68148254  0.42901149  0.90325633  1
  O2-  O165  1  0.67738878  0.93106058  0.24128540  1
  O2-  O166  1  0.67273543  0.92874292  0.57421914  1
  O2-  O167  1  0.67987607  0.92978781  0.89977520  1
  O2-  O168  1  0.42328720  0.32409727  0.08625128  1
  O2-  O169  1  0.42361871  0.32771396  0.42011239  1
  O2-  O170  1  0.42961169  0.32712274  0.75519076  1
  O2-  O171  1  0.42734694  0.81894162  0.08819934  1
  O2-  O172  1  0.43111446  0.81764339  0.43168561  1
  O2-  O173  1  0.42953770  0.81919180  0.75744212  1
  O2-  O174  1  0.93425761  0.32042159  0.09013480  1
  O2-  O175  1  0.93199877  0.32240931  0.42234689  1
  O2-  O176  1  0.92983138  0.31967033  0.75725482  1
  O2-  O177  1  0.92832532  0.82207348  0.08959890  1
  O2-  O178  1  0.92773265  0.82192513  0.42914836  1
  O2-  O179  1  0.92748267  0.82074507  0.76684981  1
  O2-  O180  1  0.32128142  0.06940231  0.23347354  1
  O2-  O181  1  0.32565800  0.06807919  0.56975578  1
  O2-  O182  1  0.32168060  0.06993929  0.91122141  1
  O2-  O183  1  0.32085084  0.57131404  0.24317560  1
  O2-  O184  1  0.32503924  0.57211879  0.57510626  1
  O2-  O185  1  0.31686408  0.57185154  0.89968227  1
  O2-  O186  1  0.82015314  0.06920416  0.24074938  1
  O2-  O187  1  0.82097525  0.06913669  0.56462078  1
  O2-  O188  1  0.82644157  0.06994337  0.91255763  1
  O2-  O189  1  0.82059211  0.57039938  0.23804885  1
  O2-  O190  1  0.81774979  0.57344260  0.56944379  1
  O2-  O191  1  0.82209145  0.57244267  0.90338715  1
  O2-  O192  1  0.03784998  0.08516546  0.26286238  1
  O2-  O193  1  0.03839062  0.08495220  0.60166631  1
  O2-  O194  1  0.03959476  0.08606568  0.93898133  1
  O2-  O195  1  0.04682578  0.58172819  0.26621669  1
  O2-  O196  1  0.04675981  0.57708229  0.60141415  1
  O2-  O197  1  0.04991273  0.58456717  0.94190071  1
  O2-  O198  1  0.53870366  0.08479118  0.26362048  1
  O2-  O199  1  0.54099980  0.08224311  0.59896280  1
  O2-  O200  1  0.53855248  0.08347199  0.92953056  1
  O2-  O201  1  0.54487106  0.58237127  0.27304086  1
  O2-  O202  1  0.54048416  0.58648506  0.60425252  1
  O2-  O203  1  0.54169099  0.58700736  0.94066161  1
  O2-  O204  1  0.16863116  0.21070838  0.26343309  1
  O2-  O205  1  0.17015678  0.21110747  0.60408520  1
  O2-  O206  1  0.16490885  0.20138496  0.93903824  1
  O2-  O207  1  0.16570412  0.70082426  0.26869016  1
  O2-  O208  1  0.17195272  0.70202534  0.59917243  1
  O2-  O209  1  0.16223773  0.71103426  0.93910918  1
  O2-  O210  1  0.66927710  0.20801524  0.26375750  1
  O2-  O211  1  0.66884078  0.20919442  0.59993147  1
  O2-  O212  1  0.67091697  0.20601627  0.93364922  1
  O2-  O213  1  0.66393485  0.70262294  0.27132175  1
  O2-  O214  1  0.66005342  0.70511354  0.60261713  1
  O2-  O215  1  0.66168355  0.70984237  0.93992899  1
  O2-  O216  1  0.08626913  0.45204408  0.06588744  1
  O2-  O217  1  0.08852549  0.45448346  0.39332991  1
  O2-  O218  1  0.08297229  0.45544340  0.73574403  1
  O2-  O219  1  0.08141599  0.95969060  0.06887093  1
  O2-  O220  1  0.07549377  0.95673381  0.39794983  1
  O2-  O221  1  0.08076066  0.95776887  0.73575600  1
  O2-  O222  1  0.58016508  0.45192070  0.06824102  1
  O2-  O223  1  0.57968264  0.45250650  0.40332688  1
  O2-  O224  1  0.57938332  0.45657536  0.73538414  1
  O2-  O225  1  0.58001197  0.96043112  0.06581289  1
  O2-  O226  1  0.58537946  0.95670304  0.39291300  1
  O2-  O227  1  0.58399948  0.95479860  0.72880488  1
  O2-  O228  1  0.20348011  0.33093410  0.06231140  1
  O2-  O229  1  0.20959283  0.33709517  0.39196006  1
  O2-  O230  1  0.21252333  0.33621233  0.73769060  1
  O2-  O231  1  0.21108401  0.83562353  0.07082615  1
  O2-  O232  1  0.20574793  0.82976568  0.40010903  1
  O2-  O233  1  0.21066050  0.83136548  0.73385825  1
  O2-  O234  1  0.71253472  0.32902807  0.06771949  1
  O2-  O235  1  0.71044145  0.32769107  0.40171427  1
  O2-  O236  1  0.70807999  0.33049180  0.73590470  1
  O2-  O237  1  0.70760406  0.83656905  0.07028867  1
  O2-  O238  1  0.70230424  0.83670206  0.39258510  1
  O2-  O239  1  0.69724219  0.83321407  0.72544715  1
  O2-  O240  1  0.45291937  0.41955466  0.26946437  1
  O2-  O241  1  0.45285491  0.41793674  0.60219544  1
  O2-  O242  1  0.45011364  0.42036882  0.93700083  1
  O2-  O243  1  0.46060048  0.91365050  0.26113284  1
  O2-  O244  1  0.45907873  0.91094703  0.60340832  1
  O2-  O245  1  0.45479420  0.91136377  0.93555136  1
  O2-  O246  1  0.95706109  0.41574166  0.26980166  1
  O2-  O247  1  0.95123614  0.41670079  0.60737958  1
  O2-  O248  1  0.96039651  0.41366734  0.93791306  1
  O2-  O249  1  0.95758426  0.91489416  0.25824423  1
  O2-  O250  1  0.95705190  0.91905231  0.60001697  1
  O2-  O251  1  0.95726002  0.91245547  0.93830727  1
  O2-  O252  1  0.33646010  0.29939446  0.26375833  1
  O2-  O253  1  0.33469569  0.29985791  0.60436041  1
  O2-  O254  1  0.33327061  0.29894810  0.93370346  1
  O2-  O255  1  0.33171444  0.78723354  0.26427330  1
  O2-  O256  1  0.33824887  0.79307002  0.60287889  1
  O2-  O257  1  0.33535223  0.78839841  0.93739791  1
  O2-  O258  1  0.83815079  0.29411549  0.26950627  1
  O2-  O259  1  0.83558238  0.29380695  0.60540205  1
  O2-  O260  1  0.84124336  0.29366698  0.93629889  1
  O2-  O261  1  0.83036311  0.79014745  0.26249079  1
  O2-  O262  1  0.82775208  0.79603439  0.59923871  1
  O2-  O263  1  0.83403227  0.79582400  0.93881577  1
  O2-  O264  1  0.41447244  0.04268755  0.06177495  1
  O2-  O265  1  0.41926689  0.03672807  0.39899289  1
  O2-  O266  1  0.41977193  0.03689291  0.73709931  1
  O2-  O267  1  0.41516946  0.54329428  0.07041341  1
  O2-  O268  1  0.41237744  0.54550186  0.39709986  1
  O2-  O269  1  0.41384062  0.54521644  0.72972779  1
  O2-  O270  1  0.91411653  0.04152084  0.06641032  1
  O2-  O271  1  0.91191487  0.03935982  0.39174228  1
  O2-  O272  1  0.91515804  0.03900815  0.73672866  1
  O2-  O273  1  0.92156705  0.54386582  0.06918363  1
  O2-  O274  1  0.92181382  0.54494841  0.40201859  1
  O2-  O275  1  0.91930929  0.54715756  0.73550518  1
  O2-  O276  1  0.30139086  0.16817258  0.06016588  1
  O2-  O277  1  0.30193604  0.17365844  0.39596959  1
  O2-  O278  1  0.30321775  0.17215580  0.73491626  1
  O2-  O279  1  0.28588802  0.66446814  0.07016437  1
  O2-  O280  1  0.29308014  0.66283183  0.39598750  1
  O2-  O281  1  0.30002771  0.66721557  0.72735834  1
  O2-  O282  1  0.80315111  0.16708266  0.06234358  1
  O2-  O283  1  0.79574836  0.16185029  0.39283088  1
  O2-  O284  1  0.79140155  0.16453513  0.73504657  1
  O2-  O285  1  0.79370397  0.67072892  0.06876037  1
  O2-  O286  1  0.79187727  0.67151530  0.40217779  1
  O2-  O287  1  0.78908676  0.67161802  0.73466285  1
