# generated using pymatgen
data_Ca2Al2SiO7
_symmetry_space_group_name_H-M   'P 1'
_cell_length_a   15.46159050
_cell_length_b   15.46111754
_cell_length_c   15.28744469
_cell_angle_alpha   89.99144826
_cell_angle_beta   90.00063730
_cell_angle_gamma   90.00642523
_symmetry_Int_Tables_number   1
_chemical_formula_structural   Ca2Al2SiO7
_chemical_formula_sum   'Ca48 Al48 Si24 O168'
_cell_volume   3654.51660517
_cell_formula_units_Z   24
loop_
 _symmetry_equiv_pos_site_id
 _symmetry_equiv_pos_as_xyz
  1  'x, y, z'
loop_
 _atom_type_symbol
 _atom_type_oxidation_number
  Ca2+  2.0
  Al0+  0.0
  Si0+  0.0
  O2-  -2.0
loop_
 _atom_site_type_symbol
 _atom_site_label
 _atom_site_symmetry_multiplicity
 _atom_site_fract_x
 _atom_site_fract_y
 _atom_site_fract_z
 _atom_site_occupancy
  Ca2+  Ca0  1  0.17193416  0.08634759  0.17503356  1
  Ca2+  Ca1  1  0.16090875  0.07882561  0.50387758  1
  Ca2+  Ca2  1  0.16157970  0.08329977  0.83626342  1
  Ca2+  Ca3  1  0.16285016  0.58227431  0.17443827  1
  Ca2+  Ca4  1  0.16687241  0.57933744  0.51049709  1
  Ca2+  Ca5  1  0.16610655  0.57492478  0.83027604  1
  Ca2+  Ca6  1  0.67938914  0.07873340  0.17188182  1
  Ca2+  Ca7  1  0.67118651  0.08000544  0.49949099  1
  Ca2+  Ca8  1  0.67240847  0.08018140  0.84263949  1
  Ca2+  Ca9  1  0.67377835  0.57615410  0.16457167  1
  Ca2+  Ca10  1  0.67141893  0.58225365  0.50982414  1
  Ca2+  Ca11  1  0.67702454  0.58073878  0.83810113  1
  Ca2+  Ca12  1  0.07085109  0.32047951  0.16237643  1
  Ca2+  Ca13  1  0.07795553  0.32936514  0.49537601  1
  Ca2+  Ca14  1  0.07546655  0.32218759  0.82728199  1
  Ca2+  Ca15  1  0.09246399  0.82699211  0.16848826  1
  Ca2+  Ca16  1  0.08550940  0.83180511  0.49692576  1
  Ca2+  Ca17  1  0.07454797  0.83507488  0.82448440  1
  Ca2+  Ca18  1  0.58211009  0.33349840  0.16086166  1
  Ca2+  Ca19  1  0.58297023  0.32593158  0.50032288  1
  Ca2+  Ca20  1  0.58643541  0.32938023  0.82742184  1
  Ca2+  Ca21  1  0.58080368  0.84732930  0.16634905  1
  Ca2+  Ca22  1  0.57883259  0.82963937  0.49276199  1
  Ca2+  Ca23  1  0.58502258  0.82955504  0.82538828  1
  Ca2+  Ca24  1  0.32935070  0.41854586  0.17119745  1
  Ca2+  Ca25  1  0.32369461  0.42437982  0.51157878  1
  Ca2+  Ca26  1  0.32824652  0.41737525  0.83083401  1
  Ca2+  Ca27  1  0.32978799  0.92758219  0.17663523  1
  Ca2+  Ca28  1  0.32249483  0.91623608  0.49820126  1
  Ca2+  Ca29  1  0.32445790  0.92333164  0.83624072  1
  Ca2+  Ca30  1  0.83898745  0.41295415  0.16533348  1
  Ca2+  Ca31  1  0.84303329  0.42170197  0.50638699  1
  Ca2+  Ca32  1  0.83777367  0.42302690  0.83923665  1
  Ca2+  Ca33  1  0.82579597  0.92820420  0.17157691  1
  Ca2+  Ca34  1  0.83927896  0.92359362  0.50246372  1
  Ca2+  Ca35  1  0.82891582  0.92176633  0.84131104  1
  Ca2+  Ca36  1  0.41445657  0.15903655  0.16170153  1
  Ca2+  Ca37  1  0.42190813  0.15709877  0.49755812  1
  Ca2+  Ca38  1  0.42334902  0.16327739  0.82967159  1
  Ca2+  Ca39  1  0.41831046  0.67821712  0.16411769  1
  Ca2+  Ca40  1  0.41831619  0.66999589  0.49541853  1
  Ca2+  Ca41  1  0.42561992  0.66581738  0.82294612  1
  Ca2+  Ca42  1  0.92207231  0.16410958  0.16013495  1
  Ca2+  Ca43  1  0.92659153  0.17607532  0.49252861  1
  Ca2+  Ca44  1  0.91765095  0.17525232  0.82584302  1
  Ca2+  Ca45  1  0.91936032  0.66635637  0.16467034  1
  Ca2+  Ca46  1  0.91692631  0.67504868  0.49795666  1
  Ca2+  Ca47  1  0.90686933  0.67230268  0.82611523  1
  Al0+  Al48  1  0.00119875  -0.00536690  0.00132014  1
  Al0+  Al49  1  -0.00020521  -0.00048343  0.33610813  1
  Al0+  Al50  1  -0.00119493  0.00043647  0.66495266  1
  Al0+  Al51  1  0.00214927  0.49914294  0.00064011  1
  Al0+  Al52  1  0.00007548  0.50006069  0.32620635  1
  Al0+  Al53  1  0.00076292  0.50128409  0.67477822  1
  Al0+  Al54  1  0.49546266  0.00028295  0.00276840  1
  Al0+  Al55  1  0.50049594  -0.00065285  0.33613518  1
  Al0+  Al56  1  0.49939470  -0.00142354  0.66216020  1
  Al0+  Al57  1  0.50003106  0.50164423  0.00271901  1
  Al0+  Al58  1  0.50174822  0.49994271  0.33231721  1
  Al0+  Al59  1  0.50131907  0.49956908  0.66540534  1
  Al0+  Al60  1  0.24987792  0.25096250  -0.00110751  1
  Al0+  Al61  1  0.25077201  0.25242811  0.33510918  1
  Al0+  Al62  1  0.25155756  0.24947361  0.66834535  1
  Al0+  Al63  1  0.25197397  0.74951313  -0.00410372  1
  Al0+  Al64  1  0.25345216  0.75175868  0.32714253  1
  Al0+  Al65  1  0.25038641  0.75284415  0.67722048  1
  Al0+  Al66  1  0.74891707  0.25085879  0.00300595  1
  Al0+  Al67  1  0.74745898  0.25174669  0.33425603  1
  Al0+  Al68  1  0.74963311  0.24992397  0.65686687  1
  Al0+  Al69  1  0.74871579  0.74714061  0.00913458  1
  Al0+  Al70  1  0.74974565  0.74627069  0.33363994  1
  Al0+  Al71  1  0.74858192  0.74992607  0.66024140  1
  Al0+  Al72  1  0.07202961  0.17728578  0.31830392  1
  Al0+  Al73  1  0.67688409  0.92813469  0.01298801  1
  Al0+  Al74  1  0.67993296  0.92798912  0.35059686  1
  Al0+  Al75  1  0.57079788  0.17708454  0.65282187  1
  Al0+  Al76  1  0.92728015  0.82120345  0.65441057  1
  Al0+  Al77  1  0.32298219  0.57220980  0.68152364  1
  Al0+  Al78  1  0.92759039  0.32148166  0.31683453  1
  Al0+  Al79  1  0.82015040  0.57213151  0.67842566  1
  Al0+  Al80  1  0.57038762  0.67832775  0.65351511  1
  Al0+  Al81  1  0.17678924  0.93106172  0.68214584  1
  Al0+  Al82  1  0.67771389  0.42832279  0.01415119  1
  Al0+  Al83  1  0.07187420  0.17567188  0.98462908  1
  Al0+  Al84  1  0.07098852  0.68135114  0.32245858  1
  Al0+  Al85  1  0.82368440  0.57006924  0.01734650  1
  Al0+  Al86  1  0.92984924  0.32409860  0.65141640  1
  Al0+  Al87  1  0.32045452  0.07399119  0.34991753  1
  Al0+  Al88  1  0.17903234  0.92749420  0.34790298  1
  Al0+  Al89  1  0.82301273  0.07148349  0.01213584  1
  Al0+  Al90  1  0.17781502  0.42667663  0.68334994  1
  Al0+  Al91  1  0.92698146  0.31965322  0.98314007  1
  Al0+  Al92  1  0.31700778  0.07131658  0.01205967  1
  Al0+  Al93  1  0.82231859  0.07331446  0.35071231  1
  Al0+  Al94  1  0.43236045  0.82049562  0.31857638  1
  Al0+  Al95  1  0.07254215  0.17858382  0.65111248  1
  Si0+  Si96  1  0.32249938  0.57132396  0.34590705  1
  Si0+  Si97  1  0.18104879  0.42991343  0.01716938  1
  Si0+  Si98  1  0.07295242  0.68055015  0.65478128  1
  Si0+  Si99  1  0.81906642  0.07172541  0.68031153  1
  Si0+  Si100  1  0.56843061  0.17951053  0.31668502  1
  Si0+  Si101  1  0.07379807  0.67807659  0.98296083  1
  Si0+  Si102  1  0.32404654  0.07076797  0.68382064  1
  Si0+  Si103  1  0.42668340  0.82118594  0.64991886  1
  Si0+  Si104  1  0.57342771  0.67518900  0.31304922  1
  Si0+  Si105  1  0.56978927  0.67910860  0.98503619  1
  Si0+  Si106  1  0.56857314  0.17906321  0.98738946  1
  Si0+  Si107  1  0.42960438  0.82241599  0.98226952  1
  Si0+  Si108  1  0.67904082  0.42624189  0.68105434  1
  Si0+  Si109  1  0.17813521  0.92486722  0.01674212  1
  Si0+  Si110  1  0.17921461  0.43218203  0.34695029  1
  Si0+  Si111  1  0.92555878  0.82194391  0.31564040  1
  Si0+  Si112  1  0.67838703  0.92951405  0.67936611  1
  Si0+  Si113  1  0.42869692  0.32406637  0.98488852  1
  Si0+  Si114  1  0.82252596  0.56766783  0.34909876  1
  Si0+  Si115  1  0.32161365  0.57177741  0.01649314  1
  Si0+  Si116  1  0.92751990  0.81649027  0.98716271  1
  Si0+  Si117  1  0.67600303  0.42987498  0.35080705  1
  Si0+  Si118  1  0.42870401  0.32209893  0.65004204  1
  Si0+  Si119  1  0.42947317  0.32371291  0.31872606  1
  O2-  O120  1  0.24036768  -0.00035100  0.05928120  1
  O2-  O121  1  0.24439054  0.00565703  0.39857793  1
  O2-  O122  1  0.24991959  0.00822468  0.72809287  1
  O2-  O123  1  0.24991433  0.50322324  0.06074560  1
  O2-  O124  1  0.25005482  0.50342435  0.38934503  1
  O2-  O125  1  0.25165588  0.49946486  0.73177455  1
  O2-  O126  1  0.74890236  0.00055377  0.06108407  1
  O2-  O127  1  0.75433422  -0.00327611  0.40154733  1
  O2-  O128  1  0.74708959  0.00139468  0.72303875  1
  O2-  O129  1  0.75482288  0.49388313  0.06603154  1
  O2-  O130  1  0.75053663  0.49765239  0.39154023  1
  O2-  O131  1  0.74829595  0.49418374  0.72467566  1
  O2-  O132  1  -0.00620467  0.24311379  0.26869039  1
  O2-  O133  1  0.00417946  0.25447334  0.60226359  1
  O2-  O134  1  -0.00501311  0.24289951  0.93491560  1
  O2-  O135  1  -0.00089858  0.75732859  0.27233029  1
  O2-  O136  1  0.00356782  0.74701852  0.60924104  1
  O2-  O137  1  -0.00062685  0.74640607  0.94315347  1
  O2-  O138  1  0.49546401  0.24913794  0.27471356  1
  O2-  O139  1  0.49453109  0.25079382  0.60577686  1
  O2-  O140  1  0.50061814  0.25321691  0.94417733  1
  O2-  O141  1  0.50982819  0.74883218  0.26940287  1
  O2-  O142  1  0.49204507  0.74880534  0.60675129  1
  O2-  O143  1  0.50302788  0.75353480  0.94125432  1
  O2-  O144  1  0.07553878  0.17944730  0.09785020  1
  O2-  O145  1  0.07489005  0.18355248  0.43142993  1
  O2-  O146  1  0.06783229  0.17712809  0.76475319  1
  O2-  O147  1  0.07792988  0.68027201  0.08824065  1
  O2-  O148  1  0.06960430  0.67821875  0.43537940  1
  O2-  O149  1  0.07207510  0.68299776  0.76068060  1
  O2-  O150  1  0.56469684  0.17880317  0.09234156  1
  O2-  O151  1  0.56775694  0.18152748  0.42196228  1
  O2-  O152  1  0.56989210  0.17702626  0.76658336  1
  O2-  O153  1  0.56537379  0.67618193  0.08981015  1
  O2-  O154  1  0.56976944  0.67106055  0.41854632  1
  O2-  O155  1  0.57163047  0.68219825  0.76713717  1
  O2-  O156  1  0.18251441  0.43415434  0.24141086  1
  O2-  O157  1  0.17935259  0.43107992  0.56908635  1
  O2-  O158  1  0.18409621  0.43105684  0.91254344  1
  O2-  O159  1  0.18557167  0.92265679  0.23431375  1
  O2-  O160  1  0.17973354  0.92685335  0.56975063  1
  O2-  O161  1  0.18057669  0.92157694  0.91115452  1
  O2-  O162  1  0.66995738  0.43271799  0.24619959  1
  O2-  O163  1  0.67710916  0.42821672  0.57522091  1
  O2-  O164  1  0.67047298  0.43310246  0.90099454  1
  O2-  O165  1  0.67996279  0.93325485  0.23692260  1
  O2-  O166  1  0.67840353  0.93001725  0.57489478  1
  O2-  O167  1  0.67736974  0.92773495  0.89856823  1
  O2-  O168  1  0.42860321  0.32551982  0.09025629  1
  O2-  O169  1  0.43376950  0.32981338  0.42316874  1
  O2-  O170  1  0.43146197  0.32346278  0.75599642  1
  O2-  O171  1  0.42781357  0.82045473  0.08716684  1
  O2-  O172  1  0.43067660  0.81481184  0.43148362  1
  O2-  O173  1  0.43086941  0.82362452  0.75594238  1
  O2-  O174  1  0.93146672  0.32035951  0.09645625  1
  O2-  O175  1  0.93353705  0.32751813  0.42994456  1
  O2-  O176  1  0.92622064  0.32142996  0.76475166  1
  O2-  O177  1  0.92871820  0.81505344  0.09195810  1
  O2-  O178  1  0.92298982  0.81695959  0.42123777  1
  O2-  O179  1  0.92514505  0.82019619  0.76814507  1
  O2-  O180  1  0.32094503  0.07211972  0.23597406  1
  O2-  O181  1  0.32766067  0.06713457  0.57884207  1
  O2-  O182  1  0.32275797  0.06763033  0.89921672  1
  O2-  O183  1  0.32300440  0.56785332  0.24027614  1
  O2-  O184  1  0.32125313  0.57178106  0.56731042  1
  O2-  O185  1  0.32295403  0.57092457  0.91193166  1
  O2-  O186  1  0.81879789  0.07318518  0.23692169  1
  O2-  O187  1  0.81773065  0.07038533  0.57569490  1
  O2-  O188  1  0.81921598  0.06954529  0.89777332  1
  O2-  O189  1  0.82215238  0.56720847  0.24421667  1
  O2-  O190  1  0.81822446  0.57329350  0.56506886  1
  O2-  O191  1  0.81854633  0.57470356  0.90393065  1
  O2-  O192  1  0.05105040  0.07547828  0.26869417  1
  O2-  O193  1  0.04046532  0.08167802  0.59865389  1
  O2-  O194  1  0.05219854  0.07238267  0.93747174  1
  O2-  O195  1  0.03871802  0.58723108  0.26367679  1
  O2-  O196  1  0.05083553  0.58541115  0.61189315  1
  O2-  O197  1  0.05035323  0.58464715  0.93802863  1
  O2-  O198  1  0.54174802  0.08756998  0.27023840  1
  O2-  O199  1  0.53933379  0.08159530  0.59663424  1
  O2-  O200  1  0.53615474  0.08876408  0.93882297  1
  O2-  O201  1  0.54071804  0.58411676  0.26509442  1
  O2-  O202  1  0.54421696  0.58068145  0.59872707  1
  O2-  O203  1  0.53657200  0.58924994  0.93662418  1
  O2-  O204  1  0.17022306  0.21244223  0.26677558  1
  O2-  O205  1  0.17458762  0.20036642  0.60300317  1
  O2-  O206  1  0.16902689  0.21084508  0.93132449  1
  O2-  O207  1  0.16776736  0.70816120  0.26479687  1
  O2-  O208  1  0.16711651  0.70761357  0.61066158  1
  O2-  O209  1  0.16480423  0.70752735  0.93424719  1
  O2-  O210  1  0.65902304  0.21053458  0.26940355  1
  O2-  O211  1  0.66383224  0.20950259  0.59359828  1
  O2-  O212  1  0.66109293  0.20312049  0.94037545  1
  O2-  O213  1  0.66929520  0.69398901  0.26940352  1
  O2-  O214  1  0.66301443  0.71230516  0.59500698  1
  O2-  O215  1  0.66386690  0.70380462  0.94108119  1
  O2-  O216  1  0.08994594  0.45771821  0.06491673  1
  O2-  O217  1  0.08776039  0.46228597  0.39244985  1
  O2-  O218  1  0.08294238  0.45833576  0.74100590  1
  O2-  O219  1  0.08242441  0.93888713  0.06140303  1
  O2-  O220  1  0.07756410  0.94443967  0.39796149  1
  O2-  O221  1  0.07917424  0.95971764  0.73624089  1
  O2-  O222  1  0.58115203  0.46297268  0.07043430  1
  O2-  O223  1  0.58608357  0.46211529  0.40044979  1
  O2-  O224  1  0.58525484  0.45066766  0.72696620  1
  O2-  O225  1  0.57856680  0.95772673  0.06467461  1
  O2-  O226  1  0.58259288  0.95895317  0.40351391  1
  O2-  O227  1  0.58539166  0.95521806  0.72628924  1
  O2-  O228  1  0.21345483  0.34007411  0.06485262  1
  O2-  O229  1  0.20829434  0.34205208  0.39530543  1
  O2-  O230  1  0.20954070  0.32940254  0.73746512  1
  O2-  O231  1  0.21237879  0.83299719  0.06231065  1
  O2-  O232  1  0.21612769  0.83025820  0.40014415  1
  O2-  O233  1  0.20895155  0.83710325  0.74113890  1
  O2-  O234  1  0.69724347  0.32869768  0.06789880  1
  O2-  O235  1  0.69718409  0.33643520  0.39680700  1
  O2-  O236  1  0.70254065  0.33119579  0.72490103  1
  O2-  O237  1  0.70218416  0.83062906  0.06819312  1
  O2-  O238  1  0.70083456  0.82478681  0.39741265  1
  O2-  O239  1  0.70762379  0.83786884  0.72589100  1
  O2-  O240  1  0.46161959  0.41334709  0.26742532  1
  O2-  O241  1  0.45644577  0.41417466  0.60177148  1
  O2-  O242  1  0.45597323  0.41633842  0.93786051  1
  O2-  O243  1  0.46231513  0.91788399  0.26483403  1
  O2-  O244  1  0.45568798  0.91211582  0.60146547  1
  O2-  O245  1  0.45471973  0.91461053  0.93448807  1
  O2-  O246  1  0.96296321  0.41654858  0.26064190  1
  O2-  O247  1  0.95773601  0.42498777  0.60274312  1
  O2-  O248  1  0.96036708  0.41892645  0.93352791  1
  O2-  O249  1  0.94497237  0.91759855  0.27296965  1
  O2-  O250  1  0.95768357  0.91652740  0.59965144  1
  O2-  O251  1  0.95394196  0.90809794  0.93842250  1
  O2-  O252  1  0.33601746  0.30249910  0.27190718  1
  O2-  O253  1  0.33417963  0.30061806  0.60510749  1
  O2-  O254  1  0.33828123  0.29527129  0.93620123  1
  O2-  O255  1  0.33929085  0.78619075  0.25952278  1
  O2-  O256  1  0.33157534  0.79682644  0.60747981  1
  O2-  O257  1  0.33932621  0.79076716  0.93344828  1
  O2-  O258  1  0.82423609  0.30323840  0.27004219  1
  O2-  O259  1  0.83225666  0.29633485  0.59639104  1
  O2-  O260  1  0.82480757  0.29915006  0.93351644  1
  O2-  O261  1  0.83435120  0.78901465  0.26812259  1
  O2-  O262  1  0.83387254  0.78880848  0.59595989  1
  O2-  O263  1  0.83480551  0.78755535  0.94128442  1
  O2-  O264  1  0.41167098  0.03792281  0.06844582  1
  O2-  O265  1  0.41764096  0.04068006  0.40157952  1
  O2-  O266  1  0.41586992  0.03792682  0.73133827  1
  O2-  O267  1  0.41195243  0.54333224  0.06598532  1
  O2-  O268  1  0.41367505  0.54094007  0.39310503  1
  O2-  O269  1  0.42168360  0.54174674  0.73424155  1
  O2-  O270  1  0.91988487  0.03861315  0.06575608  1
  O2-  O271  1  0.92154175  0.04838369  0.40295796  1
  O2-  O272  1  0.90975962  0.04270491  0.72790057  1
  O2-  O273  1  0.92461790  0.54716008  0.06792239  1
  O2-  O274  1  0.91452918  0.53898993  0.39515026  1
  O2-  O275  1  0.91669159  0.54874472  0.73521078  1
  O2-  O276  1  0.29402058  0.17036486  0.06530081  1
  O2-  O277  1  0.30244917  0.17607887  0.40042146  1
  O2-  O278  1  0.30816957  0.16729049  0.72702094  1
  O2-  O279  1  0.29415043  0.66489520  0.06201606  1
  O2-  O280  1  0.29805280  0.66413515  0.39033804  1
  O2-  O281  1  0.29730484  0.66945396  0.73792893  1
  O2-  O282  1  0.79499934  0.16889348  0.06563909  1
  O2-  O283  1  0.78750639  0.17086501  0.40242828  1
  O2-  O284  1  0.78920691  0.16420890  0.72505415  1
  O2-  O285  1  0.78972952  0.66460536  0.07488341  1
  O2-  O286  1  0.79588611  0.66013259  0.39546885  1
  O2-  O287  1  0.78368660  0.66795588  0.73181288  1
