# generated using pymatgen
data_Ca2Al2SiO7
_symmetry_space_group_name_H-M   'P 1'
_cell_length_a   15.46126277
_cell_length_b   15.45949585
_cell_length_c   15.28475294
_cell_angle_alpha   90.00055936
_cell_angle_beta   89.98524821
_cell_angle_gamma   89.99131513
_symmetry_Int_Tables_number   1
_chemical_formula_structural   Ca2Al2SiO7
_chemical_formula_sum   'Ca48 Al48 Si24 O168'
_cell_volume   3653.41234567
_cell_formula_units_Z   24
loop_
 _symmetry_equiv_pos_site_id
 _symmetry_equiv_pos_as_xyz
  1  'x, y, z'
loop_
 _atom_type_symbol
 _atom_type_oxidation_number
  Ca2+  2.0
  Al0+  0.0
  Si0+  0.0
  O2-  -2.0
loop_
 _atom_site_type_symbol
 _atom_site_label
 _atom_site_symmetry_multiplicity
 _atom_site_fract_x
 _atom_site_fract_y
 _atom_site_fract_z
 _atom_site_occupancy
  Ca2+  Ca0  1  0.17015480  0.07504967  0.17344487  1
  Ca2+  Ca1  1  0.17064925  0.08003744  0.50342779  1
  Ca2+  Ca2  1  0.18049750  0.07634700  0.84097584  1
  Ca2+  Ca3  1  0.17331077  0.58271089  0.16601475  1
  Ca2+  Ca4  1  0.17275297  0.58398630  0.50453672  1
  Ca2+  Ca5  1  0.17706737  0.58451189  0.83565895  1
  Ca2+  Ca6  1  0.66352993  0.08736525  0.16938100  1
  Ca2+  Ca7  1  0.66882445  0.08619593  0.50787113  1
  Ca2+  Ca8  1  0.66806343  0.09207530  0.83131688  1
  Ca2+  Ca9  1  0.66909972  0.57613225  0.18155916  1
  Ca2+  Ca10  1  0.66956244  0.57647146  0.50421851  1
  Ca2+  Ca11  1  0.67066441  0.57782146  0.83279768  1
  Ca2+  Ca12  1  0.07796752  0.32856207  0.16218693  1
  Ca2+  Ca13  1  0.07747341  0.32701246  0.49555714  1
  Ca2+  Ca14  1  0.07071850  0.33784106  0.82835933  1
  Ca2+  Ca15  1  0.08312297  0.84007087  0.16711710  1
  Ca2+  Ca16  1  0.07278899  0.83702439  0.49484555  1
  Ca2+  Ca17  1  0.08197361  0.83555302  0.82925344  1
  Ca2+  Ca18  1  0.58511519  0.32489574  0.16204139  1
  Ca2+  Ca19  1  0.59381832  0.32666488  0.49916055  1
  Ca2+  Ca20  1  0.58005293  0.32444011  0.83042539  1
  Ca2+  Ca21  1  0.57108089  0.82764494  0.16526874  1
  Ca2+  Ca22  1  0.57018010  0.82857657  0.49267209  1
  Ca2+  Ca23  1  0.56948697  0.83315625  0.82762406  1
  Ca2+  Ca24  1  0.34558927  0.42131031  0.16572723  1
  Ca2+  Ca25  1  0.33228747  0.42374384  0.50803961  1
  Ca2+  Ca26  1  0.34350105  0.42872422  0.83915698  1
  Ca2+  Ca27  1  0.32820752  0.91486407  0.16800808  1
  Ca2+  Ca28  1  0.33149501  0.91610163  0.50532009  1
  Ca2+  Ca29  1  0.33690010  0.92324473  0.84096718  1
  Ca2+  Ca30  1  0.82882590  0.42131838  0.17620704  1
  Ca2+  Ca31  1  0.82299803  0.42328768  0.50938858  1
  Ca2+  Ca32  1  0.82909379  0.40934554  0.83347491  1
  Ca2+  Ca33  1  0.83133518  0.91740982  0.17514452  1
  Ca2+  Ca34  1  0.83425955  0.91955983  0.50762539  1
  Ca2+  Ca35  1  0.83555674  0.92296362  0.83339644  1
  Ca2+  Ca36  1  0.42824063  0.16933910  0.15599191  1
  Ca2+  Ca37  1  0.42805245  0.16245889  0.49649006  1
  Ca2+  Ca38  1  0.42434887  0.15884425  0.82801939  1
  Ca2+  Ca39  1  0.41607783  0.67325226  0.16210557  1
  Ca2+  Ca40  1  0.41739588  0.67498689  0.49401272  1
  Ca2+  Ca41  1  0.40617058  0.67573186  0.82842134  1
  Ca2+  Ca42  1  0.92503868  0.17096566  0.16288565  1
  Ca2+  Ca43  1  0.91703892  0.17009119  0.49827388  1
  Ca2+  Ca44  1  0.91470390  0.17612602  0.82584532  1
  Ca2+  Ca45  1  0.91305423  0.67073234  0.16766753  1
  Ca2+  Ca46  1  0.90481795  0.67487747  0.49694912  1
  Ca2+  Ca47  1  0.91910503  0.67174437  0.82247241  1
  Al0+  Al48  1  -0.00052167  0.00093277  0.00273558  1
  Al0+  Al49  1  0.00123949  0.00004095  0.32957834  1
  Al0+  Al50  1  -0.00068418  0.00000508  0.66840300  1
  Al0+  Al51  1  0.00037411  0.50205622  -0.00345904  1
  Al0+  Al52  1  0.00102352  0.50279626  0.33740028  1
  Al0+  Al53  1  -0.00023538  0.50065918  0.66348881  1
  Al0+  Al54  1  0.50261040  -0.00269791  -0.00298493  1
  Al0+  Al55  1  0.49974992  0.00133516  0.32480483  1
  Al0+  Al56  1  0.49967135  -0.00119724  0.66046507  1
  Al0+  Al57  1  0.50409324  0.49845276  0.00251136  1
  Al0+  Al58  1  0.50096939  0.49967804  0.33792597  1
  Al0+  Al59  1  0.50026803  0.49904775  0.67602991  1
  Al0+  Al60  1  0.25051785  0.25159976  -0.00023869  1
  Al0+  Al61  1  0.25021967  0.24972732  0.32975101  1
  Al0+  Al62  1  0.25012048  0.24890637  0.67167502  1
  Al0+  Al63  1  0.24897841  0.74848955  0.00453839  1
  Al0+  Al64  1  0.24574445  0.75167307  0.33468836  1
  Al0+  Al65  1  0.24724981  0.74954140  0.66476885  1
  Al0+  Al66  1  0.75113432  0.25012102  -0.00469001  1
  Al0+  Al67  1  0.75050364  0.25092147  0.33219773  1
  Al0+  Al68  1  0.75048612  0.24955318  0.66647295  1
  Al0+  Al69  1  0.75060321  0.75075261  -0.00034000  1
  Al0+  Al70  1  0.74831621  0.75207011  0.32871555  1
  Al0+  Al71  1  0.74810282  0.74916394  0.66805483  1
  Al0+  Al72  1  0.67985716  0.42719746  0.68619131  1
  Al0+  Al73  1  0.42763007  0.81968438  0.65249545  1
  Al0+  Al74  1  0.92813179  0.82139073  0.65458944  1
  Al0+  Al75  1  0.32178815  0.56834431  0.01497747  1
  Al0+  Al76  1  0.56885973  0.18072176  0.65125277  1
  Al0+  Al77  1  0.57239735  0.18077640  0.31974509  1
  Al0+  Al78  1  0.92908522  0.82041182  0.31959662  1
  Al0+  Al79  1  0.32278715  0.06966151  0.67845060  1
  Al0+  Al80  1  0.42518095  0.82074903  0.31670943  1
  Al0+  Al81  1  0.57036201  0.17776117  0.98244902  1
  Al0+  Al82  1  0.17865538  0.92982623  0.01621853  1
  Al0+  Al83  1  0.82163964  0.57413066  0.34858335  1
  Al0+  Al84  1  0.82161489  0.57273655  0.68353182  1
  Al0+  Al85  1  0.32520479  0.07241327  0.01620098  1
  Al0+  Al86  1  0.93191364  0.32099341  0.98714385  1
  Al0+  Al87  1  0.82109247  0.06957699  0.67938825  1
  Al0+  Al88  1  0.67879263  0.42739422  0.34953789  1
  Al0+  Al89  1  0.42860356  0.81642490  0.98558760  1
  Al0+  Al90  1  0.42820874  0.32291018  0.98501094  1
  Al0+  Al91  1  0.07209471  0.17901625  0.31998149  1
  Al0+  Al92  1  0.92918687  0.32129730  0.65056447  1
  Al0+  Al93  1  0.17878999  0.93021144  0.35002309  1
  Al0+  Al94  1  0.56965235  0.67775341  0.31973916  1
  Al0+  Al95  1  0.31946061  0.57101719  0.67921957  1
  Si0+  Si96  1  0.82276896  0.57307215  0.01528934  1
  Si0+  Si97  1  0.07347832  0.17790732  0.65149014  1
  Si0+  Si98  1  0.07236926  0.67636014  0.31496083  1
  Si0+  Si99  1  0.06971760  0.68023714  0.98497016  1
  Si0+  Si100  1  0.17427993  0.42927772  0.01592920  1
  Si0+  Si101  1  0.67674266  0.92757931  0.68212877  1
  Si0+  Si102  1  0.17824408  0.42682962  0.34789285  1
  Si0+  Si103  1  0.67706711  0.93077682  0.34684495  1
  Si0+  Si104  1  0.07120091  0.67838454  0.64874828  1
  Si0+  Si105  1  0.31962696  0.57062799  0.34795255  1
  Si0+  Si106  1  0.17742500  0.42640950  0.68279677  1
  Si0+  Si107  1  0.81955605  0.07174236  0.01600816  1
  Si0+  Si108  1  0.32300911  0.07282467  0.34948498  1
  Si0+  Si109  1  0.07249438  0.17586375  0.98243500  1
  Si0+  Si110  1  0.68316143  0.42879487  0.01664777  1
  Si0+  Si111  1  0.57115557  0.67562220  0.65181705  1
  Si0+  Si112  1  0.17756405  0.92885441  0.68242559  1
  Si0+  Si113  1  0.92755467  0.82245528  0.98482088  1
  Si0+  Si114  1  0.57465974  0.67695725  0.98264871  1
  Si0+  Si115  1  0.93002629  0.32292705  0.31828655  1
  Si0+  Si116  1  0.42643662  0.32280966  0.31934911  1
  Si0+  Si117  1  0.42638641  0.32379680  0.65113441  1
  Si0+  Si118  1  0.68091116  0.92638283  0.01601942  1
  Si0+  Si119  1  0.82111634  0.07025002  0.34637843  1
  O2-  O120  1  0.25026922  0.00273689  0.06602005  1
  O2-  O121  1  0.25618009  0.00273303  0.39510906  1
  O2-  O122  1  0.24865602  -0.00535737  0.72573244  1
  O2-  O123  1  0.25060119  0.48913245  0.06141324  1
  O2-  O124  1  0.25011978  0.49738246  0.38951528  1
  O2-  O125  1  0.24792879  0.49323548  0.72654837  1
  O2-  O126  1  0.74976597  0.00000367  0.05855996  1
  O2-  O127  1  0.74797625  0.00186426  0.38915768  1
  O2-  O128  1  0.74750950  -0.00587695  0.72728021  1
  O2-  O129  1  0.75208907  0.50252894  0.05797841  1
  O2-  O130  1  0.75059138  0.50092930  0.39737836  1
  O2-  O131  1  0.75335983  0.49884726  0.73612406  1
  O2-  O132  1  -0.00083436  0.25558252  0.27300353  1
  O2-  O133  1  0.00559376  0.24699650  0.60615135  1
  O2-  O134  1  0.00804862  0.24854919  0.93848012  1
  O2-  O135  1  0.00129750  0.74344753  0.27202345  1
  O2-  O136  1  -0.00127108  0.74380856  0.60630998  1
  O2-  O137  1  0.00016588  0.75319127  0.94355010  1
  O2-  O138  1  0.49668284  0.25548552  0.27603267  1
  O2-  O139  1  0.49361956  0.25542370  0.60475249  1
  O2-  O140  1  0.49212840  0.24426505  0.93403817  1
  O2-  O141  1  0.49531814  0.74606474  0.26777339  1
  O2-  O142  1  0.50071673  0.74260647  0.60772761  1
  O2-  O143  1  0.50222061  0.74081849  0.93760139  1
  O2-  O144  1  0.06738663  0.17502715  0.08822682  1
  O2-  O145  1  0.07125066  0.18112764  0.43315860  1
  O2-  O146  1  0.07266040  0.17844824  0.75698626  1
  O2-  O147  1  0.06718003  0.67664493  0.08989617  1
  O2-  O148  1  0.07643867  0.67596898  0.42011968  1
  O2-  O149  1  0.07404183  0.68061550  0.75471480  1
  O2-  O150  1  0.57500925  0.18239530  0.09617899  1
  O2-  O151  1  0.57296168  0.17914429  0.43263945  1
  O2-  O152  1  0.56778876  0.17977735  0.76383234  1
  O2-  O153  1  0.57677728  0.67993993  0.08804230  1
  O2-  O154  1  0.56686556  0.67932274  0.43342430  1
  O2-  O155  1  0.57169791  0.67850945  0.75770148  1
  O2-  O156  1  0.17584191  0.42763214  0.24294766  1
  O2-  O157  1  0.17887484  0.42616498  0.57667222  1
  O2-  O158  1  0.16716069  0.43701447  0.91101637  1
  O2-  O159  1  0.17796182  0.93229249  0.23727601  1
  O2-  O160  1  0.17583036  0.93039600  0.57689338  1
  O2-  O161  1  0.17598185  0.93027388  0.90240014  1
  O2-  O162  1  0.68222593  0.42612835  0.23521297  1
  O2-  O163  1  0.68064314  0.42798898  0.57284672  1
  O2-  O164  1  0.68443395  0.42840106  0.91194822  1
  O2-  O165  1  0.67929449  0.93170244  0.24137590  1
  O2-  O166  1  0.67730590  0.92904726  0.57627172  1
  O2-  O167  1  0.68504145  0.92154177  0.91122243  1
  O2-  O168  1  0.43676003  0.32594926  0.09887709  1
  O2-  O169  1  0.42131153  0.32157185  0.42478635  1
  O2-  O170  1  0.42719372  0.32352583  0.75627324  1
  O2-  O171  1  0.42953926  0.81461073  0.09835358  1
  O2-  O172  1  0.42671029  0.81972677  0.43061636  1
  O2-  O173  1  0.42812931  0.81929704  0.76577336  1
  O2-  O174  1  0.93263623  0.31998716  0.10060136  1
  O2-  O175  1  0.93111476  0.32066730  0.42356701  1
  O2-  O176  1  0.93138572  0.31932777  0.76403757  1
  O2-  O177  1  0.92514750  0.82095419  0.08978169  1
  O2-  O178  1  0.93000225  0.82250999  0.43248973  1
  O2-  O179  1  0.93279824  0.82236558  0.76825989  1
  O2-  O180  1  0.32115893  0.07398416  0.24428631  1
  O2-  O181  1  0.32120056  0.06925600  0.56519821  1
  O2-  O182  1  0.32410512  0.06698890  0.90225602  1
  O2-  O183  1  0.31883014  0.56918323  0.24278906  1
  O2-  O184  1  0.31680436  0.57036215  0.56558210  1
  O2-  O185  1  0.31720030  0.57078559  0.90210839  1
  O2-  O186  1  0.82064987  0.06947820  0.24075102  1
  O2-  O187  1  0.82142935  0.06831679  0.56588008  1
  O2-  O188  1  0.82088272  0.07045634  0.91099118  1
  O2-  O189  1  0.82237957  0.57025818  0.23393466  1
  O2-  O190  1  0.81782832  0.57394962  0.57047022  1
  O2-  O191  1  0.82257712  0.57501996  0.91067633  1
  O2-  O192  1  0.03737227  0.08559222  0.26331694  1
  O2-  O193  1  0.04590573  0.08484850  0.60576822  1
  O2-  O194  1  0.04106220  0.08420172  0.93567910  1
  O2-  O195  1  0.04920232  0.58194361  0.26813175  1
  O2-  O196  1  0.05227686  0.58350113  0.60291840  1
  O2-  O197  1  0.04028032  0.59072617  0.93403598  1
  O2-  O198  1  0.54354024  0.08535176  0.26268317  1
  O2-  O199  1  0.53943754  0.08414887  0.59609914  1
  O2-  O200  1  0.55133831  0.07651885  0.93168597  1
  O2-  O201  1  0.54443187  0.57749039  0.26829333  1
  O2-  O202  1  0.54645044  0.58067648  0.60890790  1
  O2-  O203  1  0.55485565  0.58121718  0.94026681  1
  O2-  O204  1  0.16777840  0.20909921  0.26378521  1
  O2-  O205  1  0.16731139  0.20329606  0.60501144  1
  O2-  O206  1  0.16841702  0.19548816  0.93982326  1
  O2-  O207  1  0.16390396  0.70523505  0.26673282  1
  O2-  O208  1  0.16205105  0.70795623  0.59909581  1
  O2-  O209  1  0.16144585  0.70727149  0.93779273  1
  O2-  O210  1  0.66921222  0.21040152  0.26408933  1
  O2-  O211  1  0.66634397  0.21059771  0.59897562  1
  O2-  O212  1  0.66756369  0.21195600  0.93018570  1
  O2-  O213  1  0.66600897  0.70849715  0.26409240  1
  O2-  O214  1  0.66385677  0.70241975  0.60530485  1
  O2-  O215  1  0.66700682  0.70734277  0.93554026  1
  O2-  O216  1  0.08484240  0.46471698  0.06632005  1
  O2-  O217  1  0.08793393  0.45563261  0.39795474  1
  O2-  O218  1  0.08461160  0.45555161  0.72810283  1
  O2-  O219  1  0.07875932  0.95757824  0.06902016  1
  O2-  O220  1  0.08209222  0.96458082  0.40240534  1
  O2-  O221  1  0.08558955  0.95631692  0.73076550  1
  O2-  O222  1  0.59156148  0.45424330  0.06500205  1
  O2-  O223  1  0.57975251  0.45234991  0.40349204  1
  O2-  O224  1  0.58188656  0.45473411  0.74070458  1
  O2-  O225  1  0.58886029  0.95208269  0.06276429  1
  O2-  O226  1  0.58470797  0.95869594  0.39289443  1
  O2-  O227  1  0.58449302  0.95694210  0.72817723  1
  O2-  O228  1  0.18869653  0.33186585  0.05744717  1
  O2-  O229  1  0.20572557  0.33509255  0.39579271  1
  O2-  O230  1  0.19759558  0.33263914  0.73040091  1
  O2-  O231  1  0.20486869  0.83081421  0.06880993  1
  O2-  O232  1  0.20364826  0.83172665  0.40370420  1
  O2-  O233  1  0.19948740  0.83375241  0.72653964  1
  O2-  O234  1  0.71515279  0.33755295  0.06298263  1
  O2-  O235  1  0.71080071  0.32956378  0.40216987  1
  O2-  O236  1  0.71154085  0.32957444  0.73823499  1
  O2-  O237  1  0.71233823  0.83639720  0.06624963  1
  O2-  O238  1  0.70472166  0.83917314  0.39368586  1
  O2-  O239  1  0.69860796  0.83384595  0.72920440  1
  O2-  O240  1  0.45130286  0.41723632  0.27526998  1
  O2-  O241  1  0.45158804  0.41870897  0.60705621  1
  O2-  O242  1  0.46450409  0.41952513  0.93182014  1
  O2-  O243  1  0.45659066  0.91753332  0.26307886  1
  O2-  O244  1  0.46107335  0.91345952  0.59542970  1
  O2-  O245  1  0.46287946  0.91192800  0.93221823  1
  O2-  O246  1  0.95598322  0.41749240  0.27405949  1
  O2-  O247  1  0.95913239  0.41810092  0.59675636  1
  O2-  O248  1  0.96061171  0.41814503  0.93240700  1
  O2-  O249  1  0.96183775  0.91543908  0.26338526  1
  O2-  O250  1  0.96070132  0.91749541  0.60021882  1
  O2-  O251  1  0.95364167  0.91560212  0.93924380  1
  O2-  O252  1  0.33393599  0.29926890  0.26960397  1
  O2-  O253  1  0.33084438  0.30044853  0.60711869  1
  O2-  O254  1  0.32400102  0.31126366  0.93779347  1
  O2-  O255  1  0.32575155  0.79267753  0.26664949  1
  O2-  O256  1  0.33024123  0.79003458  0.59943249  1
  O2-  O257  1  0.33079112  0.78557755  0.93389982  1
  O2-  O258  1  0.83773154  0.29555545  0.27108387  1
  O2-  O259  1  0.83440044  0.28695661  0.59710718  1
  O2-  O260  1  0.83762821  0.28673350  0.93193405  1
  O2-  O261  1  0.83258011  0.79367945  0.26294011  1
  O2-  O262  1  0.82932561  0.79493909  0.60256210  1
  O2-  O263  1  0.83688441  0.79319138  0.93630300  1
  O2-  O264  1  0.42433561  0.04171970  0.06659275  1
  O2-  O265  1  0.41814938  0.04746590  0.39256100  1
  O2-  O266  1  0.41878921  0.03619595  0.73126111  1
  O2-  O267  1  0.42028779  0.54106677  0.06823119  1
  O2-  O268  1  0.41101310  0.54530491  0.39666069  1
  O2-  O269  1  0.41543950  0.54535355  0.73608239  1
  O2-  O270  1  0.91128503  0.04432838  0.06411189  1
  O2-  O271  1  0.91203544  0.04048368  0.39317749  1
  O2-  O272  1  0.91688132  0.03944935  0.73634297  1
  O2-  O273  1  0.91494880  0.54513465  0.06177842  1
  O2-  O274  1  0.92214845  0.55133364  0.40018515  1
  O2-  O275  1  0.92370244  0.54943858  0.73158935  1
  O2-  O276  1  0.30244899  0.17459485  0.06492817  1
  O2-  O277  1  0.29579754  0.16661876  0.39517708  1
  O2-  O278  1  0.29427779  0.16624799  0.73427003  1
  O2-  O279  1  0.28447858  0.66160258  0.07091832  1
  O2-  O280  1  0.28778962  0.66114764  0.39501712  1
  O2-  O281  1  0.28281860  0.66607527  0.73346281  1
  O2-  O282  1  0.79116212  0.16347328  0.06324857  1
  O2-  O283  1  0.79601340  0.16306982  0.39253435  1
  O2-  O284  1  0.78945754  0.16480609  0.73434834  1
  O2-  O285  1  0.79600085  0.66576932  0.06227863  1
  O2-  O286  1  0.79164952  0.67365447  0.39791435  1
  O2-  O287  1  0.79210561  0.67109021  0.73786024  1
