# generated using pymatgen
data_Ca2Al2SiO7
_symmetry_space_group_name_H-M   'P 1'
_cell_length_a   15.45362596
_cell_length_b   15.45360348
_cell_length_c   15.28055141
_cell_angle_alpha   90.00348882
_cell_angle_beta   90.00704738
_cell_angle_gamma   90.00401724
_symmetry_Int_Tables_number   1
_chemical_formula_structural   Ca2Al2SiO7
_chemical_formula_sum   'Ca48 Al48 Si24 O168'
_cell_volume   3649.21273880
_cell_formula_units_Z   24
loop_
 _symmetry_equiv_pos_site_id
 _symmetry_equiv_pos_as_xyz
  1  'x, y, z'
loop_
 _atom_type_symbol
 _atom_type_oxidation_number
  Ca2+  2.0
  Al0+  0.0
  Si0+  0.0
  O2-  -2.0
loop_
 _atom_site_type_symbol
 _atom_site_label
 _atom_site_symmetry_multiplicity
 _atom_site_fract_x
 _atom_site_fract_y
 _atom_site_fract_z
 _atom_site_occupancy
  Ca2+  Ca0  1  0.16254650  0.08291176  0.16632422  1
  Ca2+  Ca1  1  0.16378455  0.07816111  0.50567119  1
  Ca2+  Ca2  1  0.15672291  0.07542256  0.83645302  1
  Ca2+  Ca3  1  0.16637989  0.57444978  0.17261842  1
  Ca2+  Ca4  1  0.16725505  0.58233955  0.50568464  1
  Ca2+  Ca5  1  0.18272965  0.57969976  0.84270756  1
  Ca2+  Ca6  1  0.67127098  0.07372138  0.17642100  1
  Ca2+  Ca7  1  0.67103268  0.07247087  0.51202624  1
  Ca2+  Ca8  1  0.66681941  0.08193112  0.83108516  1
  Ca2+  Ca9  1  0.65941693  0.58478373  0.16656076  1
  Ca2+  Ca10  1  0.67085988  0.58223964  0.50717924  1
  Ca2+  Ca11  1  0.66578318  0.57730364  0.83788369  1
  Ca2+  Ca12  1  0.09571204  0.32531597  0.16135916  1
  Ca2+  Ca13  1  0.08666084  0.32321702  0.49266267  1
  Ca2+  Ca14  1  0.09181632  0.32203464  0.82987643  1
  Ca2+  Ca15  1  0.07348345  0.83409102  0.16080595  1
  Ca2+  Ca16  1  0.07732512  0.82756175  0.49232735  1
  Ca2+  Ca17  1  0.07989237  0.84158139  0.82988716  1
  Ca2+  Ca18  1  0.57595855  0.33735174  0.15520001  1
  Ca2+  Ca19  1  0.59027188  0.32903314  0.50329027  1
  Ca2+  Ca20  1  0.58276355  0.33682043  0.82883279  1
  Ca2+  Ca21  1  0.58235094  0.82352766  0.16543785  1
  Ca2+  Ca22  1  0.57585276  0.83513301  0.49151962  1
  Ca2+  Ca23  1  0.57523476  0.82893095  0.82516358  1
  Ca2+  Ca24  1  0.32811411  0.41984424  0.16468887  1
  Ca2+  Ca25  1  0.32729650  0.42635696  0.50348686  1
  Ca2+  Ca26  1  0.33594252  0.42593198  0.84274922  1
  Ca2+  Ca27  1  0.32955306  0.91505014  0.16940696  1
  Ca2+  Ca28  1  0.32905480  0.90927844  0.50852473  1
  Ca2+  Ca29  1  0.32098773  0.91244163  0.83502810  1
  Ca2+  Ca30  1  0.82662542  0.41644669  0.16887430  1
  Ca2+  Ca31  1  0.82893334  0.42685530  0.51108779  1
  Ca2+  Ca32  1  0.82292322  0.41941377  0.83385143  1
  Ca2+  Ca33  1  0.83161236  0.90913144  0.17151484  1
  Ca2+  Ca34  1  0.82180652  0.91407815  0.50590329  1
  Ca2+  Ca35  1  0.83269006  0.92122008  0.83419591  1
  Ca2+  Ca36  1  0.41720356  0.17526690  0.16010299  1
  Ca2+  Ca37  1  0.42542879  0.16391323  0.50018813  1
  Ca2+  Ca38  1  0.42075768  0.17695403  0.82774517  1
  Ca2+  Ca39  1  0.42513167  0.66436483  0.16367879  1
  Ca2+  Ca40  1  0.41931948  0.67648379  0.49646990  1
  Ca2+  Ca41  1  0.41799097  0.66304630  0.82868676  1
  Ca2+  Ca42  1  0.92976301  0.16659778  0.16166096  1
  Ca2+  Ca43  1  0.92516738  0.16016720  0.50036740  1
  Ca2+  Ca44  1  0.92432770  0.16468162  0.82657243  1
  Ca2+  Ca45  1  0.91982852  0.67756187  0.16534368  1
  Ca2+  Ca46  1  0.91884879  0.67019247  0.49114293  1
  Ca2+  Ca47  1  0.91625668  0.67012011  0.83145307  1
  Al0+  Al48  1  -0.00077830  0.00068606  -0.00273871  1
  Al0+  Al49  1  0.00099586  0.00205883  0.32613114  1
  Al0+  Al50  1  -0.00132542  -0.00070770  0.66678188  1
  Al0+  Al51  1  -0.00139855  0.50039662  0.00319605  1
  Al0+  Al52  1  -0.00142318  0.49725787  0.33427240  1
  Al0+  Al53  1  -0.00015896  0.49895851  0.67232615  1
  Al0+  Al54  1  0.50028160  -0.00132320  0.00118148  1
  Al0+  Al55  1  0.49972383  0.00096359  0.33183524  1
  Al0+  Al56  1  0.49783380  0.00151072  0.66367841  1
  Al0+  Al57  1  0.50080554  0.50023434  -0.00010886  1
  Al0+  Al58  1  0.49830406  0.49942916  0.33382931  1
  Al0+  Al59  1  0.49853507  0.50090816  0.66939443  1
  Al0+  Al60  1  0.25282642  0.24925454  -0.00829313  1
  Al0+  Al61  1  0.25116225  0.24997515  0.33572469  1
  Al0+  Al62  1  0.25100657  0.24898794  0.65850391  1
  Al0+  Al63  1  0.24981574  0.75103724  0.01166754  1
  Al0+  Al64  1  0.25060747  0.74951514  0.32605272  1
  Al0+  Al65  1  0.24912860  0.74945561  0.67147319  1
  Al0+  Al66  1  0.75247433  0.24910144  0.00643752  1
  Al0+  Al67  1  0.75182209  0.24890406  0.33440212  1
  Al0+  Al68  1  0.75105067  0.25028848  0.66875631  1
  Al0+  Al69  1  0.74991408  0.75039396  -0.00986789  1
  Al0+  Al70  1  0.74862003  0.74918854  0.33125180  1
  Al0+  Al71  1  0.74934503  0.74989757  0.67453874  1
  Al0+  Al72  1  0.32293702  0.57197444  0.01867852  1
  Al0+  Al73  1  0.17992130  0.93049515  0.67735513  1
  Al0+  Al74  1  0.57198738  0.18059982  0.65350689  1
  Al0+  Al75  1  0.43178304  0.31959483  0.98624401  1
  Al0+  Al76  1  0.92934273  0.82063866  0.32041177  1
  Al0+  Al77  1  0.67998914  0.92855234  0.34585046  1
  Al0+  Al78  1  0.56829899  0.68037004  0.98332725  1
  Al0+  Al79  1  0.82092455  0.06934170  0.68159681  1
  Al0+  Al80  1  0.57018460  0.67786238  0.32002268  1
  Al0+  Al81  1  0.07195625  0.67509604  0.31898295  1
  Al0+  Al82  1  0.42787111  0.82432329  0.31658992  1
  Al0+  Al83  1  0.07022429  0.17841210  0.65068931  1
  Al0+  Al84  1  0.07176413  0.18127792  0.31837416  1
  Al0+  Al85  1  0.17745703  0.93141446  0.01588143  1
  Al0+  Al86  1  0.31792526  0.57068864  0.67864139  1
  Al0+  Al87  1  0.82405186  0.57349275  0.68299269  1
  Al0+  Al88  1  0.67903991  0.42974110  0.68093322  1
  Al0+  Al89  1  0.42775123  0.81945378  0.65533115  1
  Al0+  Al90  1  0.67429791  0.92865934  0.68324594  1
  Al0+  Al91  1  0.93110694  0.82015917  0.98280028  1
  Al0+  Al92  1  0.06993042  0.18232000  0.98427258  1
  Al0+  Al93  1  0.68121965  0.42996132  0.01500270  1
  Al0+  Al94  1  0.17889562  0.42848417  0.34846592  1
  Al0+  Al95  1  0.17905311  0.42712355  0.01308437  1
  Si0+  Si96  1  0.92861908  0.32331440  0.65014963  1
  Si0+  Si97  1  0.42587311  0.82395329  0.98287727  1
  Si0+  Si98  1  0.82133384  0.57526443  0.01905296  1
  Si0+  Si99  1  0.92809683  0.82005120  0.65196340  1
  Si0+  Si100  1  0.67867962  0.92826141  0.01489692  1
  Si0+  Si101  1  0.92476837  0.32377292  0.98311837  1
  Si0+  Si102  1  0.17833779  0.42496180  0.68209373  1
  Si0+  Si103  1  0.82368952  0.07254041  0.35004451  1
  Si0+  Si104  1  0.32093032  0.07186359  0.34866396  1
  Si0+  Si105  1  0.57512688  0.17561232  0.98600781  1
  Si0+  Si106  1  0.32248622  0.07451657  0.68239226  1
  Si0+  Si107  1  0.43111657  0.31931549  0.31979860  1
  Si0+  Si108  1  0.81932897  0.56967481  0.34622272  1
  Si0+  Si109  1  0.57341431  0.17931157  0.31860205  1
  Si0+  Si110  1  0.57236912  0.67778679  0.65055831  1
  Si0+  Si111  1  0.42838591  0.32487718  0.64645086  1
  Si0+  Si112  1  0.67653668  0.42700260  0.34831064  1
  Si0+  Si113  1  0.92613375  0.32213883  0.31628046  1
  Si0+  Si114  1  0.82122547  0.06971444  0.01717921  1
  Si0+  Si115  1  0.07058794  0.67842704  0.65555685  1
  Si0+  Si116  1  0.17895522  0.92938902  0.34654720  1
  Si0+  Si117  1  0.32206826  0.57256297  0.35134265  1
  Si0+  Si118  1  0.32366793  0.07152555  0.01529190  1
  Si0+  Si119  1  0.07372194  0.67686438  0.98386142  1
  O2-  O120  1  0.25553745  0.00350779  0.06157921  1
  O2-  O121  1  0.25333499  -0.00334853  0.38966805  1
  O2-  O122  1  0.25257347  0.00701312  0.72542751  1
  O2-  O123  1  0.24603154  0.50260923  0.06551420  1
  O2-  O124  1  0.24782211  0.50884885  0.39498967  1
  O2-  O125  1  0.24701001  0.49275417  0.72577411  1
  O2-  O126  1  0.74742444  0.00108556  0.05842164  1
  O2-  O127  1  0.75529922  0.00305444  0.39245426  1
  O2-  O128  1  0.74734361  -0.00010079  0.73352005  1
  O2-  O129  1  0.75534440  0.50401562  0.06415609  1
  O2-  O130  1  0.74774696  0.49843178  0.38843114  1
  O2-  O131  1  0.74888722  0.50362546  0.73092524  1
  O2-  O132  1  -0.00263373  0.25642301  0.27198964  1
  O2-  O133  1  -0.00178946  0.25612867  0.60432971  1
  O2-  O134  1  -0.00116748  0.26128401  0.93876672  1
  O2-  O135  1  0.00381752  0.75129765  0.26970079  1
  O2-  O136  1  -0.00458086  0.74452745  0.61166596  1
  O2-  O137  1  0.00734528  0.74629520  0.93675915  1
  O2-  O138  1  0.50607627  0.25292647  0.27610738  1
  O2-  O139  1  0.49824942  0.25587108  0.60408306  1
  O2-  O140  1  0.50866337  0.24575606  0.94169638  1
  O2-  O141  1  0.49889831  0.75022020  0.26900106  1
  O2-  O142  1  0.50731386  0.75023783  0.60723746  1
  O2-  O143  1  0.49119803  0.75321843  0.93783355  1
  O2-  O144  1  0.06876021  0.18197076  0.09763186  1
  O2-  O145  1  0.07040228  0.17978236  0.43136802  1
  O2-  O146  1  0.06911016  0.17888427  0.76359693  1
  O2-  O147  1  0.06943006  0.67742662  0.08933102  1
  O2-  O148  1  0.06937619  0.67683267  0.43365323  1
  O2-  O149  1  0.07160303  0.68066000  0.76036726  1
  O2-  O150  1  0.57289053  0.17516610  0.09223764  1
  O2-  O151  1  0.57323334  0.17965806  0.42359402  1
  O2-  O152  1  0.56884971  0.18206277  0.76665566  1
  O2-  O153  1  0.56963685  0.68271817  0.09656934  1
  O2-  O154  1  0.56996989  0.67637038  0.43362847  1
  O2-  O155  1  0.56908992  0.67615518  0.75599798  1
  O2-  O156  1  0.18423202  0.42501288  0.23588312  1
  O2-  O157  1  0.17828844  0.42671725  0.57609620  1
  O2-  O158  1  0.18310837  0.42712024  0.89936902  1
  O2-  O159  1  0.17796976  0.93414271  0.24162521  1
  O2-  O160  1  0.17994323  0.92897715  0.56374920  1
  O2-  O161  1  0.17705314  0.93356500  0.90259625  1
  O2-  O162  1  0.67662650  0.42472291  0.24330778  1
  O2-  O163  1  0.68150896  0.43126045  0.56631355  1
  O2-  O164  1  0.68241182  0.42931317  0.90257569  1
  O2-  O165  1  0.68156736  0.93110765  0.23214572  1
  O2-  O166  1  0.67622946  0.92856193  0.56919092  1
  O2-  O167  1  0.67729310  0.93144638  0.91028080  1
  O2-  O168  1  0.43188374  0.31684681  0.10020440  1
  O2-  O169  1  0.43212770  0.31817614  0.42482563  1
  O2-  O170  1  0.42661902  0.32429927  0.75186191  1
  O2-  O171  1  0.43119550  0.82810504  0.08816575  1
  O2-  O172  1  0.42775373  0.82378140  0.43056770  1
  O2-  O173  1  0.42543086  0.81603968  0.76825868  1
  O2-  O174  1  0.92022951  0.31868975  0.08879948  1
  O2-  O175  1  0.92327549  0.32167236  0.42163164  1
  O2-  O176  1  0.92963864  0.32311083  0.75554490  1
  O2-  O177  1  0.93003915  0.81937096  0.09602203  1
  O2-  O178  1  0.92908391  0.81869546  0.43444861  1
  O2-  O179  1  0.93139828  0.82246299  0.75698658  1
  O2-  O180  1  0.32043347  0.07568089  0.24355881  1
  O2-  O181  1  0.32208217  0.07434619  0.57631461  1
  O2-  O182  1  0.32621732  0.07020776  0.91010295  1
  O2-  O183  1  0.32638798  0.56717154  0.24644035  1
  O2-  O184  1  0.31505664  0.57117358  0.56524204  1
  O2-  O185  1  0.32267618  0.57002094  0.90470344  1
  O2-  O186  1  0.82080733  0.07594523  0.24424939  1
  O2-  O187  1  0.82202456  0.06488073  0.56764649  1
  O2-  O188  1  0.82131015  0.07034913  0.91241403  1
  O2-  O189  1  0.81918889  0.56826677  0.24135101  1
  O2-  O190  1  0.82504132  0.57246866  0.56851438  1
  O2-  O191  1  0.82014934  0.57441462  0.91373402  1
  O2-  O192  1  0.04096022  0.08636396  0.26139718  1
  O2-  O193  1  0.03566109  0.08234319  0.59679703  1
  O2-  O194  1  0.03279815  0.08754990  0.93155014  1
  O2-  O195  1  0.04018717  0.57738208  0.26655266  1
  O2-  O196  1  0.04780606  0.58393642  0.60988699  1
  O2-  O197  1  0.04781483  0.58277388  0.93813870  1
  O2-  O198  1  0.54262456  0.08963228  0.26946712  1
  O2-  O199  1  0.53875073  0.08570422  0.59654938  1
  O2-  O200  1  0.54835224  0.08238429  0.93980257  1
  O2-  O201  1  0.54114092  0.57875303  0.26679904  1
  O2-  O202  1  0.54371295  0.58500371  0.60388394  1
  O2-  O203  1  0.53903471  0.58313506  0.93076374  1
  O2-  O204  1  0.16935401  0.21236749  0.26624885  1
  O2-  O205  1  0.16788865  0.20510547  0.59542133  1
  O2-  O206  1  0.16748558  0.20657643  0.92907895  1
  O2-  O207  1  0.17119936  0.69694938  0.26659019  1
  O2-  O208  1  0.15976482  0.71076124  0.60615434  1
  O2-  O209  1  0.16978164  0.70179006  0.94314950  1
  O2-  O210  1  0.66686546  0.20302043  0.27194915  1
  O2-  O211  1  0.66883439  0.21049140  0.59832897  1
  O2-  O212  1  0.67030580  0.19932865  0.94344456  1
  O2-  O213  1  0.66764910  0.70533094  0.26506830  1
  O2-  O214  1  0.66890163  0.69915567  0.60845570  1
  O2-  O215  1  0.66377165  0.71136540  0.92800847  1
  O2-  O216  1  0.07757819  0.44804354  0.06469723  1
  O2-  O217  1  0.07920118  0.45163714  0.40083060  1
  O2-  O218  1  0.08462248  0.44688034  0.72836133  1
  O2-  O219  1  0.08184930  0.96725660  0.06899230  1
  O2-  O220  1  0.08729517  0.96065174  0.39296114  1
  O2-  O221  1  0.08403472  0.96143228  0.73177587  1
  O2-  O222  1  0.58516627  0.46144168  0.06878690  1
  O2-  O223  1  0.58471763  0.45304533  0.39608824  1
  O2-  O224  1  0.57967781  0.45497345  0.73243645  1
  O2-  O225  1  0.58636061  0.95370693  0.06349873  1
  O2-  O226  1  0.58300979  0.96181675  0.39788728  1
  O2-  O227  1  0.57612869  0.95971427  0.73489876  1
  O2-  O228  1  0.21413169  0.32889909  0.06354479  1
  O2-  O229  1  0.21629590  0.33416767  0.40402271  1
  O2-  O230  1  0.20500053  0.33011917  0.72443129  1
  O2-  O231  1  0.20295478  0.83501216  0.07228070  1
  O2-  O232  1  0.20232064  0.83487997  0.39098339  1
  O2-  O233  1  0.21113392  0.83616409  0.73498643  1
  O2-  O234  1  0.71014741  0.33253091  0.07104591  1
  O2-  O235  1  0.70560527  0.33481025  0.39524976  1
  O2-  O236  1  0.70808435  0.33233928  0.73443240  1
  O2-  O237  1  0.71100012  0.83667254  0.05915382  1
  O2-  O238  1  0.70923072  0.83163154  0.39996883  1
  O2-  O239  1  0.70083429  0.83058783  0.73624771  1
  O2-  O240  1  0.45534948  0.41167564  0.27234061  1
  O2-  O241  1  0.45459461  0.41818174  0.59978575  1
  O2-  O242  1  0.46338335  0.41517554  0.93244241  1
  O2-  O243  1  0.45612406  0.92303121  0.26315140  1
  O2-  O244  1  0.45080401  0.91830955  0.60185711  1
  O2-  O245  1  0.45379148  0.91716558  0.93599801  1
  O2-  O246  1  0.94708468  0.41623386  0.27017248  1
  O2-  O247  1  0.95331418  0.41806105  0.60417430  1
  O2-  O248  1  0.94187917  0.42085791  0.94141546  1
  O2-  O249  1  0.95465270  0.91911081  0.26582227  1
  O2-  O250  1  0.95941815  0.90954418  0.60290800  1
  O2-  O251  1  0.96273651  0.91656680  0.92941059  1
  O2-  O252  1  0.34165388  0.28552777  0.27237836  1
  O2-  O253  1  0.33608740  0.29751373  0.59787771  1
  O2-  O254  1  0.33877974  0.28725730  0.92686799  1
  O2-  O255  1  0.32938946  0.79932609  0.26310121  1
  O2-  O256  1  0.33224514  0.78369665  0.60059376  1
  O2-  O257  1  0.32879981  0.80188568  0.94327477  1
  O2-  O258  1  0.83329138  0.29354443  0.26810967  1
  O2-  O259  1  0.83527904  0.29800825  0.60351478  1
  O2-  O260  1  0.83356375  0.29066224  0.93600052  1
  O2-  O261  1  0.83279610  0.78886226  0.26593802  1
  O2-  O262  1  0.83396692  0.79495953  0.60756383  1
  O2-  O263  1  0.83551095  0.79048409  0.92700886  1
  O2-  O264  1  0.41735273  0.04734508  0.06436598  1
  O2-  O265  1  0.41451492  0.04822014  0.39502202  1
  O2-  O266  1  0.41546805  0.05079338  0.72895943  1
  O2-  O267  1  0.41916897  0.53678631  0.07115828  1
  O2-  O268  1  0.41300839  0.53975500  0.40015530  1
  O2-  O269  1  0.41473085  0.54238915  0.73245754  1
  O2-  O270  1  0.91127588  0.03793857  0.06498876  1
  O2-  O271  1  0.91878895  0.04796130  0.39300826  1
  O2-  O272  1  0.91734960  0.03732866  0.73624797  1
  O2-  O273  1  0.91596268  0.55302619  0.06483503  1
  O2-  O274  1  0.91017794  0.54159474  0.39585129  1
  O2-  O275  1  0.92090472  0.54316497  0.73907349  1
  O2-  O276  1  0.29674177  0.16520472  0.06030014  1
  O2-  O277  1  0.29035326  0.16100655  0.39952347  1
  O2-  O278  1  0.29828185  0.16963221  0.72626472  1
  O2-  O279  1  0.30099371  0.67113500  0.07231806  1
  O2-  O280  1  0.30133980  0.66915839  0.39319271  1
  O2-  O281  1  0.28398102  0.66344937  0.73703222  1
  O2-  O282  1  0.79719134  0.16139352  0.06756184  1
  O2-  O283  1  0.79803841  0.16599538  0.39751798  1
  O2-  O284  1  0.79665644  0.16882183  0.73336221  1
  O2-  O285  1  0.79094903  0.66863985  0.06266602  1
  O2-  O286  1  0.79159070  0.66076997  0.39469460  1
  O2-  O287  1  0.79925096  0.67118883  0.73762584  1
