# generated using pymatgen
data_Ca2Al2SiO7
_symmetry_space_group_name_H-M   'P 1'
_cell_length_a   15.45485232
_cell_length_b   15.45438788
_cell_length_c   15.28150241
_cell_angle_alpha   89.99514083
_cell_angle_beta   89.99411161
_cell_angle_gamma   89.99700813
_symmetry_Int_Tables_number   1
_chemical_formula_structural   Ca2Al2SiO7
_chemical_formula_sum   'Ca48 Al48 Si24 O168'
_cell_volume   3649.91471993
_cell_formula_units_Z   24
loop_
 _symmetry_equiv_pos_site_id
 _symmetry_equiv_pos_as_xyz
  1  'x, y, z'
loop_
 _atom_type_symbol
 _atom_type_oxidation_number
  Ca2+  2.0
  Al0+  0.0
  Si0+  0.0
  O2-  -2.0
loop_
 _atom_site_type_symbol
 _atom_site_label
 _atom_site_symmetry_multiplicity
 _atom_site_fract_x
 _atom_site_fract_y
 _atom_site_fract_z
 _atom_site_occupancy
  Ca2+  Ca0  1  0.16078486  0.07177243  0.17521297  1
  Ca2+  Ca1  1  0.16413054  0.08230694  0.50372792  1
  Ca2+  Ca2  1  0.16942426  0.08334985  0.83495516  1
  Ca2+  Ca3  1  0.16906360  0.58710323  0.17422654  1
  Ca2+  Ca4  1  0.18000460  0.58275691  0.50254019  1
  Ca2+  Ca5  1  0.16969590  0.58741163  0.83617883  1
  Ca2+  Ca6  1  0.67325567  0.07676254  0.17957156  1
  Ca2+  Ca7  1  0.67275555  0.08893061  0.50348235  1
  Ca2+  Ca8  1  0.67433602  0.09059125  0.83165697  1
  Ca2+  Ca9  1  0.67867344  0.58028583  0.17124977  1
  Ca2+  Ca10  1  0.67124875  0.57812750  0.50573586  1
  Ca2+  Ca11  1  0.66855294  0.57170225  0.83819166  1
  Ca2+  Ca12  1  0.07870383  0.32901067  0.16909073  1
  Ca2+  Ca13  1  0.07476141  0.32110211  0.49362049  1
  Ca2+  Ca14  1  0.07269478  0.32834983  0.82130194  1
  Ca2+  Ca15  1  0.07351999  0.83434372  0.16095556  1
  Ca2+  Ca16  1  0.07828909  0.83555303  0.49138003  1
  Ca2+  Ca17  1  0.08206807  0.83271117  0.83909113  1
  Ca2+  Ca18  1  0.58504398  0.33215440  0.16979799  1
  Ca2+  Ca19  1  0.58439470  0.32382886  0.49527934  1
  Ca2+  Ca20  1  0.58712858  0.33362752  0.82461944  1
  Ca2+  Ca21  1  0.57912402  0.83806280  0.16836936  1
  Ca2+  Ca22  1  0.57843895  0.83024895  0.49151838  1
  Ca2+  Ca23  1  0.58393067  0.82198527  0.82471103  1
  Ca2+  Ca24  1  0.33289608  0.42218723  0.17708384  1
  Ca2+  Ca25  1  0.34259730  0.42410029  0.50214195  1
  Ca2+  Ca26  1  0.33428652  0.42376712  0.83353960  1
  Ca2+  Ca27  1  0.31980099  0.91018585  0.17548466  1
  Ca2+  Ca28  1  0.32870002  0.91907562  0.50181427  1
  Ca2+  Ca29  1  0.32795226  0.92494475  0.83632727  1
  Ca2+  Ca30  1  0.83740512  0.42777634  0.17264244  1
  Ca2+  Ca31  1  0.83411823  0.41492226  0.50403854  1
  Ca2+  Ca32  1  0.82193855  0.41414059  0.83811042  1
  Ca2+  Ca33  1  0.83237586  0.91714904  0.18062646  1
  Ca2+  Ca34  1  0.83281532  0.92802998  0.49700686  1
  Ca2+  Ca35  1  0.83739184  0.92205296  0.83438687  1
  Ca2+  Ca36  1  0.42264410  0.16877801  0.16944351  1
  Ca2+  Ca37  1  0.42659709  0.16538479  0.49174051  1
  Ca2+  Ca38  1  0.42314798  0.16781988  0.82218241  1
  Ca2+  Ca39  1  0.41214365  0.67155265  0.16961182  1
  Ca2+  Ca40  1  0.42129800  0.66433242  0.49401047  1
  Ca2+  Ca41  1  0.42185161  0.66687043  0.82376930  1
  Ca2+  Ca42  1  0.91762546  0.16442222  0.17206248  1
  Ca2+  Ca43  1  0.91638539  0.17277806  0.49360840  1
  Ca2+  Ca44  1  0.92118504  0.17133520  0.81932558  1
  Ca2+  Ca45  1  0.91343546  0.67541153  0.15954700  1
  Ca2+  Ca46  1  0.91542091  0.67286429  0.48961688  1
  Ca2+  Ca47  1  0.91542177  0.66866497  0.83524304  1
  Al0+  Al48  1  0.00139233  -0.00006984  -0.00201947  1
  Al0+  Al49  1  -0.00132928  -0.00152472  0.33499078  1
  Al0+  Al50  1  -0.00078938  -0.00175003  0.66936294  1
  Al0+  Al51  1  0.00131107  0.49999376  -0.00208034  1
  Al0+  Al52  1  0.00230193  0.49862009  0.33642766  1
  Al0+  Al53  1  0.00101960  0.50270238  0.66276626  1
  Al0+  Al54  1  0.50080291  0.00270355  -0.00255716  1
  Al0+  Al55  1  0.49788439  -0.00286850  0.32583302  1
  Al0+  Al56  1  0.49825982  -0.00143097  0.66852226  1
  Al0+  Al57  1  0.49946567  0.49882845  0.00466342  1
  Al0+  Al58  1  0.50167467  0.50001933  0.33204984  1
  Al0+  Al59  1  0.50162580  0.50180934  0.67166394  1
  Al0+  Al60  1  0.25304036  0.25215128  -0.00109482  1
  Al0+  Al61  1  0.24967794  0.24885520  0.32450045  1
  Al0+  Al62  1  0.24911292  0.25054256  0.66824202  1
  Al0+  Al63  1  0.24924792  0.75243788  -0.00148748  1
  Al0+  Al64  1  0.25148660  0.74903133  0.34041330  1
  Al0+  Al65  1  0.24882651  0.75062797  0.67259253  1
  Al0+  Al66  1  0.74897882  0.24883125  0.00529344  1
  Al0+  Al67  1  0.75091041  0.25101488  0.32637567  1
  Al0+  Al68  1  0.74926031  0.25064688  0.66807623  1
  Al0+  Al69  1  0.74826877  0.75112798  -0.00334677  1
  Al0+  Al70  1  0.74972855  0.74900778  0.33793702  1
  Al0+  Al71  1  0.74957669  0.74946167  0.66221628  1
  Al0+  Al72  1  0.92744799  0.32195756  0.65273207  1
  Al0+  Al73  1  0.32140198  0.07192084  0.67856729  1
  Al0+  Al74  1  0.57042122  0.67799712  0.65287087  1
  Al0+  Al75  1  0.68216294  0.43032981  0.67829333  1
  Al0+  Al76  1  0.67770975  0.42704223  0.01877837  1
  Al0+  Al77  1  0.92896550  0.81856676  0.32212411  1
  Al0+  Al78  1  0.17853787  0.92925332  0.34753479  1
  Al0+  Al79  1  0.82159680  0.57127651  0.01368724  1
  Al0+  Al80  1  0.82332683  0.57061152  0.34796455  1
  Al0+  Al81  1  0.42785581  0.81927730  0.32055714  1
  Al0+  Al82  1  0.57204890  0.17722845  0.31707118  1
  Al0+  Al83  1  0.32108843  0.56904806  0.34683764  1
  Al0+  Al84  1  0.07043538  0.17668473  0.31705828  1
  Al0+  Al85  1  0.32076015  0.57036561  0.68194653  1
  Al0+  Al86  1  0.56963624  0.17855536  0.65451412  1
  Al0+  Al87  1  0.81946104  0.07186092  0.34838869  1
  Al0+  Al88  1  0.67512490  0.92779498  0.34839162  1
  Al0+  Al89  1  0.07259586  0.17712214  0.65258119  1
  Al0+  Al90  1  0.42967198  0.32274326  0.31867393  1
  Al0+  Al91  1  0.07184461  0.67811113  0.98495994  1
  Al0+  Al92  1  0.92625058  0.82265162  0.98325221  1
  Al0+  Al93  1  0.92864940  0.32324441  0.31608771  1
  Al0+  Al94  1  0.18143581  0.93195458  0.01484318  1
  Al0+  Al95  1  0.81918964  0.06984740  0.68035509  1
  Si0+  Si96  1  0.31994966  0.57130697  0.01503406  1
  Si0+  Si97  1  0.42935238  0.32250052  0.98236361  1
  Si0+  Si98  1  0.07192980  0.17950951  0.98450597  1
  Si0+  Si99  1  0.17650591  0.92768904  0.68638827  1
  Si0+  Si100  1  0.82461647  0.57540424  0.68319342  1
  Si0+  Si101  1  0.56911968  0.67848427  0.98580933  1
  Si0+  Si102  1  0.17932073  0.42762152  0.01410390  1
  Si0+  Si103  1  0.07338513  0.68004118  0.65005703  1
  Si0+  Si104  1  0.67924659  0.42894559  0.35059652  1
  Si0+  Si105  1  0.32126581  0.07287876  0.34706766  1
  Si0+  Si106  1  0.57262119  0.67780614  0.31528510  1
  Si0+  Si107  1  0.42755290  0.32307616  0.65284562  1
  Si0+  Si108  1  0.92892266  0.32027630  0.98510953  1
  Si0+  Si109  1  0.32435665  0.07439302  0.01824007  1
  Si0+  Si110  1  0.82131301  0.06939155  0.01423033  1
  Si0+  Si111  1  0.17677919  0.42924542  0.68333115  1
  Si0+  Si112  1  0.67711788  0.92902902  0.01248834  1
  Si0+  Si113  1  0.57111684  0.17983447  0.98279881  1
  Si0+  Si114  1  0.92887919  0.82020262  0.65001549  1
  Si0+  Si115  1  0.67706885  0.92621081  0.68354438  1
  Si0+  Si116  1  0.42817225  0.82173769  0.98391015  1
  Si0+  Si117  1  0.42676549  0.82112972  0.65124256  1
  Si0+  Si118  1  0.17859307  0.42438174  0.35067076  1
  Si0+  Si119  1  0.07322752  0.67845106  0.32042542  1
  O2-  O120  1  0.25518201  0.00696922  0.06255732  1
  O2-  O121  1  0.25118452  0.00665600  0.39268584  1
  O2-  O122  1  0.24425020  -0.00015976  0.72695717  1
  O2-  O123  1  0.24675391  0.50236901  0.05631616  1
  O2-  O124  1  0.25070360  0.49040201  0.39384900  1
  O2-  O125  1  0.24564817  0.49687302  0.73018780  1
  O2-  O126  1  0.75252877  -0.00479995  0.05405606  1
  O2-  O127  1  0.74262888  0.00410899  0.39790601  1
  O2-  O128  1  0.74392321  -0.00399360  0.72943628  1
  O2-  O129  1  0.75178201  0.49827502  0.06576720  1
  O2-  O130  1  0.75086611  0.49410985  0.39505309  1
  O2-  O131  1  0.75889076  0.50321698  0.72585960  1
  O2-  O132  1  -0.00091371  0.24924323  0.26587946  1
  O2-  O133  1  -0.00051439  0.24879088  0.60479443  1
  O2-  O134  1  0.00026906  0.24964867  0.94222750  1
  O2-  O135  1  0.00132063  0.74213899  0.27471420  1
  O2-  O136  1  -0.00033274  0.74818573  0.60886137  1
  O2-  O137  1  -0.00318545  0.74757273  0.93461272  1
  O2-  O138  1  0.50043241  0.25038554  0.26676162  1
  O2-  O139  1  0.49146397  0.25009555  0.60926461  1
  O2-  O140  1  0.50110639  0.25216827  0.94065269  1
  O2-  O141  1  0.50433486  0.74739772  0.27104039  1
  O2-  O142  1  0.49534010  0.75256739  0.60736961  1
  O2-  O143  1  0.49879364  0.75024207  0.94208668  1
  O2-  O144  1  0.07155213  0.17952345  0.08914268  1
  O2-  O145  1  0.07123096  0.17820311  0.43026618  1
  O2-  O146  1  0.07109660  0.17977472  0.76745350  1
  O2-  O147  1  0.07603337  0.68048470  0.09813800  1
  O2-  O148  1  0.07350393  0.68152335  0.42640625  1
  O2-  O149  1  0.07481900  0.68049515  0.75505558  1
  O2-  O150  1  0.56916824  0.17672799  0.08717806  1
  O2-  O151  1  0.57063159  0.17823111  0.43082092  1
  O2-  O152  1  0.56937349  0.18155408  0.76839344  1
  O2-  O153  1  0.56808252  0.67977354  0.09058546  1
  O2-  O154  1  0.57023549  0.67651681  0.42089386  1
  O2-  O155  1  0.56850175  0.67903875  0.76700976  1
  O2-  O156  1  0.17797825  0.42777970  0.24432408  1
  O2-  O157  1  0.17739074  0.43135782  0.57832858  1
  O2-  O158  1  0.18275575  0.42465156  0.90916721  1
  O2-  O159  1  0.17964964  0.92737268  0.23416670  1
  O2-  O160  1  0.17705075  0.92363183  0.58114159  1
  O2-  O161  1  0.18410033  0.93412656  0.90152567  1
  O2-  O162  1  0.67795650  0.43341491  0.24487279  1
  O2-  O163  1  0.68044292  0.43169030  0.56577300  1
  O2-  O164  1  0.67689913  0.42711114  0.90480851  1
  O2-  O165  1  0.67816344  0.92783136  0.23364147  1
  O2-  O166  1  0.67754492  0.92520633  0.57873227  1
  O2-  O167  1  0.67353546  0.93119170  0.90736546  1
  O2-  O168  1  0.42616446  0.32266622  0.08677133  1
  O2-  O169  1  0.43224855  0.32338906  0.43237763  1
  O2-  O170  1  0.42954138  0.32321322  0.75925706  1
  O2-  O171  1  0.42744813  0.82035884  0.08870824  1
  O2-  O172  1  0.42638112  0.81610579  0.43352348  1
  O2-  O173  1  0.42833350  0.81979306  0.75774314  1
  O2-  O174  1  0.93123553  0.32033480  0.08969396  1
  O2-  O175  1  0.93085269  0.32372233  0.42938379  1
  O2-  O176  1  0.92848932  0.32010803  0.76761324  1
  O2-  O177  1  0.92659941  0.82418964  0.09647546  1
  O2-  O178  1  0.93144969  0.81855828  0.43556419  1
  O2-  O179  1  0.92862616  0.81993848  0.75525001  1
  O2-  O180  1  0.32025941  0.07064925  0.24102548  1
  O2-  O181  1  0.32377930  0.06825000  0.56606367  1
  O2-  O182  1  0.32485803  0.07378160  0.91227244  1
  O2-  O183  1  0.31704342  0.57060553  0.23302659  1
  O2-  O184  1  0.32066543  0.56996212  0.56933948  1
  O2-  O185  1  0.32183564  0.56927653  0.90989010  1
  O2-  O186  1  0.82041749  0.06700309  0.23389307  1
  O2-  O187  1  0.81966128  0.06945139  0.56833057  1
  O2-  O188  1  0.81942950  0.07191962  0.90891134  1
  O2-  O189  1  0.82161019  0.57262675  0.23476509  1
  O2-  O190  1  0.82297643  0.57765302  0.57784436  1
  O2-  O191  1  0.81825954  0.56936612  0.89979974  1
  O2-  O192  1  0.03836842  0.07933359  0.26391590  1
  O2-  O193  1  0.04712236  0.07643070  0.60451145  1
  O2-  O194  1  0.04522466  0.08812736  0.93621600  1
  O2-  O195  1  0.05451500  0.58257344  0.27721919  1
  O2-  O196  1  0.05120802  0.58736469  0.60219402  1
  O2-  O197  1  0.04900499  0.57812243  0.93048966  1
  O2-  O198  1  0.54169811  0.08020373  0.26135966  1
  O2-  O199  1  0.54209077  0.08003084  0.60353919  1
  O2-  O200  1  0.54262797  0.08865972  0.93318625  1
  O2-  O201  1  0.54557945  0.58562999  0.26765424  1
  O2-  O202  1  0.53749987  0.58242328  0.59931967  1
  O2-  O203  1  0.53881666  0.58630787  0.93980883  1
  O2-  O204  1  0.16816442  0.20299253  0.26043750  1
  O2-  O205  1  0.17128472  0.20523797  0.60046933  1
  O2-  O206  1  0.16519845  0.20793093  0.93913750  1
  O2-  O207  1  0.16589364  0.70700602  0.27483661  1
  O2-  O208  1  0.16492296  0.71103732  0.60372509  1
  O2-  O209  1  0.16912429  0.71166240  0.92961607  1
  O2-  O210  1  0.66901547  0.20532821  0.26152017  1
  O2-  O211  1  0.66463812  0.21219066  0.60146074  1
  O2-  O212  1  0.66453275  0.20675959  0.93737420  1
  O2-  O213  1  0.66585093  0.70455437  0.26988500  1
  O2-  O214  1  0.66684326  0.70701708  0.59827999  1
  O2-  O215  1  0.65958243  0.70596754  0.93577326  1
  O2-  O216  1  0.08640938  0.45088726  0.06054891  1
  O2-  O217  1  0.08763539  0.45272507  0.39964956  1
  O2-  O218  1  0.08362856  0.45768772  0.73035009  1
  O2-  O219  1  0.08353571  0.96195844  0.06643798  1
  O2-  O220  1  0.08284028  0.95863202  0.40264784  1
  O2-  O221  1  0.08316344  0.95122329  0.73384795  1
  O2-  O222  1  0.57932594  0.45685077  0.07102273  1
  O2-  O223  1  0.58669141  0.45731657  0.39672539  1
  O2-  O224  1  0.58729027  0.46322288  0.73616488  1
  O2-  O225  1  0.58648400  0.96102713  0.06080368  1
  O2-  O226  1  0.57296634  0.94916695  0.39625811  1
  O2-  O227  1  0.58243390  0.94726083  0.72998012  1
  O2-  O228  1  0.21141867  0.33765076  0.06328654  1
  O2-  O229  1  0.20192505  0.32909683  0.39304328  1
  O2-  O230  1  0.20058292  0.33569769  0.73101966  1
  O2-  O231  1  0.21369176  0.83510605  0.06729812  1
  O2-  O232  1  0.21272516  0.83519211  0.40431783  1
  O2-  O233  1  0.20592453  0.83635314  0.73584155  1
  O2-  O234  1  0.70374063  0.32778634  0.07044894  1
  O2-  O235  1  0.70139361  0.33316239  0.39199702  1
  O2-  O236  1  0.71088362  0.33484384  0.73644895  1
  O2-  O237  1  0.69773526  0.83520923  0.05823608  1
  O2-  O238  1  0.70500254  0.83082567  0.40238438  1
  O2-  O239  1  0.70678851  0.83297459  0.73009907  1
  O2-  O240  1  0.45895192  0.42060662  0.26334373  1
  O2-  O241  1  0.45774060  0.41564771  0.60863985  1
  O2-  O242  1  0.45657484  0.41541712  0.93585365  1
  O2-  O243  1  0.45259548  0.91434522  0.26053803  1
  O2-  O244  1  0.45160736  0.91428720  0.60536486  1
  O2-  O245  1  0.45645724  0.91448377  0.93758759  1
  O2-  O246  1  0.96322802  0.42088260  0.26326843  1
  O2-  O247  1  0.95457197  0.42149614  0.60142651  1
  O2-  O248  1  0.95589616  0.41165452  0.93681183  1
  O2-  O249  1  0.96059084  0.91373279  0.26744119  1
  O2-  O250  1  0.95862805  0.91164952  0.60411891  1
  O2-  O251  1  0.96067930  0.91961888  0.92871286  1
  O2-  O252  1  0.33153055  0.29744554  0.26281405  1
  O2-  O253  1  0.33193969  0.30470619  0.60959510  1
  O2-  O254  1  0.33786344  0.29496630  0.93273762  1
  O2-  O255  1  0.33273922  0.78212078  0.26603429  1
  O2-  O256  1  0.33194313  0.79593633  0.60849645  1
  O2-  O257  1  0.33759318  0.79415053  0.93449601  1
  O2-  O258  1  0.83060279  0.29940041  0.26118214  1
  O2-  O259  1  0.82993720  0.29315552  0.60059730  1
  O2-  O260  1  0.83584977  0.29026178  0.94088137  1
  O2-  O261  1  0.83139950  0.78932223  0.26908987  1
  O2-  O262  1  0.83719588  0.79381971  0.60259455  1
  O2-  O263  1  0.82678888  0.79780472  0.92890725  1
  O2-  O264  1  0.41850412  0.04783619  0.06230336  1
  O2-  O265  1  0.41438536  0.04411560  0.39114351  1
  O2-  O266  1  0.41583342  0.03788239  0.73777282  1
  O2-  O267  1  0.41019827  0.54168471  0.06382408  1
  O2-  O268  1  0.41939594  0.54112651  0.39908201  1
  O2-  O269  1  0.41575460  0.53890109  0.73897881  1
  O2-  O270  1  0.91465174  0.04509491  0.05914618  1
  O2-  O271  1  0.91542639  0.03815479  0.40206837  1
  O2-  O272  1  0.91515176  0.03711253  0.73637409  1
  O2-  O273  1  0.92201432  0.54562226  0.06413788  1
  O2-  O274  1  0.92112376  0.54371721  0.40193348  1
  O2-  O275  1  0.92073857  0.55527470  0.72642363  1
  O2-  O276  1  0.30094908  0.16960906  0.06146342  1
  O2-  O277  1  0.29988541  0.16830870  0.39048071  1
  O2-  O278  1  0.29452398  0.16944820  0.73512006  1
  O2-  O279  1  0.29446874  0.66469485  0.05980328  1
  O2-  O280  1  0.28788065  0.66226750  0.40511212  1
  O2-  O281  1  0.28958135  0.66681748  0.73741036  1
  O2-  O282  1  0.79115924  0.15932106  0.06332217  1
  O2-  O283  1  0.79537431  0.17326700  0.39650816  1
  O2-  O284  1  0.78785651  0.16551266  0.73664603  1
  O2-  O285  1  0.79045905  0.67077020  0.06377250  1
  O2-  O286  1  0.78975984  0.66500354  0.40390085  1
  O2-  O287  1  0.79468199  0.66780765  0.72983981  1
