# generated using pymatgen
data_Ca2Al2SiO7
_symmetry_space_group_name_H-M   'P 1'
_cell_length_a   15.46293812
_cell_length_b   15.46278870
_cell_length_c   15.28733188
_cell_angle_alpha   90.00145528
_cell_angle_beta   89.99807263
_cell_angle_gamma   90.01460940
_symmetry_Int_Tables_number   1
_chemical_formula_structural   Ca2Al2SiO7
_chemical_formula_sum   'Ca48 Al48 Si24 O168'
_cell_volume   3655.20314563
_cell_formula_units_Z   24
loop_
 _symmetry_equiv_pos_site_id
 _symmetry_equiv_pos_as_xyz
  1  'x, y, z'
loop_
 _atom_type_symbol
 _atom_type_oxidation_number
  Ca2+  2.0
  Al0+  0.0
  Si0+  0.0
  O2-  -2.0
loop_
 _atom_site_type_symbol
 _atom_site_label
 _atom_site_symmetry_multiplicity
 _atom_site_fract_x
 _atom_site_fract_y
 _atom_site_fract_z
 _atom_site_occupancy
  Ca2+  Ca0  1  0.15123516  0.07799961  0.16188198  1
  Ca2+  Ca1  1  0.17212587  0.07521712  0.51245841  1
  Ca2+  Ca2  1  0.16686588  0.07371986  0.83766735  1
  Ca2+  Ca3  1  0.17271252  0.58835551  0.16317665  1
  Ca2+  Ca4  1  0.17074687  0.57848924  0.50416298  1
  Ca2+  Ca5  1  0.16751697  0.57661428  0.84473716  1
  Ca2+  Ca6  1  0.66568375  0.08265717  0.16779170  1
  Ca2+  Ca7  1  0.67531259  0.07393979  0.51165879  1
  Ca2+  Ca8  1  0.66877422  0.08023598  0.83393758  1
  Ca2+  Ca9  1  0.67804519  0.57939883  0.17646014  1
  Ca2+  Ca10  1  0.67399160  0.58221096  0.50500482  1
  Ca2+  Ca11  1  0.67566708  0.58778726  0.83459617  1
  Ca2+  Ca12  1  0.07389878  0.33385578  0.15564805  1
  Ca2+  Ca13  1  0.07712099  0.33378906  0.49613904  1
  Ca2+  Ca14  1  0.08127762  0.34056986  0.83097194  1
  Ca2+  Ca15  1  0.07285451  0.82755467  0.15647441  1
  Ca2+  Ca16  1  0.07832018  0.83404644  0.49581193  1
  Ca2+  Ca17  1  0.08468719  0.83185286  0.83334121  1
  Ca2+  Ca18  1  0.58632374  0.33161284  0.16157729  1
  Ca2+  Ca19  1  0.59016771  0.33754553  0.49674346  1
  Ca2+  Ca20  1  0.58568192  0.33032364  0.82906255  1
  Ca2+  Ca21  1  0.58209129  0.82261972  0.16418150  1
  Ca2+  Ca22  1  0.58782690  0.82125271  0.50160996  1
  Ca2+  Ca23  1  0.57651884  0.82854904  0.82002351  1
  Ca2+  Ca24  1  0.32705357  0.42589879  0.16725626  1
  Ca2+  Ca25  1  0.32863835  0.42262041  0.50456319  1
  Ca2+  Ca26  1  0.32184786  0.42252858  0.83985086  1
  Ca2+  Ca27  1  0.32406343  0.91580927  0.16630206  1
  Ca2+  Ca28  1  0.32959902  0.92059934  0.51195822  1
  Ca2+  Ca29  1  0.32466362  0.91236006  0.83505864  1
  Ca2+  Ca30  1  0.83793675  0.42554235  0.17193215  1
  Ca2+  Ca31  1  0.82596054  0.42484533  0.50464530  1
  Ca2+  Ca32  1  0.83255430  0.42818268  0.83741287  1
  Ca2+  Ca33  1  0.84020377  0.91428454  0.16878197  1
  Ca2+  Ca34  1  0.83163880  0.92074128  0.50950774  1
  Ca2+  Ca35  1  0.83066985  0.91713833  0.83533117  1
  Ca2+  Ca36  1  0.42585514  0.17007902  0.15823157  1
  Ca2+  Ca37  1  0.41539800  0.16667296  0.49982893  1
  Ca2+  Ca38  1  0.41938167  0.16288907  0.82880695  1
  Ca2+  Ca39  1  0.42079157  0.65398154  0.16521454  1
  Ca2+  Ca40  1  0.42784145  0.66505571  0.49628621  1
  Ca2+  Ca41  1  0.42117977  0.66838589  0.82266997  1
  Ca2+  Ca42  1  0.91812916  0.18371292  0.15713122  1
  Ca2+  Ca43  1  0.91392587  0.17200059  0.49530617  1
  Ca2+  Ca44  1  0.92077028  0.17129562  0.83286698  1
  Ca2+  Ca45  1  0.91466957  0.67234601  0.15786215  1
  Ca2+  Ca46  1  0.91202646  0.66905334  0.49480004  1
  Ca2+  Ca47  1  0.91790978  0.66395596  0.83403143  1
  Al0+  Al48  1  -0.00282338  0.00227495  -0.00254853  1
  Al0+  Al49  1  -0.00029051  -0.00133278  0.33178311  1
  Al0+  Al50  1  0.00186320  0.00130662  0.67223728  1
  Al0+  Al51  1  -0.00101729  0.50238372  0.00151622  1
  Al0+  Al52  1  0.00182412  0.50055626  0.33322165  1
  Al0+  Al53  1  -0.00113255  0.50022612  0.66960031  1
  Al0+  Al54  1  0.50045528  -0.00108856  -0.00226037  1
  Al0+  Al55  1  0.49880248  -0.00102284  0.33311727  1
  Al0+  Al56  1  0.50035376  0.00097861  0.66688682  1
  Al0+  Al57  1  0.50095980  0.49791491  0.00067115  1
  Al0+  Al58  1  0.49875060  0.49839081  0.33508388  1
  Al0+  Al59  1  0.50046976  0.49772054  0.66450766  1
  Al0+  Al60  1  0.25139302  0.24950850  0.00190881  1
  Al0+  Al61  1  0.25160842  0.24778061  0.33083917  1
  Al0+  Al62  1  0.24994825  0.24919093  0.67177619  1
  Al0+  Al63  1  0.24942871  0.75227376  0.00691696  1
  Al0+  Al64  1  0.25052651  0.75164752  0.33880633  1
  Al0+  Al65  1  0.24946690  0.75005623  0.66307983  1
  Al0+  Al66  1  0.74978709  0.24832195  -0.00931249  1
  Al0+  Al67  1  0.75119435  0.24862957  0.33143788  1
  Al0+  Al68  1  0.75058543  0.25140467  0.67173131  1
  Al0+  Al69  1  0.74756399  0.75071928  0.00064729  1
  Al0+  Al70  1  0.74811880  0.75028213  0.32782736  1
  Al0+  Al71  1  0.75106027  0.75076831  0.66962782  1
  Al0+  Al72  1  0.92964135  0.32412888  0.98194233  1
  Al0+  Al73  1  0.82290095  0.57350842  0.34780032  1
  Al0+  Al74  1  0.32053524  0.57078888  0.34938860  1
  Al0+  Al75  1  0.57257369  0.67735301  0.65108464  1
  Al0+  Al76  1  0.92947933  0.32104868  0.32129340  1
  Al0+  Al77  1  0.32286052  0.57240220  0.01358705  1
  Al0+  Al78  1  0.17901597  0.43005504  0.67827957  1
  Al0+  Al79  1  0.56870947  0.67783050  0.31811606  1
  Al0+  Al80  1  0.42714632  0.82192091  0.65080934  1
  Al0+  Al81  1  0.82071061  0.57237948  0.68251830  1
  Al0+  Al82  1  0.17717339  0.93134046  0.01603528  1
  Al0+  Al83  1  0.68040446  0.42687201  0.34628956  1
  Al0+  Al84  1  0.07254528  0.17977115  0.98332431  1
  Al0+  Al85  1  0.82299449  0.07289529  0.68289214  1
  Al0+  Al86  1  0.92612566  0.82132131  0.98244871  1
  Al0+  Al87  1  0.68007216  0.92879216  0.68126556  1
  Al0+  Al88  1  0.07194838  0.68141589  0.98548931  1
  Al0+  Al89  1  0.32174880  0.07159051  0.68175478  1
  Al0+  Al90  1  0.56984711  0.17788111  0.98441303  1
  Al0+  Al91  1  0.17745104  0.42790306  0.01632545  1
  Al0+  Al92  1  0.92901465  0.81998911  0.32144035  1
  Al0+  Al93  1  0.17909649  0.92625292  0.68198817  1
  Al0+  Al94  1  0.81884839  0.57220046  0.01558858  1
  Al0+  Al95  1  0.67668892  0.42917643  0.68300940  1
  Si0+  Si96  1  0.57040248  0.17762871  0.32037993  1
  Si0+  Si97  1  0.67635531  0.92923398  0.34697037  1
  Si0+  Si98  1  0.67709657  0.92985136  0.01707956  1
  Si0+  Si99  1  0.67951389  0.42577736  0.01576949  1
  Si0+  Si100  1  0.07505479  0.67859635  0.31829116  1
  Si0+  Si101  1  0.93120222  0.82239757  0.65273608  1
  Si0+  Si102  1  0.57270346  0.17991462  0.64960678  1
  Si0+  Si103  1  0.07311310  0.17770104  0.31829398  1
  Si0+  Si104  1  0.56929576  0.67744338  0.98591659  1
  Si0+  Si105  1  0.42951790  0.82069930  0.98720279  1
  Si0+  Si106  1  0.42742975  0.31912708  0.65074993  1
  Si0+  Si107  1  0.32165960  0.57125013  0.68041374  1
  Si0+  Si108  1  0.92905322  0.32192667  0.65019869  1
  Si0+  Si109  1  0.42899377  0.32283552  0.98227365  1
  Si0+  Si110  1  0.07127483  0.17937801  0.65151135  1
  Si0+  Si111  1  0.42744804  0.32014929  0.31772746  1
  Si0+  Si112  1  0.42716090  0.82320794  0.31528610  1
  Si0+  Si113  1  0.81888363  0.07144993  0.01654830  1
  Si0+  Si114  1  0.82052317  0.06923996  0.34572076  1
  Si0+  Si115  1  0.17818882  0.93174222  0.34859066  1
  Si0+  Si116  1  0.17901778  0.42458147  0.34983295  1
  Si0+  Si117  1  0.07056711  0.67661721  0.65088218  1
  Si0+  Si118  1  0.32438891  0.07060169  0.01820899  1
  Si0+  Si119  1  0.32334572  0.07078090  0.34766103  1
  O2-  O120  1  0.25010479  0.00874647  0.06405829  1
  O2-  O121  1  0.25020464  0.00228603  0.38932530  1
  O2-  O122  1  0.25436776  -0.00449262  0.73063516  1
  O2-  O123  1  0.24936726  0.50156825  0.06412835  1
  O2-  O124  1  0.24511212  0.49569184  0.39441793  1
  O2-  O125  1  0.25135973  0.50589812  0.72546508  1
  O2-  O126  1  0.74964772  -0.00102302  0.06035983  1
  O2-  O127  1  0.75054617  -0.00240478  0.38815732  1
  O2-  O128  1  0.75135343  0.00047748  0.73279297  1
  O2-  O129  1  0.74744813  0.49357642  0.06119899  1
  O2-  O130  1  0.75095507  0.50025338  0.39622171  1
  O2-  O131  1  0.74579037  0.50322981  0.73238522  1
  O2-  O132  1  0.00805667  0.24973267  0.27546283  1
  O2-  O133  1  -0.00073514  0.24897875  0.60810531  1
  O2-  O134  1  0.00678947  0.25669229  0.93210362  1
  O2-  O135  1  0.00044391  0.74191264  0.27603117  1
  O2-  O136  1  0.00104455  0.75027007  0.60968282  1
  O2-  O137  1  -0.00040297  0.75134265  0.93231033  1
  O2-  O138  1  0.50193527  0.25091858  0.27781185  1
  O2-  O139  1  0.50104008  0.25049913  0.60709024  1
  O2-  O140  1  0.49521124  0.25208209  0.93758178  1
  O2-  O141  1  0.49191967  0.75133554  0.27039410  1
  O2-  O142  1  0.49957441  0.74969117  0.60145787  1
  O2-  O143  1  0.49371523  0.74386980  0.94549738  1
  O2-  O144  1  0.06466439  0.17894512  0.09777149  1
  O2-  O145  1  0.07340977  0.17586944  0.42417585  1
  O2-  O146  1  0.07188283  0.18013321  0.75572086  1
  O2-  O147  1  0.07233051  0.68454729  0.09952620  1
  O2-  O148  1  0.07767459  0.68203796  0.42433052  1
  O2-  O149  1  0.07167798  0.67486880  0.75524292  1
  O2-  O150  1  0.56884539  0.17763261  0.09867570  1
  O2-  O151  1  0.56865892  0.17489930  0.42512003  1
  O2-  O152  1  0.57158377  0.18028622  0.75444674  1
  O2-  O153  1  0.56972890  0.67907398  0.09126605  1
  O2-  O154  1  0.57004574  0.68073735  0.43062836  1
  O2-  O155  1  0.56943484  0.67859573  0.76520855  1
  O2-  O156  1  0.18152122  0.42006864  0.24506194  1
  O2-  O157  1  0.18025176  0.43024243  0.56449824  1
  O2-  O158  1  0.18143065  0.42962404  0.90260046  1
  O2-  O159  1  0.17699509  0.93332108  0.24375832  1
  O2-  O160  1  0.17611697  0.93092505  0.56742470  1
  O2-  O161  1  0.18129478  0.92973976  0.90375871  1
  O2-  O162  1  0.68135184  0.42482030  0.23270663  1
  O2-  O163  1  0.68094252  0.42681368  0.56931826  1
  O2-  O164  1  0.67770953  0.42828761  0.91055017  1
  O2-  O165  1  0.67242785  0.93313732  0.24173647  1
  O2-  O166  1  0.68388199  0.92994634  0.56665819  1
  O2-  O167  1  0.67483316  0.93104009  0.91267410  1
  O2-  O168  1  0.43251068  0.32257303  0.08841613  1
  O2-  O169  1  0.42214565  0.31649520  0.42265642  1
  O2-  O170  1  0.42652775  0.31784736  0.75550083  1
  O2-  O171  1  0.43403924  0.82533408  0.09249569  1
  O2-  O172  1  0.42946600  0.82738707  0.42013028  1
  O2-  O173  1  0.42646644  0.81813176  0.76500771  1
  O2-  O174  1  0.92661954  0.32055804  0.09611418  1
  O2-  O175  1  0.92951783  0.31628278  0.43477100  1
  O2-  O176  1  0.93138724  0.32295186  0.75465442  1
  O2-  O177  1  0.92739379  0.81976987  0.09663803  1
  O2-  O178  1  0.93266947  0.82612434  0.43471755  1
  O2-  O179  1  0.93200763  0.82324003  0.75709381  1
  O2-  O180  1  0.32843987  0.06979957  0.24308936  1
  O2-  O181  1  0.31709093  0.07430604  0.56707840  1
  O2-  O182  1  0.32898924  0.06503950  0.91343109  1
  O2-  O183  1  0.31964740  0.56821992  0.23665768  1
  O2-  O184  1  0.32028398  0.56799839  0.57447514  1
  O2-  O185  1  0.32550430  0.57080428  0.90002049  1
  O2-  O186  1  0.81899563  0.06974725  0.24069985  1
  O2-  O187  1  0.82166697  0.07168143  0.56780865  1
  O2-  O188  1  0.81666713  0.07131310  0.91205461  1
  O2-  O189  1  0.82083442  0.57372651  0.23436381  1
  O2-  O190  1  0.82343427  0.57090426  0.56873380  1
  O2-  O191  1  0.81495099  0.57438795  0.90298839  1
  O2-  O192  1  0.04286627  0.08565519  0.27181967  1
  O2-  O193  1  0.04397858  0.08703838  0.60335201  1
  O2-  O194  1  0.03808413  0.08383325  0.93016323  1
  O2-  O195  1  0.05864901  0.58225301  0.27533435  1
  O2-  O196  1  0.04027778  0.58605391  0.60138123  1
  O2-  O197  1  0.04547370  0.58240725  0.93445764  1
  O2-  O198  1  0.53913673  0.08730765  0.27067900  1
  O2-  O199  1  0.54601866  0.08816603  0.60109530  1
  O2-  O200  1  0.53791693  0.08155954  0.93066964  1
  O2-  O201  1  0.53793718  0.58043419  0.26522942  1
  O2-  O202  1  0.54401379  0.57848573  0.59805495  1
  O2-  O203  1  0.54695004  0.58407052  0.93963179  1
  O2-  O204  1  0.16827969  0.19675677  0.27208854  1
  O2-  O205  1  0.16307297  0.20861684  0.60359935  1
  O2-  O206  1  0.17620472  0.19596831  0.93722505  1
  O2-  O207  1  0.16649428  0.71139843  0.27178799  1
  O2-  O208  1  0.16237821  0.70254144  0.60170409  1
  O2-  O209  1  0.17174820  0.71062459  0.93499518  1
  O2-  O210  1  0.66253365  0.20183432  0.27177773  1
  O2-  O211  1  0.66514033  0.20825493  0.60279494  1
  O2-  O212  1  0.66499251  0.20599289  0.92812738  1
  O2-  O213  1  0.66292646  0.71227704  0.26143457  1
  O2-  O214  1  0.67120274  0.70945342  0.59911976  1
  O2-  O215  1  0.65822207  0.71169249  0.93837791  1
  O2-  O216  1  0.07937165  0.45595305  0.06868781  1
  O2-  O217  1  0.08511744  0.44894025  0.39561279  1
  O2-  O218  1  0.08325333  0.45934524  0.73207126  1
  O2-  O219  1  0.07946233  0.96328368  0.06875396  1
  O2-  O220  1  0.08711534  0.96104347  0.39732498  1
  O2-  O221  1  0.08349302  0.95823255  0.73611640  1
  O2-  O222  1  0.58528878  0.44986866  0.06167388  1
  O2-  O223  1  0.57973039  0.44931072  0.39669080  1
  O2-  O224  1  0.57569160  0.45039783  0.73366329  1
  O2-  O225  1  0.58674040  0.96116307  0.06629900  1
  O2-  O226  1  0.58636320  0.96058958  0.39598816  1
  O2-  O227  1  0.58158610  0.95721461  0.73248947  1
  O2-  O228  1  0.20680080  0.32898278  0.06950597  1
  O2-  O229  1  0.20745788  0.33092653  0.39613554  1
  O2-  O230  1  0.21054505  0.33513608  0.73288696  1
  O2-  O231  1  0.21071506  0.83769031  0.07400393  1
  O2-  O232  1  0.20455170  0.84045679  0.39699295  1
  O2-  O233  1  0.20431515  0.82643972  0.73289775  1
  O2-  O234  1  0.70307792  0.32989601  0.05822899  1
  O2-  O235  1  0.70850063  0.32746127  0.39940036  1
  O2-  O236  1  0.70557750  0.33160807  0.73593594  1
  O2-  O237  1  0.70332736  0.83798725  0.06519052  1
  O2-  O238  1  0.70206005  0.83665763  0.39159302  1
  O2-  O239  1  0.70690978  0.83181329  0.73566840  1
  O2-  O240  1  0.45301026  0.41165307  0.27010071  1
  O2-  O241  1  0.45249010  0.41103085  0.60180102  1
  O2-  O242  1  0.45700094  0.41488634  0.93423371  1
  O2-  O243  1  0.45632947  0.91565886  0.26705457  1
  O2-  O244  1  0.45381032  0.92223416  0.59945072  1
  O2-  O245  1  0.46314669  0.90904196  0.93724284  1
  O2-  O246  1  0.95756220  0.41869967  0.26825511  1
  O2-  O247  1  0.95981415  0.41274149  0.60199200  1
  O2-  O248  1  0.95337373  0.42398347  0.93159374  1
  O2-  O249  1  0.96274739  0.91574492  0.26540536  1
  O2-  O250  1  0.96012872  0.91471080  0.60514578  1
  O2-  O251  1  0.95088999  0.92137906  0.93329625  1
  O2-  O252  1  0.33833417  0.28818176  0.26653480  1
  O2-  O253  1  0.33673786  0.28757944  0.60184241  1
  O2-  O254  1  0.33432553  0.29966247  0.93860343  1
  O2-  O255  1  0.33115203  0.80122629  0.27251885  1
  O2-  O256  1  0.32840724  0.79555382  0.59578930  1
  O2-  O257  1  0.33515508  0.79967064  0.94389507  1
  O2-  O258  1  0.83540993  0.28495405  0.26510550  1
  O2-  O259  1  0.83671411  0.29285764  0.60434565  1
  O2-  O260  1  0.83369947  0.28953480  0.92810509  1
  O2-  O261  1  0.83119341  0.79767648  0.26631455  1
  O2-  O262  1  0.83877341  0.79628237  0.60564187  1
  O2-  O263  1  0.82637766  0.79341464  0.93220262  1
  O2-  O264  1  0.41566436  0.03752339  0.06666481  1
  O2-  O265  1  0.41390904  0.04184086  0.39764045  1
  O2-  O266  1  0.42251264  0.05121511  0.73121890  1
  O2-  O267  1  0.42032144  0.53879947  0.06787362  1
  O2-  O268  1  0.41560919  0.53696606  0.40356473  1
  O2-  O269  1  0.41437962  0.54351499  0.72546355  1
  O2-  O270  1  0.91042813  0.04578808  0.06488268  1
  O2-  O271  1  0.91263944  0.04248528  0.39357561  1
  O2-  O272  1  0.92081484  0.04663329  0.73533919  1
  O2-  O273  1  0.91668047  0.54637415  0.06826752  1
  O2-  O274  1  0.92341970  0.54890267  0.39889925  1
  O2-  O275  1  0.91727085  0.53980439  0.73574990  1
  O2-  O276  1  0.30803290  0.16709646  0.06175475  1
  O2-  O277  1  0.29770804  0.16352919  0.39447625  1
  O2-  O278  1  0.29106004  0.16739917  0.73720340  1
  O2-  O279  1  0.29780326  0.67041497  0.06961435  1
  O2-  O280  1  0.29263576  0.66857527  0.40304677  1
  O2-  O281  1  0.29946690  0.66614724  0.72316306  1
  O2-  O282  1  0.78668708  0.16288039  0.06305380  1
  O2-  O283  1  0.79161087  0.15969738  0.39451230  1
  O2-  O284  1  0.79369901  0.16973605  0.73589077  1
  O2-  O285  1  0.78323362  0.66795758  0.06948900  1
  O2-  O286  1  0.79191629  0.67283523  0.39836939  1
  O2-  O287  1  0.79678412  0.67108142  0.73517506  1
