# generated using pymatgen
data_Ca2Al2SiO7
_symmetry_space_group_name_H-M   'P 1'
_cell_length_a   15.46330157
_cell_length_b   15.46250050
_cell_length_c   15.28747583
_cell_angle_alpha   90.01277841
_cell_angle_beta   89.99637309
_cell_angle_gamma   89.98431020
_symmetry_Int_Tables_number   1
_chemical_formula_structural   Ca2Al2SiO7
_chemical_formula_sum   'Ca48 Al48 Si24 O168'
_cell_volume   3655.25523453
_cell_formula_units_Z   24
loop_
 _symmetry_equiv_pos_site_id
 _symmetry_equiv_pos_as_xyz
  1  'x, y, z'
loop_
 _atom_type_symbol
 _atom_type_oxidation_number
  Ca2+  2.0
  Al0+  0.0
  Si0+  0.0
  O2-  -2.0
loop_
 _atom_site_type_symbol
 _atom_site_label
 _atom_site_symmetry_multiplicity
 _atom_site_fract_x
 _atom_site_fract_y
 _atom_site_fract_z
 _atom_site_occupancy
  Ca2+  Ca0  1  0.16049701  0.07819563  0.17317797  1
  Ca2+  Ca1  1  0.16530630  0.08634175  0.50281043  1
  Ca2+  Ca2  1  0.17003311  0.07375892  0.84143897  1
  Ca2+  Ca3  1  0.17906025  0.57783197  0.16638975  1
  Ca2+  Ca4  1  0.17147786  0.58643388  0.50193949  1
  Ca2+  Ca5  1  0.17278621  0.58163039  0.84114726  1
  Ca2+  Ca6  1  0.66059621  0.08004461  0.17280521  1
  Ca2+  Ca7  1  0.65164456  0.07475717  0.50378391  1
  Ca2+  Ca8  1  0.65685157  0.08232161  0.83286658  1
  Ca2+  Ca9  1  0.67153367  0.57325797  0.18057417  1
  Ca2+  Ca10  1  0.67686014  0.57287742  0.50658081  1
  Ca2+  Ca11  1  0.66572109  0.57957667  0.82767482  1
  Ca2+  Ca12  1  0.07285699  0.34093705  0.16436828  1
  Ca2+  Ca13  1  0.07043811  0.33120176  0.49264778  1
  Ca2+  Ca14  1  0.07268768  0.34774541  0.83056615  1
  Ca2+  Ca15  1  0.07830895  0.83405252  0.16430230  1
  Ca2+  Ca16  1  0.07417949  0.82455694  0.49576944  1
  Ca2+  Ca17  1  0.08646155  0.82587999  0.82711997  1
  Ca2+  Ca18  1  0.58830207  0.32553058  0.16536770  1
  Ca2+  Ca19  1  0.58329481  0.33242221  0.49230634  1
  Ca2+  Ca20  1  0.58076601  0.32434299  0.82216264  1
  Ca2+  Ca21  1  0.57899203  0.83125155  0.16169434  1
  Ca2+  Ca22  1  0.58987583  0.82990787  0.49983327  1
  Ca2+  Ca23  1  0.57289428  0.82762169  0.82291304  1
  Ca2+  Ca24  1  0.33635957  0.42428548  0.17556200  1
  Ca2+  Ca25  1  0.33918906  0.41694986  0.50325354  1
  Ca2+  Ca26  1  0.32834744  0.42058867  0.84194305  1
  Ca2+  Ca27  1  0.32968619  0.91502803  0.16672247  1
  Ca2+  Ca28  1  0.33571056  0.91914530  0.50634043  1
  Ca2+  Ca29  1  0.33358794  0.91193811  0.84060857  1
  Ca2+  Ca30  1  0.83175284  0.41839813  0.17538210  1
  Ca2+  Ca31  1  0.82726518  0.41477952  0.50639419  1
  Ca2+  Ca32  1  0.83224357  0.41500597  0.83141021  1
  Ca2+  Ca33  1  0.82660406  0.91896397  0.18038016  1
  Ca2+  Ca34  1  0.82425626  0.91758567  0.50337167  1
  Ca2+  Ca35  1  0.82413472  0.91899903  0.83378075  1
  Ca2+  Ca36  1  0.42777507  0.17193228  0.16694073  1
  Ca2+  Ca37  1  0.42628198  0.18107816  0.49819373  1
  Ca2+  Ca38  1  0.42560362  0.17125422  0.82594772  1
  Ca2+  Ca39  1  0.41204331  0.66740036  0.16212483  1
  Ca2+  Ca40  1  0.42331174  0.66798845  0.49965389  1
  Ca2+  Ca41  1  0.41579610  0.67497670  0.82715066  1
  Ca2+  Ca42  1  0.91826358  0.17897384  0.16606212  1
  Ca2+  Ca43  1  0.91834705  0.17744410  0.49382541  1
  Ca2+  Ca44  1  0.91975295  0.17913176  0.82955850  1
  Ca2+  Ca45  1  0.90788797  0.67290865  0.16737331  1
  Ca2+  Ca46  1  0.91431890  0.66310614  0.49591701  1
  Ca2+  Ca47  1  0.92517140  0.66171519  0.82254932  1
  Al0+  Al48  1  -0.00237672  0.00212389  0.00328826  1
  Al0+  Al49  1  -0.00216607  -0.00361139  0.32957621  1
  Al0+  Al50  1  0.00016159  -0.00122641  0.66992544  1
  Al0+  Al51  1  -0.00030863  0.50270647  0.00123761  1
  Al0+  Al52  1  0.00526771  0.50213311  0.33060471  1
  Al0+  Al53  1  0.00152165  0.50028644  0.65952174  1
  Al0+  Al54  1  0.49884735  -0.00169297  -0.00593357  1
  Al0+  Al55  1  0.49647678  -0.00041659  0.33366941  1
  Al0+  Al56  1  0.49704746  0.00151834  0.66625865  1
  Al0+  Al57  1  0.50302228  0.49950492  0.00380990  1
  Al0+  Al58  1  0.50062392  0.50228953  0.33833572  1
  Al0+  Al59  1  0.50020565  0.50323498  0.66668591  1
  Al0+  Al60  1  0.24867026  0.24807564  0.00513037  1
  Al0+  Al61  1  0.25144893  0.24842507  0.32648359  1
  Al0+  Al62  1  0.25094363  0.24903226  0.66758290  1
  Al0+  Al63  1  0.24827765  0.75088995  0.00545178  1
  Al0+  Al64  1  0.24907677  0.75016418  0.33736792  1
  Al0+  Al65  1  0.24817149  0.74998651  0.65829450  1
  Al0+  Al66  1  0.75179210  0.24916566  -0.00878496  1
  Al0+  Al67  1  0.75185572  0.24724852  0.32854854  1
  Al0+  Al68  1  0.75130307  0.24749513  0.66390570  1
  Al0+  Al69  1  0.74881536  0.75122945  -0.00219761  1
  Al0+  Al70  1  0.74913686  0.75002146  0.33568543  1
  Al0+  Al71  1  0.75008575  0.75170599  0.67451682  1
  Al0+  Al72  1  0.17699617  0.42797829  0.01515266  1
  Al0+  Al73  1  0.93061962  0.32014811  0.65238798  1
  Al0+  Al74  1  0.67626105  0.93052793  0.34599301  1
  Al0+  Al75  1  0.92782549  0.81670041  0.32085838  1
  Al0+  Al76  1  0.57396982  0.67951748  0.65079460  1
  Al0+  Al77  1  0.82322595  0.56973673  0.68239743  1
  Al0+  Al78  1  0.42857923  0.81669304  0.98833927  1
  Al0+  Al79  1  0.32131758  0.57181433  0.35040781  1
  Al0+  Al80  1  0.07145814  0.17738548  0.31876343  1
  Al0+  Al81  1  0.57087203  0.17723801  0.31817133  1
  Al0+  Al82  1  0.67739325  0.93080312  0.68251540  1
  Al0+  Al83  1  0.43091010  0.32463083  0.31746134  1
  Al0+  Al84  1  0.82389708  0.57149787  0.34659460  1
  Al0+  Al85  1  0.42841152  0.82072860  0.65031256  1
  Al0+  Al86  1  0.17784226  0.93017110  0.01463733  1
  Al0+  Al87  1  0.92978649  0.32310566  0.31733567  1
  Al0+  Al88  1  0.93244383  0.32254943  0.98414295  1
  Al0+  Al89  1  0.06988666  0.67842538  0.65259820  1
  Al0+  Al90  1  0.57141860  0.18001222  0.65099759  1
  Al0+  Al91  1  0.67787329  0.42665672  0.68233263  1
  Al0+  Al92  1  0.32283156  0.56971277  0.01393241  1
  Al0+  Al93  1  0.68171541  0.42570739  0.34682399  1
  Al0+  Al94  1  0.56955203  0.18004104  0.98445143  1
  Al0+  Al95  1  0.42734870  0.32364145  0.65497302  1
  Si0+  Si96  1  0.18067369  0.42593008  0.35076911  1
  Si0+  Si97  1  0.17888806  0.92812299  0.68087456  1
  Si0+  Si98  1  0.32379453  0.07078464  0.01798288  1
  Si0+  Si99  1  0.07578401  0.67925338  0.31278196  1
  Si0+  Si100  1  0.42705179  0.82094079  0.31765481  1
  Si0+  Si101  1  0.18115383  0.42871662  0.67903491  1
  Si0+  Si102  1  0.07246551  0.17521475  0.65333636  1
  Si0+  Si103  1  0.06728087  0.68369579  0.98649834  1
  Si0+  Si104  1  0.82082996  0.57243117  0.01401452  1
  Si0+  Si105  1  0.67816722  0.92975995  0.01485158  1
  Si0+  Si106  1  0.31964358  0.07090355  0.34908493  1
  Si0+  Si107  1  0.57046832  0.68104832  0.31886859  1
  Si0+  Si108  1  0.57512658  0.67589795  0.98384284  1
  Si0+  Si109  1  0.82549908  0.07136208  0.68512252  1
  Si0+  Si110  1  0.17686474  0.92974810  0.35067149  1
  Si0+  Si111  1  0.81923069  0.07149014  0.01562189  1
  Si0+  Si112  1  0.32040080  0.57364138  0.68094571  1
  Si0+  Si113  1  0.31886485  0.07100552  0.68292036  1
  Si0+  Si114  1  0.68185653  0.42711347  0.01330001  1
  Si0+  Si115  1  0.07237534  0.17548270  0.98315210  1
  Si0+  Si116  1  0.92804608  0.82363234  0.65259885  1
  Si0+  Si117  1  0.82293567  0.06973527  0.34955074  1
  Si0+  Si118  1  0.42680821  0.32417292  0.98547572  1
  Si0+  Si119  1  0.92546793  0.82472718  0.98402071  1
  O2-  O120  1  0.24985226  0.00720770  0.06241825  1
  O2-  O121  1  0.24461673  0.00364737  0.39232322  1
  O2-  O122  1  0.24890637  -0.00153296  0.72492363  1
  O2-  O123  1  0.25771428  0.49101425  0.06417772  1
  O2-  O124  1  0.24996495  0.49334023  0.39645613  1
  O2-  O125  1  0.25453681  0.49722594  0.72203119  1
  O2-  O126  1  0.74937631  -0.00069246  0.05834560  1
  O2-  O127  1  0.74808216  0.00771951  0.39330600  1
  O2-  O128  1  0.75216802  0.00655826  0.72891325  1
  O2-  O129  1  0.74820839  0.50298169  0.05499273  1
  O2-  O130  1  0.75932689  0.49276285  0.39522999  1
  O2-  O131  1  0.75079431  0.49846166  0.73362895  1
  O2-  O132  1  0.00358869  0.25213750  0.26724308  1
  O2-  O133  1  0.00389313  0.24261633  0.60886531  1
  O2-  O134  1  0.01255375  0.25154746  0.93850918  1
  O2-  O135  1  0.00056571  0.74186323  0.27008606  1
  O2-  O136  1  -0.00915989  0.74981106  0.60864751  1
  O2-  O137  1  -0.00329656  0.75431487  0.94199196  1
  O2-  O138  1  0.50512201  0.25469119  0.26731918  1
  O2-  O139  1  0.50728724  0.26072282  0.60449046  1
  O2-  O140  1  0.49348296  0.25451092  0.94006620  1
  O2-  O141  1  0.49762742  0.74999432  0.27545962  1
  O2-  O142  1  0.50315011  0.75266978  0.59964272  1
  O2-  O143  1  0.50114690  0.74025460  0.94212406  1
  O2-  O144  1  0.06562825  0.16881111  0.08775868  1
  O2-  O145  1  0.06913364  0.17700910  0.43299494  1
  O2-  O146  1  0.07242775  0.17253811  0.75891144  1
  O2-  O147  1  0.06551178  0.68554445  0.09128616  1
  O2-  O148  1  0.07935117  0.68381488  0.41823540  1
  O2-  O149  1  0.07310127  0.68139783  0.76646283  1
  O2-  O150  1  0.57023672  0.17901119  0.09725956  1
  O2-  O151  1  0.56486434  0.17361244  0.43075689  1
  O2-  O152  1  0.56550335  0.17858724  0.76507429  1
  O2-  O153  1  0.58068842  0.67950076  0.08945425  1
  O2-  O154  1  0.57105741  0.68360110  0.42333968  1
  O2-  O155  1  0.56915035  0.68046654  0.76509927  1
  O2-  O156  1  0.18067734  0.42873152  0.24517474  1
  O2-  O157  1  0.18214927  0.42746900  0.57422891  1
  O2-  O158  1  0.17534463  0.43506924  0.90093613  1
  O2-  O159  1  0.17844222  0.92860521  0.24539192  1
  O2-  O160  1  0.17707150  0.93066002  0.57592356  1
  O2-  O161  1  0.17865310  0.92902733  0.90111686  1
  O2-  O162  1  0.68085414  0.42920611  0.23200112  1
  O2-  O163  1  0.68028450  0.42633482  0.56935123  1
  O2-  O164  1  0.68223267  0.42695827  0.90857997  1
  O2-  O165  1  0.67757167  0.92977307  0.23199547  1
  O2-  O166  1  0.67951859  0.93205315  0.56947566  1
  O2-  O167  1  0.67945225  0.92987033  0.91009064  1
  O2-  O168  1  0.43081854  0.32483438  0.09061874  1
  O2-  O169  1  0.42958759  0.32201550  0.43081080  1
  O2-  O170  1  0.42110394  0.31767083  0.76878738  1
  O2-  O171  1  0.43113546  0.81800804  0.10178026  1
  O2-  O172  1  0.42622617  0.82168129  0.42225381  1
  O2-  O173  1  0.42475123  0.81782440  0.76424096  1
  O2-  O174  1  0.93029642  0.32159468  0.09665080  1
  O2-  O175  1  0.93126474  0.32074915  0.43073201  1
  O2-  O176  1  0.93490958  0.32089720  0.76588103  1
  O2-  O177  1  0.92312284  0.82245267  0.08895884  1
  O2-  O178  1  0.93048910  0.81869540  0.43371391  1
  O2-  O179  1  0.93343056  0.82680964  0.75864226  1
  O2-  O180  1  0.32155924  0.06585593  0.24405082  1
  O2-  O181  1  0.31527088  0.07163564  0.57787406  1
  O2-  O182  1  0.32319962  0.06781498  0.91210016  1
  O2-  O183  1  0.31835120  0.57478809  0.23719484  1
  O2-  O184  1  0.31633892  0.57635276  0.57614561  1
  O2-  O185  1  0.31880670  0.57279504  0.90005784  1
  O2-  O186  1  0.82519112  0.06538484  0.24354236  1
  O2-  O187  1  0.83476994  0.06638967  0.58042931  1
  O2-  O188  1  0.82077000  0.06904718  0.91064549  1
  O2-  O189  1  0.81646567  0.57466045  0.23212242  1
  O2-  O190  1  0.82453858  0.56755386  0.56943040  1
  O2-  O191  1  0.82334802  0.57307126  0.90941989  1
  O2-  O192  1  0.04047911  0.07920539  0.26630523  1
  O2-  O193  1  0.04839226  0.08091833  0.60736657  1
  O2-  O194  1  0.03886636  0.08474869  0.93389403  1
  O2-  O195  1  0.06008272  0.58348946  0.26871845  1
  O2-  O196  1  0.04443401  0.58333995  0.59458489  1
  O2-  O197  1  0.03901035  0.59257457  0.93845283  1
  O2-  O198  1  0.53375078  0.08070204  0.26388805  1
  O2-  O199  1  0.53229231  0.08520421  0.59902616  1
  O2-  O200  1  0.53802997  0.08335258  0.93078514  1
  O2-  O201  1  0.54348989  0.58929945  0.27155186  1
  O2-  O202  1  0.54529114  0.58189922  0.59805005  1
  O2-  O203  1  0.55521419  0.58003314  0.94061767  1
  O2-  O204  1  0.17147299  0.19680977  0.26578801  1
  O2-  O205  1  0.16562664  0.20109692  0.60766495  1
  O2-  O206  1  0.17065515  0.18948135  0.94255530  1
  O2-  O207  1  0.16576484  0.71535652  0.26545999  1
  O2-  O208  1  0.16188109  0.71467594  0.59416474  1
  O2-  O209  1  0.15913684  0.71257041  0.93985435  1
  O2-  O210  1  0.67175972  0.19598081  0.26606043  1
  O2-  O211  1  0.67400782  0.19211427  0.60281558  1
  O2-  O212  1  0.66572696  0.20923181  0.92939251  1
  O2-  O213  1  0.66049057  0.71123320  0.26935686  1
  O2-  O214  1  0.67365970  0.70924181  0.60195795  1
  O2-  O215  1  0.66563547  0.70730983  0.93425466  1
  O2-  O216  1  0.08265961  0.46775685  0.06979422  1
  O2-  O217  1  0.08755582  0.45427428  0.39669596  1
  O2-  O218  1  0.09056571  0.46135205  0.72546693  1
  O2-  O219  1  0.07978421  0.95882689  0.06816453  1
  O2-  O220  1  0.08397065  0.95452035  0.39723229  1
  O2-  O221  1  0.08758089  0.95421511  0.73117279  1
  O2-  O222  1  0.58919911  0.44944264  0.06174068  1
  O2-  O223  1  0.58539492  0.45966030  0.39943445  1
  O2-  O224  1  0.57900886  0.45691185  0.73598673  1
  O2-  O225  1  0.58568455  0.95752346  0.06066667  1
  O2-  O226  1  0.57854922  0.95769511  0.39965017  1
  O2-  O227  1  0.57975270  0.96219366  0.73546870  1
  O2-  O228  1  0.19047987  0.32469399  0.06338734  1
  O2-  O229  1  0.20305370  0.33023066  0.39357391  1
  O2-  O230  1  0.20448850  0.33623630  0.72842692  1
  O2-  O231  1  0.20975870  0.83588355  0.07182713  1
  O2-  O232  1  0.20806616  0.83956408  0.39851784  1
  O2-  O233  1  0.20777504  0.83571406  0.72662855  1
  O2-  O234  1  0.71490851  0.33616728  0.05901076  1
  O2-  O235  1  0.70414776  0.32445417  0.39607476  1
  O2-  O236  1  0.70702798  0.32677702  0.73363974  1
  O2-  O237  1  0.70546758  0.83689577  0.06132952  1
  O2-  O238  1  0.71066545  0.83567865  0.39992992  1
  O2-  O239  1  0.70814270  0.83608444  0.74074777  1
  O2-  O240  1  0.45535842  0.42548472  0.26774784  1
  O2-  O241  1  0.44328403  0.42581008  0.60746925  1
  O2-  O242  1  0.45262144  0.41825295  0.93996667  1
  O2-  O243  1  0.45416820  0.91206045  0.26916452  1
  O2-  O244  1  0.45099284  0.92128782  0.60098920  1
  O2-  O245  1  0.45967325  0.91189913  0.93232983  1
  O2-  O246  1  0.95909281  0.42226417  0.26462038  1
  O2-  O247  1  0.96497434  0.41353363  0.59653129  1
  O2-  O248  1  0.96161344  0.42086941  0.93173343  1
  O2-  O249  1  0.96011773  0.91140090  0.26374931  1
  O2-  O250  1  0.96055746  0.91420941  0.60438190  1
  O2-  O251  1  0.95240030  0.91727821  0.93848596  1
  O2-  O252  1  0.33381598  0.29316173  0.26335780  1
  O2-  O253  1  0.33202518  0.28653712  0.59967431  1
  O2-  O254  1  0.33029555  0.30138592  0.94342893  1
  O2-  O255  1  0.33456732  0.79236920  0.27159567  1
  O2-  O256  1  0.33138366  0.79169875  0.59517953  1
  O2-  O257  1  0.33014148  0.78902010  0.93578474  1
  O2-  O258  1  0.83298505  0.29257257  0.26222410  1
  O2-  O259  1  0.83475011  0.28959890  0.59905116  1
  O2-  O260  1  0.83891260  0.28613665  0.92818189  1
  O2-  O261  1  0.83120077  0.78785763  0.26420107  1
  O2-  O262  1  0.83193057  0.80518529  0.61156888  1
  O2-  O263  1  0.83375453  0.79746863  0.93577093  1
  O2-  O264  1  0.41493626  0.03680832  0.06423372  1
  O2-  O265  1  0.40787819  0.03670876  0.39873705  1
  O2-  O266  1  0.40947853  0.04331415  0.73181670  1
  O2-  O267  1  0.42404875  0.55007214  0.06640587  1
  O2-  O268  1  0.41875445  0.54700148  0.40444469  1
  O2-  O269  1  0.41380747  0.55511279  0.72799382  1
  O2-  O270  1  0.91031916  0.04486413  0.06476233  1
  O2-  O271  1  0.91335344  0.03593415  0.39750591  1
  O2-  O272  1  0.91658898  0.04057380  0.73637447  1
  O2-  O273  1  0.91152939  0.54530717  0.06312712  1
  O2-  O274  1  0.92808399  0.55626813  0.39175137  1
  O2-  O275  1  0.92347073  0.53957719  0.73329235  1
  O2-  O276  1  0.30595983  0.16630633  0.06276930  1
  O2-  O277  1  0.29531069  0.16396966  0.39548019  1
  O2-  O278  1  0.28947860  0.16111516  0.73364750  1
  O2-  O279  1  0.28594488  0.66488894  0.06896735  1
  O2-  O280  1  0.28570337  0.66735731  0.40449890  1
  O2-  O281  1  0.28427192  0.66376718  0.72767227  1
  O2-  O282  1  0.78970900  0.16354457  0.06104614  1
  O2-  O283  1  0.80544193  0.16588603  0.39159880  1
  O2-  O284  1  0.80382582  0.16603525  0.72984696  1
  O2-  O285  1  0.79422222  0.66623041  0.05953015  1
  O2-  O286  1  0.78948368  0.66711833  0.40078126  1
  O2-  O287  1  0.79965006  0.66962845  0.73621476  1
