# generated using pymatgen
data_Ca2Al2SiO7
_symmetry_space_group_name_H-M   'P 1'
_cell_length_a   15.46883284
_cell_length_b   15.47075761
_cell_length_c   15.29100563
_cell_angle_alpha   90.02502242
_cell_angle_beta   90.00818427
_cell_angle_gamma   90.00244897
_symmetry_Int_Tables_number   1
_chemical_formula_structural   Ca2Al2SiO7
_chemical_formula_sum   'Ca48 Al48 Si24 O168'
_cell_volume   3659.35994502
_cell_formula_units_Z   24
loop_
 _symmetry_equiv_pos_site_id
 _symmetry_equiv_pos_as_xyz
  1  'x, y, z'
loop_
 _atom_type_symbol
 _atom_type_oxidation_number
  Ca2+  2.0
  Al0+  0.0
  Si0+  0.0
  O2-  -2.0
loop_
 _atom_site_type_symbol
 _atom_site_label
 _atom_site_symmetry_multiplicity
 _atom_site_fract_x
 _atom_site_fract_y
 _atom_site_fract_z
 _atom_site_occupancy
  Ca2+  Ca0  1  0.16710204  0.07815881  0.17822498  1
  Ca2+  Ca1  1  0.16188837  0.08190875  0.49999994  1
  Ca2+  Ca2  1  0.16538674  0.08646900  0.83321221  1
  Ca2+  Ca3  1  0.16717108  0.56834431  0.17439440  1
  Ca2+  Ca4  1  0.17209503  0.58167098  0.50637511  1
  Ca2+  Ca5  1  0.17049967  0.58554608  0.83318815  1
  Ca2+  Ca6  1  0.67090060  0.07547975  0.17818034  1
  Ca2+  Ca7  1  0.66201885  0.07659681  0.50239283  1
  Ca2+  Ca8  1  0.66901813  0.06917251  0.83700686  1
  Ca2+  Ca9  1  0.67474609  0.57856919  0.17607728  1
  Ca2+  Ca10  1  0.67206601  0.57552878  0.50665334  1
  Ca2+  Ca11  1  0.66886381  0.58466057  0.82601324  1
  Ca2+  Ca12  1  0.08973811  0.33045599  0.16620672  1
  Ca2+  Ca13  1  0.08046256  0.32601429  0.49469235  1
  Ca2+  Ca14  1  0.07951804  0.33044036  0.82468230  1
  Ca2+  Ca15  1  0.07545338  0.83416963  0.16351016  1
  Ca2+  Ca16  1  0.08008070  0.82675363  0.49777165  1
  Ca2+  Ca17  1  0.06844795  0.82838018  0.82195589  1
  Ca2+  Ca18  1  0.57944770  0.33385076  0.16667797  1
  Ca2+  Ca19  1  0.58284569  0.33439916  0.48762538  1
  Ca2+  Ca20  1  0.57895336  0.33784681  0.82639771  1
  Ca2+  Ca21  1  0.58453440  0.83928525  0.16627618  1
  Ca2+  Ca22  1  0.57676812  0.83651737  0.49578707  1
  Ca2+  Ca23  1  0.58243586  0.82863848  0.82064022  1
  Ca2+  Ca24  1  0.32776683  0.40714347  0.17149382  1
  Ca2+  Ca25  1  0.32937255  0.41646966  0.50489514  1
  Ca2+  Ca26  1  0.32933297  0.42385422  0.83920954  1
  Ca2+  Ca27  1  0.32648056  0.91721769  0.17916656  1
  Ca2+  Ca28  1  0.32960039  0.90778771  0.50392061  1
  Ca2+  Ca29  1  0.33386892  0.91594477  0.83314959  1
  Ca2+  Ca30  1  0.82897626  0.42670303  0.18074897  1
  Ca2+  Ca31  1  0.82642649  0.42281593  0.50771485  1
  Ca2+  Ca32  1  0.83523664  0.41985363  0.82835683  1
  Ca2+  Ca33  1  0.82417666  0.91819181  0.17490961  1
  Ca2+  Ca34  1  0.82415070  0.92108628  0.50385245  1
  Ca2+  Ca35  1  0.82307745  0.90058472  0.83336447  1
  Ca2+  Ca36  1  0.42344343  0.17658312  0.17046965  1
  Ca2+  Ca37  1  0.42563116  0.17497693  0.48934615  1
  Ca2+  Ca38  1  0.41675534  0.17452250  0.83173427  1
  Ca2+  Ca39  1  0.41739161  0.67296751  0.16880694  1
  Ca2+  Ca40  1  0.42059703  0.67120574  0.50118415  1
  Ca2+  Ca41  1  0.42279823  0.67088373  0.81874742  1
  Ca2+  Ca42  1  0.92053020  0.15883406  0.17076065  1
  Ca2+  Ca43  1  0.92190223  0.16760892  0.49565970  1
  Ca2+  Ca44  1  0.92355879  0.17470738  0.82133183  1
  Ca2+  Ca45  1  0.91414810  0.67065396  0.16274292  1
  Ca2+  Ca46  1  0.90770278  0.66783825  0.50107035  1
  Ca2+  Ca47  1  0.91960004  0.67256531  0.82183287  1
  Al0+  Al48  1  -0.00067719  -0.00012616  -0.00638772  1
  Al0+  Al49  1  0.00026867  -0.00134190  0.33658757  1
  Al0+  Al50  1  0.00007970  -0.00043752  0.66136983  1
  Al0+  Al51  1  0.00206716  0.49892211  0.00422185  1
  Al0+  Al52  1  0.00321261  0.50034390  0.34074151  1
  Al0+  Al53  1  -0.00042981  0.49792782  0.66353832  1
  Al0+  Al54  1  0.49997812  0.00116873  0.00432785  1
  Al0+  Al55  1  0.49783255  0.00243085  0.32689734  1
  Al0+  Al56  1  0.49756067  0.00208555  0.67007772  1
  Al0+  Al57  1  0.50004259  0.50180848  -0.00306818  1
  Al0+  Al58  1  0.49931686  0.50435307  0.32896890  1
  Al0+  Al59  1  0.49691735  0.50193334  0.67068603  1
  Al0+  Al60  1  0.25216122  0.25005411  -0.00108932  1
  Al0+  Al61  1  0.24907828  0.24817297  0.33047725  1
  Al0+  Al62  1  0.25122294  0.24776591  0.66499445  1
  Al0+  Al63  1  0.25097082  0.74960567  0.00154297  1
  Al0+  Al64  1  0.24831678  0.74883931  0.33054457  1
  Al0+  Al65  1  0.24828372  0.75067989  0.66766703  1
  Al0+  Al66  1  0.75104545  0.24819759  -0.00064310  1
  Al0+  Al67  1  0.75276506  0.25023199  0.33283593  1
  Al0+  Al68  1  0.74928625  0.24808422  0.66938012  1
  Al0+  Al69  1  0.74888179  0.74925714  0.00138465  1
  Al0+  Al70  1  0.74908912  0.75188184  0.33866496  1
  Al0+  Al71  1  0.74908983  0.74724141  0.66593975  1
  Al0+  Al72  1  0.92627483  0.81970041  0.64818607  1
  Al0+  Al73  1  0.07166123  0.67788275  0.65160059  1
  Al0+  Al74  1  0.82249030  0.56984370  0.68334815  1
  Al0+  Al75  1  0.42790931  0.82076898  0.31898825  1
  Al0+  Al76  1  0.57039899  0.67708947  0.65042744  1
  Al0+  Al77  1  0.18245480  0.42632951  0.34896926  1
  Al0+  Al78  1  0.57545781  0.17982052  0.31841243  1
  Al0+  Al79  1  0.31819124  0.57204911  0.68007856  1
  Al0+  Al80  1  0.82297319  0.07129492  0.34859407  1
  Al0+  Al81  1  0.67732297  0.42949822  0.34464998  1
  Al0+  Al82  1  0.92906851  0.81946444  0.98747925  1
  Al0+  Al83  1  0.18095102  0.42966543  0.01329212  1
  Al0+  Al84  1  0.06883185  0.17835391  0.31799525  1
  Al0+  Al85  1  0.68036541  0.92859244  0.01428848  1
  Al0+  Al86  1  0.67548404  0.93158855  0.34967642  1
  Al0+  Al87  1  0.82260339  0.57251063  0.34844052  1
  Al0+  Al88  1  0.42943661  0.32451672  0.31979488  1
  Al0+  Al89  1  0.43070180  0.32057526  0.98416732  1
  Al0+  Al90  1  0.67824176  0.93019644  0.68002535  1
  Al0+  Al91  1  0.92635177  0.32064429  0.65059721  1
  Al0+  Al92  1  0.42965083  0.82376876  0.65307872  1
  Al0+  Al93  1  0.67736672  0.42649495  0.68218391  1
  Al0+  Al94  1  0.17942080  0.92724393  0.34714558  1
  Al0+  Al95  1  0.07316505  0.17930625  0.65038411  1
  Si0+  Si96  1  0.82074532  0.56888469  0.01385017  1
  Si0+  Si97  1  0.32033667  0.07104190  0.34997803  1
  Si0+  Si98  1  0.32444873  0.57341763  0.01873579  1
  Si0+  Si99  1  0.82372282  0.07045612  0.68482306  1
  Si0+  Si100  1  0.17774309  0.92916167  0.68294744  1
  Si0+  Si101  1  0.57007626  0.68068984  0.98487033  1
  Si0+  Si102  1  0.17813229  0.92942282  0.01304562  1
  Si0+  Si103  1  0.17982744  0.42491881  0.68243922  1
  Si0+  Si104  1  0.07227818  0.67613391  0.98529252  1
  Si0+  Si105  1  0.93065729  0.32432592  0.31575050  1
  Si0+  Si106  1  0.82390033  0.07375680  0.01571201  1
  Si0+  Si107  1  0.42773344  0.82296071  0.98580508  1
  Si0+  Si108  1  0.07173391  0.67745650  0.31635618  1
  Si0+  Si109  1  0.92848592  0.32299593  0.98700895  1
  Si0+  Si110  1  0.92914235  0.81939298  0.31857691  1
  Si0+  Si111  1  0.32018703  0.07197207  0.68319388  1
  Si0+  Si112  1  0.32139691  0.57377807  0.34891585  1
  Si0+  Si113  1  0.32020541  0.07109857  0.01652426  1
  Si0+  Si114  1  0.07109158  0.17955399  0.98583285  1
  Si0+  Si115  1  0.56954970  0.17911734  0.65541083  1
  Si0+  Si116  1  0.67785635  0.42783073  0.01374990  1
  Si0+  Si117  1  0.57357829  0.68114363  0.31450947  1
  Si0+  Si118  1  0.43000905  0.32141121  0.65386786  1
  Si0+  Si119  1  0.57310309  0.17739297  0.98161549  1
  O2-  O120  1  0.25026609  -0.00193879  0.05717215  1
  O2-  O121  1  0.25634257  -0.00118996  0.39498237  1
  O2-  O122  1  0.24812317  0.00141790  0.72525209  1
  O2-  O123  1  0.25548742  0.50443491  0.06142279  1
  O2-  O124  1  0.26055133  0.49826761  0.39272401  1
  O2-  O125  1  0.24318359  0.49786038  0.72789148  1
  O2-  O126  1  0.75506483  0.00451997  0.05817662  1
  O2-  O127  1  0.74462119  0.00660298  0.39858297  1
  O2-  O128  1  0.75760624  -0.00072139  0.72949573  1
  O2-  O129  1  0.75275443  0.49479697  0.05541160  1
  O2-  O130  1  0.75124026  0.49846341  0.39498975  1
  O2-  O131  1  0.75067490  0.49702173  0.73381365  1
  O2-  O132  1  -0.00368801  0.25372717  0.26848843  1
  O2-  O133  1  -0.00006447  0.24981614  0.60158761  1
  O2-  O134  1  -0.00086732  0.25042341  0.94587942  1
  O2-  O135  1  -0.00255688  0.74578506  0.27484581  1
  O2-  O136  1  -0.00323891  0.74539755  0.59917016  1
  O2-  O137  1  0.00598445  0.74667829  0.94159116  1
  O2-  O138  1  0.50657216  0.25682163  0.27036799  1
  O2-  O139  1  0.50731503  0.25754586  0.61325050  1
  O2-  O140  1  0.50815583  0.24919009  0.93603238  1
  O2-  O141  1  0.50601352  0.75114330  0.26929101  1
  O2-  O142  1  0.50286500  0.75426327  0.60239369  1
  O2-  O143  1  0.49827458  0.75214649  0.94404631  1
  O2-  O144  1  0.07137706  0.17663761  0.09057865  1
  O2-  O145  1  0.06878521  0.17923026  0.43009004  1
  O2-  O146  1  0.07439421  0.18185532  0.76536578  1
  O2-  O147  1  0.07107177  0.67577858  0.09102578  1
  O2-  O148  1  0.07641739  0.67938018  0.42048128  1
  O2-  O149  1  0.07305304  0.68329753  0.76621671  1
  O2-  O150  1  0.57207875  0.17764059  0.08659756  1
  O2-  O151  1  0.56927569  0.17797931  0.43232805  1
  O2-  O152  1  0.56454664  0.17702366  0.76085801  1
  O2-  O153  1  0.57055793  0.68017547  0.08993442  1
  O2-  O154  1  0.57237878  0.67930407  0.41911823  1
  O2-  O155  1  0.56716564  0.67931885  0.76523758  1
  O2-  O156  1  0.18205367  0.42824425  0.23510391  1
  O2-  O157  1  0.18643076  0.42096197  0.57741824  1
  O2-  O158  1  0.18055135  0.43046920  0.90039462  1
  O2-  O159  1  0.17935888  0.92935590  0.23275373  1
  O2-  O160  1  0.17961967  0.92811031  0.57832825  1
  O2-  O161  1  0.17909641  0.93082500  0.90807514  1
  O2-  O162  1  0.67970951  0.43353248  0.22974499  1
  O2-  O163  1  0.67548064  0.42631114  0.56925494  1
  O2-  O164  1  0.67703311  0.42880537  0.90913021  1
  O2-  O165  1  0.68009584  0.92969711  0.23540976  1
  O2-  O166  1  0.67310334  0.93629636  0.56811053  1
  O2-  O167  1  0.67985256  0.92805720  0.90122384  1
  O2-  O168  1  0.43061259  0.31796422  0.09663060  1
  O2-  O169  1  0.42808974  0.32128684  0.43366921  1
  O2-  O170  1  0.42749384  0.31789094  0.75938561  1
  O2-  O171  1  0.42536636  0.82179846  0.09066404  1
  O2-  O172  1  0.42537430  0.81681554  0.43120000  1
  O2-  O173  1  0.43050704  0.82391844  0.76780939  1
  O2-  O174  1  0.92813777  0.32510606  0.09164587  1
  O2-  O175  1  0.93368766  0.32497079  0.42055247  1
  O2-  O176  1  0.92962244  0.31818261  0.76589528  1
  O2-  O177  1  0.93084245  0.81850902  0.10093942  1
  O2-  O178  1  0.93084252  0.81918698  0.42283539  1
  O2-  O179  1  0.92929015  0.81892394  0.76274876  1
  O2-  O180  1  0.31683375  0.07011271  0.24361592  1
  O2-  O181  1  0.32182861  0.07476337  0.57904428  1
  O2-  O182  1  0.31965748  0.07141470  0.91104932  1
  O2-  O183  1  0.31665852  0.57709839  0.24287512  1
  O2-  O184  1  0.31896880  0.56939099  0.56727775  1
  O2-  O185  1  0.32358320  0.57515146  0.91336363  1
  O2-  O186  1  0.82544528  0.06375817  0.23411419  1
  O2-  O187  1  0.82161348  0.07139577  0.57983678  1
  O2-  O188  1  0.82388533  0.07808911  0.91060488  1
  O2-  O189  1  0.82156731  0.57249068  0.23307299  1
  O2-  O190  1  0.81977138  0.56815281  0.57064314  1
  O2-  O191  1  0.82172277  0.56907983  0.90953437  1
  O2-  O192  1  0.03725578  0.08086633  0.26391596  1
  O2-  O193  1  0.04846642  0.08004819  0.59971914  1
  O2-  O194  1  0.04503818  0.08850282  0.93535607  1
  O2-  O195  1  0.04514493  0.58456126  0.26976026  1
  O2-  O196  1  0.05392275  0.57640720  0.60296988  1
  O2-  O197  1  0.04596467  0.58288307  0.93931227  1
  O2-  O198  1  0.54033128  0.08492396  0.26090330  1
  O2-  O199  1  0.53237561  0.09186100  0.60654260  1
  O2-  O200  1  0.54108884  0.08473564  0.93625448  1
  O2-  O201  1  0.54616291  0.58930114  0.26436878  1
  O2-  O202  1  0.53464830  0.58077385  0.59850881  1
  O2-  O203  1  0.54301021  0.58946976  0.93626319  1
  O2-  O204  1  0.16564051  0.20736285  0.26284410  1
  O2-  O205  1  0.17188880  0.20666732  0.59785115  1
  O2-  O206  1  0.16270799  0.20754230  0.93831948  1
  O2-  O207  1  0.16056025  0.70836196  0.26457096  1
  O2-  O208  1  0.16774350  0.71193794  0.59819541  1
  O2-  O209  1  0.16776942  0.69997232  0.94178243  1
  O2-  O210  1  0.67510999  0.20177211  0.26410265  1
  O2-  O211  1  0.66412418  0.19602315  0.61125383  1
  O2-  O212  1  0.66865826  0.19778168  0.93691946  1
  O2-  O213  1  0.66744957  0.70735862  0.26800520  1
  O2-  O214  1  0.67038839  0.69757371  0.60126816  1
  O2-  O215  1  0.66148248  0.70895671  0.93753455  1
  O2-  O216  1  0.08469054  0.45871123  0.07027033  1
  O2-  O217  1  0.08800931  0.45937530  0.40343778  1
  O2-  O218  1  0.08369507  0.44398339  0.72452491  1
  O2-  O219  1  0.08603582  0.95875185  0.05909365  1
  O2-  O220  1  0.08507571  0.95937382  0.40172357  1
  O2-  O221  1  0.08593891  0.95799858  0.73056448  1
  O2-  O222  1  0.58714221  0.46009095  0.06048056  1
  O2-  O223  1  0.57816533  0.45863295  0.39494597  1
  O2-  O224  1  0.57948776  0.45822135  0.73600688  1
  O2-  O225  1  0.58274277  0.95838755  0.06734269  1
  O2-  O226  1  0.57453828  0.95767723  0.39723110  1
  O2-  O227  1  0.58302681  0.96586865  0.73631954  1
  O2-  O228  1  0.21279136  0.33240985  0.06595795  1
  O2-  O229  1  0.21037943  0.32873750  0.40100378  1
  O2-  O230  1  0.21142548  0.33336346  0.73083062  1
  O2-  O231  1  0.20317092  0.83639352  0.06016960  1
  O2-  O232  1  0.20904385  0.83011537  0.39920476  1
  O2-  O233  1  0.20684740  0.83951879  0.73359337  1
  O2-  O234  1  0.70135486  0.33363791  0.05833997  1
  O2-  O235  1  0.69997382  0.32922688  0.39394471  1
  O2-  O236  1  0.70290964  0.32714330  0.73700452  1
  O2-  O237  1  0.71106537  0.83213591  0.06901372  1
  O2-  O238  1  0.70501044  0.83406340  0.40129736  1
  O2-  O239  1  0.70562532  0.83175324  0.73220857  1
  O2-  O240  1  0.44968388  0.42449214  0.26525647  1
  O2-  O241  1  0.44909430  0.41531049  0.60949279  1
  O2-  O242  1  0.45754483  0.41925775  0.93190095  1
  O2-  O243  1  0.45150846  0.91870175  0.26386118  1
  O2-  O244  1  0.45332751  0.92391026  0.60205462  1
  O2-  O245  1  0.45324214  0.91641965  0.94082789  1
  O2-  O246  1  0.96056865  0.41772637  0.27010309  1
  O2-  O247  1  0.95128937  0.41896175  0.59861319  1
  O2-  O248  1  0.95876479  0.41397139  0.93910953  1
  O2-  O249  1  0.96191677  0.90911784  0.27032158  1
  O2-  O250  1  0.95642575  0.91786830  0.59783302  1
  O2-  O251  1  0.95757332  0.91579997  0.93142487  1
  O2-  O252  1  0.33416794  0.28659504  0.26524648  1
  O2-  O253  1  0.34153552  0.28622645  0.60568286  1
  O2-  O254  1  0.33530677  0.28530926  0.92953527  1
  O2-  O255  1  0.33258830  0.78562497  0.26228719  1
  O2-  O256  1  0.33085008  0.79434215  0.60398977  1
  O2-  O257  1  0.33476137  0.79682897  0.93869911  1
  O2-  O258  1  0.83606729  0.30304952  0.26974419  1
  O2-  O259  1  0.82748118  0.29089508  0.60042371  1
  O2-  O260  1  0.83660828  0.29620308  0.93882020  1
  O2-  O261  1  0.83622245  0.79345486  0.27161543  1
  O2-  O262  1  0.82729498  0.79431600  0.59739827  1
  O2-  O263  1  0.83317773  0.78513160  0.93480693  1
  O2-  O264  1  0.41196832  0.04534884  0.06429977  1
  O2-  O265  1  0.41568374  0.05103596  0.39262706  1
  O2-  O266  1  0.40943641  0.04347397  0.73583898  1
  O2-  O267  1  0.41845511  0.54824302  0.06391603  1
  O2-  O268  1  0.41818913  0.55798263  0.39014143  1
  O2-  O269  1  0.41262135  0.54088741  0.73816178  1
  O2-  O270  1  0.91849960  0.04696601  0.05968653  1
  O2-  O271  1  0.91769042  0.03640152  0.40340144  1
  O2-  O272  1  0.91937158  0.04821389  0.72897986  1
  O2-  O273  1  0.91324456  0.54454002  0.06230370  1
  O2-  O274  1  0.92139312  0.54806339  0.40021740  1
  O2-  O275  1  0.92218102  0.54176071  0.73638783  1
  O2-  O276  1  0.28983292  0.16159702  0.06372177  1
  O2-  O277  1  0.29061148  0.16253292  0.39649104  1
  O2-  O278  1  0.29070243  0.16257744  0.73414092  1
  O2-  O279  1  0.29926312  0.66766507  0.06507888  1
  O2-  O280  1  0.28702723  0.66327898  0.39633404  1
  O2-  O281  1  0.28730954  0.66812965  0.73711746  1
  O2-  O282  1  0.80006136  0.16725685  0.06397962  1
  O2-  O283  1  0.80638577  0.17360095  0.39605696  1
  O2-  O284  1  0.79557541  0.16250423  0.73328569  1
  O2-  O285  1  0.78852334  0.65876283  0.06255563  1
  O2-  O286  1  0.79332205  0.66976215  0.40043007  1
  O2-  O287  1  0.79295417  0.66801706  0.73742885  1
