# generated using pymatgen
data_Ca2Al2SiO7
_symmetry_space_group_name_H-M   'P 1'
_cell_length_a   15.47266678
_cell_length_b   15.47094271
_cell_length_c   15.29497714
_cell_angle_alpha   89.99216717
_cell_angle_beta   90.00563874
_cell_angle_gamma   90.02626410
_symmetry_Int_Tables_number   1
_chemical_formula_structural   Ca2Al2SiO7
_chemical_formula_sum   'Ca48 Al48 Si24 O168'
_cell_volume   3661.26135083
_cell_formula_units_Z   24
loop_
 _symmetry_equiv_pos_site_id
 _symmetry_equiv_pos_as_xyz
  1  'x, y, z'
loop_
 _atom_type_symbol
 _atom_type_oxidation_number
  Ca2+  2.0
  Al0+  0.0
  Si0+  0.0
  O2-  -2.0
loop_
 _atom_site_type_symbol
 _atom_site_label
 _atom_site_symmetry_multiplicity
 _atom_site_fract_x
 _atom_site_fract_y
 _atom_site_fract_z
 _atom_site_occupancy
  Ca2+  Ca0  1  0.17239672  0.08116272  0.18230828  1
  Ca2+  Ca1  1  0.16573051  0.08448767  0.49852321  1
  Ca2+  Ca2  1  0.16725237  0.08099649  0.83766613  1
  Ca2+  Ca3  1  0.16943452  0.58245004  0.18002479  1
  Ca2+  Ca4  1  0.16685165  0.58333179  0.49307505  1
  Ca2+  Ca5  1  0.16675076  0.58530803  0.83819725  1
  Ca2+  Ca6  1  0.66988205  0.07998583  0.18005738  1
  Ca2+  Ca7  1  0.67470314  0.08270402  0.50389486  1
  Ca2+  Ca8  1  0.66749508  0.08406370  0.82703919  1
  Ca2+  Ca9  1  0.67960655  0.57007830  0.17393403  1
  Ca2+  Ca10  1  0.67561281  0.57432924  0.50675843  1
  Ca2+  Ca11  1  0.67603111  0.58040257  0.83728682  1
  Ca2+  Ca12  1  0.06970589  0.33975849  0.16944422  1
  Ca2+  Ca13  1  0.07485807  0.32865493  0.48639513  1
  Ca2+  Ca14  1  0.07201606  0.33448083  0.83304404  1
  Ca2+  Ca15  1  0.08815014  0.82249443  0.16612870  1
  Ca2+  Ca16  1  0.07569685  0.82986463  0.49172666  1
  Ca2+  Ca17  1  0.07361647  0.82498281  0.82722719  1
  Ca2+  Ca18  1  0.58494196  0.33445882  0.16576076  1
  Ca2+  Ca19  1  0.59441552  0.32546733  0.49382869  1
  Ca2+  Ca20  1  0.58297411  0.33806598  0.82731480  1
  Ca2+  Ca21  1  0.58571598  0.83383837  0.16759560  1
  Ca2+  Ca22  1  0.59518619  0.83032658  0.49698328  1
  Ca2+  Ca23  1  0.58856413  0.82670600  0.82151663  1
  Ca2+  Ca24  1  0.32574976  0.41803050  0.17626800  1
  Ca2+  Ca25  1  0.32591025  0.41551332  0.49593472  1
  Ca2+  Ca26  1  0.33338253  0.41468408  0.83910177  1
  Ca2+  Ca27  1  0.32610840  0.92399148  0.17999076  1
  Ca2+  Ca28  1  0.32750958  0.92088326  0.49344931  1
  Ca2+  Ca29  1  0.33331285  0.91869156  0.83572372  1
  Ca2+  Ca30  1  0.83363981  0.41990706  0.17346358  1
  Ca2+  Ca31  1  0.82886719  0.42195695  0.50157411  1
  Ca2+  Ca32  1  0.82179480  0.42290927  0.84010256  1
  Ca2+  Ca33  1  0.82756110  0.92570313  0.17715935  1
  Ca2+  Ca34  1  0.82848124  0.92610259  0.50578255  1
  Ca2+  Ca35  1  0.83270600  0.91713259  0.82755991  1
  Ca2+  Ca36  1  0.42098274  0.17038864  0.16634326  1
  Ca2+  Ca37  1  0.43036646  0.16206396  0.49259041  1
  Ca2+  Ca38  1  0.42579902  0.17570627  0.82778194  1
  Ca2+  Ca39  1  0.41629661  0.66402355  0.16584816  1
  Ca2+  Ca40  1  0.42344149  0.66483683  0.49475993  1
  Ca2+  Ca41  1  0.42795245  0.66869205  0.82480425  1
  Ca2+  Ca42  1  0.91150773  0.17941355  0.17040242  1
  Ca2+  Ca43  1  0.91318742  0.17065597  0.48788426  1
  Ca2+  Ca44  1  0.90881616  0.17288791  0.82990732  1
  Ca2+  Ca45  1  0.92670026  0.65357648  0.16568927  1
  Ca2+  Ca46  1  0.91090928  0.66984209  0.49337096  1
  Ca2+  Ca47  1  0.91470627  0.66481772  0.82720468  1
  Al0+  Al48  1  0.00016813  -0.00289356  0.00079449  1
  Al0+  Al49  1  -0.00041027  -0.00081810  0.33496127  1
  Al0+  Al50  1  0.00116687  -0.00166167  0.66920301  1
  Al0+  Al51  1  0.00146832  0.49826983  -0.00860371  1
  Al0+  Al52  1  0.00138356  0.50125510  0.33439559  1
  Al0+  Al53  1  0.00277174  0.49851140  0.66941572  1
  Al0+  Al54  1  0.49877003  0.00056877  -0.00114304  1
  Al0+  Al55  1  0.49817141  -0.00205037  0.33466683  1
  Al0+  Al56  1  0.49731876  0.00176885  0.66765712  1
  Al0+  Al57  1  0.49988794  0.50049730  -0.00158085  1
  Al0+  Al58  1  0.50075298  0.50018087  0.33852372  1
  Al0+  Al59  1  0.49579318  0.50182091  0.66378559  1
  Al0+  Al60  1  0.25252523  0.24939235  -0.00411242  1
  Al0+  Al61  1  0.25211042  0.25018630  0.33946681  1
  Al0+  Al62  1  0.24970503  0.25050423  0.66950646  1
  Al0+  Al63  1  0.24971433  0.75041440  -0.00641820  1
  Al0+  Al64  1  0.25110855  0.75181655  0.33762773  1
  Al0+  Al65  1  0.24984770  0.75006997  0.66745903  1
  Al0+  Al66  1  0.74909421  0.24722617  -0.00201573  1
  Al0+  Al67  1  0.74896241  0.24918660  0.32865304  1
  Al0+  Al68  1  0.74896951  0.25109391  0.67059919  1
  Al0+  Al69  1  0.75183318  0.75085946  0.00502903  1
  Al0+  Al70  1  0.74972447  0.74912096  0.33360899  1
  Al0+  Al71  1  0.75114681  0.75080825  0.66428690  1
  Al0+  Al72  1  0.82341955  0.57017891  0.34800906  1
  Al0+  Al73  1  0.82255165  0.57134326  0.68170001  1
  Al0+  Al74  1  0.92996228  0.82010701  0.65183121  1
  Al0+  Al75  1  0.07056698  0.68213872  0.32111578  1
  Al0+  Al76  1  0.07080847  0.67909501  0.98544835  1
  Al0+  Al77  1  0.32231959  0.57294138  0.34788878  1
  Al0+  Al78  1  0.67680874  0.42953605  0.68171782  1
  Al0+  Al79  1  0.57002945  0.18178790  0.65214712  1
  Al0+  Al80  1  0.92790256  0.31929255  0.98397778  1
  Al0+  Al81  1  0.92878388  0.32119718  0.31987672  1
  Al0+  Al82  1  0.56974591  0.17819269  0.31953728  1
  Al0+  Al83  1  0.07344261  0.17659314  0.32047029  1
  Al0+  Al84  1  0.67796602  0.93005960  0.68140958  1
  Al0+  Al85  1  0.17837709  0.42864096  0.34724658  1
  Al0+  Al86  1  0.67913414  0.42760925  0.34803513  1
  Al0+  Al87  1  0.43001588  0.32111351  0.98735352  1
  Al0+  Al88  1  0.82038427  0.07154891  0.34599313  1
  Al0+  Al89  1  0.67682126  0.42760102  0.01564640  1
  Al0+  Al90  1  0.67730910  0.92797661  0.34707223  1
  Al0+  Al91  1  0.17722702  0.92903710  0.34814963  1
  Al0+  Al92  1  0.32139080  0.07313362  0.34875145  1
  Al0+  Al93  1  0.82326189  0.07188404  0.68296505  1
  Al0+  Al94  1  0.57046337  0.68017546  0.65187737  1
  Al0+  Al95  1  0.82348658  0.57074706  0.01604959  1
  Si0+  Si96  1  0.57141777  0.68145524  0.98674753  1
  Si0+  Si97  1  0.42493782  0.32313707  0.64773552  1
  Si0+  Si98  1  0.17973915  0.92824943  0.68450102  1
  Si0+  Si99  1  0.07237659  0.17618746  0.98431691  1
  Si0+  Si100  1  0.42922568  0.82195685  0.98484302  1
  Si0+  Si101  1  0.07225442  0.17892770  0.65446386  1
  Si0+  Si102  1  0.42965407  0.81868396  0.31766981  1
  Si0+  Si103  1  0.31859209  0.57234832  0.68377982  1
  Si0+  Si104  1  0.42875592  0.32416142  0.31811592  1
  Si0+  Si105  1  0.18079826  0.42792833  0.01280955  1
  Si0+  Si106  1  0.57242900  0.67701959  0.31643099  1
  Si0+  Si107  1  0.67739655  0.92937463  0.01429353  1
  Si0+  Si108  1  0.93014144  0.31988805  0.65310692  1
  Si0+  Si109  1  0.31967467  0.07207783  0.68493882  1
  Si0+  Si110  1  0.18060191  0.42714564  0.68523389  1
  Si0+  Si111  1  0.57103593  0.17481417  0.98192898  1
  Si0+  Si112  1  0.32008260  0.57260568  0.01232345  1
  Si0+  Si113  1  0.42561931  0.82311843  0.64842932  1
  Si0+  Si114  1  0.82202493  0.07023831  0.01529686  1
  Si0+  Si115  1  0.18008069  0.92796193  0.01384661  1
  Si0+  Si116  1  0.32000720  0.07054423  0.01441606  1
  Si0+  Si117  1  0.92552609  0.82196895  0.31494248  1
  Si0+  Si118  1  0.92738995  0.82399840  0.98266476  1
  Si0+  Si119  1  0.07342811  0.67677581  0.64815339  1
  O2-  O120  1  0.24758319  0.00150886  0.05633241  1
  O2-  O121  1  0.24307589  0.00715604  0.39800538  1
  O2-  O122  1  0.24983723  -0.00008306  0.72807827  1
  O2-  O123  1  0.24947280  0.50169621  0.05425533  1
  O2-  O124  1  0.25090647  0.50038188  0.39754755  1
  O2-  O125  1  0.24973680  0.50022974  0.72749400  1
  O2-  O126  1  0.74803237  0.00083882  0.05514349  1
  O2-  O127  1  0.74898537  -0.00038059  0.39610809  1
  O2-  O128  1  0.74983769  0.00091811  0.73374881  1
  O2-  O129  1  0.75348356  0.49562308  0.06407492  1
  O2-  O130  1  0.75105034  0.49918211  0.39732398  1
  O2-  O131  1  0.74825278  0.50193168  0.73209360  1
  O2-  O132  1  0.00234524  0.24904982  0.27002870  1
  O2-  O133  1  -0.00235400  0.24481213  0.61263636  1
  O2-  O134  1  0.00183696  0.24167615  0.93821115  1
  O2-  O135  1  -0.00497943  0.75383375  0.27054795  1
  O2-  O136  1  0.00065528  0.74105281  0.60599383  1
  O2-  O137  1  -0.00762771  0.75049847  0.94021703  1
  O2-  O138  1  0.49634315  0.25483277  0.27323197  1
  O2-  O139  1  0.49830569  0.25969460  0.60521214  1
  O2-  O140  1  0.50805883  0.25025456  0.94013857  1
  O2-  O141  1  0.50097296  0.74854700  0.27408252  1
  O2-  O142  1  0.49861417  0.75909891  0.60553319  1
  O2-  O143  1  0.50228413  0.75404327  0.94247528  1
  O2-  O144  1  0.07526867  0.17575310  0.08883711  1
  O2-  O145  1  0.07138855  0.17951463  0.43468072  1
  O2-  O146  1  0.07576987  0.18202668  0.76007698  1
  O2-  O147  1  0.07814339  0.68196250  0.09773379  1
  O2-  O148  1  0.07161434  0.68457777  0.43386599  1
  O2-  O149  1  0.07725090  0.68007638  0.75419273  1
  O2-  O150  1  0.56603428  0.16676175  0.08672593  1
  O2-  O151  1  0.56914049  0.17765087  0.43239546  1
  O2-  O152  1  0.56512048  0.18110889  0.76581131  1
  O2-  O153  1  0.56769779  0.68328088  0.09162062  1
  O2-  O154  1  0.57141468  0.67824386  0.42117508  1
  O2-  O155  1  0.56621541  0.68155341  0.76614156  1
  O2-  O156  1  0.17970381  0.43073094  0.23292421  1
  O2-  O157  1  0.18102761  0.42415835  0.58105111  1
  O2-  O158  1  0.18387910  0.42789349  0.90719633  1
  O2-  O159  1  0.18392281  0.92558547  0.23388890  1
  O2-  O160  1  0.18086142  0.92791193  0.58027700  1
  O2-  O161  1  0.18285250  0.92866806  0.90835912  1
  O2-  O162  1  0.67744473  0.43027879  0.23435626  1
  O2-  O163  1  0.68050981  0.42833654  0.56895404  1
  O2-  O164  1  0.67463555  0.43320191  0.90219455  1
  O2-  O165  1  0.67796352  0.92968158  0.23216816  1
  O2-  O166  1  0.67846596  0.93275498  0.56900849  1
  O2-  O167  1  0.67491954  0.92783403  0.90967041  1
  O2-  O168  1  0.42358713  0.31748010  0.09950406  1
  O2-  O169  1  0.42898135  0.32451012  0.42347573  1
  O2-  O170  1  0.42148641  0.31994003  0.75387870  1
  O2-  O171  1  0.42694878  0.82271042  0.08946766  1
  O2-  O172  1  0.42766353  0.81776537  0.42235082  1
  O2-  O173  1  0.42225292  0.81965122  0.75495346  1
  O2-  O174  1  0.93026753  0.32020074  0.09629162  1
  O2-  O175  1  0.92965650  0.32061248  0.43375371  1
  O2-  O176  1  0.93370407  0.31978134  0.75860724  1
  O2-  O177  1  0.93013914  0.83138191  0.08732871  1
  O2-  O178  1  0.92612789  0.82061006  0.42037373  1
  O2-  O179  1  0.93482353  0.82078674  0.76559331  1
  O2-  O180  1  0.32319850  0.06844356  0.23427368  1
  O2-  O181  1  0.31767023  0.07350547  0.58076114  1
  O2-  O182  1  0.31971684  0.06834614  0.90893739  1
  O2-  O183  1  0.32118789  0.57261078  0.23334161  1
  O2-  O184  1  0.31695387  0.57475109  0.57954403  1
  O2-  O185  1  0.31917568  0.57339521  0.90696500  1
  O2-  O186  1  0.81787794  0.07013448  0.23144959  1
  O2-  O187  1  0.82561827  0.07181685  0.57043552  1
  O2-  O188  1  0.82351087  0.06905539  0.91037009  1
  O2-  O189  1  0.82278615  0.56890038  0.23422855  1
  O2-  O190  1  0.82398729  0.56833602  0.56887109  1
  O2-  O191  1  0.81944234  0.57352151  0.90261294  1
  O2-  O192  1  0.04932381  0.07666258  0.26794346  1
  O2-  O193  1  0.05234227  0.08418938  0.61134876  1
  O2-  O194  1  0.04932306  0.08077064  0.93886065  1
  O2-  O195  1  0.04390450  0.58466304  0.26675359  1
  O2-  O196  1  0.05504920  0.57984956  0.60721869  1
  O2-  O197  1  0.04716011  0.58226498  0.92868703  1
  O2-  O198  1  0.53555666  0.08164468  0.26568258  1
  O2-  O199  1  0.53392424  0.08547882  0.60112681  1
  O2-  O200  1  0.53693660  0.08463191  0.93186259  1
  O2-  O201  1  0.54177585  0.58599551  0.26911896  1
  O2-  O202  1  0.53334256  0.58592987  0.59757834  1
  O2-  O203  1  0.54070596  0.59143393  0.93812301  1
  O2-  O204  1  0.17473161  0.20227790  0.27129201  1
  O2-  O205  1  0.16290017  0.21068810  0.60736227  1
  O2-  O206  1  0.16510245  0.20382787  0.93572364  1
  O2-  O207  1  0.16811690  0.71469449  0.26802762  1
  O2-  O208  1  0.16591610  0.70801309  0.60341744  1
  O2-  O209  1  0.16575996  0.71421049  0.92739882  1
  O2-  O210  1  0.66464111  0.20713885  0.26199801  1
  O2-  O211  1  0.66883915  0.20869753  0.60137887  1
  O2-  O212  1  0.66676734  0.19225283  0.93835312  1
  O2-  O213  1  0.66284680  0.70642454  0.26690110  1
  O2-  O214  1  0.66718011  0.70795711  0.59877322  1
  O2-  O215  1  0.66393590  0.70959130  0.94110050  1
  O2-  O216  1  0.08761292  0.45307951  0.05599600  1
  O2-  O217  1  0.08278258  0.45908288  0.40274883  1
  O2-  O218  1  0.08924830  0.45425276  0.73390218  1
  O2-  O219  1  0.08680885  0.94985666  0.05972028  1
  O2-  O220  1  0.07791225  0.94944718  0.40064648  1
  O2-  O221  1  0.08967748  0.95631216  0.73477019  1
  O2-  O222  1  0.57850202  0.45947062  0.06754407  1
  O2-  O223  1  0.58130781  0.45453839  0.40138327  1
  O2-  O224  1  0.57477095  0.45570472  0.72952241  1
  O2-  O225  1  0.58425008  0.95618297  0.06063437  1
  O2-  O226  1  0.57788514  0.95023359  0.39801125  1
  O2-  O227  1  0.57742231  0.95627458  0.73413662  1
  O2-  O228  1  0.21160011  0.33666211  0.05860100  1
  O2-  O229  1  0.20711992  0.33231963  0.40375625  1
  O2-  O230  1  0.21072357  0.33684908  0.73562771  1
  O2-  O231  1  0.21296991  0.83714219  0.05954592  1
  O2-  O232  1  0.21512912  0.83600773  0.40466749  1
  O2-  O233  1  0.21025884  0.83699272  0.73286047  1
  O2-  O234  1  0.69806091  0.32464456  0.06161006  1
  O2-  O235  1  0.70731637  0.32888939  0.39753120  1
  O2-  O236  1  0.70535691  0.33233426  0.73677541  1
  O2-  O237  1  0.70404085  0.83842923  0.06374992  1
  O2-  O238  1  0.70462572  0.82929261  0.39757870  1
  O2-  O239  1  0.70785604  0.83178057  0.73406188  1
  O2-  O240  1  0.45366984  0.41804746  0.27130186  1
  O2-  O241  1  0.44012915  0.41962821  0.60542845  1
  O2-  O242  1  0.45488111  0.41942331  0.93188618  1
  O2-  O243  1  0.45637909  0.90979785  0.26783157  1
  O2-  O244  1  0.44334919  0.91947351  0.60700999  1
  O2-  O245  1  0.45404516  0.91454803  0.93644263  1
  O2-  O246  1  0.96080595  0.41858819  0.26625752  1
  O2-  O247  1  0.96378214  0.41011475  0.60682743  1
  O2-  O248  1  0.96263417  0.41274302  0.92607722  1
  O2-  O249  1  0.95058242  0.91596918  0.26978386  1
  O2-  O250  1  0.96639004  0.91597979  0.59969111  1
  O2-  O251  1  0.95884720  0.91471712  0.93236648  1
  O2-  O252  1  0.33450260  0.29898216  0.27322895  1
  O2-  O253  1  0.33253282  0.29093866  0.60294305  1
  O2-  O254  1  0.33573130  0.28647626  0.92810985  1
  O2-  O255  1  0.33895120  0.78962151  0.26821882  1
  O2-  O256  1  0.33375357  0.79156578  0.60240595  1
  O2-  O257  1  0.33944754  0.79252801  0.93363913  1
  O2-  O258  1  0.83287015  0.29083770  0.26295512  1
  O2-  O259  1  0.83705518  0.29597461  0.60878673  1
  O2-  O260  1  0.83123130  0.28765458  0.92976579  1
  O2-  O261  1  0.83212548  0.79673936  0.26756277  1
  O2-  O262  1  0.83273132  0.79592482  0.59800159  1
  O2-  O263  1  0.83163862  0.80173649  0.93923367  1
  O2-  O264  1  0.41119629  0.04045191  0.06116243  1
  O2-  O265  1  0.41468735  0.03345657  0.40338700  1
  O2-  O266  1  0.40995539  0.04379398  0.73484162  1
  O2-  O267  1  0.41223626  0.54731481  0.05882115  1
  O2-  O268  1  0.41946797  0.54586585  0.40233473  1
  O2-  O269  1  0.41046905  0.54597710  0.73167575  1
  O2-  O270  1  0.91358855  0.04033001  0.06187742  1
  O2-  O271  1  0.91909877  0.04667882  0.39805401  1
  O2-  O272  1  0.92172761  0.04218731  0.73748375  1
  O2-  O273  1  0.92494761  0.54232161  0.06212372  1
  O2-  O274  1  0.92149900  0.54586656  0.40107947  1
  O2-  O275  1  0.92220418  0.54251615  0.73382774  1
  O2-  O276  1  0.29411339  0.16301455  0.06011184  1
  O2-  O277  1  0.30335287  0.17180331  0.40361821  1
  O2-  O278  1  0.28916826  0.16290612  0.73416261  1
  O2-  O279  1  0.29284041  0.66551784  0.05799804  1
  O2-  O280  1  0.29344826  0.66939556  0.40285149  1
  O2-  O281  1  0.29008997  0.66382110  0.73325145  1
  O2-  O282  1  0.79601060  0.16230794  0.06159312  1
  O2-  O283  1  0.79112520  0.16911171  0.39753661  1
  O2-  O284  1  0.79226515  0.16902317  0.73724807  1
  O2-  O285  1  0.79617969  0.66993488  0.06868937  1
  O2-  O286  1  0.79339626  0.66868862  0.39790766  1
  O2-  O287  1  0.79619275  0.67100644  0.73255052  1
