# generated using pymatgen
data_Ca2Al2SiO7
_symmetry_space_group_name_H-M   'P 1'
_cell_length_a   15.45370220
_cell_length_b   15.45431311
_cell_length_c   15.28064840
_cell_angle_alpha   90.00965707
_cell_angle_beta   90.00234105
_cell_angle_gamma   89.99212759
_symmetry_Int_Tables_number   1
_chemical_formula_structural   Ca2Al2SiO7
_chemical_formula_sum   'Ca48 Al48 Si24 O168'
_cell_volume   3649.42143143
_cell_formula_units_Z   24
loop_
 _symmetry_equiv_pos_site_id
 _symmetry_equiv_pos_as_xyz
  1  'x, y, z'
loop_
 _atom_type_symbol
 _atom_type_oxidation_number
  Ca2+  2.0
  Al0+  0.0
  Si0+  0.0
  O2-  -2.0
loop_
 _atom_site_type_symbol
 _atom_site_label
 _atom_site_symmetry_multiplicity
 _atom_site_fract_x
 _atom_site_fract_y
 _atom_site_fract_z
 _atom_site_occupancy
  Ca2+  Ca0  1  0.16502596  0.07741598  0.17055879  1
  Ca2+  Ca1  1  0.17213687  0.08119475  0.50654913  1
  Ca2+  Ca2  1  0.17227363  0.09281307  0.83646108  1
  Ca2+  Ca3  1  0.16556286  0.57978596  0.17174754  1
  Ca2+  Ca4  1  0.16628711  0.58325276  0.50072856  1
  Ca2+  Ca5  1  0.16999800  0.57369075  0.84044910  1
  Ca2+  Ca6  1  0.66569347  0.07975355  0.16686236  1
  Ca2+  Ca7  1  0.66188212  0.08271813  0.50832576  1
  Ca2+  Ca8  1  0.66696527  0.07476490  0.83835949  1
  Ca2+  Ca9  1  0.67563358  0.58272428  0.16988057  1
  Ca2+  Ca10  1  0.66750340  0.57938162  0.50325875  1
  Ca2+  Ca11  1  0.66693438  0.57107015  0.84051342  1
  Ca2+  Ca12  1  0.07686589  0.33196660  0.15922675  1
  Ca2+  Ca13  1  0.07854947  0.32672981  0.49633860  1
  Ca2+  Ca14  1  0.08507904  0.32401335  0.83254161  1
  Ca2+  Ca15  1  0.08088360  0.82842020  0.16150632  1
  Ca2+  Ca16  1  0.07848011  0.83050588  0.49435573  1
  Ca2+  Ca17  1  0.06552864  0.83552326  0.82852369  1
  Ca2+  Ca18  1  0.57457007  0.33447822  0.16162225  1
  Ca2+  Ca19  1  0.57981428  0.32553076  0.49422702  1
  Ca2+  Ca20  1  0.57899980  0.33429321  0.82513984  1
  Ca2+  Ca21  1  0.58526726  0.82825835  0.15991435  1
  Ca2+  Ca22  1  0.57940786  0.83433457  0.49856193  1
  Ca2+  Ca23  1  0.57872204  0.84151069  0.82860279  1
  Ca2+  Ca24  1  0.32911821  0.40601166  0.16680119  1
  Ca2+  Ca25  1  0.33964754  0.41293815  0.50396270  1
  Ca2+  Ca26  1  0.33162899  0.40988453  0.84079818  1
  Ca2+  Ca27  1  0.32806915  0.91468000  0.17295898  1
  Ca2+  Ca28  1  0.32937568  0.92107938  0.50868918  1
  Ca2+  Ca29  1  0.34131799  0.92443246  0.83587853  1
  Ca2+  Ca30  1  0.83246363  0.42436472  0.17346956  1
  Ca2+  Ca31  1  0.83099661  0.42072155  0.50329650  1
  Ca2+  Ca32  1  0.81889602  0.41979495  0.84272364  1
  Ca2+  Ca33  1  0.83550470  0.92115152  0.16341797  1
  Ca2+  Ca34  1  0.82607265  0.91668436  0.50823193  1
  Ca2+  Ca35  1  0.82440732  0.91542319  0.84187104  1
  Ca2+  Ca36  1  0.42223031  0.17372938  0.16459666  1
  Ca2+  Ca37  1  0.42640739  0.17063246  0.50019379  1
  Ca2+  Ca38  1  0.42263456  0.17575300  0.82351287  1
  Ca2+  Ca39  1  0.42450508  0.67216317  0.16207589  1
  Ca2+  Ca40  1  0.42528199  0.67126166  0.49526167  1
  Ca2+  Ca41  1  0.41672028  0.68042378  0.83034283  1
  Ca2+  Ca42  1  0.92033415  0.16893611  0.16024961  1
  Ca2+  Ca43  1  0.91936594  0.17316122  0.49660880  1
  Ca2+  Ca44  1  0.92906417  0.15382211  0.83228394  1
  Ca2+  Ca45  1  0.91599702  0.66581967  0.16264971  1
  Ca2+  Ca46  1  0.91792012  0.67045145  0.49347576  1
  Ca2+  Ca47  1  0.90439299  0.67578471  0.83521308  1
  Al0+  Al48  1  0.00094764  -0.00178061  -0.00399339  1
  Al0+  Al49  1  -0.00130828  -0.00051937  0.34034852  1
  Al0+  Al50  1  0.00063007  -0.00202138  0.65518962  1
  Al0+  Al51  1  0.00175796  0.49786526  0.00475120  1
  Al0+  Al52  1  0.00005639  0.50112004  0.33213739  1
  Al0+  Al53  1  0.00139053  0.50124381  0.67002930  1
  Al0+  Al54  1  0.49977824  0.00113010  0.00323156  1
  Al0+  Al55  1  0.49882761  0.00180043  0.33042795  1
  Al0+  Al56  1  0.49795447  0.00121210  0.66670649  1
  Al0+  Al57  1  0.49853346  0.50175985  -0.00011234  1
  Al0+  Al58  1  0.49919990  0.50125927  0.32519515  1
  Al0+  Al59  1  0.49922830  0.50245415  0.66868013  1
  Al0+  Al60  1  0.25092482  0.24986749  -0.00077563  1
  Al0+  Al61  1  0.25012411  0.24808390  0.33327810  1
  Al0+  Al62  1  0.24935505  0.24924195  0.66172272  1
  Al0+  Al63  1  0.25084124  0.74940212  -0.00556076  1
  Al0+  Al64  1  0.24750340  0.74856366  0.33580970  1
  Al0+  Al65  1  0.24863457  0.74971201  0.66477674  1
  Al0+  Al66  1  0.74996898  0.24918879  0.00788218  1
  Al0+  Al67  1  0.75021385  0.24955053  0.32591568  1
  Al0+  Al68  1  0.75212459  0.25067001  0.66952069  1
  Al0+  Al69  1  0.74960308  0.74837074  0.00336898  1
  Al0+  Al70  1  0.75004163  0.75055891  0.33447759  1
  Al0+  Al71  1  0.74997580  0.75138035  0.66575534  1
  Al0+  Al72  1  0.42950028  0.32342725  0.65212164  1
  Al0+  Al73  1  0.67893618  0.42900108  0.67796651  1
  Al0+  Al74  1  0.92721422  0.81922430  0.65115447  1
  Al0+  Al75  1  0.42878338  0.82233016  0.98697267  1
  Al0+  Al76  1  0.42840640  0.82239858  0.65244570  1
  Al0+  Al77  1  0.82472957  0.06953057  0.01467756  1
  Al0+  Al78  1  0.92974273  0.81838886  0.98786520  1
  Al0+  Al79  1  0.67907541  0.93058779  0.67885448  1
  Al0+  Al80  1  0.67500121  0.42732396  0.01786678  1
  Al0+  Al81  1  0.31817399  0.07033314  0.68091619  1
  Al0+  Al82  1  0.82054155  0.56981169  0.01585086  1
  Al0+  Al83  1  0.17853104  0.92756176  0.34770973  1
  Al0+  Al84  1  0.42815026  0.32128781  0.31672662  1
  Al0+  Al85  1  0.57251506  0.68050312  0.31967674  1
  Al0+  Al86  1  0.43120363  0.32012495  0.98506952  1
  Al0+  Al87  1  0.93058252  0.32135457  0.32022632  1
  Al0+  Al88  1  0.06937962  0.17932381  0.98795461  1
  Al0+  Al89  1  0.07061459  0.68017400  0.31956777  1
  Al0+  Al90  1  0.07103228  0.17947966  0.65103474  1
  Al0+  Al91  1  0.82123906  0.57087614  0.34964365  1
  Al0+  Al92  1  0.18219173  0.42782737  0.01416427  1
  Al0+  Al93  1  0.57365201  0.17948536  0.65456021  1
  Al0+  Al94  1  0.67734299  0.92965153  0.01662175  1
  Al0+  Al95  1  0.57238726  0.17677709  0.31564930  1
  Si0+  Si96  1  0.07306284  0.67499365  0.98221964  1
  Si0+  Si97  1  0.67823132  0.93012415  0.34862080  1
  Si0+  Si98  1  0.32201912  0.07167364  0.35154642  1
  Si0+  Si99  1  0.82068685  0.07272223  0.34988543  1
  Si0+  Si100  1  0.17951710  0.92798797  0.01167611  1
  Si0+  Si101  1  0.92867944  0.32492868  0.65259288  1
  Si0+  Si102  1  0.92669274  0.32312416  0.98360090  1
  Si0+  Si103  1  0.92767889  0.82297116  0.31618135  1
  Si0+  Si104  1  0.67695535  0.42827637  0.34939549  1
  Si0+  Si105  1  0.42745222  0.82127856  0.31877712  1
  Si0+  Si106  1  0.57393218  0.17781908  0.98286083  1
  Si0+  Si107  1  0.32034603  0.07128340  0.01562910  1
  Si0+  Si108  1  0.32122550  0.57302447  0.68147698  1
  Si0+  Si109  1  0.57222691  0.67938296  0.98207437  1
  Si0+  Si110  1  0.32039662  0.57516108  0.01756998  1
  Si0+  Si111  1  0.17653028  0.92633730  0.68479527  1
  Si0+  Si112  1  0.82515184  0.07234632  0.68103215  1
  Si0+  Si113  1  0.07086720  0.17641775  0.31749947  1
  Si0+  Si114  1  0.57115329  0.67875759  0.65108558  1
  Si0+  Si115  1  0.07187725  0.67630079  0.65021238  1
  Si0+  Si116  1  0.17952453  0.42814156  0.34904542  1
  Si0+  Si117  1  0.17947300  0.42916316  0.68059032  1
  Si0+  Si118  1  0.82336627  0.57233547  0.68315956  1
  Si0+  Si119  1  0.32170120  0.57078953  0.34837614  1
  O2-  O120  1  0.25212807  -0.00368012  0.05603719  1
  O2-  O121  1  0.25365102  0.00169741  0.39428745  1
  O2-  O122  1  0.24392611  -0.00460868  0.73026367  1
  O2-  O123  1  0.25435602  0.50432179  0.06239239  1
  O2-  O124  1  0.25376807  0.49627294  0.39129714  1
  O2-  O125  1  0.25270890  0.49856508  0.72209758  1
  O2-  O126  1  0.74992940  0.00121914  0.06671300  1
  O2-  O127  1  0.74738542  0.00317409  0.39099692  1
  O2-  O128  1  0.75400707  0.00581913  0.72428124  1
  O2-  O129  1  0.75083436  0.49614934  0.06678682  1
  O2-  O130  1  0.74580308  0.49626828  0.39563202  1
  O2-  O131  1  0.75514500  0.50242979  0.72514972  1
  O2-  O132  1  0.00444367  0.24610599  0.27274285  1
  O2-  O133  1  -0.00517102  0.25406546  0.60733950  1
  O2-  O134  1  -0.00824050  0.25066635  0.93939395  1
  O2-  O135  1  -0.00292978  0.75509933  0.27227193  1
  O2-  O136  1  0.00228057  0.74398086  0.60649846  1
  O2-  O137  1  0.00162379  0.74112060  0.93901368  1
  O2-  O138  1  0.50186009  0.25108689  0.26727782  1
  O2-  O139  1  0.50498184  0.25462039  0.60388738  1
  O2-  O140  1  0.51069326  0.25131022  0.93838511  1
  O2-  O141  1  0.49877661  0.75666415  0.27339046  1
  O2-  O142  1  0.50407816  0.74890300  0.60616980  1
  O2-  O143  1  0.50584957  0.75093301  0.93867451  1
  O2-  O144  1  0.06982839  0.17959865  0.10119915  1
  O2-  O145  1  0.06986536  0.17834407  0.42321879  1
  O2-  O146  1  0.07174724  0.18128937  0.76425833  1
  O2-  O147  1  0.07659530  0.67825939  0.08775053  1
  O2-  O148  1  0.07028903  0.68054225  0.43289515  1
  O2-  O149  1  0.07362640  0.67440077  0.75562006  1
  O2-  O150  1  0.56840431  0.17524026  0.08835426  1
  O2-  O151  1  0.57165690  0.17560233  0.42929183  1
  O2-  O152  1  0.57194141  0.17916392  0.76796169  1
  O2-  O153  1  0.57035334  0.68035826  0.08792302  1
  O2-  O154  1  0.56981479  0.68087155  0.43311516  1
  O2-  O155  1  0.56890504  0.67746178  0.75650219  1
  O2-  O156  1  0.17984059  0.42864835  0.24414051  1
  O2-  O157  1  0.17621095  0.43192606  0.57529881  1
  O2-  O158  1  0.18389603  0.42816562  0.90043093  1
  O2-  O159  1  0.17978611  0.92859505  0.23374189  1
  O2-  O160  1  0.17896073  0.92631945  0.57893544  1
  O2-  O161  1  0.17897450  0.92914875  0.90692129  1
  O2-  O162  1  0.67830957  0.43090868  0.24423235  1
  O2-  O163  1  0.67996886  0.43127650  0.56462183  1
  O2-  O164  1  0.67480613  0.43004597  0.90356533  1
  O2-  O165  1  0.67937686  0.92911623  0.24385152  1
  O2-  O166  1  0.68048195  0.92968773  0.56509530  1
  O2-  O167  1  0.67643019  0.93126203  0.90288978  1
  O2-  O168  1  0.42796067  0.31519845  0.09778533  1
  O2-  O169  1  0.42906333  0.32113969  0.43015373  1
  O2-  O170  1  0.42848197  0.32205540  0.76567171  1
  O2-  O171  1  0.42529811  0.81835534  0.10024609  1
  O2-  O172  1  0.42850039  0.81984700  0.42447593  1
  O2-  O173  1  0.42891842  0.82063930  0.76550876  1
  O2-  O174  1  0.93190068  0.32440290  0.08923315  1
  O2-  O175  1  0.93256994  0.31958542  0.43400827  1
  O2-  O176  1  0.93140980  0.32838294  0.75782418  1
  O2-  O177  1  0.93520281  0.82034851  0.10081357  1
  O2-  O178  1  0.92795283  0.82156139  0.42196029  1
  O2-  O179  1  0.92667892  0.81846138  0.76434135  1
  O2-  O180  1  0.32075587  0.07124392  0.24549489  1
  O2-  O181  1  0.31632665  0.06830576  0.56782476  1
  O2-  O182  1  0.31981338  0.07250726  0.91063324  1
  O2-  O183  1  0.31863316  0.57480250  0.24374493  1
  O2-  O184  1  0.32025752  0.57455604  0.57617183  1
  O2-  O185  1  0.31727486  0.57719045  0.91156488  1
  O2-  O186  1  0.82582876  0.06938690  0.24531703  1
  O2-  O187  1  0.82457836  0.07176542  0.57495636  1
  O2-  O188  1  0.82725439  0.06460100  0.90102441  1
  O2-  O189  1  0.82137680  0.57015431  0.23720780  1
  O2-  O190  1  0.82538249  0.57116729  0.57740999  1
  O2-  O191  1  0.81732793  0.56920966  0.90161530  1
  O2-  O192  1  0.04279774  0.08246571  0.27373196  1
  O2-  O193  1  0.04347517  0.08354482  0.59448408  1
  O2-  O194  1  0.04278473  0.08273380  0.93135861  1
  O2-  O195  1  0.04148499  0.58385163  0.26546681  1
  O2-  O196  1  0.04720222  0.58239867  0.60338580  1
  O2-  O197  1  0.05060757  0.57964586  0.93835649  1
  O2-  O198  1  0.54019029  0.07956555  0.26090941  1
  O2-  O199  1  0.53966833  0.08355399  0.59994082  1
  O2-  O200  1  0.54215933  0.08566645  0.93754302  1
  O2-  O201  1  0.54044606  0.58652280  0.26277955  1
  O2-  O202  1  0.54177893  0.58728959  0.60268966  1
  O2-  O203  1  0.54231878  0.58734214  0.93520863  1
  O2-  O204  1  0.16573053  0.19832114  0.27344024  1
  O2-  O205  1  0.16462204  0.21337161  0.59383116  1
  O2-  O206  1  0.16447691  0.21441274  0.93347213  1
  O2-  O207  1  0.16754239  0.70965916  0.26504178  1
  O2-  O208  1  0.16465861  0.70232982  0.60241130  1
  O2-  O209  1  0.16519947  0.70240910  0.93390665  1
  O2-  O210  1  0.67145440  0.19966868  0.26288172  1
  O2-  O211  1  0.67422860  0.20304846  0.60265838  1
  O2-  O212  1  0.67118106  0.19545919  0.94188212  1
  O2-  O213  1  0.66833726  0.71245034  0.26538228  1
  O2-  O214  1  0.66507289  0.70231905  0.60534875  1
  O2-  O215  1  0.66658149  0.70102469  0.93709573  1
  O2-  O216  1  0.08561493  0.45573663  0.06907701  1
  O2-  O217  1  0.08971790  0.46026591  0.39758679  1
  O2-  O218  1  0.08935747  0.45870355  0.73125559  1
  O2-  O219  1  0.08967838  0.95771089  0.06114067  1
  O2-  O220  1  0.08241312  0.95788095  0.40383234  1
  O2-  O221  1  0.08083196  0.95243805  0.72570058  1
  O2-  O222  1  0.57708445  0.46016648  0.06948203  1
  O2-  O223  1  0.58240417  0.45603545  0.39264905  1
  O2-  O224  1  0.58325675  0.46253824  0.73319789  1
  O2-  O225  1  0.57923321  0.95805215  0.07158859  1
  O2-  O226  1  0.58430015  0.95571985  0.39374845  1
  O2-  O227  1  0.58238427  0.96015385  0.73247338  1
  O2-  O228  1  0.21511030  0.33257906  0.06984180  1
  O2-  O229  1  0.20380029  0.33465956  0.39591933  1
  O2-  O230  1  0.20581039  0.33673531  0.72644270  1
  O2-  O231  1  0.20620729  0.83499657  0.05809220  1
  O2-  O232  1  0.20810862  0.83110176  0.40319578  1
  O2-  O233  1  0.20002368  0.83161567  0.72939897  1
  O2-  O234  1  0.69713063  0.32746299  0.06947132  1
  O2-  O235  1  0.70340646  0.33311831  0.39207816  1
  O2-  O236  1  0.70863532  0.33317770  0.73459468  1
  O2-  O237  1  0.70519305  0.83075626  0.06767786  1
  O2-  O238  1  0.70758073  0.83933905  0.39723334  1
  O2-  O239  1  0.70907302  0.83330097  0.73258299  1
  O2-  O240  1  0.45086192  0.42050135  0.26308163  1
  O2-  O241  1  0.45284055  0.42443205  0.60177346  1
  O2-  O242  1  0.45230552  0.42100083  0.93476228  1
  O2-  O243  1  0.44753848  0.91620678  0.27391775  1
  O2-  O244  1  0.45811755  0.91794831  0.59737746  1
  O2-  O245  1  0.45703125  0.92063719  0.93516598  1
  O2-  O246  1  0.96408064  0.41616164  0.26573756  1
  O2-  O247  1  0.95775469  0.41760182  0.60531385  1
  O2-  O248  1  0.95725699  0.41508932  0.93672666  1
  O2-  O249  1  0.95419346  0.91762833  0.27318585  1
  O2-  O250  1  0.95803732  0.91344012  0.59275556  1
  O2-  O251  1  0.96405532  0.91209375  0.93071635  1
  O2-  O252  1  0.32892790  0.29009368  0.26549057  1
  O2-  O253  1  0.33202332  0.29364686  0.59866537  1
  O2-  O254  1  0.33575170  0.28464791  0.93161476  1
  O2-  O255  1  0.33474268  0.79152336  0.27387124  1
  O2-  O256  1  0.33156112  0.79013625  0.59933984  1
  O2-  O257  1  0.33396295  0.78971042  0.92939289  1
  O2-  O258  1  0.83488386  0.29329012  0.26483371  1
  O2-  O259  1  0.83519397  0.30114030  0.60598287  1
  O2-  O260  1  0.83025140  0.30220739  0.94217110  1
  O2-  O261  1  0.83433311  0.79741091  0.27115754  1
  O2-  O262  1  0.83129872  0.78882960  0.59522506  1
  O2-  O263  1  0.83208951  0.78866524  0.93473134  1
  O2-  O264  1  0.41149335  0.04539616  0.06475791  1
  O2-  O265  1  0.41600996  0.04609121  0.39697074  1
  O2-  O266  1  0.41402356  0.03955104  0.73587488  1
  O2-  O267  1  0.41520892  0.55340629  0.06133482  1
  O2-  O268  1  0.41486218  0.54526424  0.39479448  1
  O2-  O269  1  0.41314100  0.55045798  0.73066812  1
  O2-  O270  1  0.92204749  0.03602702  0.06900941  1
  O2-  O271  1  0.91102193  0.04409825  0.40089171  1
  O2-  O272  1  0.91905184  0.04189051  0.72371106  1
  O2-  O273  1  0.92103338  0.54554744  0.06679720  1
  O2-  O274  1  0.91831526  0.53909783  0.40326186  1
  O2-  O275  1  0.91739336  0.54967042  0.73021146  1
  O2-  O276  1  0.28711843  0.16007072  0.06487533  1
  O2-  O277  1  0.29449538  0.16453060  0.39835761  1
  O2-  O278  1  0.28529595  0.16753019  0.73358433  1
  O2-  O279  1  0.29173528  0.66769829  0.06486241  1
  O2-  O280  1  0.29040515  0.66029625  0.39908531  1
  O2-  O281  1  0.28919562  0.66319731  0.73057855  1
  O2-  O282  1  0.80303620  0.16924937  0.06757132  1
  O2-  O283  1  0.79501536  0.16606127  0.39552326  1
  O2-  O284  1  0.80737556  0.16720244  0.72733043  1
  O2-  O285  1  0.79220254  0.66740382  0.07034717  1
  O2-  O286  1  0.79063147  0.66855404  0.40272017  1
  O2-  O287  1  0.79533423  0.66560206  0.72785433  1
