# generated using pymatgen
data_Ca2Al2SiO7
_symmetry_space_group_name_H-M   'P 1'
_cell_length_a   15.45959400
_cell_length_b   15.45887434
_cell_length_c   15.28486744
_cell_angle_alpha   90.00533757
_cell_angle_beta   89.99597532
_cell_angle_gamma   89.99212211
_symmetry_Int_Tables_number   1
_chemical_formula_structural   Ca2Al2SiO7
_chemical_formula_sum   'Ca48 Al48 Si24 O168'
_cell_volume   3652.89863315
_cell_formula_units_Z   24
loop_
 _symmetry_equiv_pos_site_id
 _symmetry_equiv_pos_as_xyz
  1  'x, y, z'
loop_
 _atom_type_symbol
 _atom_type_oxidation_number
  Ca2+  2.0
  Al0+  0.0
  Si0+  0.0
  O2-  -2.0
loop_
 _atom_site_type_symbol
 _atom_site_label
 _atom_site_symmetry_multiplicity
 _atom_site_fract_x
 _atom_site_fract_y
 _atom_site_fract_z
 _atom_site_occupancy
  Ca2+  Ca0  1  0.16135279  0.08888238  0.16919639  1
  Ca2+  Ca1  1  0.16395982  0.08818228  0.50342246  1
  Ca2+  Ca2  1  0.16289481  0.08942389  0.83737618  1
  Ca2+  Ca3  1  0.17285360  0.58566888  0.17103369  1
  Ca2+  Ca4  1  0.17761421  0.57772947  0.51183854  1
  Ca2+  Ca5  1  0.16987769  0.58057728  0.83409077  1
  Ca2+  Ca6  1  0.67491869  0.07256803  0.16815274  1
  Ca2+  Ca7  1  0.66032727  0.07362925  0.50725284  1
  Ca2+  Ca8  1  0.66710192  0.07521374  0.84105379  1
  Ca2+  Ca9  1  0.66909370  0.57675834  0.17026206  1
  Ca2+  Ca10  1  0.67769663  0.57595695  0.50004814  1
  Ca2+  Ca11  1  0.67083555  0.57996082  0.83857491  1
  Ca2+  Ca12  1  0.07441452  0.32495335  0.15797844  1
  Ca2+  Ca13  1  0.08507093  0.32942457  0.50133895  1
  Ca2+  Ca14  1  0.07374542  0.32668033  0.82690396  1
  Ca2+  Ca15  1  0.06907081  0.82520790  0.15902746  1
  Ca2+  Ca16  1  0.07278127  0.83014530  0.49158389  1
  Ca2+  Ca17  1  0.07706669  0.82819097  0.83618148  1
  Ca2+  Ca18  1  0.57496038  0.34898785  0.16140725  1
  Ca2+  Ca19  1  0.58206998  0.33206663  0.49426086  1
  Ca2+  Ca20  1  0.58165779  0.33216610  0.83071959  1
  Ca2+  Ca21  1  0.59104065  0.82735328  0.16098270  1
  Ca2+  Ca22  1  0.58258173  0.83599516  0.49872463  1
  Ca2+  Ca23  1  0.58696397  0.83153770  0.82786358  1
  Ca2+  Ca24  1  0.33578416  0.41895079  0.17511474  1
  Ca2+  Ca25  1  0.33127128  0.42411695  0.50403362  1
  Ca2+  Ca26  1  0.32751323  0.41327067  0.83643874  1
  Ca2+  Ca27  1  0.32860883  0.92015813  0.17001815  1
  Ca2+  Ca28  1  0.33193085  0.91735228  0.50953290  1
  Ca2+  Ca29  1  0.33422372  0.91599536  0.83518876  1
  Ca2+  Ca30  1  0.82270447  0.41647086  0.17102977  1
  Ca2+  Ca31  1  0.83929061  0.42596790  0.50629428  1
  Ca2+  Ca32  1  0.83412799  0.41677828  0.83998052  1
  Ca2+  Ca33  1  0.83132924  0.91417653  0.16830136  1
  Ca2+  Ca34  1  0.82309048  0.91446325  0.50265506  1
  Ca2+  Ca35  1  0.82596822  0.92380522  0.84342000  1
  Ca2+  Ca36  1  0.42022784  0.18152289  0.16282630  1
  Ca2+  Ca37  1  0.42462938  0.17350682  0.49671379  1
  Ca2+  Ca38  1  0.42414851  0.17209183  0.82954745  1
  Ca2+  Ca39  1  0.42496623  0.66292517  0.15976983  1
  Ca2+  Ca40  1  0.41166113  0.66738402  0.49776584  1
  Ca2+  Ca41  1  0.42460124  0.67098281  0.82821451  1
  Ca2+  Ca42  1  0.92369054  0.16678005  0.15641156  1
  Ca2+  Ca43  1  0.92640864  0.17232467  0.49734827  1
  Ca2+  Ca44  1  0.91414820  0.17680158  0.82932030  1
  Ca2+  Ca45  1  0.90897802  0.67521454  0.16227878  1
  Ca2+  Ca46  1  0.90858493  0.66858183  0.49389682  1
  Ca2+  Ca47  1  0.91406756  0.66907688  0.83071345  1
  Al0+  Al48  1  0.00181995  -0.00254277  -0.00283917  1
  Al0+  Al49  1  -0.00058269  -0.00174292  0.32639656  1
  Al0+  Al50  1  -0.00106656  -0.00076863  0.66328382  1
  Al0+  Al51  1  0.00276773  0.49955200  -0.00347842  1
  Al0+  Al52  1  0.00215204  0.49835821  0.33524770  1
  Al0+  Al53  1  0.00194543  0.50076004  0.67158865  1
  Al0+  Al54  1  0.49718368  0.00107229  0.00797856  1
  Al0+  Al55  1  0.49849080  0.00103726  0.33488223  1
  Al0+  Al56  1  0.49787069  -0.00111095  0.66381189  1
  Al0+  Al57  1  0.49958242  0.50281498  -0.00800832  1
  Al0+  Al58  1  0.49960246  0.50157139  0.33962884  1
  Al0+  Al59  1  0.50211189  0.50248027  0.66866133  1
  Al0+  Al60  1  0.25062854  0.25205138  -0.00503970  1
  Al0+  Al61  1  0.25274256  0.24966161  0.32668017  1
  Al0+  Al62  1  0.25092985  0.24969423  0.66720144  1
  Al0+  Al63  1  0.25042864  0.75091312  -0.00149271  1
  Al0+  Al64  1  0.24908007  0.75243769  0.33652047  1
  Al0+  Al65  1  0.25045010  0.75140826  0.66806796  1
  Al0+  Al66  1  0.74819921  0.24836981  0.00746782  1
  Al0+  Al67  1  0.75023965  0.24601560  0.33630203  1
  Al0+  Al68  1  0.75077585  0.24937044  0.65517616  1
  Al0+  Al69  1  0.74895500  0.74902435  -0.00609972  1
  Al0+  Al70  1  0.74781889  0.75034331  0.33730125  1
  Al0+  Al71  1  0.74844126  0.74870323  0.67283625  1
  Al0+  Al72  1  0.18133133  0.42769999  0.68378548  1
  Al0+  Al73  1  0.07419453  0.67764509  0.98445479  1
  Al0+  Al74  1  0.92904408  0.32413042  0.64993254  1
  Al0+  Al75  1  0.67781381  0.42683346  0.34852737  1
  Al0+  Al76  1  0.43460333  0.32122378  0.32109792  1
  Al0+  Al77  1  0.67787053  0.42959658  0.01111451  1
  Al0+  Al78  1  0.67906003  0.93043698  0.34863654  1
  Al0+  Al79  1  0.67749575  0.93134184  0.68093912  1
  Al0+  Al80  1  0.82104360  0.56967273  0.68212996  1
  Al0+  Al81  1  0.42968721  0.81909918  0.65319237  1
  Al0+  Al82  1  0.82296319  0.07053174  0.01466303  1
  Al0+  Al83  1  0.92789033  0.81933962  0.98272159  1
  Al0+  Al84  1  0.07007406  0.18084928  0.31822826  1
  Al0+  Al85  1  0.07110624  0.17873350  0.98440457  1
  Al0+  Al86  1  0.57088656  0.17863732  0.65441312  1
  Al0+  Al87  1  0.31972172  0.57277972  0.34615612  1
  Al0+  Al88  1  0.43055157  0.32288043  0.98544889  1
  Al0+  Al89  1  0.07168897  0.17795476  0.65050025  1
  Al0+  Al90  1  0.92471947  0.32008380  0.98724636  1
  Al0+  Al91  1  0.67764867  0.92672116  0.01574322  1
  Al0+  Al92  1  0.82162519  0.56952773  0.34604103  1
  Al0+  Al93  1  0.92709345  0.81704432  0.32061219  1
  Al0+  Al94  1  0.57090094  0.68040911  0.98643355  1
  Al0+  Al95  1  0.32308213  0.57386180  0.68520750  1
  Si0+  Si96  1  0.92652898  0.32404362  0.31619196  1
  Si0+  Si97  1  0.42803201  0.82403055  0.98600827  1
  Si0+  Si98  1  0.56733747  0.68209142  0.32049460  1
  Si0+  Si99  1  0.18020575  0.42566905  0.34787029  1
  Si0+  Si100  1  0.17636600  0.92927833  0.68168359  1
  Si0+  Si101  1  0.07435015  0.67702090  0.31941476  1
  Si0+  Si102  1  0.57381353  0.67786991  0.64688030  1
  Si0+  Si103  1  0.18055651  0.92802433  0.01583746  1
  Si0+  Si104  1  0.82408469  0.57084194  0.01499778  1
  Si0+  Si105  1  0.32009477  0.06976721  0.68131868  1
  Si0+  Si106  1  0.17842754  0.93063591  0.34827099  1
  Si0+  Si107  1  0.82564047  0.06994446  0.35162486  1
  Si0+  Si108  1  0.07155764  0.68044917  0.65160259  1
  Si0+  Si109  1  0.92762633  0.81933344  0.65121263  1
  Si0+  Si110  1  0.82272011  0.07163647  0.68061221  1
  Si0+  Si111  1  0.57000094  0.17602780  0.98671581  1
  Si0+  Si112  1  0.31970960  0.07398859  0.01665310  1
  Si0+  Si113  1  0.31955942  0.07178118  0.34894736  1
  Si0+  Si114  1  0.31988455  0.57120787  0.01447435  1
  Si0+  Si115  1  0.42555780  0.82398071  0.31789202  1
  Si0+  Si116  1  0.42913111  0.32341739  0.65014070  1
  Si0+  Si117  1  0.57335962  0.17441197  0.31495943  1
  Si0+  Si118  1  0.67918631  0.42473774  0.68238657  1
  Si0+  Si119  1  0.17984547  0.42797033  0.01663559  1
  O2-  O120  1  0.24728269  0.00356904  0.05813516  1
  O2-  O121  1  0.24904171  0.00088737  0.39237709  1
  O2-  O122  1  0.24486986  0.00310438  0.72353418  1
  O2-  O123  1  0.24916816  0.50116171  0.05881067  1
  O2-  O124  1  0.24225011  0.50067757  0.39186759  1
  O2-  O125  1  0.25502564  0.49826363  0.73491203  1
  O2-  O126  1  0.75293314  -0.00427763  0.06488443  1
  O2-  O127  1  0.75126612  0.00728196  0.39607084  1
  O2-  O128  1  0.75094690  0.00715385  0.72602753  1
  O2-  O129  1  0.75728810  0.49975595  0.05806916  1
  O2-  O130  1  0.75738916  0.49098974  0.39759012  1
  O2-  O131  1  0.74948318  0.49122063  0.72693593  1
  O2-  O132  1  -0.00604209  0.25385320  0.27238088  1
  O2-  O133  1  0.00161084  0.25145942  0.60074394  1
  O2-  O134  1  -0.00501704  0.24655621  0.93639371  1
  O2-  O135  1  -0.00086966  0.73833872  0.27558574  1
  O2-  O136  1  -0.00201180  0.74798141  0.60790695  1
  O2-  O137  1  -0.00247819  0.74417073  0.93347036  1
  O2-  O138  1  0.51368654  0.25175247  0.27194374  1
  O2-  O139  1  0.50126342  0.25813858  0.60667774  1
  O2-  O140  1  0.50585252  0.24812659  0.94088193  1
  O2-  O141  1  0.49565285  0.75257701  0.27645868  1
  O2-  O142  1  0.50147318  0.74354912  0.60325896  1
  O2-  O143  1  0.50166741  0.76166535  0.94219852  1
  O2-  O144  1  0.07289564  0.18308918  0.09828359  1
  O2-  O145  1  0.07139561  0.18107952  0.43102424  1
  O2-  O146  1  0.06941896  0.17623699  0.76324071  1
  O2-  O147  1  0.07956469  0.68209775  0.09830384  1
  O2-  O148  1  0.07842455  0.68259374  0.42495411  1
  O2-  O149  1  0.07261944  0.68438751  0.75628503  1
  O2-  O150  1  0.56476940  0.17314910  0.09206238  1
  O2-  O151  1  0.56598430  0.16995089  0.42047751  1
  O2-  O152  1  0.56709361  0.17759551  0.76763556  1
  O2-  O153  1  0.56713686  0.67816687  0.10028010  1
  O2-  O154  1  0.56602393  0.68426486  0.42539409  1
  O2-  O155  1  0.57414979  0.68022706  0.75240105  1
  O2-  O156  1  0.18302784  0.42535212  0.24209875  1
  O2-  O157  1  0.18376520  0.42933107  0.56928001  1
  O2-  O158  1  0.18268528  0.42606498  0.91212615  1
  O2-  O159  1  0.18177927  0.92911794  0.24329665  1
  O2-  O160  1  0.17770078  0.92796385  0.57622345  1
  O2-  O161  1  0.18444925  0.92552609  0.91067353  1
  O2-  O162  1  0.67476972  0.43454798  0.23503514  1
  O2-  O163  1  0.67769386  0.42764186  0.57682153  1
  O2-  O164  1  0.67637585  0.43163501  0.89809895  1
  O2-  O165  1  0.67930809  0.92910191  0.23606149  1
  O2-  O166  1  0.67882515  0.93130178  0.56751229  1
  O2-  O167  1  0.67482814  0.93139103  0.90226775  1
  O2-  O168  1  0.42973132  0.32342687  0.09883751  1
  O2-  O169  1  0.43225916  0.31766224  0.43405671  1
  O2-  O170  1  0.42861130  0.32030240  0.75582060  1
  O2-  O171  1  0.42355062  0.82119140  0.09190614  1
  O2-  O172  1  0.42406995  0.82484638  0.42275313  1
  O2-  O173  1  0.43063598  0.82113337  0.76619211  1
  O2-  O174  1  0.92790584  0.32084299  0.10123152  1
  O2-  O175  1  0.92990414  0.32504292  0.42150696  1
  O2-  O176  1  0.92669180  0.32155358  0.76326537  1
  O2-  O177  1  0.92914766  0.81732006  0.09678854  1
  O2-  O178  1  0.92974153  0.81782780  0.43427702  1
  O2-  O179  1  0.92985427  0.82035803  0.75574350  1
  O2-  O180  1  0.31940237  0.07030200  0.24377607  1
  O2-  O181  1  0.32065510  0.06771856  0.57590859  1
  O2-  O182  1  0.32283120  0.07202525  0.91151206  1
  O2-  O183  1  0.32042642  0.57303744  0.23256471  1
  O2-  O184  1  0.31871239  0.57433746  0.57121198  1
  O2-  O185  1  0.31866682  0.57180771  0.91002676  1
  O2-  O186  1  0.82715125  0.06689802  0.24630305  1
  O2-  O187  1  0.82506168  0.06643520  0.57494040  1
  O2-  O188  1  0.81925039  0.07130134  0.90073211  1
  O2-  O189  1  0.81759490  0.57310933  0.23265475  1
  O2-  O190  1  0.81867176  0.57248236  0.56887477  1
  O2-  O191  1  0.82211321  0.57054208  0.90941852  1
  O2-  O192  1  0.04202243  0.08307757  0.26471761  1
  O2-  O193  1  0.04336432  0.07877391  0.59664939  1
  O2-  O194  1  0.05433809  0.07657238  0.93635600  1
  O2-  O195  1  0.05921853  0.57996501  0.27704899  1
  O2-  O196  1  0.04842035  0.58713326  0.60639493  1
  O2-  O197  1  0.05451517  0.57744583  0.93313894  1
  O2-  O198  1  0.53704570  0.08493949  0.26666162  1
  O2-  O199  1  0.53194809  0.08558943  0.59798509  1
  O2-  O200  1  0.53743144  0.08430452  0.93979183  1
  O2-  O201  1  0.53839372  0.59044426  0.27391470  1
  O2-  O202  1  0.55196164  0.58269042  0.60215792  1
  O2-  O203  1  0.53384739  0.58939598  0.92684590  1
  O2-  O204  1  0.16729130  0.20971319  0.26410384  1
  O2-  O205  1  0.17229218  0.20431359  0.59941262  1
  O2-  O206  1  0.16835770  0.21016811  0.93122810  1
  O2-  O207  1  0.16484864  0.71106994  0.27084705  1
  O2-  O208  1  0.16202540  0.71219902  0.60356696  1
  O2-  O209  1  0.16965069  0.71437553  0.92965934  1
  O2-  O210  1  0.67161623  0.18720053  0.27527868  1
  O2-  O211  1  0.66688061  0.20087310  0.59547888  1
  O2-  O212  1  0.66512323  0.19671675  0.94401417  1
  O2-  O213  1  0.65823659  0.71157186  0.27309708  1
  O2-  O214  1  0.66598840  0.70883837  0.60101226  1
  O2-  O215  1  0.66672242  0.70473413  0.92916186  1
  O2-  O216  1  0.08755570  0.45385994  0.06437155  1
  O2-  O217  1  0.08469032  0.44292474  0.39280129  1
  O2-  O218  1  0.08435803  0.45810735  0.73698443  1
  O2-  O219  1  0.08786733  0.95060291  0.06321549  1
  O2-  O220  1  0.08616803  0.95819112  0.39454863  1
  O2-  O221  1  0.08384777  0.95450418  0.72869530  1
  O2-  O222  1  0.58199683  0.46840964  0.06334215  1
  O2-  O223  1  0.58365944  0.46298803  0.40520078  1
  O2-  O224  1  0.58572894  0.45179236  0.72839446  1
  O2-  O225  1  0.57890649  0.95516192  0.07013783  1
  O2-  O226  1  0.58012134  0.95950201  0.40073900  1
  O2-  O227  1  0.57982218  0.96124732  0.73283482  1
  O2-  O228  1  0.21143104  0.33714064  0.06429656  1
  O2-  O229  1  0.21434294  0.33479809  0.39424326  1
  O2-  O230  1  0.20969738  0.32869861  0.73637107  1
  O2-  O231  1  0.21471315  0.83906178  0.06587039  1
  O2-  O232  1  0.20574185  0.83983430  0.39840052  1
  O2-  O233  1  0.20815481  0.83990564  0.73079516  1
  O2-  O234  1  0.69935605  0.33232181  0.06810347  1
  O2-  O235  1  0.69373260  0.32316417  0.39542082  1
  O2-  O236  1  0.70101549  0.32851814  0.72420924  1
  O2-  O237  1  0.70456100  0.82612907  0.06500045  1
  O2-  O238  1  0.71065418  0.83517083  0.40435076  1
  O2-  O239  1  0.70812373  0.83490899  0.73369686  1
  O2-  O240  1  0.46070295  0.42031124  0.26867635  1
  O2-  O241  1  0.45130282  0.41916143  0.60694327  1
  O2-  O242  1  0.45925628  0.41752761  0.92841457  1
  O2-  O243  1  0.45202719  0.91635202  0.27080689  1
  O2-  O244  1  0.45923513  0.91485501  0.59654153  1
  O2-  O245  1  0.44620846  0.92072168  0.94346607  1
  O2-  O246  1  0.95253300  0.41759019  0.26948027  1
  O2-  O247  1  0.96100802  0.42293913  0.59910158  1
  O2-  O248  1  0.95482514  0.41815351  0.93540001  1
  O2-  O249  1  0.96232374  0.91082321  0.26473010  1
  O2-  O250  1  0.95655896  0.91012796  0.60230599  1
  O2-  O251  1  0.96172509  0.91548768  0.92925655  1
  O2-  O252  1  0.34051205  0.28591183  0.26425054  1
  O2-  O253  1  0.33748467  0.29297739  0.60361130  1
  O2-  O254  1  0.33621894  0.28862636  0.93042356  1
  O2-  O255  1  0.33277438  0.79806574  0.27079563  1
  O2-  O256  1  0.33135453  0.79204524  0.59880892  1
  O2-  O257  1  0.33738035  0.79381183  0.93713901  1
  O2-  O258  1  0.83076057  0.29975428  0.27394081  1
  O2-  O259  1  0.83199153  0.29753474  0.59299063  1
  O2-  O260  1  0.82480214  0.29366832  0.93616790  1
  O2-  O261  1  0.82997861  0.78765954  0.26723377  1
  O2-  O262  1  0.83518036  0.78998401  0.60599777  1
  O2-  O263  1  0.82969383  0.79478777  0.92894623  1
  O2-  O264  1  0.40876471  0.04535734  0.06924795  1
  O2-  O265  1  0.41064236  0.04346126  0.39734466  1
  O2-  O266  1  0.40887858  0.03621889  0.73053860  1
  O2-  O267  1  0.41197866  0.54209408  0.06012266  1
  O2-  O268  1  0.41372275  0.54088587  0.40321914  1
  O2-  O269  1  0.42477973  0.55205454  0.73358330  1
  O2-  O270  1  0.92294987  0.04196831  0.06556838  1
  O2-  O271  1  0.91734114  0.03743883  0.39779769  1
  O2-  O272  1  0.91470753  0.04182258  0.72783057  1
  O2-  O273  1  0.91982882  0.55147587  0.05947714  1
  O2-  O274  1  0.92361799  0.54989639  0.39773468  1
  O2-  O275  1  0.91923067  0.54624606  0.73526182  1
  O2-  O276  1  0.29133964  0.16604650  0.06347044  1
  O2-  O277  1  0.29133392  0.16346844  0.39597488  1
  O2-  O278  1  0.29777159  0.16249975  0.72891049  1
  O2-  O279  1  0.29325590  0.66384989  0.06221436  1
  O2-  O280  1  0.29192152  0.67063104  0.40043939  1
  O2-  O281  1  0.29067486  0.67174096  0.73723171  1
  O2-  O282  1  0.79327492  0.16636611  0.07270037  1
  O2-  O283  1  0.80741758  0.16588401  0.39579498  1
  O2-  O284  1  0.80002187  0.16796287  0.72097590  1
  O2-  O285  1  0.79354859  0.66383851  0.05917672  1
  O2-  O286  1  0.78551538  0.66468537  0.40167997  1
  O2-  O287  1  0.78664978  0.66427395  0.73784886  1
