# generated using pymatgen
data_Ca2Al2SiO7
_symmetry_space_group_name_H-M   'P 1'
_cell_length_a   15.45522983
_cell_length_b   15.45566198
_cell_length_c   15.28204807
_cell_angle_alpha   89.99486172
_cell_angle_beta   90.00806411
_cell_angle_gamma   90.00335240
_symmetry_Int_Tables_number   1
_chemical_formula_structural   Ca2Al2SiO7
_chemical_formula_sum   'Ca48 Al48 Si24 O168'
_cell_volume   3650.43511523
_cell_formula_units_Z   24
loop_
 _symmetry_equiv_pos_site_id
 _symmetry_equiv_pos_as_xyz
  1  'x, y, z'
loop_
 _atom_type_symbol
 _atom_type_oxidation_number
  Ca2+  2.0
  Al0+  0.0
  Si0+  0.0
  O2-  -2.0
loop_
 _atom_site_type_symbol
 _atom_site_label
 _atom_site_symmetry_multiplicity
 _atom_site_fract_x
 _atom_site_fract_y
 _atom_site_fract_z
 _atom_site_occupancy
  Ca2+  Ca0  1  0.16702265  0.07750437  0.16545288  1
  Ca2+  Ca1  1  0.16679205  0.07978809  0.50336908  1
  Ca2+  Ca2  1  0.16917903  0.08145415  0.84211881  1
  Ca2+  Ca3  1  0.17647735  0.57939708  0.17429353  1
  Ca2+  Ca4  1  0.16508054  0.56869620  0.50684131  1
  Ca2+  Ca5  1  0.17297432  0.57829389  0.83757713  1
  Ca2+  Ca6  1  0.67859268  0.08755005  0.17397237  1
  Ca2+  Ca7  1  0.67465658  0.08437058  0.51053725  1
  Ca2+  Ca8  1  0.67355517  0.08108276  0.83447153  1
  Ca2+  Ca9  1  0.65644880  0.57960471  0.16732278  1
  Ca2+  Ca10  1  0.66500468  0.58140391  0.50999858  1
  Ca2+  Ca11  1  0.65993392  0.57820511  0.83465438  1
  Ca2+  Ca12  1  0.08281033  0.32842384  0.16085809  1
  Ca2+  Ca13  1  0.08710572  0.33051011  0.49807298  1
  Ca2+  Ca14  1  0.08594121  0.32059949  0.82487391  1
  Ca2+  Ca15  1  0.08081567  0.84653861  0.16580040  1
  Ca2+  Ca16  1  0.06983484  0.83759633  0.49449404  1
  Ca2+  Ca17  1  0.07786605  0.83720361  0.82709989  1
  Ca2+  Ca18  1  0.58051183  0.33047953  0.16514621  1
  Ca2+  Ca19  1  0.58658563  0.32456135  0.49500782  1
  Ca2+  Ca20  1  0.58728720  0.33086898  0.82759681  1
  Ca2+  Ca21  1  0.58581178  0.81944950  0.16144564  1
  Ca2+  Ca22  1  0.58769833  0.82609189  0.50031412  1
  Ca2+  Ca23  1  0.57967890  0.82560876  0.82021723  1
  Ca2+  Ca24  1  0.33238224  0.41907826  0.17210120  1
  Ca2+  Ca25  1  0.32673710  0.40840481  0.50063582  1
  Ca2+  Ca26  1  0.33005790  0.42132470  0.83677719  1
  Ca2+  Ca27  1  0.32256388  0.92043595  0.16936357  1
  Ca2+  Ca28  1  0.32955373  0.91135594  0.50426227  1
  Ca2+  Ca29  1  0.33059752  0.92189887  0.84209524  1
  Ca2+  Ca30  1  0.82557305  0.41646364  0.16793171  1
  Ca2+  Ca31  1  0.82607421  0.42756544  0.51244630  1
  Ca2+  Ca32  1  0.82030754  0.42042123  0.83239519  1
  Ca2+  Ca33  1  0.83749387  0.92813547  0.17290382  1
  Ca2+  Ca34  1  0.83025388  0.92239337  0.50749916  1
  Ca2+  Ca35  1  0.83125957  0.92286025  0.83030676  1
  Ca2+  Ca36  1  0.41515150  0.17097010  0.16511561  1
  Ca2+  Ca37  1  0.43345698  0.17056653  0.49425398  1
  Ca2+  Ca38  1  0.42210948  0.16457891  0.82491679  1
  Ca2+  Ca39  1  0.42460823  0.66126840  0.16038047  1
  Ca2+  Ca40  1  0.42802781  0.66998344  0.49932831  1
  Ca2+  Ca41  1  0.42199314  0.67090005  0.82837850  1
  Ca2+  Ca42  1  0.92026709  0.16082964  0.15936178  1
  Ca2+  Ca43  1  0.91931482  0.15867351  0.49898397  1
  Ca2+  Ca44  1  0.92507951  0.15739046  0.82871836  1
  Ca2+  Ca45  1  0.91902646  0.67655004  0.16456697  1
  Ca2+  Ca46  1  0.90481291  0.68057271  0.49886834  1
  Ca2+  Ca47  1  0.91493345  0.67322597  0.82311470  1
  Al0+  Al48  1  -0.00097648  0.00099866  0.00125902  1
  Al0+  Al49  1  0.00037594  0.00060694  0.33702321  1
  Al0+  Al50  1  0.00146985  -0.00053334  0.66114153  1
  Al0+  Al51  1  -0.00330012  0.50061938  -0.00176733  1
  Al0+  Al52  1  0.00065159  0.50067404  0.33602889  1
  Al0+  Al53  1  0.00055209  0.49748508  0.67728625  1
  Al0+  Al54  1  0.50022790  -0.00025377  0.00582477  1
  Al0+  Al55  1  0.50155732  -0.00182868  0.32765109  1
  Al0+  Al56  1  0.49924812  0.00072714  0.66096082  1
  Al0+  Al57  1  0.49942424  0.49849639  0.00309000  1
  Al0+  Al58  1  0.49899443  0.49937182  0.32841680  1
  Al0+  Al59  1  0.49642521  0.50037272  0.66594285  1
  Al0+  Al60  1  0.24984019  0.24947546  -0.00121932  1
  Al0+  Al61  1  0.25082462  0.24933190  0.33283597  1
  Al0+  Al62  1  0.24902725  0.24800811  0.66585589  1
  Al0+  Al63  1  0.24928244  0.74874848  0.00880100  1
  Al0+  Al64  1  0.25044759  0.74886770  0.33992705  1
  Al0+  Al65  1  0.24861257  0.74831245  0.66238795  1
  Al0+  Al66  1  0.74926635  0.25209479  0.00763186  1
  Al0+  Al67  1  0.75255343  0.25146071  0.33431181  1
  Al0+  Al68  1  0.75355472  0.25189356  0.67094219  1
  Al0+  Al69  1  0.75098073  0.74849697  -0.00528895  1
  Al0+  Al70  1  0.75143415  0.75193756  0.32089468  1
  Al0+  Al71  1  0.75003950  0.75159754  0.66638058  1
  Al0+  Al72  1  0.42599860  0.82317621  0.65240141  1
  Al0+  Al73  1  0.67963098  0.43131545  0.01640896  1
  Al0+  Al74  1  0.56986390  0.68083472  0.31810151  1
  Al0+  Al75  1  0.93032141  0.81966289  0.65330344  1
  Al0+  Al76  1  0.18068889  0.92991438  0.35051599  1
  Al0+  Al77  1  0.81823562  0.06869088  0.01356216  1
  Al0+  Al78  1  0.06889087  0.18098126  0.98671871  1
  Al0+  Al79  1  0.32442264  0.07371964  0.01526126  1
  Al0+  Al80  1  0.17889445  0.42856628  0.34643846  1
  Al0+  Al81  1  0.31963204  0.56914290  0.01359097  1
  Al0+  Al82  1  0.17854366  0.92955077  0.01327719  1
  Al0+  Al83  1  0.07091872  0.17918437  0.65074245  1
  Al0+  Al84  1  0.17993712  0.42606693  0.68251523  1
  Al0+  Al85  1  0.42892495  0.31862315  0.31724184  1
  Al0+  Al86  1  0.82341983  0.07094693  0.68211207  1
  Al0+  Al87  1  0.57394364  0.18099686  0.65626897  1
  Al0+  Al88  1  0.82028904  0.57385838  0.68117372  1
  Al0+  Al89  1  0.81959485  0.07170513  0.34879089  1
  Al0+  Al90  1  0.67548539  0.42927859  0.67988765  1
  Al0+  Al91  1  0.57523072  0.17779874  0.31672820  1
  Al0+  Al92  1  0.67614590  0.92992206  0.68007311  1
  Al0+  Al93  1  0.56946007  0.67826678  0.98354662  1
  Al0+  Al94  1  0.93212816  0.82174276  0.31733234  1
  Al0+  Al95  1  0.57020352  0.67842392  0.65222624  1
  Si0+  Si96  1  0.93155078  0.82089040  0.98360649  1
  Si0+  Si97  1  0.17945493  0.92805832  0.67959101  1
  Si0+  Si98  1  0.67838892  0.92568368  0.34724672  1
  Si0+  Si99  1  0.32438794  0.57072982  0.35303495  1
  Si0+  Si100  1  0.67904266  0.43137706  0.34792639  1
  Si0+  Si101  1  0.57256113  0.17859985  0.98601852  1
  Si0+  Si102  1  0.92995590  0.32493485  0.31900852  1
  Si0+  Si103  1  0.06980898  0.18004379  0.31796161  1
  Si0+  Si104  1  0.42377637  0.82202425  0.31412234  1
  Si0+  Si105  1  0.07271974  0.67674852  0.98612539  1
  Si0+  Si106  1  0.07275915  0.67630494  0.31783501  1
  Si0+  Si107  1  0.82105924  0.57273813  0.34536800  1
  Si0+  Si108  1  0.42666540  0.32168690  0.65188222  1
  Si0+  Si109  1  0.32053875  0.06969346  0.67870589  1
  Si0+  Si110  1  0.42925720  0.31967471  0.98404281  1
  Si0+  Si111  1  0.17610623  0.42755629  0.01548559  1
  Si0+  Si112  1  0.32421152  0.07197975  0.35156805  1
  Si0+  Si113  1  0.92488643  0.32405434  0.98195001  1
  Si0+  Si114  1  0.92977180  0.32348242  0.65017652  1
  Si0+  Si115  1  0.07221526  0.67424312  0.65103819  1
  Si0+  Si116  1  0.31990040  0.57327564  0.68312523  1
  Si0+  Si117  1  0.42667015  0.82212405  0.98625243  1
  Si0+  Si118  1  0.82349802  0.57474042  0.01913635  1
  Si0+  Si119  1  0.67749517  0.92482191  0.01690344  1
  O2-  O120  1  0.25208664  0.00058667  0.06276199  1
  O2-  O121  1  0.25912815  0.00050223  0.39751443  1
  O2-  O122  1  0.25323026  -0.00458456  0.72163076  1
  O2-  O123  1  0.24223438  0.49737712  0.06110427  1
  O2-  O124  1  0.25328327  0.50292732  0.39489601  1
  O2-  O125  1  0.25276645  0.50282846  0.72759525  1
  O2-  O126  1  0.74313726  -0.00420361  0.06236787  1
  O2-  O127  1  0.74006940  0.00054545  0.39177543  1
  O2-  O128  1  0.74741893  0.00252448  0.73100848  1
  O2-  O129  1  0.75366045  0.50720035  0.06345349  1
  O2-  O130  1  0.74842179  0.50424481  0.38871121  1
  O2-  O131  1  0.74420820  0.50501162  0.72981889  1
  O2-  O132  1  -0.00029143  0.25253193  0.27663948  1
  O2-  O133  1  -0.00380317  0.25364992  0.60366035  1
  O2-  O134  1  -0.00395520  0.25721287  0.93888705  1
  O2-  O135  1  0.00945294  0.74880647  0.27085105  1
  O2-  O136  1  0.00140946  0.74060191  0.60683266  1
  O2-  O137  1  0.00202856  0.74790929  0.94319149  1
  O2-  O138  1  0.50043131  0.24674832  0.26557213  1
  O2-  O139  1  0.50239009  0.25944306  0.60996819  1
  O2-  O140  1  0.49714975  0.24495630  0.94319551  1
  O2-  O141  1  0.49406742  0.75452459  0.27045662  1
  O2-  O142  1  0.50057002  0.75324225  0.60286404  1
  O2-  O143  1  0.49748677  0.75694039  0.93995322  1
  O2-  O144  1  0.06709354  0.18181386  0.10034213  1
  O2-  O145  1  0.06997937  0.18050854  0.42304792  1
  O2-  O146  1  0.07266980  0.17826666  0.76391606  1
  O2-  O147  1  0.07028080  0.67364344  0.09111879  1
  O2-  O148  1  0.06834126  0.67354294  0.42300548  1
  O2-  O149  1  0.07519797  0.67853137  0.75715059  1
  O2-  O150  1  0.57416927  0.18204151  0.09084033  1
  O2-  O151  1  0.57659816  0.18175794  0.43042860  1
  O2-  O152  1  0.56977761  0.17993842  0.76997399  1
  O2-  O153  1  0.56735828  0.67885604  0.09703933  1
  O2-  O154  1  0.57138182  0.68017152  0.43073149  1
  O2-  O155  1  0.56573983  0.67776121  0.76580076  1
  O2-  O156  1  0.17760642  0.43124890  0.23315020  1
  O2-  O157  1  0.18203597  0.42633068  0.56912985  1
  O2-  O158  1  0.17917572  0.42778506  0.91002983  1
  O2-  O159  1  0.17973731  0.93434079  0.23749747  1
  O2-  O160  1  0.17919551  0.93036352  0.57455816  1
  O2-  O161  1  0.17851233  0.92998865  0.89923190  1
  O2-  O162  1  0.68043707  0.43138998  0.24261352  1
  O2-  O163  1  0.67823583  0.42890236  0.56575000  1
  O2-  O164  1  0.67962457  0.43011981  0.90377320  1
  O2-  O165  1  0.68345407  0.92350223  0.24134844  1
  O2-  O166  1  0.67816467  0.93031434  0.56617475  1
  O2-  O167  1  0.67779633  0.92561066  0.91159811  1
  O2-  O168  1  0.42961762  0.32056465  0.08897993  1
  O2-  O169  1  0.43047884  0.31784327  0.43094154  1
  O2-  O170  1  0.42347825  0.31873178  0.75783391  1
  O2-  O171  1  0.42714526  0.81978237  0.09187080  1
  O2-  O172  1  0.42321988  0.82026396  0.41951883  1
  O2-  O173  1  0.42228651  0.82122695  0.76632921  1
  O2-  O174  1  0.92675075  0.32511562  0.08828510  1
  O2-  O175  1  0.93013268  0.32815518  0.42360859  1
  O2-  O176  1  0.93201898  0.32352657  0.75572324  1
  O2-  O177  1  0.93266807  0.82105020  0.08895140  1
  O2-  O178  1  0.92980953  0.81994950  0.42998968  1
  O2-  O179  1  0.93520318  0.82190290  0.76680422  1
  O2-  O180  1  0.32007837  0.07288144  0.24599760  1
  O2-  O181  1  0.31810223  0.07174738  0.57380173  1
  O2-  O182  1  0.32519303  0.07292997  0.90114553  1
  O2-  O183  1  0.32328168  0.57000298  0.24704651  1
  O2-  O184  1  0.31861159  0.57374538  0.57768484  1
  O2-  O185  1  0.31756909  0.56775154  0.90051776  1
  O2-  O186  1  0.82237502  0.07010962  0.23520680  1
  O2-  O187  1  0.82327106  0.06828527  0.56846364  1
  O2-  O188  1  0.81968800  0.06677977  0.90103612  1
  O2-  O189  1  0.82309292  0.56934922  0.24018316  1
  O2-  O190  1  0.82061450  0.57154664  0.56668918  1
  O2-  O191  1  0.82586551  0.57507125  0.91416282  1
  O2-  O192  1  0.03910080  0.08917202  0.27115212  1
  O2-  O193  1  0.04091746  0.08364368  0.59473563  1
  O2-  O194  1  0.03632923  0.08446505  0.93313064  1
  O2-  O195  1  0.04312208  0.58462392  0.26894818  1
  O2-  O196  1  0.04913909  0.57817476  0.60979708  1
  O2-  O197  1  0.04573675  0.58506479  0.93700287  1
  O2-  O198  1  0.55328429  0.07700225  0.26550211  1
  O2-  O199  1  0.53995311  0.08743657  0.59887014  1
  O2-  O200  1  0.54945395  0.08389397  0.94204557  1
  O2-  O201  1  0.53817056  0.58427800  0.26405543  1
  O2-  O202  1  0.53876741  0.58063696  0.59810341  1
  O2-  O203  1  0.53483852  0.58132657  0.93325200  1
  O2-  O204  1  0.16192195  0.20658296  0.27108383  1
  O2-  O205  1  0.16695141  0.21136629  0.59595825  1
  O2-  O206  1  0.16676935  0.20895996  0.93272382  1
  O2-  O207  1  0.16938232  0.69712131  0.27607502  1
  O2-  O208  1  0.16414482  0.69943594  0.60196823  1
  O2-  O209  1  0.16549030  0.70382164  0.94044830  1
  O2-  O210  1  0.67278624  0.21212208  0.26416535  1
  O2-  O211  1  0.67177599  0.20947178  0.60349650  1
  O2-  O212  1  0.66314730  0.21210181  0.93990167  1
  O2-  O213  1  0.66502766  0.71059611  0.25974246  1
  O2-  O214  1  0.66949496  0.70438268  0.60051422  1
  O2-  O215  1  0.66863520  0.70350527  0.93218396  1
  O2-  O216  1  0.08022922  0.45012878  0.05824770  1
  O2-  O217  1  0.08283593  0.45990631  0.40226551  1
  O2-  O218  1  0.08463046  0.45338917  0.73972935  1
  O2-  O219  1  0.08226415  0.96276549  0.06792785  1
  O2-  O220  1  0.08564103  0.96526593  0.40418660  1
  O2-  O221  1  0.08941115  0.95988603  0.72708421  1
  O2-  O222  1  0.58353514  0.46156594  0.07132566  1
  O2-  O223  1  0.58600175  0.45721927  0.39277014  1
  O2-  O224  1  0.57497461  0.45237178  0.73183830  1
  O2-  O225  1  0.58312643  0.94526929  0.06337572  1
  O2-  O226  1  0.58088334  0.94103437  0.38842351  1
  O2-  O227  1  0.57659808  0.95683746  0.73212575  1
  O2-  O228  1  0.20370242  0.33486792  0.06152519  1
  O2-  O229  1  0.20963776  0.33156298  0.39997454  1
  O2-  O230  1  0.21374054  0.33020276  0.73630856  1
  O2-  O231  1  0.20217038  0.83145882  0.06960232  1
  O2-  O232  1  0.20463207  0.83075239  0.40338500  1
  O2-  O233  1  0.20130791  0.83372954  0.72479733  1
  O2-  O234  1  0.71222136  0.33687412  0.07414166  1
  O2-  O235  1  0.70968548  0.34059405  0.39485551  1
  O2-  O236  1  0.70933330  0.33397353  0.73624330  1
  O2-  O237  1  0.70733568  0.83141755  0.06146713  1
  O2-  O238  1  0.71202612  0.83377216  0.39218054  1
  O2-  O239  1  0.70576166  0.83245292  0.73346479  1
  O2-  O240  1  0.45665815  0.41697514  0.26357189  1
  O2-  O241  1  0.44227082  0.41740258  0.60712896  1
  O2-  O242  1  0.46072129  0.41001917  0.93645679  1
  O2-  O243  1  0.44539428  0.91665514  0.26859746  1
  O2-  O244  1  0.44973531  0.92128623  0.59679597  1
  O2-  O245  1  0.44850882  0.91807901  0.94278258  1
  O2-  O246  1  0.95902371  0.41550212  0.26880327  1
  O2-  O247  1  0.95812467  0.41707524  0.60497300  1
  O2-  O248  1  0.94614156  0.41894617  0.93637859  1
  O2-  O249  1  0.96542071  0.91869723  0.26464388  1
  O2-  O250  1  0.96613585  0.91288743  0.59633843  1
  O2-  O251  1  0.96168820  0.91159166  0.93618727  1
  O2-  O252  1  0.33000208  0.29083903  0.26314285  1
  O2-  O253  1  0.33684883  0.28800367  0.60317721  1
  O2-  O254  1  0.33629602  0.29614131  0.93657770  1
  O2-  O255  1  0.32968356  0.79441405  0.26950502  1
  O2-  O256  1  0.32894094  0.79117940  0.59675418  1
  O2-  O257  1  0.33251695  0.79410798  0.94221890  1
  O2-  O258  1  0.83820892  0.29819112  0.27087824  1
  O2-  O259  1  0.83532567  0.30156238  0.60466173  1
  O2-  O260  1  0.83122300  0.29565144  0.93870650  1
  O2-  O261  1  0.83876006  0.78970201  0.25783554  1
  O2-  O262  1  0.83346597  0.79266941  0.59827450  1
  O2-  O263  1  0.83969715  0.79396573  0.93631222  1
  O2-  O264  1  0.42217717  0.04785559  0.07139172  1
  O2-  O265  1  0.42076111  0.04974606  0.39309337  1
  O2-  O266  1  0.41285651  0.04553851  0.72626459  1
  O2-  O267  1  0.41356468  0.53413190  0.06939809  1
  O2-  O268  1  0.41698984  0.54120981  0.39861532  1
  O2-  O269  1  0.41299161  0.54834247  0.72989572  1
  O2-  O270  1  0.91383428  0.03585496  0.06841422  1
  O2-  O271  1  0.91521005  0.03800838  0.40201536  1
  O2-  O272  1  0.92141442  0.03593535  0.73301750  1
  O2-  O273  1  0.91688658  0.54775149  0.06633707  1
  O2-  O274  1  0.91162546  0.54468182  0.39434875  1
  O2-  O275  1  0.91710081  0.54373828  0.73730640  1
  O2-  O276  1  0.29311993  0.17156025  0.06810006  1
  O2-  O277  1  0.29472486  0.16423847  0.39768294  1
  O2-  O278  1  0.28974972  0.15951216  0.72815076  1
  O2-  O279  1  0.29140653  0.66419900  0.07195481  1
  O2-  O280  1  0.30160537  0.66455800  0.39887499  1
  O2-  O281  1  0.29116040  0.66572986  0.73059791  1
  O2-  O282  1  0.79107039  0.16596734  0.06836389  1
  O2-  O283  1  0.79534200  0.17088821  0.40125267  1
  O2-  O284  1  0.80225828  0.17098158  0.73381762  1
  O2-  O285  1  0.79910508  0.66930127  0.06404555  1
  O2-  O286  1  0.79354590  0.66662533  0.38785208  1
  O2-  O287  1  0.79768016  0.67311405  0.73377764  1
