# generated using pymatgen
data_Ca2Al2SiO7
_symmetry_space_group_name_H-M   'P 1'
_cell_length_a   15.45939365
_cell_length_b   15.45867303
_cell_length_c   15.28479083
_cell_angle_alpha   89.99180728
_cell_angle_beta   90.00439667
_cell_angle_gamma   90.01735996
_symmetry_Int_Tables_number   1
_chemical_formula_structural   Ca2Al2SiO7
_chemical_formula_sum   'Ca48 Al48 Si24 O168'
_cell_volume   3652.78526016
_cell_formula_units_Z   24
loop_
 _symmetry_equiv_pos_site_id
 _symmetry_equiv_pos_as_xyz
  1  'x, y, z'
loop_
 _atom_type_symbol
 _atom_type_oxidation_number
  Ca2+  2.0
  Al0+  0.0
  Si0+  0.0
  O2-  -2.0
loop_
 _atom_site_type_symbol
 _atom_site_label
 _atom_site_symmetry_multiplicity
 _atom_site_fract_x
 _atom_site_fract_y
 _atom_site_fract_z
 _atom_site_occupancy
  Ca2+  Ca0  1  0.16278756  0.07713849  0.17837683  1
  Ca2+  Ca1  1  0.16617182  0.08274475  0.50330791  1
  Ca2+  Ca2  1  0.17306158  0.09179628  0.83160406  1
  Ca2+  Ca3  1  0.17808121  0.58205173  0.17131834  1
  Ca2+  Ca4  1  0.17003542  0.57985005  0.50701417  1
  Ca2+  Ca5  1  0.16380184  0.57305033  0.83779987  1
  Ca2+  Ca6  1  0.67488490  0.07621769  0.18084636  1
  Ca2+  Ca7  1  0.66838587  0.07939969  0.50780581  1
  Ca2+  Ca8  1  0.66769319  0.08178384  0.83022458  1
  Ca2+  Ca9  1  0.67275564  0.57812056  0.17681809  1
  Ca2+  Ca10  1  0.67540034  0.58439829  0.49752628  1
  Ca2+  Ca11  1  0.67774907  0.57788429  0.83982326  1
  Ca2+  Ca12  1  0.08608842  0.32901242  0.16631084  1
  Ca2+  Ca13  1  0.08459434  0.32429573  0.49778349  1
  Ca2+  Ca14  1  0.08539309  0.33531392  0.82310602  1
  Ca2+  Ca15  1  0.07057535  0.83551571  0.16481737  1
  Ca2+  Ca16  1  0.07741175  0.82984225  0.49151429  1
  Ca2+  Ca17  1  0.07502616  0.82204531  0.82715131  1
  Ca2+  Ca18  1  0.58612843  0.33786210  0.16780253  1
  Ca2+  Ca19  1  0.58185718  0.32379804  0.48716344  1
  Ca2+  Ca20  1  0.58373948  0.33039509  0.82791462  1
  Ca2+  Ca21  1  0.59308425  0.82466856  0.16977282  1
  Ca2+  Ca22  1  0.58885552  0.83237034  0.49275702  1
  Ca2+  Ca23  1  0.58335648  0.83351771  0.82645930  1
  Ca2+  Ca24  1  0.33302143  0.42268836  0.17131692  1
  Ca2+  Ca25  1  0.33284581  0.41628357  0.49907452  1
  Ca2+  Ca26  1  0.31911166  0.41907309  0.83953966  1
  Ca2+  Ca27  1  0.32190006  0.91660605  0.17458658  1
  Ca2+  Ca28  1  0.32674398  0.92210735  0.50317810  1
  Ca2+  Ca29  1  0.33336119  0.92479501  0.83216347  1
  Ca2+  Ca30  1  0.82384500  0.42760825  0.17306935  1
  Ca2+  Ca31  1  0.83169075  0.42471875  0.50109664  1
  Ca2+  Ca32  1  0.83259554  0.42877602  0.84012007  1
  Ca2+  Ca33  1  0.83525285  0.91844702  0.17937962  1
  Ca2+  Ca34  1  0.82617536  0.92477148  0.49804530  1
  Ca2+  Ca35  1  0.83379499  0.91992229  0.83099746  1
  Ca2+  Ca36  1  0.42367872  0.17342463  0.17028643  1
  Ca2+  Ca37  1  0.42560988  0.16909985  0.49385735  1
  Ca2+  Ca38  1  0.42244700  0.16790197  0.82086052  1
  Ca2+  Ca39  1  0.42098074  0.65595158  0.16722284  1
  Ca2+  Ca40  1  0.42404703  0.66552339  0.48793428  1
  Ca2+  Ca41  1  0.41496936  0.66546740  0.83196198  1
  Ca2+  Ca42  1  0.91949576  0.16331328  0.16877032  1
  Ca2+  Ca43  1  0.92377738  0.15474542  0.49471283  1
  Ca2+  Ca44  1  0.92295445  0.17116022  0.82297482  1
  Ca2+  Ca45  1  0.90363952  0.67712904  0.16434922  1
  Ca2+  Ca46  1  0.91645384  0.66777964  0.49479200  1
  Ca2+  Ca47  1  0.91339869  0.66700145  0.82690630  1
  Al0+  Al48  1  0.00049883  -0.00106638  -0.00862220  1
  Al0+  Al49  1  0.00036299  -0.00292804  0.33350134  1
  Al0+  Al50  1  -0.00154446  -0.00161743  0.66783816  1
  Al0+  Al51  1  0.00019646  0.49953830  0.01028916  1
  Al0+  Al52  1  0.00237666  0.49880281  0.33461115  1
  Al0+  Al53  1  0.00053989  0.50095999  0.66907895  1
  Al0+  Al54  1  0.50044496  -0.00030604  0.00012794  1
  Al0+  Al55  1  0.49760922  -0.00010164  0.32969124  1
  Al0+  Al56  1  0.49814240  -0.00011493  0.67018812  1
  Al0+  Al57  1  0.49911934  0.49790453  0.00016524  1
  Al0+  Al58  1  0.49946141  0.49998387  0.33356915  1
  Al0+  Al59  1  0.49973324  0.50163919  0.66616593  1
  Al0+  Al60  1  0.25330344  0.24953624  0.00375346  1
  Al0+  Al61  1  0.25070130  0.24947716  0.32367309  1
  Al0+  Al62  1  0.24940927  0.25088825  0.66983724  1
  Al0+  Al63  1  0.25000339  0.75203986  0.00057866  1
  Al0+  Al64  1  0.24954050  0.74898549  0.34137599  1
  Al0+  Al65  1  0.24956766  0.75080411  0.66358693  1
  Al0+  Al66  1  0.75251156  0.24790735  0.00088125  1
  Al0+  Al67  1  0.75387756  0.25053337  0.33522581  1
  Al0+  Al68  1  0.75005468  0.24994785  0.66622423  1
  Al0+  Al69  1  0.74818235  0.75241739  -0.00592179  1
  Al0+  Al70  1  0.75006762  0.75129573  0.33303960  1
  Al0+  Al71  1  0.74837394  0.75053303  0.67390860  1
  Al0+  Al72  1  0.43064810  0.32114520  0.31671207  1
  Al0+  Al73  1  0.18140142  0.43104037  0.67764494  1
  Al0+  Al74  1  0.56980611  0.68166934  0.32053521  1
  Al0+  Al75  1  0.57517396  0.17684527  0.31779106  1
  Al0+  Al76  1  0.82013964  0.57463032  0.01612225  1
  Al0+  Al77  1  0.57096137  0.17958207  0.65366738  1
  Al0+  Al78  1  0.07092486  0.17912256  0.65370663  1
  Al0+  Al79  1  0.82284037  0.07285660  0.68349408  1
  Al0+  Al80  1  0.17775805  0.42612429  0.01803055  1
  Al0+  Al81  1  0.67815904  0.93036676  0.68319183  1
  Al0+  Al82  1  0.67667847  0.93003079  0.34605309  1
  Al0+  Al83  1  0.31799837  0.06991186  0.67833102  1
  Al0+  Al84  1  0.81998296  0.56951422  0.68043684  1
  Al0+  Al85  1  0.32048565  0.56939939  0.34897370  1
  Al0+  Al86  1  0.67985471  0.42633058  0.01376432  1
  Al0+  Al87  1  0.06852182  0.17925001  0.32028588  1
  Al0+  Al88  1  0.67837040  0.42853234  0.34954143  1
  Al0+  Al89  1  0.93142657  0.81693580  0.32185947  1
  Al0+  Al90  1  0.92744708  0.82076299  0.98290002  1
  Al0+  Al91  1  0.31987540  0.57267327  0.01415063  1
  Al0+  Al92  1  0.17821311  0.92877164  0.34678609  1
  Al0+  Al93  1  0.07028765  0.67796896  0.65304977  1
  Al0+  Al94  1  0.82224185  0.07166238  0.34638303  1
  Al0+  Al95  1  0.82224971  0.57277166  0.34878792  1
  Si0+  Si96  1  0.42933637  0.32035537  0.98200670  1
  Si0+  Si97  1  0.42794996  0.32284085  0.65152439  1
  Si0+  Si98  1  0.32047549  0.07316290  0.34818324  1
  Si0+  Si99  1  0.42407825  0.82232114  0.31659129  1
  Si0+  Si100  1  0.17655194  0.92543888  0.68493988  1
  Si0+  Si101  1  0.67736537  0.93097542  0.01500448  1
  Si0+  Si102  1  0.07247505  0.17920596  0.98431784  1
  Si0+  Si103  1  0.32354780  0.07094124  0.01649667  1
  Si0+  Si104  1  0.93009424  0.32054258  0.98647517  1
  Si0+  Si105  1  0.92590897  0.82046129  0.64818202  1
  Si0+  Si106  1  0.07495048  0.67530895  0.31653788  1
  Si0+  Si107  1  0.92794383  0.32313565  0.65091164  1
  Si0+  Si108  1  0.57057196  0.67979463  0.65264074  1
  Si0+  Si109  1  0.07321673  0.67843164  0.98567877  1
  Si0+  Si110  1  0.56899356  0.67855463  0.98344208  1
  Si0+  Si111  1  0.82309803  0.06862506  0.01398914  1
  Si0+  Si112  1  0.67581797  0.42756664  0.68214819  1
  Si0+  Si113  1  0.32395538  0.57481968  0.68292008  1
  Si0+  Si114  1  0.42852197  0.82178081  0.65147301  1
  Si0+  Si115  1  0.17938216  0.93221942  0.01263042  1
  Si0+  Si116  1  0.57152384  0.17756006  0.98386322  1
  Si0+  Si117  1  0.17913034  0.42508344  0.35104818  1
  Si0+  Si118  1  0.42737197  0.82288984  0.98388186  1
  Si0+  Si119  1  0.92832019  0.32588862  0.31511551  1
  O2-  O120  1  0.24889552  0.00351259  0.05733753  1
  O2-  O121  1  0.25367934  0.00295942  0.39232321  1
  O2-  O122  1  0.24168588  -0.00197993  0.72901908  1
  O2-  O123  1  0.24823539  0.50104783  0.06503803  1
  O2-  O124  1  0.24499072  0.49600137  0.39560858  1
  O2-  O125  1  0.25469193  0.50667261  0.72588673  1
  O2-  O126  1  0.75208508  -0.00210799  0.05596326  1
  O2-  O127  1  0.74056725  0.00971663  0.39476893  1
  O2-  O128  1  0.74979201  0.00222932  0.73471577  1
  O2-  O129  1  0.74742092  0.50228279  0.06354719  1
  O2-  O130  1  0.75219661  0.49895371  0.39884739  1
  O2-  O131  1  0.74591966  0.49413455  0.72711044  1
  O2-  O132  1  -0.00491803  0.25393646  0.27174090  1
  O2-  O133  1  -0.00836978  0.24896478  0.60749761  1
  O2-  O134  1  0.00595300  0.25460198  0.94290741  1
  O2-  O135  1  0.00263714  0.73975150  0.27200590  1
  O2-  O136  1  -0.00306934  0.75335064  0.60575144  1
  O2-  O137  1  -0.00155779  0.74019149  0.93996383  1
  O2-  O138  1  0.50670483  0.25228259  0.26652613  1
  O2-  O139  1  0.50033193  0.25819701  0.60808029  1
  O2-  O140  1  0.50205310  0.25021079  0.94082781  1
  O2-  O141  1  0.49527135  0.75660366  0.27162302  1
  O2-  O142  1  0.49707194  0.74833941  0.61077241  1
  O2-  O143  1  0.49633091  0.74938255  0.94199767  1
  O2-  O144  1  0.06970745  0.17448551  0.08913745  1
  O2-  O145  1  0.06993081  0.18029388  0.43325962  1
  O2-  O146  1  0.07265626  0.18429872  0.76758535  1
  O2-  O147  1  0.07884815  0.68525744  0.09060330  1
  O2-  O148  1  0.07580340  0.67753991  0.42222419  1
  O2-  O149  1  0.06995931  0.67870468  0.76678001  1
  O2-  O150  1  0.56968711  0.17440990  0.08822571  1
  O2-  O151  1  0.56927225  0.17546373  0.43135926  1
  O2-  O152  1  0.56755380  0.18076799  0.76786489  1
  O2-  O153  1  0.56999598  0.68042496  0.08820931  1
  O2-  O154  1  0.56893307  0.68361673  0.43399410  1
  O2-  O155  1  0.56810400  0.67944924  0.75822436  1
  O2-  O156  1  0.18080659  0.42547565  0.24547360  1
  O2-  O157  1  0.18364021  0.42973268  0.56508100  1
  O2-  O158  1  0.17945894  0.42444952  0.90399940  1
  O2-  O159  1  0.17855686  0.93079006  0.23265362  1
  O2-  O160  1  0.17969029  0.92380231  0.57972209  1
  O2-  O161  1  0.18195031  0.93327997  0.90762805  1
  O2-  O162  1  0.67958565  0.43234555  0.23576593  1
  O2-  O163  1  0.67350729  0.42999044  0.57734606  1
  O2-  O164  1  0.68203392  0.42653944  0.89949745  1
  O2-  O165  1  0.68178003  0.92772801  0.23168354  1
  O2-  O166  1  0.67675636  0.92943225  0.57042506  1
  O2-  O167  1  0.67314233  0.93378822  0.91019645  1
  O2-  O168  1  0.42738504  0.31890668  0.08640995  1
  O2-  O169  1  0.42720141  0.31708932  0.43061607  1
  O2-  O170  1  0.42833348  0.32173254  0.75770765  1
  O2-  O171  1  0.42640993  0.82747371  0.08820090  1
  O2-  O172  1  0.42263992  0.82064941  0.42229768  1
  O2-  O173  1  0.42801466  0.82140518  0.75730860  1
  O2-  O174  1  0.92791045  0.31507478  0.09097566  1
  O2-  O175  1  0.93173826  0.33058182  0.42043964  1
  O2-  O176  1  0.93102934  0.32431423  0.75727553  1
  O2-  O177  1  0.93014323  0.82608680  0.09563574  1
  O2-  O178  1  0.93342275  0.81720783  0.43459172  1
  O2-  O179  1  0.92758359  0.81866104  0.75448913  1
  O2-  O180  1  0.31852374  0.07118755  0.24186475  1
  O2-  O181  1  0.31821052  0.06731828  0.56581988  1
  O2-  O182  1  0.32440463  0.07043518  0.91116180  1
  O2-  O183  1  0.31854833  0.57026344  0.23585876  1
  O2-  O184  1  0.32582677  0.57454859  0.57782095  1
  O2-  O185  1  0.31854867  0.57177179  0.90009998  1
  O2-  O186  1  0.82522989  0.06587517  0.23185640  1
  O2-  O187  1  0.82397944  0.06976377  0.57084881  1
  O2-  O188  1  0.82241639  0.06976711  0.90914316  1
  O2-  O189  1  0.81856641  0.57359320  0.23534306  1
  O2-  O190  1  0.81903709  0.56999675  0.56802675  1
  O2-  O191  1  0.81903739  0.57207433  0.90201428  1
  O2-  O192  1  0.03683581  0.08304362  0.26524216  1
  O2-  O193  1  0.04621262  0.07901194  0.60362590  1
  O2-  O194  1  0.04255259  0.08972358  0.93343578  1
  O2-  O195  1  0.05666152  0.57942786  0.27264609  1
  O2-  O196  1  0.04030395  0.58173145  0.59887193  1
  O2-  O197  1  0.05364021  0.58058657  0.94588470  1
  O2-  O198  1  0.54188576  0.07983022  0.26216304  1
  O2-  O199  1  0.53470331  0.08353123  0.60296198  1
  O2-  O200  1  0.53965840  0.08661062  0.93561560  1
  O2-  O201  1  0.53753981  0.58601398  0.26635200  1
  O2-  O202  1  0.54520259  0.58743131  0.60492604  1
  O2-  O203  1  0.54203815  0.58638416  0.93551209  1
  O2-  O204  1  0.16414170  0.20755336  0.26224598  1
  O2-  O205  1  0.16696622  0.21293005  0.60066304  1
  O2-  O206  1  0.16780589  0.20283095  0.94108114  1
  O2-  O207  1  0.16749086  0.70672051  0.27142806  1
  O2-  O208  1  0.16796182  0.70722670  0.59961188  1
  O2-  O209  1  0.16388088  0.71094087  0.93576359  1
  O2-  O210  1  0.67633307  0.20017151  0.26779686  1
  O2-  O211  1  0.66944092  0.20402496  0.60141240  1
  O2-  O212  1  0.66501792  0.20303465  0.93791167  1
  O2-  O213  1  0.66486951  0.71386809  0.26420062  1
  O2-  O214  1  0.66195757  0.71041151  0.60718268  1
  O2-  O215  1  0.65856600  0.70946790  0.93302067  1
  O2-  O216  1  0.07919018  0.44807350  0.07217832  1
  O2-  O217  1  0.08480829  0.44704274  0.39614059  1
  O2-  O218  1  0.08575743  0.46126545  0.73429582  1
  O2-  O219  1  0.08698702  0.96105387  0.05820584  1
  O2-  O220  1  0.08449983  0.96153909  0.40271507  1
  O2-  O221  1  0.08168854  0.94589830  0.72942432  1
  O2-  O222  1  0.57889838  0.44929055  0.06201872  1
  O2-  O223  1  0.58035643  0.45721071  0.40144515  1
  O2-  O224  1  0.58265230  0.45557767  0.72994783  1
  O2-  O225  1  0.58661528  0.96010155  0.06370027  1
  O2-  O226  1  0.57373819  0.94746204  0.39400433  1
  O2-  O227  1  0.57969410  0.95821894  0.73782868  1
  O2-  O228  1  0.21010797  0.32827448  0.07040830  1
  O2-  O229  1  0.20876144  0.33134527  0.39423920  1
  O2-  O230  1  0.21273909  0.33642436  0.73583650  1
  O2-  O231  1  0.20816410  0.84142836  0.06056274  1
  O2-  O232  1  0.20813279  0.83404015  0.40370953  1
  O2-  O233  1  0.20832280  0.83389634  0.73284975  1
  O2-  O234  1  0.71071433  0.32848718  0.06646343  1
  O2-  O235  1  0.70549673  0.32942478  0.40088607  1
  O2-  O236  1  0.69833469  0.33321248  0.72747464  1
  O2-  O237  1  0.70134248  0.83672879  0.05760561  1
  O2-  O238  1  0.71140558  0.83494129  0.40021306  1
  O2-  O239  1  0.70636951  0.83294490  0.73939520  1
  O2-  O240  1  0.45570400  0.42025052  0.26402654  1
  O2-  O241  1  0.44860949  0.41856558  0.60726704  1
  O2-  O242  1  0.45402433  0.41253620  0.93314457  1
  O2-  O243  1  0.44292343  0.91703193  0.26977189  1
  O2-  O244  1  0.45756886  0.91256711  0.60416510  1
  O2-  O245  1  0.45928076  0.91357481  0.93446816  1
  O2-  O246  1  0.95794846  0.41744139  0.26579407  1
  O2-  O247  1  0.95984588  0.41399355  0.60400373  1
  O2-  O248  1  0.95323020  0.41549184  0.94235942  1
  O2-  O249  1  0.96685277  0.91118765  0.26511235  1
  O2-  O250  1  0.95015145  0.91501549  0.60486740  1
  O2-  O251  1  0.96446893  0.91446222  0.92531614  1
  O2-  O252  1  0.33506837  0.28843557  0.25906042  1
  O2-  O253  1  0.33609033  0.29285796  0.60590182  1
  O2-  O254  1  0.33781532  0.28891404  0.93451130  1
  O2-  O255  1  0.33098035  0.79276217  0.27076213  1
  O2-  O256  1  0.33598202  0.79791893  0.60381794  1
  O2-  O257  1  0.33538312  0.79740045  0.93445877  1
  O2-  O258  1  0.83469406  0.30235202  0.26883383  1
  O2-  O259  1  0.83228053  0.30467345  0.60723674  1
  O2-  O260  1  0.84061280  0.28825485  0.93586902  1
  O2-  O261  1  0.83480955  0.78979360  0.26572251  1
  O2-  O262  1  0.83181093  0.79212577  0.60613945  1
  O2-  O263  1  0.82957841  0.79575583  0.92769044  1
  O2-  O264  1  0.41359936  0.03857271  0.06400191  1
  O2-  O265  1  0.41433808  0.04868724  0.39305438  1
  O2-  O266  1  0.41149293  0.03551157  0.73701587  1
  O2-  O267  1  0.41863739  0.54326097  0.06467556  1
  O2-  O268  1  0.41626497  0.53884783  0.40330637  1
  O2-  O269  1  0.41753028  0.54965239  0.73017737  1
  O2-  O270  1  0.91613373  0.04004780  0.05836594  1
  O2-  O271  1  0.91573248  0.03162092  0.40066096  1
  O2-  O272  1  0.92106482  0.04275035  0.73823653  1
  O2-  O273  1  0.91885498  0.55059009  0.06874142  1
  O2-  O274  1  0.92291598  0.54652360  0.39860112  1
  O2-  O275  1  0.91597596  0.53910846  0.73581817  1
  O2-  O276  1  0.30003103  0.16317072  0.06353858  1
  O2-  O277  1  0.29208751  0.16610568  0.39237882  1
  O2-  O278  1  0.28911258  0.16569678  0.73604089  1
  O2-  O279  1  0.29504560  0.67275757  0.06622042  1
  O2-  O280  1  0.29221880  0.66555689  0.40480213  1
  O2-  O281  1  0.29957268  0.66943179  0.72771565  1
  O2-  O282  1  0.79642862  0.16018556  0.06155239  1
  O2-  O283  1  0.81114303  0.17391175  0.39552119  1
  O2-  O284  1  0.79657445  0.17285399  0.73592109  1
  O2-  O285  1  0.78880003  0.67440338  0.06400645  1
  O2-  O286  1  0.78971832  0.66931792  0.40184300  1
  O2-  O287  1  0.78719369  0.66436805  0.73660685  1
