# generated using pymatgen
data_Ca2Al2SiO7
_symmetry_space_group_name_H-M   'P 1'
_cell_length_a   15.46051240
_cell_length_b   15.46175234
_cell_length_c   15.28689184
_cell_angle_alpha   90.00618255
_cell_angle_beta   89.99609531
_cell_angle_gamma   90.00746599
_symmetry_Int_Tables_number   1
_chemical_formula_structural   Ca2Al2SiO7
_chemical_formula_sum   'Ca48 Al48 Si24 O168'
_cell_volume   3654.27966881
_cell_formula_units_Z   24
loop_
 _symmetry_equiv_pos_site_id
 _symmetry_equiv_pos_as_xyz
  1  'x, y, z'
loop_
 _atom_type_symbol
 _atom_type_oxidation_number
  Ca2+  2.0
  Al0+  0.0
  Si0+  0.0
  O2-  -2.0
loop_
 _atom_site_type_symbol
 _atom_site_label
 _atom_site_symmetry_multiplicity
 _atom_site_fract_x
 _atom_site_fract_y
 _atom_site_fract_z
 _atom_site_occupancy
  Ca2+  Ca0  1  0.17215531  0.08760869  0.16339428  1
  Ca2+  Ca1  1  0.17148888  0.08441498  0.49992848  1
  Ca2+  Ca2  1  0.16651086  0.07898782  0.84926086  1
  Ca2+  Ca3  1  0.15909646  0.57285497  0.17099388  1
  Ca2+  Ca4  1  0.16307440  0.58258524  0.50382852  1
  Ca2+  Ca5  1  0.17179012  0.58415493  0.83632839  1
  Ca2+  Ca6  1  0.67696932  0.08011319  0.16971473  1
  Ca2+  Ca7  1  0.66843226  0.07616574  0.49944890  1
  Ca2+  Ca8  1  0.67591910  0.08067515  0.84051303  1
  Ca2+  Ca9  1  0.67204994  0.57511192  0.17007607  1
  Ca2+  Ca10  1  0.68165567  0.57552004  0.50308173  1
  Ca2+  Ca11  1  0.67059149  0.57628788  0.83679364  1
  Ca2+  Ca12  1  0.07316504  0.33644390  0.15974640  1
  Ca2+  Ca13  1  0.07808586  0.33721421  0.48970754  1
  Ca2+  Ca14  1  0.08496454  0.33070250  0.83883666  1
  Ca2+  Ca15  1  0.07631726  0.83024725  0.16091598  1
  Ca2+  Ca16  1  0.07174246  0.81757533  0.49371614  1
  Ca2+  Ca17  1  0.07591656  0.83383118  0.82722623  1
  Ca2+  Ca18  1  0.57794562  0.34025074  0.15719832  1
  Ca2+  Ca19  1  0.57998234  0.34528878  0.49962212  1
  Ca2+  Ca20  1  0.57545045  0.34268154  0.83019417  1
  Ca2+  Ca21  1  0.58837273  0.82747216  0.16193121  1
  Ca2+  Ca22  1  0.58450593  0.83313421  0.49112476  1
  Ca2+  Ca23  1  0.58282379  0.82536351  0.83342169  1
  Ca2+  Ca24  1  0.31996964  0.40846462  0.16650123  1
  Ca2+  Ca25  1  0.32634585  0.42198514  0.50589701  1
  Ca2+  Ca26  1  0.33239120  0.41697478  0.83883351  1
  Ca2+  Ca27  1  0.32770483  0.92752396  0.16992847  1
  Ca2+  Ca28  1  0.33334382  0.92345603  0.50235422  1
  Ca2+  Ca29  1  0.32239477  0.92512662  0.84613392  1
  Ca2+  Ca30  1  0.82678958  0.41518029  0.17622766  1
  Ca2+  Ca31  1  0.83328108  0.42708895  0.50395668  1
  Ca2+  Ca32  1  0.82484682  0.41879464  0.84129553  1
  Ca2+  Ca33  1  0.83711273  0.91774480  0.16854332  1
  Ca2+  Ca34  1  0.83339727  0.90677364  0.49978917  1
  Ca2+  Ca35  1  0.84228873  0.91941339  0.84155210  1
  Ca2+  Ca36  1  0.41555119  0.16806960  0.15928700  1
  Ca2+  Ca37  1  0.41735540  0.17227907  0.49507615  1
  Ca2+  Ca38  1  0.41052918  0.17960342  0.83288268  1
  Ca2+  Ca39  1  0.42823694  0.66373574  0.15854553  1
  Ca2+  Ca40  1  0.41636400  0.66337328  0.49891671  1
  Ca2+  Ca41  1  0.42333368  0.65743323  0.82968338  1
  Ca2+  Ca42  1  0.91834058  0.17715393  0.15579878  1
  Ca2+  Ca43  1  0.91882330  0.17699942  0.49358339  1
  Ca2+  Ca44  1  0.91798135  0.16932175  0.83849362  1
  Ca2+  Ca45  1  0.91479642  0.67290837  0.16668561  1
  Ca2+  Ca46  1  0.91967559  0.66428819  0.49179558  1
  Ca2+  Ca47  1  0.92110603  0.67641707  0.82522432  1
  Al0+  Al48  1  -0.00021406  0.00080948  0.00322796  1
  Al0+  Al49  1  0.00264270  0.00033272  0.33220205  1
  Al0+  Al50  1  -0.00011625  -0.00018073  0.65980481  1
  Al0+  Al51  1  -0.00065274  0.50286075  -0.00230082  1
  Al0+  Al52  1  -0.00018823  0.49862631  0.33242690  1
  Al0+  Al53  1  0.00013218  0.49872190  0.67010250  1
  Al0+  Al54  1  0.50056993  -0.00136807  0.00128458  1
  Al0+  Al55  1  0.50038736  0.00173546  0.34014360  1
  Al0+  Al56  1  0.50087630  0.00189808  0.66882309  1
  Al0+  Al57  1  0.50228469  0.50024815  -0.00466950  1
  Al0+  Al58  1  0.49839001  0.50063402  0.33418457  1
  Al0+  Al59  1  0.49744381  0.49991064  0.66646397  1
  Al0+  Al60  1  0.24991004  0.25157377  -0.00043472  1
  Al0+  Al61  1  0.25169703  0.25103115  0.34231375  1
  Al0+  Al62  1  0.25201891  0.25055145  0.66131260  1
  Al0+  Al63  1  0.25151768  0.75084930  0.00563870  1
  Al0+  Al64  1  0.24991014  0.75146658  0.32869444  1
  Al0+  Al65  1  0.24965920  0.75085428  0.66735200  1
  Al0+  Al66  1  0.74809992  0.24916300  0.00370314  1
  Al0+  Al67  1  0.74635188  0.24692087  0.33535009  1
  Al0+  Al68  1  0.74883655  0.24594723  0.66918259  1
  Al0+  Al69  1  0.75034404  0.74814955  -0.01038078  1
  Al0+  Al70  1  0.74931629  0.74934047  0.33625288  1
  Al0+  Al71  1  0.74746411  0.74960077  0.66785577  1
  Al0+  Al72  1  0.07235650  0.67696586  0.31566027  1
  Al0+  Al73  1  0.82026144  0.56878221  0.34611997  1
  Al0+  Al74  1  0.07206491  0.67744779  0.65274813  1
  Al0+  Al75  1  0.32178544  0.07248169  0.01399541  1
  Al0+  Al76  1  0.68206194  0.92992799  0.34503783  1
  Al0+  Al77  1  0.93170115  0.82020841  0.98640073  1
  Al0+  Al78  1  0.67959142  0.42980954  0.01390425  1
  Al0+  Al79  1  0.92746914  0.82146426  0.64985408  1
  Al0+  Al80  1  0.92488229  0.32420325  0.98482152  1
  Al0+  Al81  1  0.92710067  0.31920559  0.32177641  1
  Al0+  Al82  1  0.32019283  0.06987911  0.34950152  1
  Al0+  Al83  1  0.43022275  0.32127246  0.64996185  1
  Al0+  Al84  1  0.92724367  0.82049312  0.31624864  1
  Al0+  Al85  1  0.06960565  0.18167179  0.98738449  1
  Al0+  Al86  1  0.68007547  0.42828262  0.68267063  1
  Al0+  Al87  1  0.17670913  0.92751949  0.01649871  1
  Al0+  Al88  1  0.82071319  0.07045051  0.01343964  1
  Al0+  Al89  1  0.42997113  0.31899843  0.98761701  1
  Al0+  Al90  1  0.67520862  0.42550552  0.34799607  1
  Al0+  Al91  1  0.82362735  0.57250648  0.68454087  1
  Al0+  Al92  1  0.31818681  0.57175020  0.67974954  1
  Al0+  Al93  1  0.57041105  0.67955224  0.98472384  1
  Al0+  Al94  1  0.17866234  0.43121456  0.01249200  1
  Al0+  Al95  1  0.17987643  0.43104080  0.34637550  1
  Si0+  Si96  1  0.56895938  0.17614764  0.31818225  1
  Si0+  Si97  1  0.82151836  0.57341773  0.01566643  1
  Si0+  Si98  1  0.07186004  0.17881433  0.65102638  1
  Si0+  Si99  1  0.32174534  0.07227334  0.68287307  1
  Si0+  Si100  1  0.43032967  0.32114110  0.31837271  1
  Si0+  Si101  1  0.57255572  0.17451973  0.98384298  1
  Si0+  Si102  1  0.18012713  0.93229470  0.67971013  1
  Si0+  Si103  1  0.17731249  0.92576129  0.35321500  1
  Si0+  Si104  1  0.42980657  0.82376629  0.65218531  1
  Si0+  Si105  1  0.32394756  0.57164971  0.01667899  1
  Si0+  Si106  1  0.32263793  0.57462283  0.34778022  1
  Si0+  Si107  1  0.92741446  0.31878979  0.65358971  1
  Si0+  Si108  1  0.07491727  0.17956937  0.31777760  1
  Si0+  Si109  1  0.56858942  0.67936316  0.64904705  1
  Si0+  Si110  1  0.67673870  0.92842451  0.68277094  1
  Si0+  Si111  1  0.67917043  0.92517554  0.01398158  1
  Si0+  Si112  1  0.57265474  0.17635074  0.64821496  1
  Si0+  Si113  1  0.82217057  0.06817027  0.68108469  1
  Si0+  Si114  1  0.82478857  0.07233970  0.35096303  1
  Si0+  Si115  1  0.42721037  0.82290404  0.98358760  1
  Si0+  Si116  1  0.42966554  0.82492403  0.31887112  1
  Si0+  Si117  1  0.07555417  0.67782193  0.98269740  1
  Si0+  Si118  1  0.17744688  0.42511155  0.68406908  1
  Si0+  Si119  1  0.56857480  0.67999260  0.31944286  1
  O2-  O120  1  0.25101293  -0.00073173  0.06376170  1
  O2-  O121  1  0.24555533  -0.00444750  0.39762976  1
  O2-  O122  1  0.24926807  0.00374371  0.72469036  1
  O2-  O123  1  0.25174071  0.50743763  0.06077800  1
  O2-  O124  1  0.25050672  0.51008722  0.39201146  1
  O2-  O125  1  0.24265205  0.49813562  0.72627276  1
  O2-  O126  1  0.74550636  -0.00479262  0.05839066  1
  O2-  O127  1  0.76062371  -0.00098065  0.39504082  1
  O2-  O128  1  0.75361996  -0.00616446  0.72293382  1
  O2-  O129  1  0.75944691  0.49864387  0.05998916  1
  O2-  O130  1  0.75191260  0.49279400  0.39617591  1
  O2-  O131  1  0.75357944  0.49788000  0.73366184  1
  O2-  O132  1  0.00053676  0.24256719  0.27571028  1
  O2-  O133  1  0.00346757  0.25287670  0.61024551  1
  O2-  O134  1  -0.00174635  0.25299029  0.93473365  1
  O2-  O135  1  0.00148041  0.75079675  0.26666756  1
  O2-  O136  1  -0.00619985  0.74292760  0.60246849  1
  O2-  O137  1  0.00923366  0.74894335  0.93926046  1
  O2-  O138  1  0.50464768  0.25353075  0.27671417  1
  O2-  O139  1  0.50672345  0.24757071  0.60373303  1
  O2-  O140  1  0.50336654  0.24279945  0.94007591  1
  O2-  O141  1  0.49653390  0.75029538  0.27665598  1
  O2-  O142  1  0.50004103  0.75360300  0.60709273  1
  O2-  O143  1  0.49316018  0.75260653  0.93787403  1
  O2-  O144  1  0.06972862  0.18359718  0.10083652  1
  O2-  O145  1  0.07481775  0.18167374  0.42444661  1
  O2-  O146  1  0.07247577  0.17540246  0.75554045  1
  O2-  O147  1  0.07418612  0.67670769  0.08796525  1
  O2-  O148  1  0.07380937  0.67821031  0.42929601  1
  O2-  O149  1  0.07709522  0.68467307  0.76608330  1
  O2-  O150  1  0.57187752  0.17295494  0.08952652  1
  O2-  O151  1  0.56606759  0.17140830  0.42322407  1
  O2-  O152  1  0.57119108  0.17091163  0.75339212  1
  O2-  O153  1  0.57024640  0.68162781  0.09842301  1
  O2-  O154  1  0.56608603  0.68137708  0.42467897  1
  O2-  O155  1  0.56643314  0.68061619  0.75421030  1
  O2-  O156  1  0.18273383  0.42779237  0.23353659  1
  O2-  O157  1  0.17939573  0.42259819  0.57830644  1
  O2-  O158  1  0.18225804  0.43145156  0.89930862  1
  O2-  O159  1  0.17952459  0.92503362  0.24810005  1
  O2-  O160  1  0.18379599  0.93489453  0.57476000  1
  O2-  O161  1  0.17862840  0.92936119  0.90172555  1
  O2-  O162  1  0.67177547  0.43040458  0.23458809  1
  O2-  O163  1  0.68196159  0.43060914  0.56913981  1
  O2-  O164  1  0.67704607  0.43269824  0.90102830  1
  O2-  O165  1  0.67866042  0.93283447  0.23232705  1
  O2-  O166  1  0.67204567  0.93152138  0.57780546  1
  O2-  O167  1  0.67841526  0.92703256  0.90798260  1
  O2-  O168  1  0.43090149  0.31856196  0.10109737  1
  O2-  O169  1  0.43060545  0.32019873  0.42355307  1
  O2-  O170  1  0.42838889  0.31848423  0.76286772  1
  O2-  O171  1  0.42977445  0.82358572  0.08923868  1
  O2-  O172  1  0.43174757  0.82543788  0.42454207  1
  O2-  O173  1  0.43229903  0.82610063  0.75698152  1
  O2-  O174  1  0.92487796  0.32169897  0.09846625  1
  O2-  O175  1  0.93002746  0.31774530  0.43590661  1
  O2-  O176  1  0.92601255  0.31476093  0.75817619  1
  O2-  O177  1  0.92841041  0.81748193  0.09898490  1
  O2-  O178  1  0.92757480  0.81727304  0.42977078  1
  O2-  O179  1  0.93330720  0.82722273  0.76318930  1
  O2-  O180  1  0.32122592  0.06980780  0.23706555  1
  O2-  O181  1  0.32250429  0.07015203  0.57759998  1
  O2-  O182  1  0.32036804  0.07079006  0.89976884  1
  O2-  O183  1  0.32890631  0.57151349  0.24264130  1
  O2-  O184  1  0.31884260  0.57088850  0.56650495  1
  O2-  O185  1  0.32398383  0.57088445  0.91085992  1
  O2-  O186  1  0.82109282  0.07494881  0.24579937  1
  O2-  O187  1  0.82058113  0.07024952  0.57606300  1
  O2-  O188  1  0.81929937  0.06862092  0.89960801  1
  O2-  O189  1  0.81616845  0.57105729  0.23260795  1
  O2-  O190  1  0.82228596  0.57130940  0.57083827  1
  O2-  O191  1  0.81781983  0.57464774  0.91016945  1
  O2-  O192  1  0.05785203  0.08313863  0.27531543  1
  O2-  O193  1  0.04156757  0.08960914  0.59950987  1
  O2-  O194  1  0.04043698  0.08328280  0.93447599  1
  O2-  O195  1  0.04264726  0.57899773  0.26380867  1
  O2-  O196  1  0.05172631  0.57475428  0.60426155  1
  O2-  O197  1  0.04919144  0.58580350  0.93434491  1
  O2-  O198  1  0.53389280  0.08742476  0.26941425  1
  O2-  O199  1  0.54203020  0.08399605  0.60029929  1
  O2-  O200  1  0.54968315  0.08008630  0.93675239  1
  O2-  O201  1  0.53909233  0.58889440  0.27093358  1
  O2-  O202  1  0.53603262  0.58979701  0.60146893  1
  O2-  O203  1  0.53788924  0.58518097  0.92783705  1
  O2-  O204  1  0.16795308  0.21050531  0.27450780  1
  O2-  O205  1  0.16434726  0.20377501  0.60277858  1
  O2-  O206  1  0.16725024  0.21003812  0.93213363  1
  O2-  O207  1  0.17249653  0.70292042  0.26342124  1
  O2-  O208  1  0.16913939  0.71174608  0.59843703  1
  O2-  O209  1  0.17188759  0.70063576  0.94024363  1
  O2-  O210  1  0.66334936  0.19511491  0.27270992  1
  O2-  O211  1  0.66775239  0.19699253  0.60266320  1
  O2-  O212  1  0.66551965  0.20045560  0.93751304  1
  O2-  O213  1  0.65912280  0.70970207  0.27217634  1
  O2-  O214  1  0.66081074  0.70624263  0.60277472  1
  O2-  O215  1  0.66310482  0.71279593  0.92516485  1
  O2-  O216  1  0.08074734  0.46030456  0.06538982  1
  O2-  O217  1  0.08279685  0.45711139  0.40079318  1
  O2-  O218  1  0.08244412  0.44301389  0.72901159  1
  O2-  O219  1  0.08080561  0.95797671  0.07090097  1
  O2-  O220  1  0.08397121  0.95241390  0.39952120  1
  O2-  O221  1  0.08732084  0.96090643  0.72439163  1
  O2-  O222  1  0.58410460  0.46655039  0.06705956  1
  O2-  O223  1  0.57870136  0.46097691  0.40144204  1
  O2-  O224  1  0.58090180  0.46004637  0.73175190  1
  O2-  O225  1  0.58448010  0.94645127  0.05958483  1
  O2-  O226  1  0.58790691  0.96492455  0.40292647  1
  O2-  O227  1  0.58752172  0.96178246  0.73284061  1
  O2-  O228  1  0.21214537  0.33615414  0.06694436  1
  O2-  O229  1  0.21455833  0.33777889  0.40508866  1
  O2-  O230  1  0.20958163  0.33248682  0.72895654  1
  O2-  O231  1  0.20572000  0.82983889  0.07096325  1
  O2-  O232  1  0.20636055  0.83281014  0.39902341  1
  O2-  O233  1  0.20907014  0.84156593  0.72747866  1
  O2-  O234  1  0.70102266  0.33096220  0.06678391  1
  O2-  O235  1  0.69328728  0.32373502  0.39831610  1
  O2-  O236  1  0.70295786  0.32664771  0.73235641  1
  O2-  O237  1  0.70727101  0.83174543  0.05800492  1
  O2-  O238  1  0.70614454  0.83305816  0.40191574  1
  O2-  O239  1  0.69599686  0.83453762  0.72864867  1
  O2-  O240  1  0.45375569  0.41415365  0.27132937  1
  O2-  O241  1  0.45895213  0.41840452  0.59566103  1
  O2-  O242  1  0.46202949  0.41451747  0.93232398  1
  O2-  O243  1  0.46308579  0.91497432  0.27215503  1
  O2-  O244  1  0.45866144  0.91584113  0.60429349  1
  O2-  O245  1  0.45472947  0.91549407  0.93533752  1
  O2-  O246  1  0.95814585  0.41425443  0.26715571  1
  O2-  O247  1  0.95132808  0.41242158  0.60847625  1
  O2-  O248  1  0.95222064  0.42301408  0.93239578  1
  O2-  O249  1  0.95345987  0.92212299  0.26816732  1
  O2-  O250  1  0.95980565  0.91814227  0.59410039  1
  O2-  O251  1  0.96010776  0.91812712  0.93419746  1
  O2-  O252  1  0.33871178  0.28821582  0.27403448  1
  O2-  O253  1  0.33472916  0.28823404  0.59387011  1
  O2-  O254  1  0.33444794  0.28933617  0.93126161  1
  O2-  O255  1  0.33664918  0.80350651  0.27209553  1
  O2-  O256  1  0.33807573  0.79665983  0.60473112  1
  O2-  O257  1  0.33229942  0.80008575  0.93902309  1
  O2-  O258  1  0.82859842  0.28964371  0.27063036  1
  O2-  O259  1  0.83785879  0.28436067  0.60545709  1
  O2-  O260  1  0.82714886  0.29077776  0.93287889  1
  O2-  O261  1  0.82746187  0.79200778  0.26549773  1
  O2-  O262  1  0.82407936  0.80142971  0.60380553  1
  O2-  O263  1  0.83646941  0.78971915  0.92909353  1
  O2-  O264  1  0.42098177  0.04415691  0.06633380  1
  O2-  O265  1  0.41474843  0.03665464  0.40671603  1
  O2-  O266  1  0.41330825  0.04370543  0.72974668  1
  O2-  O267  1  0.41662146  0.54217214  0.06185488  1
  O2-  O268  1  0.41359318  0.54483459  0.39755230  1
  O2-  O269  1  0.41391941  0.53888203  0.73383299  1
  O2-  O270  1  0.91541292  0.04111830  0.06954893  1
  O2-  O271  1  0.92100442  0.05387471  0.39487072  1
  O2-  O272  1  0.91549410  0.04238469  0.72654471  1
  O2-  O273  1  0.91781963  0.55727624  0.05829009  1
  O2-  O274  1  0.91851642  0.54184289  0.39936743  1
  O2-  O275  1  0.92343778  0.54831087  0.73655626  1
  O2-  O276  1  0.29207426  0.16967736  0.06746196  1
  O2-  O277  1  0.28961159  0.16500824  0.40695910  1
  O2-  O278  1  0.29492249  0.16558914  0.72652152  1
  O2-  O279  1  0.30638948  0.66719964  0.06191023  1
  O2-  O280  1  0.30358773  0.67096460  0.39142732  1
  O2-  O281  1  0.29312523  0.66991088  0.73491212  1
  O2-  O282  1  0.78772469  0.16482616  0.06991241  1
  O2-  O283  1  0.79180691  0.16222340  0.40105814  1
  O2-  O284  1  0.79135110  0.15760858  0.73107164  1
  O2-  O285  1  0.78643597  0.66470255  0.06065090  1
  O2-  O286  1  0.78645367  0.66461674  0.40136834  1
  O2-  O287  1  0.79099635  0.67096504  0.73574454  1
