# generated using pymatgen
data_Ca2Al2SiO7
_symmetry_space_group_name_H-M   'P 1'
_cell_length_a   15.46365366
_cell_length_b   15.46293775
_cell_length_c   15.28855377
_cell_angle_alpha   90.01108867
_cell_angle_beta   90.00753101
_cell_angle_gamma   89.99878309
_symmetry_Int_Tables_number   1
_chemical_formula_structural   Ca2Al2SiO7
_chemical_formula_sum   'Ca48 Al48 Si24 O168'
_cell_volume   3655.69971484
_cell_formula_units_Z   24
loop_
 _symmetry_equiv_pos_site_id
 _symmetry_equiv_pos_as_xyz
  1  'x, y, z'
loop_
 _atom_type_symbol
 _atom_type_oxidation_number
  Ca2+  2.0
  Al0+  0.0
  Si0+  0.0
  O2-  -2.0
loop_
 _atom_site_type_symbol
 _atom_site_label
 _atom_site_symmetry_multiplicity
 _atom_site_fract_x
 _atom_site_fract_y
 _atom_site_fract_z
 _atom_site_occupancy
  Ca2+  Ca0  1  0.16668134  0.06876137  0.17392015  1
  Ca2+  Ca1  1  0.16575248  0.07468593  0.50496852  1
  Ca2+  Ca2  1  0.16967283  0.07547993  0.83928235  1
  Ca2+  Ca3  1  0.16340160  0.59129440  0.17033732  1
  Ca2+  Ca4  1  0.17053791  0.58327751  0.50702716  1
  Ca2+  Ca5  1  0.16972387  0.58242808  0.83089371  1
  Ca2+  Ca6  1  0.66404469  0.08761780  0.17046899  1
  Ca2+  Ca7  1  0.66648931  0.07946151  0.50911754  1
  Ca2+  Ca8  1  0.66611756  0.08614940  0.82905580  1
  Ca2+  Ca9  1  0.67165414  0.57114649  0.17186455  1
  Ca2+  Ca10  1  0.67008386  0.57330192  0.51351034  1
  Ca2+  Ca11  1  0.67567375  0.58049622  0.83693274  1
  Ca2+  Ca12  1  0.07284437  0.33842734  0.16454874  1
  Ca2+  Ca13  1  0.07084229  0.34091089  0.49964945  1
  Ca2+  Ca14  1  0.07739842  0.33470832  0.82166917  1
  Ca2+  Ca15  1  0.08430833  0.82736725  0.16526584  1
  Ca2+  Ca16  1  0.07131322  0.82935433  0.49229542  1
  Ca2+  Ca17  1  0.07839434  0.82872380  0.82949555  1
  Ca2+  Ca18  1  0.59424121  0.32645590  0.16341718  1
  Ca2+  Ca19  1  0.59715248  0.32436068  0.49874761  1
  Ca2+  Ca20  1  0.58836877  0.32868324  0.82411320  1
  Ca2+  Ca21  1  0.57367671  0.83650419  0.16434634  1
  Ca2+  Ca22  1  0.57908104  0.82878826  0.50192809  1
  Ca2+  Ca23  1  0.57940752  0.82730925  0.81664152  1
  Ca2+  Ca24  1  0.33054591  0.42063843  0.17206068  1
  Ca2+  Ca25  1  0.32540624  0.42065343  0.51459065  1
  Ca2+  Ca26  1  0.33563742  0.41817819  0.82826144  1
  Ca2+  Ca27  1  0.32278379  0.91069264  0.17469714  1
  Ca2+  Ca28  1  0.33145325  0.90711319  0.50230609  1
  Ca2+  Ca29  1  0.32974173  0.91330363  0.83696721  1
  Ca2+  Ca30  1  0.82675582  0.41826918  0.17044829  1
  Ca2+  Ca31  1  0.82939400  0.41943232  0.50853583  1
  Ca2+  Ca32  1  0.82544168  0.42395760  0.83224062  1
  Ca2+  Ca33  1  0.83456883  0.91940730  0.17279997  1
  Ca2+  Ca34  1  0.83204631  0.92019773  0.51320455  1
  Ca2+  Ca35  1  0.82903797  0.91685603  0.82803762  1
  Ca2+  Ca36  1  0.43017809  0.16709926  0.16186285  1
  Ca2+  Ca37  1  0.42814026  0.17392964  0.49983791  1
  Ca2+  Ca38  1  0.42928411  0.17304996  0.82301680  1
  Ca2+  Ca39  1  0.41523235  0.67222470  0.16756315  1
  Ca2+  Ca40  1  0.41899834  0.66997759  0.50418118  1
  Ca2+  Ca41  1  0.42305942  0.67056324  0.82111656  1
  Ca2+  Ca42  1  0.91475083  0.17367195  0.16746657  1
  Ca2+  Ca43  1  0.90561985  0.17865536  0.50087380  1
  Ca2+  Ca44  1  0.91539108  0.17283054  0.82291150  1
  Ca2+  Ca45  1  0.92708415  0.66587456  0.16182895  1
  Ca2+  Ca46  1  0.91451873  0.67567427  0.49626526  1
  Ca2+  Ca47  1  0.91727948  0.66369852  0.82598038  1
  Al0+  Al48  1  -0.00046016  -0.00038593  0.00516342  1
  Al0+  Al49  1  0.00057987  0.00090795  0.33535955  1
  Al0+  Al50  1  0.00020549  -0.00108508  0.66896656  1
  Al0+  Al51  1  0.00094832  0.50192758  -0.00218200  1
  Al0+  Al52  1  -0.00058778  0.50050653  0.32501583  1
  Al0+  Al53  1  0.00129616  0.49848837  0.66908995  1
  Al0+  Al54  1  0.49979398  0.00297354  -0.00472248  1
  Al0+  Al55  1  0.50006261  0.00108147  0.32487156  1
  Al0+  Al56  1  0.49796264  0.00042824  0.66286760  1
  Al0+  Al57  1  0.49859586  0.50044025  0.00633086  1
  Al0+  Al58  1  0.49956290  0.49806878  0.33826173  1
  Al0+  Al59  1  0.49739483  0.49987069  0.66793900  1
  Al0+  Al60  1  0.25072738  0.25025752  0.00300792  1
  Al0+  Al61  1  0.25150052  0.24914097  0.33333044  1
  Al0+  Al62  1  0.25032742  0.24642421  0.66743631  1
  Al0+  Al63  1  0.24743906  0.74937138  -0.00052225  1
  Al0+  Al64  1  0.25017031  0.75045889  0.33217818  1
  Al0+  Al65  1  0.24946259  0.74838789  0.66843281  1
  Al0+  Al66  1  0.75080794  0.24896657  -0.00163076  1
  Al0+  Al67  1  0.75096164  0.24940434  0.32738322  1
  Al0+  Al68  1  0.75305046  0.24927195  0.66660098  1
  Al0+  Al69  1  0.75052821  0.75181029  0.00694936  1
  Al0+  Al70  1  0.74908590  0.74992102  0.32807942  1
  Al0+  Al71  1  0.74998117  0.75076608  0.66595512  1
  Al0+  Al72  1  0.43180735  0.81855389  0.31908824  1
  Al0+  Al73  1  0.82170814  0.57324995  0.67892010  1
  Al0+  Al74  1  0.92606243  0.82453928  0.31743715  1
  Al0+  Al75  1  0.67643859  0.92959184  0.67941097  1
  Al0+  Al76  1  0.57312759  0.67681739  0.65386456  1
  Al0+  Al77  1  0.57225893  0.18154787  0.65029511  1
  Al0+  Al78  1  0.67957908  0.42858520  0.01572774  1
  Al0+  Al79  1  0.67825162  0.42773713  0.68035191  1
  Al0+  Al80  1  0.18013452  0.92902771  0.35024296  1
  Al0+  Al81  1  0.57132494  0.18106074  0.98283046  1
  Al0+  Al82  1  0.06950576  0.68116774  0.31927439  1
  Al0+  Al83  1  0.17895718  0.42665269  0.68078661  1
  Al0+  Al84  1  0.07003011  0.67989663  0.98197421  1
  Al0+  Al85  1  0.82329072  0.57311593  0.01750622  1
  Al0+  Al86  1  0.93124893  0.32096064  0.65443981  1
  Al0+  Al87  1  0.92928293  0.82100697  0.65533043  1
  Al0+  Al88  1  0.68125318  0.42819616  0.34870159  1
  Al0+  Al89  1  0.42667781  0.82161229  0.65286698  1
  Al0+  Al90  1  0.93066517  0.31954892  0.31825517  1
  Al0+  Al91  1  0.18020931  0.92926075  0.01462206  1
  Al0+  Al92  1  0.82196039  0.07068702  0.68139253  1
  Al0+  Al93  1  0.56950636  0.18165973  0.31817889  1
  Al0+  Al94  1  0.32081760  0.57194740  0.68234565  1
  Al0+  Al95  1  0.42677181  0.32206054  0.65224003  1
  Si0+  Si96  1  0.07316714  0.17529076  0.65135379  1
  Si0+  Si97  1  0.17879027  0.92832019  0.68239075  1
  Si0+  Si98  1  0.07558458  0.17753466  0.31656821  1
  Si0+  Si99  1  0.82046537  0.07051074  0.01635870  1
  Si0+  Si100  1  0.42562638  0.32437004  0.98409371  1
  Si0+  Si101  1  0.17744506  0.42777752  0.34612116  1
  Si0+  Si102  1  0.07107076  0.67795956  0.65084979  1
  Si0+  Si103  1  0.42921232  0.81987457  0.98607587  1
  Si0+  Si104  1  0.82027310  0.06984636  0.34671745  1
  Si0+  Si105  1  0.31970324  0.57109992  0.01706163  1
  Si0+  Si106  1  0.32019141  0.57061656  0.34846416  1
  Si0+  Si107  1  0.57232718  0.67369766  0.31565829  1
  Si0+  Si108  1  0.32297534  0.07261409  0.01775801  1
  Si0+  Si109  1  0.17870201  0.42778436  0.01587668  1
  Si0+  Si110  1  0.67681459  0.92851016  0.34525951  1
  Si0+  Si111  1  0.93159297  0.31971963  0.98371301  1
  Si0+  Si112  1  0.32402186  0.07167137  0.35063351  1
  Si0+  Si113  1  0.07188412  0.17744463  0.98731246  1
  Si0+  Si114  1  0.92640478  0.82448905  0.98247518  1
  Si0+  Si115  1  0.67634972  0.92982498  0.01543634  1
  Si0+  Si116  1  0.57098736  0.67940115  0.98867573  1
  Si0+  Si117  1  0.32092867  0.07035964  0.68194353  1
  Si0+  Si118  1  0.42508484  0.32365640  0.31599597  1
  Si0+  Si119  1  0.82319727  0.57214277  0.34910962  1
  O2-  O120  1  0.25484554  0.00387901  0.06263728  1
  O2-  O121  1  0.25390053  0.00525913  0.39648819  1
  O2-  O122  1  0.25165203  -0.00265257  0.72438135  1
  O2-  O123  1  0.24988681  0.49832375  0.05904926  1
  O2-  O124  1  0.25045317  0.49666104  0.38741683  1
  O2-  O125  1  0.25155942  0.49696082  0.73255110  1
  O2-  O126  1  0.74823756  0.00016706  0.05810873  1
  O2-  O127  1  0.75472159  -0.00740236  0.38594254  1
  O2-  O128  1  0.74790771  0.00102047  0.73191928  1
  O2-  O129  1  0.75080523  0.50106945  0.06680552  1
  O2-  O130  1  0.75185082  0.50709796  0.39355105  1
  O2-  O131  1  0.74627290  0.50444399  0.72890126  1
  O2-  O132  1  0.00887145  0.24771545  0.27129740  1
  O2-  O133  1  0.00642778  0.24586049  0.60790893  1
  O2-  O134  1  0.00504947  0.25026477  0.94272783  1
  O2-  O135  1  -0.00299192  0.75185026  0.26715692  1
  O2-  O136  1  0.00006820  0.74375374  0.60742975  1
  O2-  O137  1  -0.00861512  0.75212504  0.93867821  1
  O2-  O138  1  0.49554096  0.25735609  0.27107958  1
  O2-  O139  1  0.50499209  0.25828821  0.60025763  1
  O2-  O140  1  0.49699027  0.25819488  0.94116412  1
  O2-  O141  1  0.50667968  0.74525029  0.26989419  1
  O2-  O142  1  0.50067895  0.75026651  0.60548977  1
  O2-  O143  1  0.50357866  0.75307651  0.94473281  1
  O2-  O144  1  0.06971572  0.17817935  0.09236096  1
  O2-  O145  1  0.07714753  0.17722077  0.42171664  1
  O2-  O146  1  0.07259488  0.17404117  0.75761139  1
  O2-  O147  1  0.07283785  0.68250659  0.09492344  1
  O2-  O148  1  0.06981435  0.68053955  0.43250386  1
  O2-  O149  1  0.07238222  0.68095345  0.75668305  1
  O2-  O150  1  0.56982746  0.17944565  0.09627288  1
  O2-  O151  1  0.57032147  0.17999533  0.43023581  1
  O2-  O152  1  0.56944455  0.18068814  0.76400146  1
  O2-  O153  1  0.56678006  0.68121071  0.09404348  1
  O2-  O154  1  0.57132228  0.67345922  0.42052701  1
  O2-  O155  1  0.57205683  0.68005158  0.76848072  1
  O2-  O156  1  0.17929956  0.42772190  0.24035762  1
  O2-  O157  1  0.17769543  0.42940158  0.56665329  1
  O2-  O158  1  0.17926449  0.42486648  0.91174397  1
  O2-  O159  1  0.18223982  0.92990861  0.23672035  1
  O2-  O160  1  0.17763100  0.92981097  0.57746075  1
  O2-  O161  1  0.18175310  0.93151629  0.90135372  1
  O2-  O162  1  0.68344889  0.42822959  0.23529344  1
  O2-  O163  1  0.68479001  0.42684943  0.56663737  1
  O2-  O164  1  0.67994381  0.42935577  0.90294855  1
  O2-  O165  1  0.67485842  0.93258325  0.23943719  1
  O2-  O166  1  0.67746997  0.93075770  0.56537107  1
  O2-  O167  1  0.67497763  0.92812164  0.91118839  1
  O2-  O168  1  0.42158432  0.32240503  0.08998451  1
  O2-  O169  1  0.41961285  0.32199717  0.42042042  1
  O2-  O170  1  0.42355403  0.31488381  0.76598933  1
  O2-  O171  1  0.42924528  0.81863961  0.09150004  1
  O2-  O172  1  0.43229776  0.81736780  0.43121293  1
  O2-  O173  1  0.42559252  0.82044332  0.76729793  1
  O2-  O174  1  0.93276908  0.31727937  0.08927189  1
  O2-  O175  1  0.93123112  0.31903289  0.43077688  1
  O2-  O176  1  0.93320216  0.31890976  0.76792907  1
  O2-  O177  1  0.92881455  0.82744958  0.08796330  1
  O2-  O178  1  0.92697676  0.82493102  0.43078888  1
  O2-  O179  1  0.93422698  0.82405168  0.76847924  1
  O2-  O180  1  0.32197126  0.07026440  0.24458216  1
  O2-  O181  1  0.31825276  0.07193974  0.57703461  1
  O2-  O182  1  0.32143027  0.07216765  0.91230243  1
  O2-  O183  1  0.32036480  0.57001926  0.24251514  1
  O2-  O184  1  0.31464387  0.57586988  0.56858715  1
  O2-  O185  1  0.32076839  0.57217854  0.91296041  1
  O2-  O186  1  0.81857344  0.07136416  0.24077486  1
  O2-  O187  1  0.82300527  0.06921242  0.56753833  1
  O2-  O188  1  0.82331001  0.07091766  0.91218622  1
  O2-  O189  1  0.82342736  0.56928585  0.24336081  1
  O2-  O190  1  0.82372962  0.57146630  0.56510223  1
  O2-  O191  1  0.82211977  0.57255499  0.90436580  1
  O2-  O192  1  0.04579157  0.08538993  0.26968316  1
  O2-  O193  1  0.04591045  0.08275533  0.60454934  1
  O2-  O194  1  0.04216407  0.08595028  0.94035939  1
  O2-  O195  1  0.04402730  0.58312225  0.26242563  1
  O2-  O196  1  0.05047121  0.58290223  0.60709866  1
  O2-  O197  1  0.04460853  0.58124459  0.92943336  1
  O2-  O198  1  0.53743162  0.08684293  0.26002974  1
  O2-  O199  1  0.53858561  0.08445550  0.59818241  1
  O2-  O200  1  0.53899328  0.08468736  0.92868128  1
  O2-  O201  1  0.54121473  0.58138425  0.26913928  1
  O2-  O202  1  0.54333227  0.57970417  0.60023207  1
  O2-  O203  1  0.54008297  0.58788439  0.94368970  1
  O2-  O204  1  0.16980685  0.19974674  0.26935569  1
  O2-  O205  1  0.16690889  0.19662938  0.60505274  1
  O2-  O206  1  0.16603266  0.20112625  0.94229203  1
  O2-  O207  1  0.16754357  0.71094920  0.26516661  1
  O2-  O208  1  0.16309824  0.70735363  0.60475128  1
  O2-  O209  1  0.16622561  0.71398997  0.92872827  1
  O2-  O210  1  0.66535704  0.21191969  0.26179507  1
  O2-  O211  1  0.67241038  0.20461077  0.59903693  1
  O2-  O212  1  0.66967247  0.20787584  0.93123373  1
  O2-  O213  1  0.66639507  0.69581728  0.26903961  1
  O2-  O214  1  0.66974723  0.70560295  0.59835445  1
  O2-  O215  1  0.66490141  0.70476293  0.94532929  1
  O2-  O216  1  0.08739121  0.45729448  0.06310207  1
  O2-  O217  1  0.08541571  0.45751641  0.39095503  1
  O2-  O218  1  0.08282464  0.45671370  0.73678725  1
  O2-  O219  1  0.08418651  0.96116723  0.06970188  1
  O2-  O220  1  0.08317913  0.96095483  0.40303333  1
  O2-  O221  1  0.08947313  0.95928066  0.73254986  1
  O2-  O222  1  0.57992811  0.45471306  0.06964425  1
  O2-  O223  1  0.58163664  0.45178802  0.39972711  1
  O2-  O224  1  0.57698624  0.44713102  0.72958400  1
  O2-  O225  1  0.58422891  0.96023428  0.06233630  1
  O2-  O226  1  0.58705997  0.96304258  0.39137307  1
  O2-  O227  1  0.57714955  0.95669403  0.73201573  1
  O2-  O228  1  0.20442981  0.33580827  0.06587763  1
  O2-  O229  1  0.20149974  0.33450732  0.39196709  1
  O2-  O230  1  0.20397439  0.32651263  0.73300677  1
  O2-  O231  1  0.21326851  0.83320539  0.06837117  1
  O2-  O232  1  0.21384711  0.83300479  0.40245131  1
  O2-  O233  1  0.20550422  0.83674670  0.73014922  1
  O2-  O234  1  0.71254627  0.32993252  0.06728350  1
  O2-  O235  1  0.71750618  0.33148031  0.39809236  1
  O2-  O236  1  0.71283567  0.33171050  0.73373106  1
  O2-  O237  1  0.70108012  0.83888687  0.06647110  1
  O2-  O238  1  0.69545124  0.83289214  0.38846440  1
  O2-  O239  1  0.70594421  0.83230652  0.73373737  1
  O2-  O240  1  0.44873645  0.41857404  0.27129021  1
  O2-  O241  1  0.44007107  0.42465626  0.60476905  1
  O2-  O242  1  0.44780038  0.42024545  0.94190370  1
  O2-  O243  1  0.46118996  0.91427380  0.26150062  1
  O2-  O244  1  0.45032674  0.91982248  0.59881722  1
  O2-  O245  1  0.45174721  0.91379142  0.94098868  1
  O2-  O246  1  0.96104561  0.41444057  0.26047006  1
  O2-  O247  1  0.96376501  0.41628034  0.59879465  1
  O2-  O248  1  0.95887945  0.41183373  0.93858126  1
  O2-  O249  1  0.95605445  0.92361943  0.26568685  1
  O2-  O250  1  0.96411831  0.91629288  0.60080451  1
  O2-  O251  1  0.95675884  0.91749557  0.93747236  1
  O2-  O252  1  0.33208724  0.29709404  0.26682578  1
  O2-  O253  1  0.33044730  0.28576478  0.59810954  1
  O2-  O254  1  0.33201213  0.29703495  0.93841205  1
  O2-  O255  1  0.33614984  0.78522153  0.26406528  1
  O2-  O256  1  0.32894190  0.79002346  0.59991332  1
  O2-  O257  1  0.33841912  0.78903729  0.93975763  1
  O2-  O258  1  0.83807972  0.28255236  0.26052098  1
  O2-  O259  1  0.83701245  0.28802524  0.59839972  1
  O2-  O260  1  0.84122205  0.28784726  0.93780262  1
  O2-  O261  1  0.82611822  0.80140450  0.26397775  1
  O2-  O262  1  0.83229657  0.79635905  0.60068324  1
  O2-  O263  1  0.82963051  0.80372366  0.94114174  1
  O2-  O264  1  0.41705516  0.04630572  0.06280594  1
  O2-  O265  1  0.41756314  0.04318023  0.39385380  1
  O2-  O266  1  0.41213261  0.04337438  0.73025561  1
  O2-  O267  1  0.41046170  0.54543252  0.06858006  1
  O2-  O268  1  0.41207916  0.54583282  0.39616156  1
  O2-  O269  1  0.41915149  0.54795692  0.73713567  1
  O2-  O270  1  0.91144331  0.04297346  0.06684597  1
  O2-  O271  1  0.91409608  0.05110540  0.39306486  1
  O2-  O272  1  0.91988654  0.04122584  0.73649929  1
  O2-  O273  1  0.92245041  0.54217315  0.06829699  1
  O2-  O274  1  0.91684108  0.54337079  0.39267442  1
  O2-  O275  1  0.91857217  0.54138184  0.73295182  1
  O2-  O276  1  0.29834318  0.16625225  0.06490923  1
  O2-  O277  1  0.30105434  0.16667335  0.39516757  1
  O2-  O278  1  0.29072624  0.15921802  0.73368673  1
  O2-  O279  1  0.28866592  0.66198553  0.06516966  1
  O2-  O280  1  0.28960054  0.66107993  0.39498240  1
  O2-  O281  1  0.28817455  0.66852140  0.73871594  1
  O2-  O282  1  0.79245460  0.16198653  0.06461727  1
  O2-  O283  1  0.78657295  0.15989211  0.39276979  1
  O2-  O284  1  0.79545979  0.16844407  0.73559282  1
  O2-  O285  1  0.79750474  0.67234577  0.07132059  1
  O2-  O286  1  0.80109303  0.66880425  0.39046390  1
  O2-  O287  1  0.79768131  0.67191291  0.73301488  1
