# generated using pymatgen
data_Ca2Al2SiO7
_symmetry_space_group_name_H-M   'P 1'
_cell_length_a   15.45712468
_cell_length_b   15.45717312
_cell_length_c   15.28338479
_cell_angle_alpha   90.00527508
_cell_angle_beta   89.99289521
_cell_angle_gamma   89.99376329
_symmetry_Int_Tables_number   1
_chemical_formula_structural   Ca2Al2SiO7
_chemical_formula_sum   'Ca48 Al48 Si24 O168'
_cell_volume   3651.55898641
_cell_formula_units_Z   24
loop_
 _symmetry_equiv_pos_site_id
 _symmetry_equiv_pos_as_xyz
  1  'x, y, z'
loop_
 _atom_type_symbol
 _atom_type_oxidation_number
  Ca2+  2.0
  Al0+  0.0
  Si0+  0.0
  O2-  -2.0
loop_
 _atom_site_type_symbol
 _atom_site_label
 _atom_site_symmetry_multiplicity
 _atom_site_fract_x
 _atom_site_fract_y
 _atom_site_fract_z
 _atom_site_occupancy
  Ca2+  Ca0  1  0.16987582  0.08559290  0.17100654  1
  Ca2+  Ca1  1  0.16067789  0.08813421  0.50276017  1
  Ca2+  Ca2  1  0.17048374  0.08586724  0.83719755  1
  Ca2+  Ca3  1  0.16772828  0.57795756  0.17330146  1
  Ca2+  Ca4  1  0.17411132  0.58439427  0.50488882  1
  Ca2+  Ca5  1  0.16699852  0.57218826  0.83460798  1
  Ca2+  Ca6  1  0.67027567  0.08035427  0.17577179  1
  Ca2+  Ca7  1  0.67460909  0.07856449  0.49670166  1
  Ca2+  Ca8  1  0.66586962  0.08237664  0.84008663  1
  Ca2+  Ca9  1  0.66897256  0.58324770  0.16493373  1
  Ca2+  Ca10  1  0.67429523  0.57490135  0.50984748  1
  Ca2+  Ca11  1  0.67519494  0.57303385  0.83908708  1
  Ca2+  Ca12  1  0.07297010  0.33481294  0.16341215  1
  Ca2+  Ca13  1  0.07766753  0.33087568  0.49588086  1
  Ca2+  Ca14  1  0.07780261  0.33769512  0.82754610  1
  Ca2+  Ca15  1  0.08022021  0.82592096  0.17049709  1
  Ca2+  Ca16  1  0.07178709  0.82633041  0.49256776  1
  Ca2+  Ca17  1  0.07635219  0.82956218  0.82451371  1
  Ca2+  Ca18  1  0.57822823  0.33226613  0.15874287  1
  Ca2+  Ca19  1  0.57863490  0.33966153  0.49495067  1
  Ca2+  Ca20  1  0.59301508  0.33138025  0.83276170  1
  Ca2+  Ca21  1  0.58284952  0.83011129  0.16365680  1
  Ca2+  Ca22  1  0.57347695  0.83278462  0.49409134  1
  Ca2+  Ca23  1  0.57879245  0.82240526  0.82905926  1
  Ca2+  Ca24  1  0.32814318  0.41887618  0.17496388  1
  Ca2+  Ca25  1  0.33012503  0.42796594  0.50671783  1
  Ca2+  Ca26  1  0.31904073  0.41550099  0.83541053  1
  Ca2+  Ca27  1  0.33834329  0.92310479  0.17202142  1
  Ca2+  Ca28  1  0.33351564  0.91350819  0.50433736  1
  Ca2+  Ca29  1  0.33586845  0.92156256  0.83625334  1
  Ca2+  Ca30  1  0.83191345  0.41326078  0.16647047  1
  Ca2+  Ca31  1  0.83453861  0.41833613  0.50904500  1
  Ca2+  Ca32  1  0.83438354  0.42321810  0.83995283  1
  Ca2+  Ca33  1  0.82639878  0.92307313  0.18195903  1
  Ca2+  Ca34  1  0.83756652  0.91640640  0.50036277  1
  Ca2+  Ca35  1  0.83555101  0.91783891  0.83627636  1
  Ca2+  Ca36  1  0.42052601  0.17057032  0.16093900  1
  Ca2+  Ca37  1  0.41912333  0.17826320  0.49292616  1
  Ca2+  Ca38  1  0.42138914  0.16419035  0.83422288  1
  Ca2+  Ca39  1  0.41993683  0.66972181  0.16489666  1
  Ca2+  Ca40  1  0.40939374  0.67221207  0.49255157  1
  Ca2+  Ca41  1  0.42147123  0.66375063  0.82748000  1
  Ca2+  Ca42  1  0.91419527  0.17548060  0.16653804  1
  Ca2+  Ca43  1  0.92523188  0.17680303  0.49251444  1
  Ca2+  Ca44  1  0.92169778  0.18329663  0.82497290  1
  Ca2+  Ca45  1  0.91563529  0.66726925  0.16476073  1
  Ca2+  Ca46  1  0.91751665  0.67128613  0.49446593  1
  Ca2+  Ca47  1  0.91029977  0.66737453  0.82790705  1
  Al0+  Al48  1  0.00094280  -0.00031117  0.00146277  1
  Al0+  Al49  1  0.00117502  0.00050717  0.32981665  1
  Al0+  Al50  1  0.00060671  -0.00070347  0.66192597  1
  Al0+  Al51  1  0.00079997  0.50200179  0.00446479  1
  Al0+  Al52  1  -0.00027317  0.49830335  0.32749035  1
  Al0+  Al53  1  0.00091476  0.50129304  0.66941602  1
  Al0+  Al54  1  0.49900692  0.00158000  0.00023778  1
  Al0+  Al55  1  0.49991270  -0.00028725  0.33603237  1
  Al0+  Al56  1  0.50094363  -0.00130397  0.66255504  1
  Al0+  Al57  1  0.49950752  0.50059067  -0.00298421  1
  Al0+  Al58  1  0.49835606  0.50126200  0.33288600  1
  Al0+  Al59  1  0.50237647  0.49866416  0.67473170  1
  Al0+  Al60  1  0.25010912  0.24892771  0.00940205  1
  Al0+  Al61  1  0.24992239  0.25068293  0.32730868  1
  Al0+  Al62  1  0.25338044  0.24901083  0.66761157  1
  Al0+  Al63  1  0.24725175  0.75115182  -0.00170685  1
  Al0+  Al64  1  0.25095472  0.75156316  0.32701701  1
  Al0+  Al65  1  0.25049339  0.75252772  0.66950077  1
  Al0+  Al66  1  0.74989660  0.25060552  -0.00524003  1
  Al0+  Al67  1  0.75012658  0.24794508  0.33639105  1
  Al0+  Al68  1  0.75121988  0.24615478  0.66458532  1
  Al0+  Al69  1  0.74795304  0.74976639  -0.00125696  1
  Al0+  Al70  1  0.74774389  0.74888285  0.33574937  1
  Al0+  Al71  1  0.74703803  0.75050401  0.66557611  1
  Al0+  Al72  1  0.92641527  0.32113137  0.31693257  1
  Al0+  Al73  1  0.92622709  0.81984203  0.31772336  1
  Al0+  Al74  1  0.82145427  0.57249896  0.68012060  1
  Al0+  Al75  1  0.82015845  0.57242737  0.01764182  1
  Al0+  Al76  1  0.32071566  0.06830849  0.01466386  1
  Al0+  Al77  1  0.67890606  0.42725433  0.01664235  1
  Al0+  Al78  1  0.18009180  0.42744884  0.67978103  1
  Al0+  Al79  1  0.31986700  0.57143760  0.34516806  1
  Al0+  Al80  1  0.42946893  0.81991224  0.65323074  1
  Al0+  Al81  1  0.17944991  0.42990472  0.01666257  1
  Al0+  Al82  1  0.07138306  0.67865752  0.31848060  1
  Al0+  Al83  1  0.67772192  0.92661791  0.35024311  1
  Al0+  Al84  1  0.82340999  0.07126965  0.35004499  1
  Al0+  Al85  1  0.93087235  0.32123230  0.98484808  1
  Al0+  Al86  1  0.92678542  0.82005664  0.65351437  1
  Al0+  Al87  1  0.07223854  0.17840346  0.31567267  1
  Al0+  Al88  1  0.56989726  0.17995760  0.98706891  1
  Al0+  Al89  1  0.92927929  0.32376404  0.65197352  1
  Al0+  Al90  1  0.68009543  0.42454896  0.68175664  1
  Al0+  Al91  1  0.57073660  0.67834014  0.98470008  1
  Al0+  Al92  1  0.07373629  0.17993038  0.65359765  1
  Al0+  Al93  1  0.42957615  0.82192230  0.31852365  1
  Al0+  Al94  1  0.32151322  0.57452567  0.68265872  1
  Al0+  Al95  1  0.43000034  0.32356869  0.32071867  1
  Si0+  Si96  1  0.42555705  0.32204083  0.98270353  1
  Si0+  Si97  1  0.82196990  0.56983913  0.34780877  1
  Si0+  Si98  1  0.67821429  0.42880817  0.34639181  1
  Si0+  Si99  1  0.18084975  0.92957315  0.34837375  1
  Si0+  Si100  1  0.57162343  0.67695615  0.31746881  1
  Si0+  Si101  1  0.67962629  0.92998234  0.01309070  1
  Si0+  Si102  1  0.82267764  0.06773387  0.68274738  1
  Si0+  Si103  1  0.07312415  0.17687112  0.98379135  1
  Si0+  Si104  1  0.57029286  0.17909649  0.31871557  1
  Si0+  Si105  1  0.67702084  0.93068316  0.68341112  1
  Si0+  Si106  1  0.07282057  0.67867584  0.65220302  1
  Si0+  Si107  1  0.17731754  0.42748528  0.35009080  1
  Si0+  Si108  1  0.07097670  0.67965496  0.98307969  1
  Si0+  Si109  1  0.32100095  0.07268171  0.35013922  1
  Si0+  Si110  1  0.17811193  0.93057596  0.68050706  1
  Si0+  Si111  1  0.32353994  0.07039496  0.68012492  1
  Si0+  Si112  1  0.82168303  0.07102924  0.01259876  1
  Si0+  Si113  1  0.32195149  0.57415164  0.01659452  1
  Si0+  Si114  1  0.57228190  0.17612483  0.64983609  1
  Si0+  Si115  1  0.42763537  0.82230398  0.98330570  1
  Si0+  Si116  1  0.43115670  0.32028530  0.65408110  1
  Si0+  Si117  1  0.56987734  0.67623131  0.64925161  1
  Si0+  Si118  1  0.92881225  0.82174482  0.98595122  1
  Si0+  Si119  1  0.17556943  0.92651255  0.01842451  1
  O2-  O120  1  0.24598159  -0.00617557  0.06155935  1
  O2-  O121  1  0.24904314  0.00296550  0.39257951  1
  O2-  O122  1  0.24990325  0.00157251  0.72188249  1
  O2-  O123  1  0.25653802  0.50356134  0.06181346  1
  O2-  O124  1  0.24486925  0.49788214  0.39325696  1
  O2-  O125  1  0.25000870  0.50149630  0.73121706  1
  O2-  O126  1  0.75118231  -0.00019237  0.05522755  1
  O2-  O127  1  0.75459874  -0.00541692  0.39931895  1
  O2-  O128  1  0.75056121  -0.00175602  0.72717365  1
  O2-  O129  1  0.74953975  0.49927398  0.06855349  1
  O2-  O130  1  0.75243969  0.49646232  0.38863016  1
  O2-  O131  1  0.75465364  0.49515411  0.72961022  1
  O2-  O132  1  -0.00115426  0.24917907  0.26701238  1
  O2-  O133  1  0.00408366  0.25358145  0.60365961  1
  O2-  O134  1  0.00676927  0.24645716  0.93902146  1
  O2-  O135  1  -0.00454119  0.74620606  0.26650628  1
  O2-  O136  1  -0.00140148  0.74197504  0.60888076  1
  O2-  O137  1  -0.00091788  0.75094179  0.94227316  1
  O2-  O138  1  0.50412297  0.24885463  0.27343019  1
  O2-  O139  1  0.50629850  0.25327895  0.61084074  1
  O2-  O140  1  0.49751616  0.25626947  0.93820550  1
  O2-  O141  1  0.50606378  0.74910137  0.27332929  1
  O2-  O142  1  0.49723580  0.74033504  0.60459026  1
  O2-  O143  1  0.49148055  0.74978408  0.93888317  1
  O2-  O144  1  0.07021022  0.17423592  0.08874068  1
  O2-  O145  1  0.07415898  0.18191639  0.42935035  1
  O2-  O146  1  0.07192580  0.17717440  0.76745927  1
  O2-  O147  1  0.07395733  0.68209602  0.08772011  1
  O2-  O148  1  0.07186352  0.68117564  0.43233919  1
  O2-  O149  1  0.07486917  0.68332633  0.75812047  1
  O2-  O150  1  0.56730416  0.17701589  0.09985925  1
  O2-  O151  1  0.56782199  0.18006920  0.42480355  1
  O2-  O152  1  0.56945897  0.17101385  0.75493129  1
  O2-  O153  1  0.57142153  0.68344773  0.09788492  1
  O2-  O154  1  0.56973859  0.67454449  0.42291330  1
  O2-  O155  1  0.57051969  0.68082569  0.75484824  1
  O2-  O156  1  0.17957764  0.42861518  0.24429962  1
  O2-  O157  1  0.18434644  0.42618252  0.56637152  1
  O2-  O158  1  0.18005932  0.43049910  0.90342855  1
  O2-  O159  1  0.18421002  0.92954952  0.24312971  1
  O2-  O160  1  0.17855052  0.92935297  0.57559459  1
  O2-  O161  1  0.17314734  0.92656282  0.91254585  1
  O2-  O162  1  0.67606692  0.42961595  0.24166864  1
  O2-  O163  1  0.67664000  0.42830901  0.56741605  1
  O2-  O164  1  0.68318562  0.42722207  0.90353673  1
  O2-  O165  1  0.67600979  0.93042698  0.23586532  1
  O2-  O166  1  0.67403069  0.93339434  0.57899777  1
  O2-  O167  1  0.68036799  0.93095597  0.90748529  1
  O2-  O168  1  0.42642626  0.31974191  0.08843879  1
  O2-  O169  1  0.43196956  0.32309302  0.43454147  1
  O2-  O170  1  0.42782778  0.31512529  0.75885952  1
  O2-  O171  1  0.42996792  0.82374914  0.08876314  1
  O2-  O172  1  0.42844707  0.82091652  0.43168642  1
  O2-  O173  1  0.43404660  0.82512604  0.76630581  1
  O2-  O174  1  0.92941780  0.31724679  0.09751895  1
  O2-  O175  1  0.92670459  0.32294935  0.43030138  1
  O2-  O176  1  0.92908870  0.32141589  0.76571661  1
  O2-  O177  1  0.92972613  0.82320686  0.09042926  1
  O2-  O178  1  0.92873159  0.81710021  0.43142964  1
  O2-  O179  1  0.93040758  0.82336149  0.76736418  1
  O2-  O180  1  0.32279465  0.07014480  0.24506575  1
  O2-  O181  1  0.32579423  0.07003673  0.57515473  1
  O2-  O182  1  0.32135692  0.06586275  0.90081829  1
  O2-  O183  1  0.32063186  0.56919417  0.23202407  1
  O2-  O184  1  0.31936746  0.57502345  0.56880856  1
  O2-  O185  1  0.31841686  0.57543428  0.91109791  1
  O2-  O186  1  0.81735998  0.07221178  0.23563738  1
  O2-  O187  1  0.82127081  0.06610809  0.57822944  1
  O2-  O188  1  0.82214015  0.06707411  0.90710145  1
  O2-  O189  1  0.81943425  0.57210704  0.24304924  1
  O2-  O190  1  0.81816023  0.57441563  0.56603914  1
  O2-  O191  1  0.81920062  0.57493346  0.90432173  1
  O2-  O192  1  0.04891466  0.07875137  0.26332746  1
  O2-  O193  1  0.04366457  0.08228226  0.59991372  1
  O2-  O194  1  0.04809759  0.08209590  0.93784387  1
  O2-  O195  1  0.04712389  0.57995178  0.26547180  1
  O2-  O196  1  0.05496179  0.58356668  0.60774838  1
  O2-  O197  1  0.04338701  0.58824777  0.93642254  1
  O2-  O198  1  0.54232521  0.08618009  0.27325880  1
  O2-  O199  1  0.53732961  0.08820198  0.59964712  1
  O2-  O200  1  0.53589459  0.08409058  0.93077555  1
  O2-  O201  1  0.54189448  0.58615829  0.26842896  1
  O2-  O202  1  0.55005261  0.57982088  0.60691520  1
  O2-  O203  1  0.54324417  0.58139761  0.92953958  1
  O2-  O204  1  0.17045337  0.20586586  0.26171780  1
  O2-  O205  1  0.17479710  0.20183619  0.60229035  1
  O2-  O206  1  0.16925522  0.20022351  0.94201966  1
  O2-  O207  1  0.16605427  0.71372733  0.26174341  1
  O2-  O208  1  0.16402736  0.71147758  0.60570532  1
  O2-  O209  1  0.16187384  0.70906712  0.93330537  1
  O2-  O210  1  0.66476003  0.20096544  0.27444197  1
  O2-  O211  1  0.66560974  0.19656914  0.60308636  1
  O2-  O212  1  0.66617456  0.20599870  0.92974448  1
  O2-  O213  1  0.66546451  0.70021850  0.27141715  1
  O2-  O214  1  0.66098437  0.70744926  0.60173479  1
  O2-  O215  1  0.66475577  0.71540425  0.92889701  1
  O2-  O216  1  0.08524232  0.46457855  0.07159473  1
  O2-  O217  1  0.08233801  0.45127490  0.39361622  1
  O2-  O218  1  0.08226560  0.45516164  0.73401866  1
  O2-  O219  1  0.08309953  0.95352698  0.06648578  1
  O2-  O220  1  0.08772331  0.95370392  0.39454292  1
  O2-  O221  1  0.08701878  0.95866848  0.72991481  1
  O2-  O222  1  0.57752727  0.45421220  0.06503209  1
  O2-  O223  1  0.58800259  0.46078621  0.39511632  1
  O2-  O224  1  0.58293544  0.45208955  0.73787455  1
  O2-  O225  1  0.58793342  0.95838499  0.05977751  1
  O2-  O226  1  0.58108007  0.96102217  0.40482475  1
  O2-  O227  1  0.58688485  0.96329513  0.73215305  1
  O2-  O228  1  0.20761137  0.33322328  0.07137887  1
  O2-  O229  1  0.20591396  0.33387924  0.39384386  1
  O2-  O230  1  0.21324592  0.33037676  0.73500815  1
  O2-  O231  1  0.20002953  0.83234762  0.06385910  1
  O2-  O232  1  0.21252400  0.83913933  0.39558165  1
  O2-  O233  1  0.20591106  0.84061855  0.73174556  1
  O2-  O234  1  0.70617386  0.32707527  0.06727383  1
  O2-  O235  1  0.70002523  0.33562749  0.39370218  1
  O2-  O236  1  0.70233652  0.32268995  0.73087801  1
  O2-  O237  1  0.70646208  0.83876811  0.06069569  1
  O2-  O238  1  0.69974333  0.82651934  0.40298623  1
  O2-  O239  1  0.70152689  0.83758995  0.72957192  1
  O2-  O240  1  0.46056374  0.41868892  0.26456793  1
  O2-  O241  1  0.45658590  0.41376632  0.60876259  1
  O2-  O242  1  0.44470169  0.41714842  0.93800008  1
  O2-  O243  1  0.45964153  0.91970315  0.26611425  1
  O2-  O244  1  0.46437204  0.91462948  0.59714243  1
  O2-  O245  1  0.45777315  0.91426284  0.93658523  1
  O2-  O246  1  0.95353621  0.41866813  0.26219388  1
  O2-  O247  1  0.95412847  0.42375448  0.60086267  1
  O2-  O248  1  0.96231717  0.41965879  0.93540041  1
  O2-  O249  1  0.95603352  0.91780363  0.26578680  1
  O2-  O250  1  0.96253196  0.91392356  0.59812146  1
  O2-  O251  1  0.95793898  0.91366646  0.93763533  1
  O2-  O252  1  0.33519208  0.29220450  0.26531646  1
  O2-  O253  1  0.34243436  0.28803773  0.60361159  1
  O2-  O254  1  0.33307935  0.28930751  0.93824278  1
  O2-  O255  1  0.33531008  0.79181903  0.26091288  1
  O2-  O256  1  0.32987999  0.79687422  0.60157158  1
  O2-  O257  1  0.33112087  0.80298809  0.93959901  1
  O2-  O258  1  0.82742690  0.29024787  0.26568028  1
  O2-  O259  1  0.83153124  0.29069075  0.59959427  1
  O2-  O260  1  0.83546463  0.28847600  0.93002672  1
  O2-  O261  1  0.82576741  0.79467871  0.26739240  1
  O2-  O262  1  0.82820621  0.79582671  0.60084040  1
  O2-  O263  1  0.83656700  0.79609414  0.93841079  1
  O2-  O264  1  0.41654136  0.03617518  0.07030445  1
  O2-  O265  1  0.41222464  0.04482102  0.39854000  1
  O2-  O266  1  0.41389700  0.03764097  0.72852664  1
  O2-  O267  1  0.41751838  0.55297702  0.05965315  1
  O2-  O268  1  0.41626888  0.54097927  0.40064219  1
  O2-  O269  1  0.41977349  0.54599894  0.73485536  1
  O2-  O270  1  0.91351333  0.04381903  0.06033394  1
  O2-  O271  1  0.92376247  0.04593494  0.40008723  1
  O2-  O272  1  0.91373550  0.03732483  0.73040258  1
  O2-  O273  1  0.91958167  0.54812686  0.06899104  1
  O2-  O274  1  0.91494309  0.54381544  0.39353051  1
  O2-  O275  1  0.92195138  0.55303505  0.73232693  1
  O2-  O276  1  0.29311267  0.16382600  0.07141095  1
  O2-  O277  1  0.29398835  0.16572939  0.39585726  1
  O2-  O278  1  0.29950396  0.16152996  0.73005092  1
  O2-  O279  1  0.29444532  0.66858472  0.06101494  1
  O2-  O280  1  0.28938160  0.66960996  0.39653446  1
  O2-  O281  1  0.29439494  0.67318736  0.73676867  1
  O2-  O282  1  0.79225725  0.16206945  0.05837278  1
  O2-  O283  1  0.78882413  0.16698386  0.40623315  1
  O2-  O284  1  0.79457860  0.15948017  0.72972627  1
  O2-  O285  1  0.78808259  0.67121974  0.06954151  1
  O2-  O286  1  0.79286701  0.66078476  0.39623452  1
  O2-  O287  1  0.78834012  0.67041394  0.73349615  1
