# generated using pymatgen
data_Ca2Al2SiO7
_symmetry_space_group_name_H-M   'P 1'
_cell_length_a   15.45543575
_cell_length_b   15.45499059
_cell_length_c   15.28217655
_cell_angle_alpha   89.99527162
_cell_angle_beta   89.99846300
_cell_angle_gamma   89.98680657
_symmetry_Int_Tables_number   1
_chemical_formula_structural   Ca2Al2SiO7
_chemical_formula_sum   'Ca48 Al48 Si24 O168'
_cell_volume   3650.35581031
_cell_formula_units_Z   24
loop_
 _symmetry_equiv_pos_site_id
 _symmetry_equiv_pos_as_xyz
  1  'x, y, z'
loop_
 _atom_type_symbol
 _atom_type_oxidation_number
  Ca2+  2.0
  Al0+  0.0
  Si0+  0.0
  O2-  -2.0
loop_
 _atom_site_type_symbol
 _atom_site_label
 _atom_site_symmetry_multiplicity
 _atom_site_fract_x
 _atom_site_fract_y
 _atom_site_fract_z
 _atom_site_occupancy
  Ca2+  Ca0  1  0.17090988  0.07790112  0.17428975  1
  Ca2+  Ca1  1  0.17239635  0.08207139  0.50280200  1
  Ca2+  Ca2  1  0.16831769  0.08881285  0.83574092  1
  Ca2+  Ca3  1  0.16943986  0.58645245  0.17183741  1
  Ca2+  Ca4  1  0.15620392  0.57045209  0.50269962  1
  Ca2+  Ca5  1  0.17031747  0.57508356  0.84391175  1
  Ca2+  Ca6  1  0.67468054  0.07861102  0.17483940  1
  Ca2+  Ca7  1  0.67263332  0.07665386  0.49879171  1
  Ca2+  Ca8  1  0.67419681  0.08647720  0.84469728  1
  Ca2+  Ca9  1  0.66321850  0.58692975  0.16998466  1
  Ca2+  Ca10  1  0.67258200  0.59087713  0.50678916  1
  Ca2+  Ca11  1  0.66483317  0.58908584  0.83496682  1
  Ca2+  Ca12  1  0.08080026  0.32900268  0.16702571  1
  Ca2+  Ca13  1  0.08484765  0.33150005  0.49531583  1
  Ca2+  Ca14  1  0.09121485  0.32194248  0.82848000  1
  Ca2+  Ca15  1  0.07930934  0.83382788  0.16154583  1
  Ca2+  Ca16  1  0.07846108  0.82696453  0.48747759  1
  Ca2+  Ca17  1  0.07929317  0.82799658  0.83593308  1
  Ca2+  Ca18  1  0.57586174  0.32437182  0.15625914  1
  Ca2+  Ca19  1  0.57376422  0.33368438  0.49739810  1
  Ca2+  Ca20  1  0.57129809  0.33058109  0.83424379  1
  Ca2+  Ca21  1  0.58123506  0.82796483  0.16278521  1
  Ca2+  Ca22  1  0.58805478  0.82506336  0.49288200  1
  Ca2+  Ca23  1  0.57799822  0.82611620  0.83339528  1
  Ca2+  Ca24  1  0.32955452  0.42095900  0.16846667  1
  Ca2+  Ca25  1  0.32113815  0.41386723  0.50592719  1
  Ca2+  Ca26  1  0.33502903  0.41735113  0.83718339  1
  Ca2+  Ca27  1  0.32959391  0.91929456  0.17557743  1
  Ca2+  Ca28  1  0.32927016  0.92695698  0.50094862  1
  Ca2+  Ca29  1  0.33526294  0.91980521  0.83876011  1
  Ca2+  Ca30  1  0.83243959  0.41548225  0.17362300  1
  Ca2+  Ca31  1  0.83517966  0.42329545  0.50448831  1
  Ca2+  Ca32  1  0.83232099  0.42540138  0.83642636  1
  Ca2+  Ca33  1  0.83658540  0.92369388  0.17282224  1
  Ca2+  Ca34  1  0.83225162  0.91353742  0.49641504  1
  Ca2+  Ca35  1  0.83259198  0.92028245  0.84335494  1
  Ca2+  Ca36  1  0.41996046  0.16863252  0.15867433  1
  Ca2+  Ca37  1  0.40562019  0.16796732  0.49991977  1
  Ca2+  Ca38  1  0.41294615  0.17674433  0.82726938  1
  Ca2+  Ca39  1  0.42376339  0.67100927  0.15517258  1
  Ca2+  Ca40  1  0.43093917  0.66270363  0.49470946  1
  Ca2+  Ca41  1  0.42211058  0.66606999  0.83406451  1
  Ca2+  Ca42  1  0.91596279  0.16667546  0.16064720  1
  Ca2+  Ca43  1  0.92130595  0.17226712  0.49195242  1
  Ca2+  Ca44  1  0.92908522  0.16073827  0.83211408  1
  Ca2+  Ca45  1  0.93000509  0.68041733  0.16378900  1
  Ca2+  Ca46  1  0.91988671  0.66971354  0.48906480  1
  Ca2+  Ca47  1  0.91547180  0.67014393  0.83215056  1
  Al0+  Al48  1  -0.00011754  0.00092502  -0.00359288  1
  Al0+  Al49  1  0.00155311  0.00126041  0.33899515  1
  Al0+  Al50  1  0.00055970  -0.00087266  0.66120401  1
  Al0+  Al51  1  -0.00084531  0.49924907  -0.00000502  1
  Al0+  Al52  1  -0.00029174  0.49870258  0.32788427  1
  Al0+  Al53  1  -0.00128133  0.49942013  0.67905998  1
  Al0+  Al54  1  0.50222897  -0.00104304  -0.00569269  1
  Al0+  Al55  1  0.50244102  0.00026799  0.34313070  1
  Al0+  Al56  1  0.50013449  0.00028302  0.67140455  1
  Al0+  Al57  1  0.49920021  0.49917543  -0.00179205  1
  Al0+  Al58  1  0.49965327  0.49836491  0.32925036  1
  Al0+  Al59  1  0.49983240  0.49882530  0.65718806  1
  Al0+  Al60  1  0.24824661  0.25063226  -0.00406791  1
  Al0+  Al61  1  0.24922190  0.25329343  0.33821225  1
  Al0+  Al62  1  0.24918977  0.24891922  0.66581344  1
  Al0+  Al63  1  0.24990356  0.74913191  -0.00378749  1
  Al0+  Al64  1  0.25432589  0.74930727  0.33795000  1
  Al0+  Al65  1  0.24933043  0.75051325  0.66495049  1
  Al0+  Al66  1  0.75031611  0.25195057  0.00000623  1
  Al0+  Al67  1  0.74914882  0.25087305  0.33566708  1
  Al0+  Al68  1  0.74895037  0.25052873  0.66843361  1
  Al0+  Al69  1  0.75034445  0.75027758  -0.00462138  1
  Al0+  Al70  1  0.75151956  0.75013099  0.32711329  1
  Al0+  Al71  1  0.74959505  0.75092112  0.66880598  1
  Al0+  Al72  1  0.57309098  0.17778497  0.98676692  1
  Al0+  Al73  1  0.32049874  0.57035367  0.01304271  1
  Al0+  Al74  1  0.93095764  0.82358398  0.31827642  1
  Al0+  Al75  1  0.07208959  0.67702322  0.98384121  1
  Al0+  Al76  1  0.17873179  0.43303369  0.34602940  1
  Al0+  Al77  1  0.31859396  0.06886403  0.68350572  1
  Al0+  Al78  1  0.82278756  0.07381040  0.34972706  1
  Al0+  Al79  1  0.17838362  0.92580584  0.34791609  1
  Al0+  Al80  1  0.57083627  0.67809456  0.98434310  1
  Al0+  Al81  1  0.06887365  0.18024948  0.98850034  1
  Al0+  Al82  1  0.93036190  0.82162293  0.98413667  1
  Al0+  Al83  1  0.42794763  0.31915205  0.98594821  1
  Al0+  Al84  1  0.92767182  0.31997944  0.32108256  1
  Al0+  Al85  1  0.68117817  0.92709828  0.34817329  1
  Al0+  Al86  1  0.57102213  0.67866390  0.31819873  1
  Al0+  Al87  1  0.32162423  0.07229693  0.34688902  1
  Al0+  Al88  1  0.82132703  0.07077735  0.01303934  1
  Al0+  Al89  1  0.81901608  0.57149907  0.68075881  1
  Al0+  Al90  1  0.42983747  0.31863987  0.65004963  1
  Al0+  Al91  1  0.07429882  0.67745879  0.32045619  1
  Al0+  Al92  1  0.56923126  0.68217252  0.65152953  1
  Al0+  Al93  1  0.06968531  0.17954914  0.65010672  1
  Al0+  Al94  1  0.42666123  0.82255106  0.98604830  1
  Al0+  Al95  1  0.17961879  0.42971216  0.68264091  1
  Si0+  Si96  1  0.43031269  0.82423001  0.31979475  1
  Si0+  Si97  1  0.92569414  0.32360502  0.98204418  1
  Si0+  Si98  1  0.67758989  0.92672765  0.01626303  1
  Si0+  Si99  1  0.42612875  0.82504137  0.64766837  1
  Si0+  Si100  1  0.32564344  0.57172157  0.35059244  1
  Si0+  Si101  1  0.17561094  0.92599055  0.68537164  1
  Si0+  Si102  1  0.92666220  0.32343047  0.65251056  1
  Si0+  Si103  1  0.82168483  0.07148057  0.68167583  1
  Si0+  Si104  1  0.82194793  0.57297730  0.01809037  1
  Si0+  Si105  1  0.57460703  0.17593812  0.64846110  1
  Si0+  Si106  1  0.67971901  0.43091674  0.01570328  1
  Si0+  Si107  1  0.57069517  0.17879013  0.32092758  1
  Si0+  Si108  1  0.32376346  0.57239170  0.68108831  1
  Si0+  Si109  1  0.42721415  0.31959048  0.31739100  1
  Si0+  Si110  1  0.81847660  0.56844023  0.34437844  1
  Si0+  Si111  1  0.67528980  0.42735769  0.68340593  1
  Si0+  Si112  1  0.67622182  0.42788384  0.34825266  1
  Si0+  Si113  1  0.32182009  0.07227259  0.01225842  1
  Si0+  Si114  1  0.92928596  0.81955807  0.65080550  1
  Si0+  Si115  1  0.17687332  0.42607278  0.01849228  1
  Si0+  Si116  1  0.18006002  0.92992935  0.01244572  1
  Si0+  Si117  1  0.68041659  0.92901709  0.68403945  1
  Si0+  Si118  1  0.07043007  0.67666910  0.65359649  1
  Si0+  Si119  1  0.07313616  0.17962328  0.31803605  1
  O2-  O120  1  0.25423297  -0.00167167  0.05445161  1
  O2-  O121  1  0.24914161  0.00017553  0.39649608  1
  O2-  O122  1  0.24598127  -0.00768360  0.73087614  1
  O2-  O123  1  0.24290823  0.49843973  0.06072101  1
  O2-  O124  1  0.25067108  0.50976843  0.39463821  1
  O2-  O125  1  0.25283770  0.50697619  0.72670279  1
  O2-  O126  1  0.74503231  -0.00247801  0.05911537  1
  O2-  O127  1  0.75454521  -0.00231205  0.39955365  1
  O2-  O128  1  0.74829903  0.00369078  0.72501747  1
  O2-  O129  1  0.75032881  0.50185211  0.05953912  1
  O2-  O130  1  0.74578337  0.50048915  0.38980914  1
  O2-  O131  1  0.74406313  0.49626826  0.72726529  1
  O2-  O132  1  -0.00156499  0.24185715  0.27397961  1
  O2-  O133  1  -0.00656121  0.25433910  0.60650373  1
  O2-  O134  1  -0.00453812  0.25546604  0.93947049  1
  O2-  O135  1  0.01019677  0.75723607  0.27136974  1
  O2-  O136  1  0.00100625  0.74846804  0.61014889  1
  O2-  O137  1  -0.00213019  0.74612109  0.93256784  1
  O2-  O138  1  0.49716488  0.24668781  0.27757433  1
  O2-  O139  1  0.50465047  0.24312350  0.60344138  1
  O2-  O140  1  0.49661017  0.24392916  0.93561271  1
  O2-  O141  1  0.49519441  0.75276620  0.27419105  1
  O2-  O142  1  0.49310258  0.75451221  0.60333849  1
  O2-  O143  1  0.49816588  0.74990999  0.93571738  1
  O2-  O144  1  0.06993967  0.18028874  0.10151869  1
  O2-  O145  1  0.07445221  0.18447251  0.42359570  1
  O2-  O146  1  0.06793849  0.17900234  0.76349877  1
  O2-  O147  1  0.07241452  0.67989782  0.09713167  1
  O2-  O148  1  0.06583777  0.67318047  0.43469031  1
  O2-  O149  1  0.06940001  0.67830675  0.75833094  1
  O2-  O150  1  0.57205592  0.18000662  0.10097619  1
  O2-  O151  1  0.57219393  0.18243905  0.42605454  1
  O2-  O152  1  0.57678837  0.17803025  0.75375759  1
  O2-  O153  1  0.56990800  0.67921413  0.09796050  1
  O2-  O154  1  0.57194073  0.67794847  0.43164736  1
  O2-  O155  1  0.56900163  0.68362964  0.76401022  1
  O2-  O156  1  0.18193573  0.42966751  0.23327954  1
  O2-  O157  1  0.17739190  0.43158468  0.56919997  1
  O2-  O158  1  0.17834639  0.42486881  0.91284211  1
  O2-  O159  1  0.18064404  0.92821063  0.23355798  1
  O2-  O160  1  0.17533483  0.92579811  0.58015107  1
  O2-  O161  1  0.17912346  0.93193934  0.90716385  1
  O2-  O162  1  0.67577542  0.42637994  0.24315046  1
  O2-  O163  1  0.67671506  0.42644475  0.57751056  1
  O2-  O164  1  0.68139062  0.43069314  0.91053192  1
  O2-  O165  1  0.67793272  0.93016458  0.23497355  1
  O2-  O166  1  0.68308278  0.92670232  0.57907495  1
  O2-  O167  1  0.67955858  0.92677254  0.91017245  1
  O2-  O168  1  0.42900848  0.31773017  0.10011270  1
  O2-  O169  1  0.42836244  0.32115351  0.42249717  1
  O2-  O170  1  0.43199841  0.31919046  0.76280382  1
  O2-  O171  1  0.42723422  0.82374646  0.09987191  1
  O2-  O172  1  0.43295935  0.82322348  0.42554380  1
  O2-  O173  1  0.42743576  0.82478299  0.75312816  1
  O2-  O174  1  0.92441350  0.32338112  0.08777288  1
  O2-  O175  1  0.92858353  0.32279303  0.43430359  1
  O2-  O176  1  0.92572851  0.32173652  0.75805312  1
  O2-  O177  1  0.93339692  0.82364720  0.09715114  1
  O2-  O178  1  0.92760752  0.81590461  0.43249924  1
  O2-  O179  1  0.92904259  0.82043639  0.75575656  1
  O2-  O180  1  0.32232206  0.07271435  0.23257326  1
  O2-  O181  1  0.31623515  0.06776982  0.57058692  1
  O2-  O182  1  0.31830450  0.07314398  0.90730775  1
  O2-  O183  1  0.32905566  0.56787634  0.24518349  1
  O2-  O184  1  0.32359217  0.57044725  0.57533548  1
  O2-  O185  1  0.32083529  0.56673698  0.89964944  1
  O2-  O186  1  0.81820807  0.07654909  0.23620448  1
  O2-  O187  1  0.82069942  0.07116354  0.57694610  1
  O2-  O188  1  0.82118241  0.06856499  0.89911840  1
  O2-  O189  1  0.81650256  0.56517358  0.23942477  1
  O2-  O190  1  0.81960250  0.57122176  0.56702082  1
  O2-  O191  1  0.82155597  0.57108717  0.91274447  1
  O2-  O192  1  0.05548509  0.08312240  0.27646883  1
  O2-  O193  1  0.04005393  0.08258572  0.59606756  1
  O2-  O194  1  0.03788293  0.08600726  0.93030390  1
  O2-  O195  1  0.03891592  0.58334140  0.26388656  1
  O2-  O196  1  0.03923340  0.58405008  0.60983132  1
  O2-  O197  1  0.04477804  0.57709068  0.93328272  1
  O2-  O198  1  0.54599106  0.08532980  0.27621320  1
  O2-  O199  1  0.55048041  0.08070227  0.60543496  1
  O2-  O200  1  0.55435541  0.07820340  0.93380470  1
  O2-  O201  1  0.54151060  0.58089975  0.26524490  1
  O2-  O202  1  0.54353255  0.58453862  0.59634914  1
  O2-  O203  1  0.54285212  0.57997369  0.93145376  1
  O2-  O204  1  0.16433546  0.21280893  0.27099183  1
  O2-  O205  1  0.16508577  0.21242150  0.59679511  1
  O2-  O206  1  0.16409223  0.21081202  0.93147534  1
  O2-  O207  1  0.17780822  0.69584187  0.27463554  1
  O2-  O208  1  0.16345952  0.70032145  0.60622669  1
  O2-  O209  1  0.16858602  0.70635162  0.92880632  1
  O2-  O210  1  0.66071370  0.21030003  0.27268682  1
  O2-  O211  1  0.66804954  0.20337960  0.60194818  1
  O2-  O212  1  0.66898077  0.21282087  0.93209979  1
  O2-  O213  1  0.66689149  0.70800780  0.26353131  1
  O2-  O214  1  0.66647313  0.71594442  0.59939176  1
  O2-  O215  1  0.66902212  0.70559602  0.93105576  1
  O2-  O216  1  0.08092728  0.44719881  0.06197036  1
  O2-  O217  1  0.08074395  0.46140785  0.39992510  1
  O2-  O218  1  0.08395538  0.45692274  0.74014740  1
  O2-  O219  1  0.08990337  0.96235077  0.05986429  1
  O2-  O220  1  0.08064013  0.95151526  0.40321125  1
  O2-  O221  1  0.08169329  0.95420133  0.72994667  1
  O2-  O222  1  0.58778883  0.45731599  0.06351185  1
  O2-  O223  1  0.58377481  0.45447251  0.39542443  1
  O2-  O224  1  0.58163863  0.45526673  0.72739797  1
  O2-  O225  1  0.58284121  0.94992385  0.06128165  1
  O2-  O226  1  0.58570729  0.95705050  0.40691326  1
  O2-  O227  1  0.58717510  0.95224450  0.73044792  1
  O2-  O228  1  0.20644864  0.33354252  0.06517015  1
  O2-  O229  1  0.21184716  0.33860436  0.40300657  1
  O2-  O230  1  0.21342367  0.33364626  0.73456381  1
  O2-  O231  1  0.20433726  0.83714784  0.05872777  1
  O2-  O232  1  0.20702827  0.82812732  0.40414678  1
  O2-  O233  1  0.19897845  0.83076669  0.73024333  1
  O2-  O234  1  0.70824717  0.33964834  0.06463220  1
  O2-  O235  1  0.70458970  0.33811987  0.39881177  1
  O2-  O236  1  0.70027476  0.33388436  0.73087147  1
  O2-  O237  1  0.70410301  0.83287259  0.06115162  1
  O2-  O238  1  0.71143031  0.82802243  0.40063099  1
  O2-  O239  1  0.71258562  0.83968357  0.73335372  1
  O2-  O240  1  0.45778310  0.40980883  0.26877487  1
  O2-  O241  1  0.46056148  0.41368584  0.59239121  1
  O2-  O242  1  0.46167885  0.41486229  0.93205735  1
  O2-  O243  1  0.45838258  0.91779175  0.27495624  1
  O2-  O244  1  0.45486996  0.91861425  0.60359350  1
  O2-  O245  1  0.45589460  0.91921906  0.92932630  1
  O2-  O246  1  0.96033155  0.41350377  0.26274444  1
  O2-  O247  1  0.95335247  0.41831927  0.60965878  1
  O2-  O248  1  0.94962646  0.41755955  0.93667411  1
  O2-  O249  1  0.95311730  0.92535905  0.26983764  1
  O2-  O250  1  0.95577717  0.91087725  0.60218211  1
  O2-  O251  1  0.96232193  0.91757770  0.92836353  1
  O2-  O252  1  0.33502404  0.29347452  0.27064396  1
  O2-  O253  1  0.33375575  0.28591091  0.59680383  1
  O2-  O254  1  0.32992309  0.29394805  0.93165002  1
  O2-  O255  1  0.33523131  0.80284225  0.27557743  1
  O2-  O256  1  0.33083203  0.80265009  0.60306536  1
  O2-  O257  1  0.32973387  0.79574929  0.93011557  1
  O2-  O258  1  0.82916062  0.29381736  0.26734011  1
  O2-  O259  1  0.83153482  0.30095076  0.60721662  1
  O2-  O260  1  0.83267736  0.29944812  0.93498195  1
  O2-  O261  1  0.83580334  0.78976189  0.26289288  1
  O2-  O262  1  0.83748934  0.79043120  0.60464455  1
  O2-  O263  1  0.83174457  0.79498910  0.93085660  1
  O2-  O264  1  0.41619353  0.04839689  0.05626964  1
  O2-  O265  1  0.41875265  0.04602168  0.40389615  1
  O2-  O266  1  0.41777240  0.04334882  0.73616080  1
  O2-  O267  1  0.41657112  0.53720284  0.06774585  1
  O2-  O268  1  0.41647029  0.53696254  0.39829892  1
  O2-  O269  1  0.41719121  0.54269725  0.72507554  1
  O2-  O270  1  0.91792536  0.03895843  0.06642071  1
  O2-  O271  1  0.92223706  0.05199318  0.40256910  1
  O2-  O272  1  0.91360273  0.03989484  0.72679930  1
  O2-  O273  1  0.91370869  0.54402490  0.06500588  1
  O2-  O274  1  0.90928962  0.53777334  0.39192119  1
  O2-  O275  1  0.91260574  0.54074188  0.74059847  1
  O2-  O276  1  0.29128695  0.16326662  0.05999239  1
  O2-  O277  1  0.29139463  0.16986982  0.40095811  1
  O2-  O278  1  0.28486734  0.16499815  0.73593496  1
  O2-  O279  1  0.29247480  0.66854562  0.06605888  1
  O2-  O280  1  0.31216598  0.66759515  0.39569977  1
  O2-  O281  1  0.30237815  0.66831260  0.72446616  1
  O2-  O282  1  0.79359039  0.16956499  0.06464632  1
  O2-  O283  1  0.78843781  0.17039244  0.40487996  1
  O2-  O284  1  0.79728124  0.16473757  0.72862511  1
  O2-  O285  1  0.79414545  0.66554970  0.06318259  1
  O2-  O286  1  0.79272582  0.66075820  0.39124599  1
  O2-  O287  1  0.78666646  0.66719875  0.73596544  1
