# generated using pymatgen
data_Ca2Al2SiO7
_symmetry_space_group_name_H-M   'P 1'
_cell_length_a   15.45683486
_cell_length_b   15.45671510
_cell_length_c   15.28255048
_cell_angle_alpha   90.00190770
_cell_angle_beta   89.98766560
_cell_angle_gamma   89.99880891
_symmetry_Int_Tables_number   1
_chemical_formula_structural   Ca2Al2SiO7
_chemical_formula_sum   'Ca48 Al48 Si24 O168'
_cell_volume   3651.18297502
_cell_formula_units_Z   24
loop_
 _symmetry_equiv_pos_site_id
 _symmetry_equiv_pos_as_xyz
  1  'x, y, z'
loop_
 _atom_type_symbol
 _atom_type_oxidation_number
  Ca2+  2.0
  Al0+  0.0
  Si0+  0.0
  O2-  -2.0
loop_
 _atom_site_type_symbol
 _atom_site_label
 _atom_site_symmetry_multiplicity
 _atom_site_fract_x
 _atom_site_fract_y
 _atom_site_fract_z
 _atom_site_occupancy
  Ca2+  Ca0  1  0.16596808  0.07988300  0.17671097  1
  Ca2+  Ca1  1  0.16695628  0.07381189  0.49733612  1
  Ca2+  Ca2  1  0.16471218  0.07718821  0.83539303  1
  Ca2+  Ca3  1  0.16811758  0.58542574  0.16938647  1
  Ca2+  Ca4  1  0.16873983  0.58034500  0.50719932  1
  Ca2+  Ca5  1  0.17578748  0.58450887  0.83616701  1
  Ca2+  Ca6  1  0.67685871  0.08136779  0.17199872  1
  Ca2+  Ca7  1  0.67757937  0.07516512  0.50029954  1
  Ca2+  Ca8  1  0.67841938  0.08518410  0.84080400  1
  Ca2+  Ca9  1  0.67415258  0.58601073  0.16640618  1
  Ca2+  Ca10  1  0.66555253  0.57689085  0.50479163  1
  Ca2+  Ca11  1  0.66939144  0.57625673  0.83844696  1
  Ca2+  Ca12  1  0.07945357  0.31631534  0.15908826  1
  Ca2+  Ca13  1  0.08783784  0.32651211  0.49231435  1
  Ca2+  Ca14  1  0.08193753  0.33017931  0.83314433  1
  Ca2+  Ca15  1  0.07451320  0.83670706  0.16794842  1
  Ca2+  Ca16  1  0.07907132  0.83749909  0.49424039  1
  Ca2+  Ca17  1  0.07289078  0.83695273  0.82825465  1
  Ca2+  Ca18  1  0.57833839  0.32470356  0.16300738  1
  Ca2+  Ca19  1  0.57783073  0.33431801  0.49469336  1
  Ca2+  Ca20  1  0.59229805  0.32737680  0.83148406  1
  Ca2+  Ca21  1  0.57188752  0.84748337  0.16561279  1
  Ca2+  Ca22  1  0.57254401  0.83949156  0.49434476  1
  Ca2+  Ca23  1  0.56888791  0.83349632  0.82832082  1
  Ca2+  Ca24  1  0.33747350  0.42188304  0.17139110  1
  Ca2+  Ca25  1  0.32803461  0.42204554  0.50980515  1
  Ca2+  Ca26  1  0.32887498  0.42841856  0.83669675  1
  Ca2+  Ca27  1  0.32966537  0.92150685  0.17791319  1
  Ca2+  Ca28  1  0.32320348  0.91011949  0.50194710  1
  Ca2+  Ca29  1  0.32659410  0.90589257  0.83603976  1
  Ca2+  Ca30  1  0.84168474  0.41965888  0.16416105  1
  Ca2+  Ca31  1  0.82645047  0.41859572  0.50774339  1
  Ca2+  Ca32  1  0.83180545  0.42019312  0.84193562  1
  Ca2+  Ca33  1  0.83391160  0.92300385  0.17554516  1
  Ca2+  Ca34  1  0.84402952  0.92536694  0.50119593  1
  Ca2+  Ca35  1  0.84059788  0.92441405  0.83909580  1
  Ca2+  Ca36  1  0.41863068  0.16773633  0.16283174  1
  Ca2+  Ca37  1  0.41166309  0.17490263  0.48905192  1
  Ca2+  Ca38  1  0.42806355  0.16453766  0.83016857  1
  Ca2+  Ca39  1  0.41466696  0.67953357  0.16190855  1
  Ca2+  Ca40  1  0.41088768  0.67560767  0.49782353  1
  Ca2+  Ca41  1  0.40782376  0.67149356  0.83048974  1
  Ca2+  Ca42  1  0.92466436  0.16033161  0.15944691  1
  Ca2+  Ca43  1  0.91962796  0.16254309  0.49471567  1
  Ca2+  Ca44  1  0.91767814  0.16412601  0.83371313  1
  Ca2+  Ca45  1  0.91992864  0.67630909  0.16126562  1
  Ca2+  Ca46  1  0.92503483  0.67891957  0.48984397  1
  Ca2+  Ca47  1  0.90877656  0.67857147  0.82960684  1
  Al0+  Al48  1  0.00067593  -0.00122229  -0.00350431  1
  Al0+  Al49  1  0.00161527  0.00067826  0.33345050  1
  Al0+  Al50  1  0.00182384  0.00162365  0.67061343  1
  Al0+  Al51  1  0.00107507  0.49850655  0.00132983  1
  Al0+  Al52  1  0.00095353  0.50095943  0.33168888  1
  Al0+  Al53  1  -0.00131193  0.49898906  0.67028697  1
  Al0+  Al54  1  0.49830332  0.00060415  -0.01083527  1
  Al0+  Al55  1  0.50262580  0.00364211  0.33739196  1
  Al0+  Al56  1  0.50201494  0.00022247  0.65995957  1
  Al0+  Al57  1  0.49914617  0.50088097  0.00622702  1
  Al0+  Al58  1  0.50022552  0.50086483  0.32869971  1
  Al0+  Al59  1  0.50102700  0.49868207  0.67618687  1
  Al0+  Al60  1  0.25047611  0.24955413  -0.00599527  1
  Al0+  Al61  1  0.24941359  0.25197830  0.32663336  1
  Al0+  Al62  1  0.25083816  0.24895077  0.67139152  1
  Al0+  Al63  1  0.24847718  0.74912977  0.00251973  1
  Al0+  Al64  1  0.25092637  0.74924670  0.32917194  1
  Al0+  Al65  1  0.24830293  0.75034805  0.67052256  1
  Al0+  Al66  1  0.75005907  0.24919368  -0.00069882  1
  Al0+  Al67  1  0.74911040  0.25199280  0.33736157  1
  Al0+  Al68  1  0.75183917  0.24893483  0.67199024  1
  Al0+  Al69  1  0.74689065  0.74887565  0.00000630  1
  Al0+  Al70  1  0.74837592  0.74912174  0.33554988  1
  Al0+  Al71  1  0.74748997  0.75224772  0.65961147  1
  Al0+  Al72  1  0.06907654  0.18018295  0.32158073  1
  Al0+  Al73  1  0.31941035  0.57095128  0.68133636  1
  Al0+  Al74  1  0.42854548  0.32214465  0.32049901  1
  Al0+  Al75  1  0.92849138  0.82156009  0.31825383  1
  Al0+  Al76  1  0.07236284  0.67669130  0.31781961  1
  Al0+  Al77  1  0.18105650  0.93082441  0.68150426  1
  Al0+  Al78  1  0.68020143  0.42921702  0.68060384  1
  Al0+  Al79  1  0.31980241  0.57104082  0.01831167  1
  Al0+  Al80  1  0.82092945  0.06897791  0.01452458  1
  Al0+  Al81  1  0.67798049  0.92670576  0.34864520  1
  Al0+  Al82  1  0.92976960  0.32094146  0.98451037  1
  Al0+  Al83  1  0.82148079  0.57234465  0.01380856  1
  Al0+  Al84  1  0.18112376  0.92763437  0.34724420  1
  Al0+  Al85  1  0.82022130  0.06758575  0.68279545  1
  Al0+  Al86  1  0.42811888  0.81984007  0.98617746  1
  Al0+  Al87  1  0.43118302  0.82237218  0.32049565  1
  Al0+  Al88  1  0.17601138  0.42503782  0.68251219  1
  Al0+  Al89  1  0.92740103  0.81906216  0.98657823  1
  Al0+  Al90  1  0.32188183  0.07456792  0.34575126  1
  Al0+  Al91  1  0.56980684  0.18025253  0.98631510  1
  Al0+  Al92  1  0.92900268  0.82290648  0.65198336  1
  Al0+  Al93  1  0.42730977  0.81948550  0.65099955  1
  Al0+  Al94  1  0.82256502  0.07122158  0.34804926  1
  Al0+  Al95  1  0.07260710  0.17640703  0.98158429  1
  Si0+  Si96  1  0.57451627  0.18002502  0.64908402  1
  Si0+  Si97  1  0.07135428  0.67747681  0.98251069  1
  Si0+  Si98  1  0.67822719  0.43102733  0.34741502  1
  Si0+  Si99  1  0.92494781  0.32333749  0.31907438  1
  Si0+  Si100  1  0.17951758  0.93002436  0.01551426  1
  Si0+  Si101  1  0.07028246  0.67698680  0.65232265  1
  Si0+  Si102  1  0.67499959  0.92685594  0.68456056  1
  Si0+  Si103  1  0.57105103  0.67539371  0.65040684  1
  Si0+  Si104  1  0.32533165  0.07281067  0.68334525  1
  Si0+  Si105  1  0.57189943  0.67591945  0.31577227  1
  Si0+  Si106  1  0.32204884  0.57024138  0.34777042  1
  Si0+  Si107  1  0.67473399  0.92853204  0.01337650  1
  Si0+  Si108  1  0.82105577  0.57442628  0.68095735  1
  Si0+  Si109  1  0.17896713  0.42567116  0.01949782  1
  Si0+  Si110  1  0.67867930  0.42694831  0.02006143  1
  Si0+  Si111  1  0.43055658  0.31970308  0.65425150  1
  Si0+  Si112  1  0.42833566  0.32486247  0.98115853  1
  Si0+  Si113  1  0.82277772  0.57090020  0.34892538  1
  Si0+  Si114  1  0.17925651  0.42971608  0.34567865  1
  Si0+  Si115  1  0.57384776  0.18018104  0.31809265  1
  Si0+  Si116  1  0.32279245  0.07093599  0.01181489  1
  Si0+  Si117  1  0.92826578  0.32130028  0.65202777  1
  Si0+  Si118  1  0.57121585  0.67589627  0.98306963  1
  Si0+  Si119  1  0.07211405  0.18064334  0.65068765  1
  O2-  O120  1  0.24984898  0.00310278  0.05509523  1
  O2-  O121  1  0.25547805  -0.00174473  0.39712739  1
  O2-  O122  1  0.26024873  0.00128048  0.72835208  1
  O2-  O123  1  0.24792400  0.49355057  0.06510843  1
  O2-  O124  1  0.24928113  0.50091982  0.38953757  1
  O2-  O125  1  0.24619061  0.49948758  0.73106115  1
  O2-  O126  1  0.74715680  -0.00769883  0.05872046  1
  O2-  O127  1  0.75475996  -0.00536795  0.39802763  1
  O2-  O128  1  0.74685114  -0.00875054  0.72955472  1
  O2-  O129  1  0.74837428  0.49580268  0.06256003  1
  O2-  O130  1  0.75103881  0.49978370  0.39047346  1
  O2-  O131  1  0.75336917  0.50545210  0.72621704  1
  O2-  O132  1  -0.01013424  0.25102127  0.27641123  1
  O2-  O133  1  0.00394723  0.25561154  0.60945622  1
  O2-  O134  1  0.00023724  0.24881341  0.93224961  1
  O2-  O135  1  -0.00006505  0.74861527  0.26864062  1
  O2-  O136  1  0.00048156  0.74395062  0.60751914  1
  O2-  O137  1  -0.00131803  0.74148462  0.93801992  1
  O2-  O138  1  0.50028673  0.24439329  0.27470327  1
  O2-  O139  1  0.49941887  0.24813024  0.60861251  1
  O2-  O140  1  0.49741600  0.25675047  0.93689292  1
  O2-  O141  1  0.50903350  0.75076207  0.27316257  1
  O2-  O142  1  0.50250116  0.74394719  0.60588951  1
  O2-  O143  1  0.50159512  0.74363268  0.93932881  1
  O2-  O144  1  0.07353212  0.17623729  0.09521368  1
  O2-  O145  1  0.07073042  0.18363331  0.43518123  1
  O2-  O146  1  0.07109644  0.18011860  0.75553001  1
  O2-  O147  1  0.07211363  0.68030717  0.08799032  1
  O2-  O148  1  0.06957079  0.67017148  0.43149340  1
  O2-  O149  1  0.06935433  0.67751205  0.75794678  1
  O2-  O150  1  0.56654780  0.18067846  0.09936943  1
  O2-  O151  1  0.57687803  0.18585275  0.42378028  1
  O2-  O152  1  0.57418982  0.18129806  0.75439866  1
  O2-  O153  1  0.57141124  0.67528403  0.08855603  1
  O2-  O154  1  0.56747319  0.66745983  0.42108950  1
  O2-  O155  1  0.57295038  0.67576688  0.75586192  1
  O2-  O156  1  0.18034633  0.43013526  0.24097638  1
  O2-  O157  1  0.17948891  0.42349669  0.56814572  1
  O2-  O158  1  0.18055407  0.42687748  0.91392854  1
  O2-  O159  1  0.18137271  0.92951954  0.23335594  1
  O2-  O160  1  0.18012943  0.93190918  0.56880473  1
  O2-  O161  1  0.18054736  0.92919115  0.91004907  1
  O2-  O162  1  0.67721851  0.43124277  0.24279250  1
  O2-  O163  1  0.67999438  0.43017472  0.56680844  1
  O2-  O164  1  0.67800949  0.42842640  0.91426471  1
  O2-  O165  1  0.67610100  0.93154188  0.23467614  1
  O2-  O166  1  0.67222044  0.93037369  0.57938940  1
  O2-  O167  1  0.67356871  0.93093165  0.90765014  1
  O2-  O168  1  0.42902278  0.32351815  0.08700223  1
  O2-  O169  1  0.43090534  0.32525163  0.43425599  1
  O2-  O170  1  0.43224013  0.31774889  0.75910401  1
  O2-  O171  1  0.42958193  0.82268045  0.09918657  1
  O2-  O172  1  0.42931174  0.81697049  0.43348535  1
  O2-  O173  1  0.42831184  0.81779305  0.76425268  1
  O2-  O174  1  0.93258824  0.32026372  0.09845256  1
  O2-  O175  1  0.92566390  0.32619445  0.42518966  1
  O2-  O176  1  0.92591135  0.32013548  0.75649793  1
  O2-  O177  1  0.92916447  0.82012311  0.09918212  1
  O2-  O178  1  0.93203797  0.81987065  0.43213052  1
  O2-  O179  1  0.92976696  0.82139371  0.76536695  1
  O2-  O180  1  0.31991689  0.07415349  0.23159044  1
  O2-  O181  1  0.32255381  0.07793221  0.57822537  1
  O2-  O182  1  0.32424053  0.06861765  0.90658834  1
  O2-  O183  1  0.32318131  0.56811504  0.24281578  1
  O2-  O184  1  0.31996938  0.56852484  0.56714876  1
  O2-  O185  1  0.31748300  0.57075534  0.90535048  1
  O2-  O186  1  0.82020455  0.07366358  0.23458326  1
  O2-  O187  1  0.81988524  0.06998761  0.56988711  1
  O2-  O188  1  0.81954173  0.06820570  0.90116100  1
  O2-  O189  1  0.82260034  0.56947910  0.24394811  1
  O2-  O190  1  0.82065497  0.57068554  0.57505653  1
  O2-  O191  1  0.81665137  0.57235848  0.90049200  1
  O2-  O192  1  0.04258098  0.08380618  0.26651542  1
  O2-  O193  1  0.03977695  0.09029429  0.60410277  1
  O2-  O194  1  0.04287669  0.07913706  0.92786311  1
  O2-  O195  1  0.04310461  0.57882066  0.26269409  1
  O2-  O196  1  0.04742282  0.58163836  0.60703722  1
  O2-  O197  1  0.05271939  0.58145355  0.93970228  1
  O2-  O198  1  0.55406745  0.08570232  0.27310914  1
  O2-  O199  1  0.55129270  0.08740163  0.60190209  1
  O2-  O200  1  0.53716577  0.08715547  0.92619688  1
  O2-  O201  1  0.54141733  0.58612082  0.26432497  1
  O2-  O202  1  0.54553674  0.58014905  0.60649073  1
  O2-  O203  1  0.54604650  0.58113085  0.93863863  1
  O2-  O204  1  0.16240231  0.21499631  0.26380026  1
  O2-  O205  1  0.16575026  0.20584075  0.60515416  1
  O2-  O206  1  0.17140625  0.20432522  0.92779468  1
  O2-  O207  1  0.17064711  0.70274412  0.26434702  1
  O2-  O208  1  0.16370236  0.70330864  0.60698654  1
  O2-  O209  1  0.16313476  0.70874958  0.93605805  1
  O2-  O210  1  0.66461025  0.21319332  0.26973627  1
  O2-  O211  1  0.66481028  0.21354012  0.60271803  1
  O2-  O212  1  0.66566617  0.21159965  0.93132328  1
  O2-  O213  1  0.66817232  0.69444852  0.27300029  1
  O2-  O214  1  0.66378234  0.69900165  0.60084858  1
  O2-  O215  1  0.66395858  0.70027473  0.93504102  1
  O2-  O216  1  0.08544872  0.45070406  0.06526981  1
  O2-  O217  1  0.08688568  0.45500174  0.39430104  1
  O2-  O218  1  0.07620094  0.44929029  0.73452454  1
  O2-  O219  1  0.08788431  0.95809650  0.06198487  1
  O2-  O220  1  0.08428994  0.95958772  0.40078489  1
  O2-  O221  1  0.08747524  0.96676007  0.73778761  1
  O2-  O222  1  0.58523348  0.45324348  0.06635060  1
  O2-  O223  1  0.58715174  0.46229578  0.39551045  1
  O2-  O224  1  0.58535510  0.45634127  0.73946581  1
  O2-  O225  1  0.58208627  0.96114590  0.05813849  1
  O2-  O226  1  0.58298076  0.96139147  0.40560613  1
  O2-  O227  1  0.58200747  0.95628921  0.73058721  1
  O2-  O228  1  0.20560915  0.33065045  0.06281086  1
  O2-  O229  1  0.20862394  0.33888617  0.39349074  1
  O2-  O230  1  0.20781707  0.32876530  0.73770146  1
  O2-  O231  1  0.20758311  0.83875246  0.06264151  1
  O2-  O232  1  0.20847374  0.82804487  0.39948680  1
  O2-  O233  1  0.20771859  0.83396386  0.73684470  1
  O2-  O234  1  0.70415804  0.33373731  0.06610407  1
  O2-  O235  1  0.70288891  0.33984182  0.39778151  1
  O2-  O236  1  0.71360353  0.33458307  0.73593547  1
  O2-  O237  1  0.69210505  0.83261947  0.05717965  1
  O2-  O238  1  0.69535302  0.82487033  0.40007439  1
  O2-  O239  1  0.69475611  0.83014608  0.72624169  1
  O2-  O240  1  0.46402530  0.41595204  0.26346251  1
  O2-  O241  1  0.45986402  0.41219431  0.60879713  1
  O2-  O242  1  0.45444125  0.41944503  0.93794546  1
  O2-  O243  1  0.46005386  0.92140464  0.26942119  1
  O2-  O244  1  0.45727317  0.91700519  0.59775696  1
  O2-  O245  1  0.45803559  0.91417645  0.92751121  1
  O2-  O246  1  0.95402941  0.41525197  0.27210155  1
  O2-  O247  1  0.94903286  0.41578809  0.60552199  1
  O2-  O248  1  0.95774424  0.42018844  0.93160480  1
  O2-  O249  1  0.95805802  0.91953667  0.26633417  1
  O2-  O250  1  0.96641775  0.91868222  0.60070467  1
  O2-  O251  1  0.96331798  0.91300089  0.93125584  1
  O2-  O252  1  0.33328536  0.29560605  0.26274668  1
  O2-  O253  1  0.33757102  0.29343638  0.60748989  1
  O2-  O254  1  0.33508751  0.30028848  0.93485946  1
  O2-  O255  1  0.33660939  0.78898226  0.26490756  1
  O2-  O256  1  0.33010755  0.78699782  0.59914853  1
  O2-  O257  1  0.33124110  0.78643538  0.93391952  1
  O2-  O258  1  0.82953782  0.30390209  0.27447298  1
  O2-  O259  1  0.83783061  0.28889508  0.60365596  1
  O2-  O260  1  0.82975327  0.29634793  0.93374690  1
  O2-  O261  1  0.82821536  0.79359588  0.26919684  1
  O2-  O262  1  0.83045018  0.79844599  0.59848766  1
  O2-  O263  1  0.82905289  0.79119922  0.93353934  1
  O2-  O264  1  0.41409516  0.04086889  0.05873282  1
  O2-  O265  1  0.42285242  0.05738775  0.39701658  1
  O2-  O266  1  0.42163170  0.05033902  0.72525219  1
  O2-  O267  1  0.41742457  0.54300862  0.07229377  1
  O2-  O268  1  0.41354892  0.54004045  0.39445954  1
  O2-  O269  1  0.41650172  0.54184606  0.73673761  1
  O2-  O270  1  0.91889088  0.03831039  0.06522351  1
  O2-  O271  1  0.92119815  0.04525867  0.40151100  1
  O2-  O272  1  0.91693934  0.03887996  0.73672204  1
  O2-  O273  1  0.91874127  0.54249366  0.06751186  1
  O2-  O274  1  0.91381938  0.54172829  0.39736448  1
  O2-  O275  1  0.91418531  0.55062787  0.72799363  1
  O2-  O276  1  0.30040539  0.16578450  0.05589408  1
  O2-  O277  1  0.28889685  0.17276152  0.39805841  1
  O2-  O278  1  0.29822164  0.16441250  0.73301665  1
  O2-  O279  1  0.28608123  0.66700735  0.07209422  1
  O2-  O280  1  0.29536352  0.66220805  0.39424101  1
  O2-  O281  1  0.28944756  0.66758633  0.73642581  1
  O2-  O282  1  0.78917448  0.16601496  0.06663263  1
  O2-  O283  1  0.79166786  0.16992159  0.40164416  1
  O2-  O284  1  0.78718220  0.16343197  0.73677161  1
  O2-  O285  1  0.78670272  0.66719666  0.06994042  1
  O2-  O286  1  0.79497027  0.66159249  0.39787671  1
  O2-  O287  1  0.79358308  0.66863874  0.72452904  1
