# generated using pymatgen
data_Ca2Al2SiO7
_symmetry_space_group_name_H-M   'P 1'
_cell_length_a   15.46148302
_cell_length_b   15.46045527
_cell_length_c   15.28551249
_cell_angle_alpha   90.00968900
_cell_angle_beta   90.00697716
_cell_angle_gamma   89.99300663
_symmetry_Int_Tables_number   1
_chemical_formula_structural   Ca2Al2SiO7
_chemical_formula_sum   'Ca48 Al48 Si24 O168'
_cell_volume   3653.87274656
_cell_formula_units_Z   24
loop_
 _symmetry_equiv_pos_site_id
 _symmetry_equiv_pos_as_xyz
  1  'x, y, z'
loop_
 _atom_type_symbol
 _atom_type_oxidation_number
  Ca2+  2.0
  Al0+  0.0
  Si0+  0.0
  O2-  -2.0
loop_
 _atom_site_type_symbol
 _atom_site_label
 _atom_site_symmetry_multiplicity
 _atom_site_fract_x
 _atom_site_fract_y
 _atom_site_fract_z
 _atom_site_occupancy
  Ca2+  Ca0  1  0.15071925  0.07443146  0.16866083  1
  Ca2+  Ca1  1  0.16079263  0.07477794  0.50394263  1
  Ca2+  Ca2  1  0.16886994  0.07703813  0.83857988  1
  Ca2+  Ca3  1  0.16156025  0.57411170  0.17067632  1
  Ca2+  Ca4  1  0.16928336  0.57174818  0.50075764  1
  Ca2+  Ca5  1  0.16040075  0.57326612  0.84072064  1
  Ca2+  Ca6  1  0.67381876  0.08302904  0.17163422  1
  Ca2+  Ca7  1  0.67624025  0.08545466  0.50103011  1
  Ca2+  Ca8  1  0.66886786  0.08723116  0.84086454  1
  Ca2+  Ca9  1  0.67353656  0.58610392  0.17126066  1
  Ca2+  Ca10  1  0.67424054  0.57991719  0.50643143  1
  Ca2+  Ca11  1  0.66179753  0.58188342  0.83422128  1
  Ca2+  Ca12  1  0.07912724  0.32968861  0.15895055  1
  Ca2+  Ca13  1  0.07921517  0.33190131  0.49119903  1
  Ca2+  Ca14  1  0.07730954  0.33877729  0.82786582  1
  Ca2+  Ca15  1  0.07718587  0.83267843  0.15845640  1
  Ca2+  Ca16  1  0.08367162  0.83666938  0.49200013  1
  Ca2+  Ca17  1  0.08743665  0.83423077  0.83539818  1
  Ca2+  Ca18  1  0.58148808  0.32690461  0.16037397  1
  Ca2+  Ca19  1  0.57779909  0.34037282  0.50246009  1
  Ca2+  Ca20  1  0.57737539  0.33067420  0.82487734  1
  Ca2+  Ca21  1  0.57308476  0.82593452  0.15429248  1
  Ca2+  Ca22  1  0.58150027  0.82708040  0.49759408  1
  Ca2+  Ca23  1  0.57745126  0.82250036  0.83176141  1
  Ca2+  Ca24  1  0.32011668  0.42326606  0.17286834  1
  Ca2+  Ca25  1  0.32208870  0.41393744  0.50494884  1
  Ca2+  Ca26  1  0.32158517  0.41031186  0.83595783  1
  Ca2+  Ca27  1  0.32132902  0.91116766  0.16886396  1
  Ca2+  Ca28  1  0.31948426  0.92484135  0.50796039  1
  Ca2+  Ca29  1  0.32614995  0.91799077  0.83949793  1
  Ca2+  Ca30  1  0.83839910  0.42017922  0.17295770  1
  Ca2+  Ca31  1  0.83582669  0.41902134  0.50533286  1
  Ca2+  Ca32  1  0.83023426  0.40881224  0.83692433  1
  Ca2+  Ca33  1  0.84087550  0.92119453  0.17452877  1
  Ca2+  Ca34  1  0.84210173  0.92527841  0.49903229  1
  Ca2+  Ca35  1  0.83351751  0.91691791  0.84047918  1
  Ca2+  Ca36  1  0.42527451  0.16505882  0.16068488  1
  Ca2+  Ca37  1  0.40814881  0.17094128  0.50278633  1
  Ca2+  Ca38  1  0.41843535  0.16766712  0.82781366  1
  Ca2+  Ca39  1  0.41777301  0.66849722  0.15916549  1
  Ca2+  Ca40  1  0.42197497  0.65700855  0.49699928  1
  Ca2+  Ca41  1  0.42267117  0.66788309  0.83086746  1
  Ca2+  Ca42  1  0.92571435  0.17477934  0.16560307  1
  Ca2+  Ca43  1  0.92165770  0.17755221  0.49003157  1
  Ca2+  Ca44  1  0.92610923  0.17711734  0.83394256  1
  Ca2+  Ca45  1  0.91928212  0.67570228  0.16150218  1
  Ca2+  Ca46  1  0.91737397  0.67287334  0.49190527  1
  Ca2+  Ca47  1  0.92405266  0.67051802  0.83676890  1
  Al0+  Al48  1  -0.00109062  0.00362169  -0.00429498  1
  Al0+  Al49  1  -0.00196844  0.00162115  0.33629593  1
  Al0+  Al50  1  -0.00107337  0.00060529  0.67257264  1
  Al0+  Al51  1  -0.00345202  0.50190627  -0.00182765  1
  Al0+  Al52  1  -0.00166012  0.50208771  0.33986236  1
  Al0+  Al53  1  -0.00049070  0.50421815  0.66575746  1
  Al0+  Al54  1  0.50112206  -0.00071888  -0.00687482  1
  Al0+  Al55  1  0.49898871  -0.00172352  0.33378624  1
  Al0+  Al56  1  0.50203077  -0.00121224  0.66753110  1
  Al0+  Al57  1  0.50044300  0.49810247  -0.00092489  1
  Al0+  Al58  1  0.50082085  0.49930692  0.33263113  1
  Al0+  Al59  1  0.50241264  0.49868442  0.66172357  1
  Al0+  Al60  1  0.25079996  0.24814610  0.00407911  1
  Al0+  Al61  1  0.25145148  0.24806497  0.32943497  1
  Al0+  Al62  1  0.25039892  0.24835686  0.67030425  1
  Al0+  Al63  1  0.24981776  0.75015715  -0.00360180  1
  Al0+  Al64  1  0.25179888  0.74937797  0.34238957  1
  Al0+  Al65  1  0.25031664  0.75020906  0.66843886  1
  Al0+  Al66  1  0.74946329  0.24955949  -0.00452394  1
  Al0+  Al67  1  0.74912087  0.24891704  0.33463867  1
  Al0+  Al68  1  0.75095862  0.25134735  0.66659727  1
  Al0+  Al69  1  0.74876132  0.74965459  -0.00649931  1
  Al0+  Al70  1  0.74874317  0.74915626  0.33389758  1
  Al0+  Al71  1  0.75051280  0.75056664  0.66251897  1
  Al0+  Al72  1  0.17671372  0.42867643  0.01388206  1
  Al0+  Al73  1  0.17742069  0.92811531  0.68473687  1
  Al0+  Al74  1  0.17832183  0.42678378  0.34759002  1
  Al0+  Al75  1  0.07112647  0.67876523  0.98687245  1
  Al0+  Al76  1  0.92800145  0.32412411  0.31932760  1
  Al0+  Al77  1  0.42677215  0.82068213  0.98439297  1
  Al0+  Al78  1  0.93006014  0.32257859  0.98529677  1
  Al0+  Al79  1  0.57121695  0.67633541  0.98502905  1
  Al0+  Al80  1  0.32225038  0.07112536  0.68263727  1
  Al0+  Al81  1  0.92913931  0.82342071  0.98543382  1
  Al0+  Al82  1  0.92954135  0.82071363  0.32185986  1
  Al0+  Al83  1  0.42831412  0.31845271  0.65293648  1
  Al0+  Al84  1  0.57014922  0.67950892  0.64945828  1
  Al0+  Al85  1  0.17864365  0.93101249  0.34521350  1
  Al0+  Al86  1  0.07342766  0.17956757  0.98348717  1
  Al0+  Al87  1  0.92950291  0.32235738  0.65138521  1
  Al0+  Al88  1  0.17911719  0.93018406  0.01564193  1
  Al0+  Al89  1  0.81964269  0.07060834  0.34667514  1
  Al0+  Al90  1  0.17828991  0.43073312  0.68040093  1
  Al0+  Al91  1  0.32296179  0.57064697  0.34807800  1
  Al0+  Al92  1  0.57095394  0.17942804  0.98720708  1
  Al0+  Al93  1  0.82025955  0.57215776  0.34644535  1
  Al0+  Al94  1  0.07265183  0.17941913  0.31933261  1
  Al0+  Al95  1  0.68095858  0.43031387  0.68089951  1
  Si0+  Si96  1  0.32520197  0.07096888  0.01860791  1
  Si0+  Si97  1  0.57056565  0.67833491  0.31763989  1
  Si0+  Si98  1  0.42752581  0.82253513  0.64703636  1
  Si0+  Si99  1  0.67546660  0.92768976  0.34950369  1
  Si0+  Si100  1  0.42826781  0.32115711  0.98471506  1
  Si0+  Si101  1  0.68046108  0.92734401  0.68203347  1
  Si0+  Si102  1  0.81941901  0.07159345  0.68404984  1
  Si0+  Si103  1  0.57375906  0.17614526  0.64803809  1
  Si0+  Si104  1  0.07068118  0.17796572  0.65074910  1
  Si0+  Si105  1  0.57071259  0.17733112  0.31988919  1
  Si0+  Si106  1  0.81903091  0.07171033  0.01540837  1
  Si0+  Si107  1  0.67914600  0.92786185  0.01383743  1
  Si0+  Si108  1  0.07276354  0.68000350  0.64974525  1
  Si0+  Si109  1  0.67862058  0.42743282  0.01493325  1
  Si0+  Si110  1  0.93001269  0.82195293  0.65103318  1
  Si0+  Si111  1  0.81847831  0.57247298  0.01460520  1
  Si0+  Si112  1  0.32377081  0.57057526  0.68347086  1
  Si0+  Si113  1  0.42881289  0.82062019  0.31980529  1
  Si0+  Si114  1  0.32311126  0.57082923  0.01421088  1
  Si0+  Si115  1  0.32715104  0.07094841  0.34873284  1
  Si0+  Si116  1  0.42952711  0.32153389  0.31703242  1
  Si0+  Si117  1  0.67804048  0.42675026  0.34912826  1
  Si0+  Si118  1  0.07419957  0.67927062  0.31961936  1
  Si0+  Si119  1  0.82167978  0.57512675  0.68595073  1
  O2-  O120  1  0.25438557  0.00477591  0.06328178  1
  O2-  O121  1  0.25253932  0.00767555  0.39025641  1
  O2-  O122  1  0.25190311  -0.00169402  0.73306177  1
  O2-  O123  1  0.25154295  0.50515017  0.05843472  1
  O2-  O124  1  0.25193337  0.49779116  0.39756503  1
  O2-  O125  1  0.25380487  0.50439256  0.72871996  1
  O2-  O126  1  0.75130497  -0.00338959  0.05754957  1
  O2-  O127  1  0.74571851  -0.00551442  0.39421393  1
  O2-  O128  1  0.74771819  0.00080332  0.72594342  1
  O2-  O129  1  0.74814169  0.49979729  0.05657280  1
  O2-  O130  1  0.74971412  0.49278062  0.39207095  1
  O2-  O131  1  0.75617257  0.50323639  0.72998196  1
  O2-  O132  1  0.00516171  0.25701145  0.27059750  1
  O2-  O133  1  0.00626238  0.24987648  0.60550636  1
  O2-  O134  1  0.00821528  0.25813427  0.93411919  1
  O2-  O135  1  0.00559204  0.74797785  0.27516751  1
  O2-  O136  1  0.00430335  0.75471454  0.60916368  1
  O2-  O137  1  0.00401545  0.75501676  0.93502260  1
  O2-  O138  1  0.49994046  0.24821416  0.27708564  1
  O2-  O139  1  0.50208980  0.24205008  0.60455662  1
  O2-  O140  1  0.49525967  0.25137824  0.93995014  1
  O2-  O141  1  0.49817230  0.74814181  0.27663241  1
  O2-  O142  1  0.49347146  0.75166382  0.60114932  1
  O2-  O143  1  0.49722781  0.74621497  0.93568315  1
  O2-  O144  1  0.06700616  0.17768109  0.09672367  1
  O2-  O145  1  0.06957919  0.17780117  0.43331904  1
  O2-  O146  1  0.06743617  0.17716566  0.75608256  1
  O2-  O147  1  0.06752243  0.67748301  0.10067167  1
  O2-  O148  1  0.07284504  0.68164002  0.42563476  1
  O2-  O149  1  0.07073626  0.67766972  0.75458269  1
  O2-  O150  1  0.57187023  0.18085560  0.10103298  1
  O2-  O151  1  0.57085370  0.17597409  0.42468932  1
  O2-  O152  1  0.57546624  0.17774134  0.75358920  1
  O2-  O153  1  0.57193105  0.67870800  0.09919081  1
  O2-  O154  1  0.57097083  0.67923951  0.42270248  1
  O2-  O155  1  0.56996530  0.68176147  0.76218168  1
  O2-  O156  1  0.17959648  0.42922912  0.23383054  1
  O2-  O157  1  0.17880202  0.43118784  0.56754975  1
  O2-  O158  1  0.17855076  0.43005722  0.90059924  1
  O2-  O159  1  0.17943368  0.92864125  0.23229638  1
  O2-  O160  1  0.17534222  0.93034323  0.57066050  1
  O2-  O161  1  0.18092980  0.93211866  0.90304897  1
  O2-  O162  1  0.67469917  0.42783885  0.24326178  1
  O2-  O163  1  0.68173812  0.43224445  0.56759874  1
  O2-  O164  1  0.67819329  0.42659121  0.91008916  1
  O2-  O165  1  0.67164298  0.92987926  0.24406507  1
  O2-  O166  1  0.68230368  0.92707305  0.57675243  1
  O2-  O167  1  0.68063907  0.92950198  0.90851367  1
  O2-  O168  1  0.43261404  0.32191076  0.09069450  1
  O2-  O169  1  0.43029390  0.32206332  0.42207563  1
  O2-  O170  1  0.43133716  0.31822281  0.76597479  1
  O2-  O171  1  0.42934446  0.82029281  0.09896840  1
  O2-  O172  1  0.43280750  0.82314361  0.42458935  1
  O2-  O173  1  0.43043338  0.82181668  0.75228324  1
  O2-  O174  1  0.92639206  0.32146826  0.09863571  1
  O2-  O175  1  0.92640841  0.32061720  0.43304943  1
  O2-  O176  1  0.92829491  0.31921111  0.76420528  1
  O2-  O177  1  0.92700604  0.82103898  0.09909287  1
  O2-  O178  1  0.93039658  0.81997777  0.43545317  1
  O2-  O179  1  0.92673108  0.82066555  0.75576860  1
  O2-  O180  1  0.33881565  0.06548549  0.24420992  1
  O2-  O181  1  0.32076980  0.06921244  0.56845354  1
  O2-  O182  1  0.32730753  0.06968216  0.91333427  1
  O2-  O183  1  0.32545842  0.56982591  0.23440192  1
  O2-  O184  1  0.32198075  0.56850899  0.57781192  1
  O2-  O185  1  0.32687641  0.56674140  0.90882979  1
  O2-  O186  1  0.81608722  0.06997645  0.23363863  1
  O2-  O187  1  0.81927389  0.06986326  0.57878890  1
  O2-  O188  1  0.81513485  0.07206055  0.90993239  1
  O2-  O189  1  0.81558120  0.57631942  0.23325501  1
  O2-  O190  1  0.81939461  0.57722637  0.58018837  1
  O2-  O191  1  0.81741474  0.57390698  0.90964882  1
  O2-  O192  1  0.03459315  0.08376303  0.26699342  1
  O2-  O193  1  0.03880144  0.08496276  0.60579493  1
  O2-  O194  1  0.03680704  0.08573095  0.92734353  1
  O2-  O195  1  0.04692795  0.58562009  0.27579624  1
  O2-  O196  1  0.04081760  0.59086590  0.59975439  1
  O2-  O197  1  0.03502656  0.58459012  0.93005535  1
  O2-  O198  1  0.54301796  0.08527144  0.27183173  1
  O2-  O199  1  0.55370792  0.08034025  0.60350463  1
  O2-  O200  1  0.54546089  0.08308289  0.93102147  1
  O2-  O201  1  0.54557988  0.58578968  0.27009009  1
  O2-  O202  1  0.54256911  0.58278155  0.59450869  1
  O2-  O203  1  0.54539489  0.57692464  0.93298941  1
  O2-  O204  1  0.17401480  0.19558508  0.26664983  1
  O2-  O205  1  0.16651098  0.19746463  0.60815115  1
  O2-  O206  1  0.17612881  0.19773041  0.93639928  1
  O2-  O207  1  0.16923381  0.70288762  0.27617350  1
  O2-  O208  1  0.16615277  0.70403792  0.60341445  1
  O2-  O209  1  0.17023890  0.69969778  0.93334564  1
  O2-  O210  1  0.66154364  0.20510716  0.27098220  1
  O2-  O211  1  0.66580569  0.20638823  0.60142079  1
  O2-  O212  1  0.66486763  0.21185750  0.93002693  1
  O2-  O213  1  0.66108091  0.70820103  0.26954096  1
  O2-  O214  1  0.66636092  0.71426585  0.59548726  1
  O2-  O215  1  0.66661638  0.70750252  0.92879927  1
  O2-  O216  1  0.07942742  0.46125038  0.06569519  1
  O2-  O217  1  0.08130572  0.45642285  0.40218774  1
  O2-  O218  1  0.08209789  0.46544579  0.73329945  1
  O2-  O219  1  0.08018280  0.96235758  0.06550554  1
  O2-  O220  1  0.08315448  0.96147448  0.40142532  1
  O2-  O221  1  0.07895992  0.95691520  0.73751040  1
  O2-  O222  1  0.58639354  0.45312299  0.06362945  1
  O2-  O223  1  0.58609897  0.45668943  0.39619869  1
  O2-  O224  1  0.58378934  0.46157159  0.73361972  1
  O2-  O225  1  0.58745925  0.95748319  0.06082428  1
  O2-  O226  1  0.58362690  0.95582729  0.39878244  1
  O2-  O227  1  0.58740842  0.95030785  0.72864894  1
  O2-  O228  1  0.20846604  0.33228938  0.06802613  1
  O2-  O229  1  0.20854501  0.32730534  0.39802636  1
  O2-  O230  1  0.20782140  0.33360442  0.73309851  1
  O2-  O231  1  0.20872821  0.83132454  0.06704897  1
  O2-  O232  1  0.21054319  0.83631233  0.40243857  1
  O2-  O233  1  0.20445468  0.82806507  0.73508737  1
  O2-  O234  1  0.70744787  0.33567826  0.06248336  1
  O2-  O235  1  0.69735453  0.33210163  0.39508970  1
  O2-  O236  1  0.70899260  0.33240296  0.73448502  1
  O2-  O237  1  0.70362829  0.83457445  0.06004039  1
  O2-  O238  1  0.69921796  0.83373687  0.39500851  1
  O2-  O239  1  0.71235444  0.83693066  0.72956134  1
  O2-  O240  1  0.46136549  0.41150800  0.26808932  1
  O2-  O241  1  0.46223408  0.41312544  0.59695124  1
  O2-  O242  1  0.45543993  0.41319152  0.93743366  1
  O2-  O243  1  0.45848621  0.91115802  0.27060957  1
  O2-  O244  1  0.45788850  0.91519073  0.60096121  1
  O2-  O245  1  0.46000216  0.91626382  0.92946846  1
  O2-  O246  1  0.94909112  0.42627017  0.27128692  1
  O2-  O247  1  0.95557049  0.42210839  0.60142551  1
  O2-  O248  1  0.94877538  0.42267383  0.93280609  1
  O2-  O249  1  0.95734488  0.91799654  0.26952497  1
  O2-  O250  1  0.95498241  0.91608236  0.60623398  1
  O2-  O251  1  0.95186169  0.92221780  0.93209258  1
  O2-  O252  1  0.33884354  0.29547091  0.26741565  1
  O2-  O253  1  0.33183091  0.28709990  0.59791985  1
  O2-  O254  1  0.33436158  0.29656958  0.94053968  1
  O2-  O255  1  0.33636485  0.79282715  0.27436294  1
  O2-  O256  1  0.33213452  0.79984487  0.60334706  1
  O2-  O257  1  0.32978407  0.79496819  0.92940153  1
  O2-  O258  1  0.82907118  0.29220820  0.26796861  1
  O2-  O259  1  0.83289381  0.28925197  0.59839769  1
  O2-  O260  1  0.83399462  0.28660408  0.93159102  1
  O2-  O261  1  0.83136197  0.79159432  0.26929799  1
  O2-  O262  1  0.83955871  0.79227608  0.60188279  1
  O2-  O263  1  0.83219913  0.79221141  0.93068902  1
  O2-  O264  1  0.41983379  0.04301856  0.06318833  1
  O2-  O265  1  0.41716165  0.04086315  0.40094774  1
  O2-  O266  1  0.42371184  0.04588345  0.73230032  1
  O2-  O267  1  0.41582481  0.54232880  0.06287169  1
  O2-  O268  1  0.42206104  0.54124863  0.40016387  1
  O2-  O269  1  0.41792614  0.54431626  0.72690866  1
  O2-  O270  1  0.91151321  0.04678197  0.06126055  1
  O2-  O271  1  0.91331616  0.03893110  0.40509346  1
  O2-  O272  1  0.90965936  0.04242334  0.73287498  1
  O2-  O273  1  0.90963285  0.54627792  0.06316858  1
  O2-  O274  1  0.91649736  0.54905358  0.40439599  1
  O2-  O275  1  0.91667698  0.55380439  0.72950512  1
  O2-  O276  1  0.30555667  0.16586933  0.06485533  1
  O2-  O277  1  0.30704846  0.16732477  0.39017697  1
  O2-  O278  1  0.29607046  0.16881523  0.73729150  1
  O2-  O279  1  0.30219804  0.66626439  0.05782622  1
  O2-  O280  1  0.29837953  0.66793795  0.40534224  1
  O2-  O281  1  0.30149532  0.66596969  0.72693404  1
  O2-  O282  1  0.78478797  0.16157440  0.06277125  1
  O2-  O283  1  0.78513227  0.16520177  0.40328582  1
  O2-  O284  1  0.79021821  0.16265894  0.73106457  1
  O2-  O285  1  0.78754685  0.66390852  0.06211733  1
  O2-  O286  1  0.78443071  0.66662600  0.40338415  1
  O2-  O287  1  0.79134242  0.66789526  0.73119878  1
