# generated using pymatgen
data_Ca2Al2SiO7
_symmetry_space_group_name_H-M   'P 1'
_cell_length_a   15.46428023
_cell_length_b   15.46184967
_cell_length_c   15.28725792
_cell_angle_alpha   89.99571621
_cell_angle_beta   89.99435968
_cell_angle_gamma   89.99575584
_symmetry_Int_Tables_number   1
_chemical_formula_structural   Ca2Al2SiO7
_chemical_formula_sum   'Ca48 Al48 Si24 O168'
_cell_volume   3655.28080380
_cell_formula_units_Z   24
loop_
 _symmetry_equiv_pos_site_id
 _symmetry_equiv_pos_as_xyz
  1  'x, y, z'
loop_
 _atom_type_symbol
 _atom_type_oxidation_number
  Ca2+  2.0
  Al0+  0.0
  Si0+  0.0
  O2-  -2.0
loop_
 _atom_site_type_symbol
 _atom_site_label
 _atom_site_symmetry_multiplicity
 _atom_site_fract_x
 _atom_site_fract_y
 _atom_site_fract_z
 _atom_site_occupancy
  Ca2+  Ca0  1  0.15928480  0.07647766  0.16570013  1
  Ca2+  Ca1  1  0.16150692  0.08393076  0.50294719  1
  Ca2+  Ca2  1  0.16891197  0.07993777  0.84515506  1
  Ca2+  Ca3  1  0.16177888  0.58289883  0.17082826  1
  Ca2+  Ca4  1  0.17295839  0.58671951  0.50566543  1
  Ca2+  Ca5  1  0.16096944  0.57420572  0.83783869  1
  Ca2+  Ca6  1  0.67193581  0.07822927  0.16814272  1
  Ca2+  Ca7  1  0.67761513  0.08187859  0.50156285  1
  Ca2+  Ca8  1  0.67018257  0.07777634  0.84411780  1
  Ca2+  Ca9  1  0.67386371  0.58428943  0.17293825  1
  Ca2+  Ca10  1  0.67917934  0.58138185  0.50838837  1
  Ca2+  Ca11  1  0.67356869  0.58224266  0.83117993  1
  Ca2+  Ca12  1  0.08777529  0.32356551  0.15988890  1
  Ca2+  Ca13  1  0.08960087  0.32592929  0.50099536  1
  Ca2+  Ca14  1  0.09019845  0.32566425  0.82781065  1
  Ca2+  Ca15  1  0.07453451  0.82267529  0.15955211  1
  Ca2+  Ca16  1  0.07221901  0.82393948  0.49296389  1
  Ca2+  Ca17  1  0.07669035  0.83394948  0.83206595  1
  Ca2+  Ca18  1  0.57988602  0.32616003  0.15868183  1
  Ca2+  Ca19  1  0.58678817  0.33864728  0.50022396  1
  Ca2+  Ca20  1  0.58618049  0.32884724  0.82897422  1
  Ca2+  Ca21  1  0.57322331  0.83952031  0.15998736  1
  Ca2+  Ca22  1  0.56952731  0.83169194  0.49710726  1
  Ca2+  Ca23  1  0.57222115  0.83958729  0.83179578  1
  Ca2+  Ca24  1  0.32438942  0.42339278  0.17058939  1
  Ca2+  Ca25  1  0.32699082  0.43181259  0.50895771  1
  Ca2+  Ca26  1  0.32203533  0.42238634  0.83628759  1
  Ca2+  Ca27  1  0.33021938  0.91499117  0.16438540  1
  Ca2+  Ca28  1  0.33261783  0.91346277  0.50384968  1
  Ca2+  Ca29  1  0.32852143  0.91847519  0.84450743  1
  Ca2+  Ca30  1  0.83290831  0.42373343  0.17254860  1
  Ca2+  Ca31  1  0.83474241  0.42759029  0.51025897  1
  Ca2+  Ca32  1  0.83911955  0.41837784  0.83025856  1
  Ca2+  Ca33  1  0.83313632  0.91402211  0.17160292  1
  Ca2+  Ca34  1  0.84504159  0.91929459  0.50160733  1
  Ca2+  Ca35  1  0.83005332  0.91065528  0.84155068  1
  Ca2+  Ca36  1  0.42161227  0.16352484  0.15598337  1
  Ca2+  Ca37  1  0.41966443  0.17201367  0.49627427  1
  Ca2+  Ca38  1  0.42263669  0.15823484  0.83459131  1
  Ca2+  Ca39  1  0.41042116  0.67712741  0.16457734  1
  Ca2+  Ca40  1  0.40828616  0.67257708  0.49415510  1
  Ca2+  Ca41  1  0.41068389  0.67780934  0.82791032  1
  Ca2+  Ca42  1  0.92540410  0.16267597  0.16528066  1
  Ca2+  Ca43  1  0.92655755  0.17199447  0.49564252  1
  Ca2+  Ca44  1  0.93243647  0.17109139  0.82521240  1
  Ca2+  Ca45  1  0.92305659  0.66944990  0.16100351  1
  Ca2+  Ca46  1  0.91448085  0.67079589  0.49251467  1
  Ca2+  Ca47  1  0.91925213  0.67535919  0.83019222  1
  Al0+  Al48  1  0.00020968  0.00143706  -0.00337885  1
  Al0+  Al49  1  -0.00047614  0.00010085  0.33134256  1
  Al0+  Al50  1  0.00151290  -0.00045498  0.66045598  1
  Al0+  Al51  1  -0.00013303  0.50007749  0.00255033  1
  Al0+  Al52  1  -0.00162409  0.49665876  0.33643819  1
  Al0+  Al53  1  0.00104451  0.49946992  0.67190395  1
  Al0+  Al54  1  0.50216473  0.00030435  -0.00044715  1
  Al0+  Al55  1  0.49918462  0.00079439  0.33195090  1
  Al0+  Al56  1  0.50141501  -0.00032189  0.66010543  1
  Al0+  Al57  1  0.50079859  0.50023121  0.00048649  1
  Al0+  Al58  1  0.49678259  0.49970841  0.33570602  1
  Al0+  Al59  1  0.50217294  0.50061922  0.67507666  1
  Al0+  Al60  1  0.25190319  0.25302373  0.00438747  1
  Al0+  Al61  1  0.25125513  0.24856035  0.32944315  1
  Al0+  Al62  1  0.25567304  0.24988049  0.66516076  1
  Al0+  Al63  1  0.24925677  0.74990530  -0.00470297  1
  Al0+  Al64  1  0.24796509  0.75096682  0.32923583  1
  Al0+  Al65  1  0.24893558  0.75403091  0.66636322  1
  Al0+  Al66  1  0.74878853  0.25052138  -0.00261863  1
  Al0+  Al67  1  0.75001988  0.24653675  0.33702311  1
  Al0+  Al68  1  0.75300411  0.24865868  0.66638563  1
  Al0+  Al69  1  0.74835128  0.74944107  0.00274241  1
  Al0+  Al70  1  0.74459593  0.75000715  0.33649615  1
  Al0+  Al71  1  0.74733383  0.75127494  0.66620829  1
  Al0+  Al72  1  0.82186458  0.06827539  0.34815875  1
  Al0+  Al73  1  0.92677790  0.81937711  0.65248727  1
  Al0+  Al74  1  0.82282424  0.57420517  0.68392012  1
  Al0+  Al75  1  0.17629960  0.92747255  0.01591041  1
  Al0+  Al76  1  0.43066313  0.81969752  0.98607213  1
  Al0+  Al77  1  0.82012569  0.57086115  0.34618864  1
  Al0+  Al78  1  0.42840906  0.82151565  0.31759452  1
  Al0+  Al79  1  0.92948186  0.32201369  0.65117551  1
  Al0+  Al80  1  0.68056831  0.92859909  0.01341445  1
  Al0+  Al81  1  0.92733698  0.82084849  0.98580223  1
  Al0+  Al82  1  0.68075868  0.42681921  0.68333998  1
  Al0+  Al83  1  0.42814463  0.82068551  0.65232587  1
  Al0+  Al84  1  0.07171908  0.18029038  0.31718045  1
  Al0+  Al85  1  0.32132462  0.07027439  0.01436308  1
  Al0+  Al86  1  0.57045720  0.18000830  0.98628589  1
  Al0+  Al87  1  0.07524262  0.17953756  0.65138078  1
  Al0+  Al88  1  0.07104619  0.67694213  0.98318857  1
  Al0+  Al89  1  0.32086658  0.57559601  0.68313006  1
  Al0+  Al90  1  0.92553914  0.82037053  0.31843806  1
  Al0+  Al91  1  0.18058639  0.42769950  0.68161214  1
  Al0+  Al92  1  0.17841142  0.43038044  0.01591570  1
  Al0+  Al93  1  0.07193815  0.18069727  0.98712533  1
  Al0+  Al94  1  0.31766064  0.57197394  0.34583614  1
  Al0+  Al95  1  0.06929810  0.67603420  0.31986165  1
  Si0+  Si96  1  0.07142320  0.67822933  0.65183690  1
  Si0+  Si97  1  0.42895417  0.32435969  0.98224496  1
  Si0+  Si98  1  0.17983782  0.93052821  0.34855042  1
  Si0+  Si99  1  0.56923551  0.67597482  0.31753945  1
  Si0+  Si100  1  0.67690010  0.42660185  0.34796700  1
  Si0+  Si101  1  0.43225079  0.32255784  0.65195948  1
  Si0+  Si102  1  0.57147902  0.17974726  0.31856796  1
  Si0+  Si103  1  0.32356984  0.57263361  0.01687129  1
  Si0+  Si104  1  0.82205400  0.07406957  0.01503231  1
  Si0+  Si105  1  0.92545701  0.32040039  0.31688138  1
  Si0+  Si106  1  0.81914589  0.56992970  0.01589694  1
  Si0+  Si107  1  0.67423402  0.92882770  0.35248082  1
  Si0+  Si108  1  0.57308177  0.67521892  0.98282014  1
  Si0+  Si109  1  0.32268560  0.07174909  0.34941607  1
  Si0+  Si110  1  0.32487259  0.07057834  0.67924761  1
  Si0+  Si111  1  0.17887328  0.93253844  0.67983832  1
  Si0+  Si112  1  0.67771808  0.93172634  0.68087801  1
  Si0+  Si113  1  0.42970991  0.32161167  0.31830912  1
  Si0+  Si114  1  0.57261623  0.17829933  0.64983115  1
  Si0+  Si115  1  0.57056368  0.67717314  0.65011976  1
  Si0+  Si116  1  0.67776082  0.42727953  0.01600406  1
  Si0+  Si117  1  0.92697829  0.32279164  0.98489469  1
  Si0+  Si118  1  0.17847353  0.42455324  0.35015738  1
  Si0+  Si119  1  0.82302266  0.06902299  0.68192717  1
  O2-  O120  1  0.24792904  0.00086665  0.06641564  1
  O2-  O121  1  0.25140317  0.00174266  0.39186435  1
  O2-  O122  1  0.25020864  0.00411866  0.72049370  1
  O2-  O123  1  0.25199234  0.50710205  0.06134791  1
  O2-  O124  1  0.24112875  0.49930006  0.39308124  1
  O2-  O125  1  0.24776433  0.50433371  0.73208408  1
  O2-  O126  1  0.75805647  0.00082354  0.05935447  1
  O2-  O127  1  0.74967680  -0.00938043  0.39627743  1
  O2-  O128  1  0.75280536  -0.00250884  0.72416343  1
  O2-  O129  1  0.74784928  0.49834773  0.05808605  1
  O2-  O130  1  0.74542072  0.49495460  0.39146865  1
  O2-  O131  1  0.75377399  0.49784317  0.73327925  1
  O2-  O132  1  -0.00309204  0.25543096  0.27164451  1
  O2-  O133  1  0.00482064  0.25320824  0.60126549  1
  O2-  O134  1  -0.00338792  0.25491254  0.94156652  1
  O2-  O135  1  -0.00706782  0.74370925  0.27013414  1
  O2-  O136  1  -0.00339732  0.73988995  0.60697493  1
  O2-  O137  1  0.00184825  0.75243923  0.93450360  1
  O2-  O138  1  0.50206467  0.25189684  0.27645213  1
  O2-  O139  1  0.50556659  0.25357090  0.60805844  1
  O2-  O140  1  0.49557533  0.25348969  0.93790947  1
  O2-  O141  1  0.50262180  0.74580917  0.27222311  1
  O2-  O142  1  0.49709931  0.74078666  0.60544745  1
  O2-  O143  1  0.50303219  0.74260905  0.93920926  1
  O2-  O144  1  0.06885982  0.18125840  0.10039076  1
  O2-  O145  1  0.07360581  0.18224325  0.43010380  1
  O2-  O146  1  0.07496604  0.17745180  0.76480209  1
  O2-  O147  1  0.06621643  0.67435536  0.09681631  1
  O2-  O148  1  0.07178395  0.67951552  0.43369572  1
  O2-  O149  1  0.07334285  0.68337541  0.75693614  1
  O2-  O150  1  0.57173958  0.18337098  0.09981687  1
  O2-  O151  1  0.57014191  0.17986752  0.42405374  1
  O2-  O152  1  0.57008943  0.17437475  0.75450938  1
  O2-  O153  1  0.57315461  0.67314757  0.08856915  1
  O2-  O154  1  0.56775820  0.67528539  0.42305702  1
  O2-  O155  1  0.57282935  0.68105266  0.75555715  1
  O2-  O156  1  0.18273227  0.42153799  0.24466629  1
  O2-  O157  1  0.18588964  0.42535911  0.56780365  1
  O2-  O158  1  0.18041147  0.42901147  0.90318718  1
  O2-  O159  1  0.18092403  0.93152681  0.24397183  1
  O2-  O160  1  0.17996289  0.93242972  0.57435467  1
  O2-  O161  1  0.17782273  0.93003324  0.90169049  1
  O2-  O162  1  0.67659140  0.42570156  0.24196275  1
  O2-  O163  1  0.67961405  0.42942519  0.56919478  1
  O2-  O164  1  0.67744065  0.42591903  0.91174911  1
  O2-  O165  1  0.67003742  0.93354776  0.24725763  1
  O2-  O166  1  0.67354243  0.93636533  0.57584885  1
  O2-  O167  1  0.67973138  0.93166774  0.89977373  1
  O2-  O168  1  0.43362291  0.32618945  0.08837008  1
  O2-  O169  1  0.43041074  0.32033204  0.42360181  1
  O2-  O170  1  0.43138287  0.31868942  0.75646784  1
  O2-  O171  1  0.43271376  0.81910141  0.09929647  1
  O2-  O172  1  0.43002090  0.82244953  0.43093723  1
  O2-  O173  1  0.43214975  0.82605026  0.76479509  1
  O2-  O174  1  0.92459316  0.32203451  0.09085616  1
  O2-  O175  1  0.92343813  0.31860421  0.42189972  1
  O2-  O176  1  0.92679667  0.31500826  0.76471796  1
  O2-  O177  1  0.92447742  0.81623037  0.09911127  1
  O2-  O178  1  0.93079441  0.82011978  0.43231282  1
  O2-  O179  1  0.92846593  0.82266935  0.76514152  1
  O2-  O180  1  0.32634721  0.07272933  0.24518747  1
  O2-  O181  1  0.32799630  0.06932672  0.57368784  1
  O2-  O182  1  0.32205056  0.06804689  0.90005400  1
  O2-  O183  1  0.32052881  0.56801022  0.23306094  1
  O2-  O184  1  0.31911287  0.57432011  0.56892627  1
  O2-  O185  1  0.32702792  0.56894820  0.91160898  1
  O2-  O186  1  0.81754188  0.07144320  0.23528282  1
  O2-  O187  1  0.82100894  0.06826586  0.57662939  1
  O2-  O188  1  0.81829852  0.07670301  0.90923475  1
  O2-  O189  1  0.81725105  0.56792632  0.23265520  1
  O2-  O190  1  0.81818666  0.57540153  0.57014851  1
  O2-  O191  1  0.81790856  0.57003546  0.91126176  1
  O2-  O192  1  0.03830439  0.08427810  0.26494448  1
  O2-  O193  1  0.04284661  0.08302782  0.59657765  1
  O2-  O194  1  0.04305820  0.08478202  0.93131530  1
  O2-  O195  1  0.04631288  0.57450129  0.27037695  1
  O2-  O196  1  0.05563624  0.58135860  0.61008566  1
  O2-  O197  1  0.03768548  0.57929091  0.93140192  1
  O2-  O198  1  0.54116446  0.08916616  0.27117728  1
  O2-  O199  1  0.53952971  0.09009471  0.59817232  1
  O2-  O200  1  0.54022205  0.08454020  0.93045707  1
  O2-  O201  1  0.54415213  0.58201828  0.27100551  1
  O2-  O202  1  0.55150862  0.58085578  0.60729270  1
  O2-  O203  1  0.55025235  0.58081119  0.93663894  1
  O2-  O204  1  0.16934979  0.20838707  0.26347187  1
  O2-  O205  1  0.17561238  0.20454908  0.59895474  1
  O2-  O206  1  0.16994015  0.21202862  0.93653072  1
  O2-  O207  1  0.16522945  0.70873446  0.26495567  1
  O2-  O208  1  0.16195988  0.71217807  0.60371125  1
  O2-  O209  1  0.17076402  0.69912953  0.93154909  1
  O2-  O210  1  0.66353306  0.20563976  0.27132346  1
  O2-  O211  1  0.66533504  0.20265849  0.60304257  1
  O2-  O212  1  0.66606049  0.21155676  0.93041900  1
  O2-  O213  1  0.66290638  0.70055111  0.27140413  1
  O2-  O214  1  0.66105101  0.70918513  0.60108787  1
  O2-  O215  1  0.66571422  0.70260868  0.93692647  1
  O2-  O216  1  0.08089194  0.45762943  0.07068959  1
  O2-  O217  1  0.08207622  0.44060637  0.39301204  1
  O2-  O218  1  0.08078888  0.44793979  0.73433672  1
  O2-  O219  1  0.07767812  0.95770108  0.06824829  1
  O2-  O220  1  0.08874312  0.96000792  0.39622447  1
  O2-  O221  1  0.08735315  0.96055845  0.72736758  1
  O2-  O222  1  0.58594899  0.45437355  0.06471402  1
  O2-  O223  1  0.58295055  0.45118844  0.39400584  1
  O2-  O224  1  0.58310355  0.45364026  0.73876218  1
  O2-  O225  1  0.58675230  0.96491488  0.06864663  1
  O2-  O226  1  0.58386594  0.96391536  0.40093362  1
  O2-  O227  1  0.58765596  0.96584450  0.72865061  1
  O2-  O228  1  0.21317420  0.33631949  0.07267926  1
  O2-  O229  1  0.21289577  0.33336069  0.39659831  1
  O2-  O230  1  0.21718548  0.33051949  0.73396852  1
  O2-  O231  1  0.20591800  0.82820653  0.06637642  1
  O2-  O232  1  0.20891721  0.83937887  0.39623564  1
  O2-  O233  1  0.20660996  0.84181921  0.72811371  1
  O2-  O234  1  0.70595536  0.33573997  0.06472275  1
  O2-  O235  1  0.70043040  0.33265698  0.39419337  1
  O2-  O236  1  0.70666212  0.32635500  0.73433616  1
  O2-  O237  1  0.70469716  0.83099041  0.06915396  1
  O2-  O238  1  0.68905295  0.83240574  0.39628013  1
  O2-  O239  1  0.69901920  0.83832179  0.72648841  1
  O2-  O240  1  0.45616118  0.41311358  0.26973988  1
  O2-  O241  1  0.45933842  0.41540167  0.60579404  1
  O2-  O242  1  0.45806926  0.41649228  0.93536143  1
  O2-  O243  1  0.46044288  0.91872688  0.26541744  1
  O2-  O244  1  0.46498752  0.91480851  0.59518603  1
  O2-  O245  1  0.46540768  0.91510974  0.93255870  1
  O2-  O246  1  0.94731276  0.41507626  0.27184467  1
  O2-  O247  1  0.95221649  0.42358125  0.60229986  1
  O2-  O248  1  0.95168551  0.41638210  0.94015870  1
  O2-  O249  1  0.95710798  0.91771404  0.26656635  1
  O2-  O250  1  0.96333768  0.91372957  0.59725814  1
  O2-  O251  1  0.95004343  0.92115741  0.93434562  1
  O2-  O252  1  0.33992030  0.29136093  0.26922531  1
  O2-  O253  1  0.34377932  0.29122938  0.60008492  1
  O2-  O254  1  0.33472918  0.30126430  0.93841866  1
  O2-  O255  1  0.33244728  0.79131540  0.26378470  1
  O2-  O256  1  0.33006380  0.79602411  0.59802256  1
  O2-  O257  1  0.33380916  0.79293469  0.93135703  1
  O2-  O258  1  0.83224127  0.29164099  0.27041522  1
  O2-  O259  1  0.83186026  0.29011265  0.59711842  1
  O2-  O260  1  0.83353329  0.29815028  0.93824970  1
  O2-  O261  1  0.82209456  0.80070605  0.27268043  1
  O2-  O262  1  0.82748333  0.79663442  0.59977785  1
  O2-  O263  1  0.82869500  0.78918392  0.93395305  1
  O2-  O264  1  0.41962715  0.04040956  0.06708656  1
  O2-  O265  1  0.41445744  0.04443077  0.39843160  1
  O2-  O266  1  0.41584764  0.03882851  0.72630846  1
  O2-  O267  1  0.41668408  0.54425285  0.06420834  1
  O2-  O268  1  0.41375746  0.53912081  0.40126485  1
  O2-  O269  1  0.41934149  0.54780377  0.73511149  1
  O2-  O270  1  0.91694467  0.05333471  0.05883695  1
  O2-  O271  1  0.91900505  0.04020949  0.40290058  1
  O2-  O272  1  0.91591507  0.04190368  0.72687712  1
  O2-  O273  1  0.90954157  0.54044055  0.06451924  1
  O2-  O274  1  0.91616844  0.54075850  0.40171310  1
  O2-  O275  1  0.92176275  0.55002955  0.73673640  1
  O2-  O276  1  0.30125130  0.17126467  0.06550344  1
  O2-  O277  1  0.29541657  0.16438459  0.39667111  1
  O2-  O278  1  0.30471511  0.16402982  0.72545877  1
  O2-  O279  1  0.30088020  0.66772164  0.05956665  1
  O2-  O280  1  0.28906542  0.66985220  0.39873797  1
  O2-  O281  1  0.29430105  0.67561551  0.73318579  1
  O2-  O282  1  0.79044608  0.16574011  0.06268345  1
  O2-  O283  1  0.78635271  0.16310897  0.40464237  1
  O2-  O284  1  0.79388856  0.15983379  0.72904017  1
  O2-  O285  1  0.78902258  0.66001380  0.06497043  1
  O2-  O286  1  0.78731614  0.66678171  0.40096117  1
  O2-  O287  1  0.78681579  0.67119467  0.73653531  1
