# generated using pymatgen
data_Ca2Al2SiO7
_symmetry_space_group_name_H-M   'P 1'
_cell_length_a   15.45583889
_cell_length_b   15.45548961
_cell_length_c   15.28238964
_cell_angle_alpha   89.99944840
_cell_angle_beta   89.99691960
_cell_angle_gamma   89.98889272
_symmetry_Int_Tables_number   1
_chemical_formula_structural   Ca2Al2SiO7
_chemical_formula_sum   'Ca48 Al48 Si24 O168'
_cell_volume   3650.61983392
_cell_formula_units_Z   24
loop_
 _symmetry_equiv_pos_site_id
 _symmetry_equiv_pos_as_xyz
  1  'x, y, z'
loop_
 _atom_type_symbol
 _atom_type_oxidation_number
  Ca2+  2.0
  Al0+  0.0
  Si0+  0.0
  O2-  -2.0
loop_
 _atom_site_type_symbol
 _atom_site_label
 _atom_site_symmetry_multiplicity
 _atom_site_fract_x
 _atom_site_fract_y
 _atom_site_fract_z
 _atom_site_occupancy
  Ca2+  Ca0  1  0.16908975  0.08863524  0.17403342  1
  Ca2+  Ca1  1  0.17600600  0.08323473  0.50448066  1
  Ca2+  Ca2  1  0.16672739  0.07842936  0.83267696  1
  Ca2+  Ca3  1  0.15704598  0.57234003  0.16984657  1
  Ca2+  Ca4  1  0.16415111  0.57877387  0.50268300  1
  Ca2+  Ca5  1  0.15880226  0.57948318  0.84185539  1
  Ca2+  Ca6  1  0.67362046  0.07800381  0.18261448  1
  Ca2+  Ca7  1  0.67487403  0.08289200  0.49889554  1
  Ca2+  Ca8  1  0.67616887  0.08163500  0.83484661  1
  Ca2+  Ca9  1  0.67017943  0.58180669  0.17004405  1
  Ca2+  Ca10  1  0.66301647  0.57857547  0.50142819  1
  Ca2+  Ca11  1  0.67034070  0.59007049  0.84126016  1
  Ca2+  Ca12  1  0.08936234  0.32545891  0.16824859  1
  Ca2+  Ca13  1  0.07693573  0.32627178  0.48694225  1
  Ca2+  Ca14  1  0.08733599  0.32983733  0.83482018  1
  Ca2+  Ca15  1  0.06821094  0.83053683  0.15874751  1
  Ca2+  Ca16  1  0.07736241  0.83888217  0.49754678  1
  Ca2+  Ca17  1  0.07593617  0.82614104  0.82435489  1
  Ca2+  Ca18  1  0.58571769  0.33070836  0.17220985  1
  Ca2+  Ca19  1  0.57273204  0.32717717  0.48879834  1
  Ca2+  Ca20  1  0.57413674  0.33330572  0.82434755  1
  Ca2+  Ca21  1  0.57841003  0.83704357  0.16572519  1
  Ca2+  Ca22  1  0.58363861  0.83114559  0.49239801  1
  Ca2+  Ca23  1  0.58594417  0.82024539  0.83026492  1
  Ca2+  Ca24  1  0.32364751  0.41496052  0.17436524  1
  Ca2+  Ca25  1  0.32883468  0.40689998  0.50112882  1
  Ca2+  Ca26  1  0.32861946  0.41730842  0.83806887  1
  Ca2+  Ca27  1  0.33202842  0.92189626  0.17935155  1
  Ca2+  Ca28  1  0.33306614  0.92765919  0.50544990  1
  Ca2+  Ca29  1  0.32755635  0.91875159  0.83267676  1
  Ca2+  Ca30  1  0.83446968  0.42485726  0.17642761  1
  Ca2+  Ca31  1  0.82532258  0.40769711  0.49887651  1
  Ca2+  Ca32  1  0.83081628  0.42841414  0.84180691  1
  Ca2+  Ca33  1  0.82981889  0.91583359  0.17674016  1
  Ca2+  Ca34  1  0.83963435  0.92515108  0.50043825  1
  Ca2+  Ca35  1  0.84145576  0.91481367  0.83217602  1
  Ca2+  Ca36  1  0.41917635  0.16737708  0.17238920  1
  Ca2+  Ca37  1  0.41512279  0.17001055  0.48984288  1
  Ca2+  Ca38  1  0.41424368  0.17307606  0.82622437  1
  Ca2+  Ca39  1  0.42220464  0.67182085  0.16629413  1
  Ca2+  Ca40  1  0.42107108  0.67473890  0.49545611  1
  Ca2+  Ca41  1  0.42955931  0.66088982  0.82792183  1
  Ca2+  Ca42  1  0.92545644  0.16765555  0.16727778  1
  Ca2+  Ca43  1  0.92063596  0.16412120  0.48811719  1
  Ca2+  Ca44  1  0.92310449  0.16287138  0.83005542  1
  Ca2+  Ca45  1  0.91420534  0.67622807  0.15919825  1
  Ca2+  Ca46  1  0.92212527  0.67923845  0.49732817  1
  Ca2+  Ca47  1  0.92245858  0.67353007  0.82925971  1
  Al0+  Al48  1  0.00118065  0.00247892  -0.00722976  1
  Al0+  Al49  1  0.00047391  -0.00195255  0.32657096  1
  Al0+  Al50  1  0.00069608  0.00043829  0.67158613  1
  Al0+  Al51  1  -0.00225052  0.49949942  0.00736910  1
  Al0+  Al52  1  0.00048243  0.49971571  0.33810376  1
  Al0+  Al53  1  -0.00191134  0.50023943  0.66415520  1
  Al0+  Al54  1  0.50030024  0.00225176  -0.00249102  1
  Al0+  Al55  1  0.50006762  -0.00064986  0.33403570  1
  Al0+  Al56  1  0.50303192  0.00022479  0.67527002  1
  Al0+  Al57  1  0.49823015  0.49981720  -0.00185774  1
  Al0+  Al58  1  0.49982589  0.50076970  0.33300120  1
  Al0+  Al59  1  0.49770815  0.49766579  0.65811982  1
  Al0+  Al60  1  0.24999065  0.25027367  -0.00086383  1
  Al0+  Al61  1  0.25006762  0.25084702  0.33465347  1
  Al0+  Al62  1  0.24900538  0.25059127  0.66858779  1
  Al0+  Al63  1  0.24973453  0.75145019  -0.00092833  1
  Al0+  Al64  1  0.25136235  0.74774587  0.32876755  1
  Al0+  Al65  1  0.25195768  0.74720912  0.66874598  1
  Al0+  Al66  1  0.74938098  0.24951359  -0.00083516  1
  Al0+  Al67  1  0.75052240  0.25207220  0.33292019  1
  Al0+  Al68  1  0.74853958  0.24962396  0.67515981  1
  Al0+  Al69  1  0.74759649  0.75146298  -0.00241552  1
  Al0+  Al70  1  0.75114828  0.74886317  0.33448238  1
  Al0+  Al71  1  0.75140755  0.74924072  0.65721805  1
  Al0+  Al72  1  0.42812875  0.31743757  0.65235386  1
  Al0+  Al73  1  0.07183492  0.18185816  0.98338112  1
  Al0+  Al74  1  0.67830291  0.92734832  0.34827306  1
  Al0+  Al75  1  0.32271064  0.07308383  0.68358753  1
  Al0+  Al76  1  0.18007940  0.42982543  0.01448045  1
  Al0+  Al77  1  0.81831571  0.57193302  0.01321142  1
  Al0+  Al78  1  0.31961939  0.06990166  0.34532631  1
  Al0+  Al79  1  0.82071919  0.07124302  0.68201665  1
  Al0+  Al80  1  0.82316567  0.07055226  0.34532169  1
  Al0+  Al81  1  0.92742666  0.82164062  0.98309923  1
  Al0+  Al82  1  0.57131670  0.67883714  0.65072804  1
  Al0+  Al83  1  0.42807158  0.32221366  0.31653783  1
  Al0+  Al84  1  0.92743797  0.32275730  0.31915039  1
  Al0+  Al85  1  0.18017160  0.42998774  0.34933524  1
  Al0+  Al86  1  0.67873352  0.43014590  0.34725416  1
  Al0+  Al87  1  0.57164224  0.17843658  0.31994737  1
  Al0+  Al88  1  0.92988905  0.81995544  0.31858286  1
  Al0+  Al89  1  0.17971676  0.92744845  0.68186749  1
  Al0+  Al90  1  0.07402070  0.67586821  0.65059858  1
  Al0+  Al91  1  0.07045403  0.67681031  0.98692500  1
  Al0+  Al92  1  0.42921000  0.82162444  0.32172501  1
  Al0+  Al93  1  0.93187171  0.82246364  0.64844546  1
  Al0+  Al94  1  0.56718776  0.68010992  0.98829856  1
  Al0+  Al95  1  0.07140498  0.17834009  0.32014636  1
  Si0+  Si96  1  0.67520085  0.42669343  0.01571474  1
  Si0+  Si97  1  0.82282560  0.57279066  0.35360357  1
  Si0+  Si98  1  0.67671224  0.43030408  0.68200932  1
  Si0+  Si99  1  0.43012883  0.31888904  0.98503797  1
  Si0+  Si100  1  0.32453677  0.57364848  0.01670625  1
  Si0+  Si101  1  0.07299110  0.67689185  0.31651032  1
  Si0+  Si102  1  0.92681908  0.32160422  0.65471372  1
  Si0+  Si103  1  0.32284374  0.57352718  0.35115288  1
  Si0+  Si104  1  0.42689306  0.82585931  0.98204492  1
  Si0+  Si105  1  0.17721298  0.43053012  0.68215946  1
  Si0+  Si106  1  0.42899304  0.82341560  0.65243334  1
  Si0+  Si107  1  0.17810618  0.92475761  0.34612357  1
  Si0+  Si108  1  0.17836023  0.92943809  0.01543386  1
  Si0+  Si109  1  0.67866763  0.93127876  0.01422794  1
  Si0+  Si110  1  0.32266415  0.56936625  0.68115108  1
  Si0+  Si111  1  0.57432619  0.17714156  0.65208729  1
  Si0+  Si112  1  0.92538161  0.32196675  0.98316646  1
  Si0+  Si113  1  0.32109510  0.07037492  0.01603020  1
  Si0+  Si114  1  0.81942447  0.57064489  0.68046074  1
  Si0+  Si115  1  0.06910136  0.18095059  0.65278167  1
  Si0+  Si116  1  0.67919930  0.92466879  0.68500675  1
  Si0+  Si117  1  0.57308852  0.17790047  0.98301961  1
  Si0+  Si118  1  0.57266581  0.67780748  0.31622195  1
  Si0+  Si119  1  0.82230099  0.07200478  0.01556246  1
  O2-  O120  1  0.25241490  -0.00269799  0.05800658  1
  O2-  O121  1  0.24588471  -0.00606509  0.39091727  1
  O2-  O122  1  0.25297960  -0.00136410  0.73344757  1
  O2-  O123  1  0.25024010  0.51031957  0.05955524  1
  O2-  O124  1  0.25555229  0.50393738  0.39637836  1
  O2-  O125  1  0.24659536  0.50362561  0.72405223  1
  O2-  O126  1  0.75134308  0.00055235  0.05615840  1
  O2-  O127  1  0.75114832  -0.00082040  0.39699635  1
  O2-  O128  1  0.74770615  -0.00581915  0.72911398  1
  O2-  O129  1  0.74524215  0.49439418  0.05839153  1
  O2-  O130  1  0.75431490  0.50277662  0.39675423  1
  O2-  O131  1  0.74627054  0.50210147  0.72485480  1
  O2-  O132  1  -0.00124899  0.25000477  0.26972305  1
  O2-  O133  1  -0.00418559  0.24955614  0.61195414  1
  O2-  O134  1  -0.00526544  0.25490756  0.93693085  1
  O2-  O135  1  0.00456396  0.74544110  0.27229141  1
  O2-  O136  1  0.00788226  0.75298707  0.60063001  1
  O2-  O137  1  0.00098477  0.74983730  0.93510632  1
  O2-  O138  1  0.50120691  0.25105860  0.26692295  1
  O2-  O139  1  0.49956852  0.23888740  0.60865994  1
  O2-  O140  1  0.50400826  0.25124077  0.94170051  1
  O2-  O141  1  0.50590684  0.74936925  0.27372253  1
  O2-  O142  1  0.49961911  0.75744055  0.60715942  1
  O2-  O143  1  0.49091647  0.75213939  0.93892612  1
  O2-  O144  1  0.07365474  0.18174419  0.09569974  1
  O2-  O145  1  0.07160423  0.17902616  0.43424171  1
  O2-  O146  1  0.06996149  0.18411073  0.75833474  1
  O2-  O147  1  0.06820350  0.67919318  0.10034774  1
  O2-  O148  1  0.07326534  0.67845611  0.42219598  1
  O2-  O149  1  0.06820737  0.67104086  0.76395626  1
  O2-  O150  1  0.57377430  0.17491892  0.08728638  1
  O2-  O151  1  0.57039382  0.17940723  0.43366951  1
  O2-  O152  1  0.57647780  0.18308739  0.75850659  1
  O2-  O153  1  0.56621238  0.68114374  0.10083655  1
  O2-  O154  1  0.57011909  0.67704753  0.42196398  1
  O2-  O155  1  0.57056094  0.67770736  0.76442144  1
  O2-  O156  1  0.18132658  0.43141892  0.23607560  1
  O2-  O157  1  0.17787520  0.42895066  0.57752948  1
  O2-  O158  1  0.18417919  0.42838623  0.90056151  1
  O2-  O159  1  0.18075041  0.92459676  0.24008011  1
  O2-  O160  1  0.18027391  0.93170784  0.56820843  1
  O2-  O161  1  0.18009688  0.93041599  0.91049822  1
  O2-  O162  1  0.67824051  0.43489285  0.23389595  1
  O2-  O163  1  0.67818094  0.42849354  0.57744600  1
  O2-  O164  1  0.67449808  0.42667589  0.90946187  1
  O2-  O165  1  0.67925974  0.92754590  0.23373974  1
  O2-  O166  1  0.67623428  0.92549750  0.58017409  1
  O2-  O167  1  0.67635718  0.93321297  0.90904889  1
  O2-  O168  1  0.42966114  0.31775694  0.08931637  1
  O2-  O169  1  0.42831230  0.31911101  0.43014357  1
  O2-  O170  1  0.43034359  0.32010700  0.76655087  1
  O2-  O171  1  0.42960992  0.82954764  0.08741141  1
  O2-  O172  1  0.42797696  0.81921504  0.43475169  1
  O2-  O173  1  0.43006563  0.81986312  0.75848572  1
  O2-  O174  1  0.92177458  0.31902192  0.08787157  1
  O2-  O175  1  0.92939913  0.32117122  0.43370045  1
  O2-  O176  1  0.92879660  0.32365725  0.76006631  1
  O2-  O177  1  0.92651546  0.82130587  0.09665077  1
  O2-  O178  1  0.93204311  0.82131451  0.43127572  1
  O2-  O179  1  0.93046243  0.81825984  0.76202784  1
  O2-  O180  1  0.31889102  0.06850455  0.23146900  1
  O2-  O181  1  0.32104526  0.07429840  0.57045303  1
  O2-  O182  1  0.32169923  0.07023793  0.91096758  1
  O2-  O183  1  0.32219859  0.57485507  0.24538570  1
  O2-  O184  1  0.32524419  0.56736778  0.57655400  1
  O2-  O185  1  0.33028288  0.56846879  0.91094415  1
  O2-  O186  1  0.82277033  0.06768070  0.23118406  1
  O2-  O187  1  0.81978650  0.07533055  0.56978225  1
  O2-  O188  1  0.81922988  0.07344312  0.91011419  1
  O2-  O189  1  0.82096615  0.57390363  0.24773403  1
  O2-  O190  1  0.81955692  0.56699316  0.57590279  1
  O2-  O191  1  0.81587049  0.57046110  0.89933200  1
  O2-  O192  1  0.04612844  0.08086742  0.26383740  1
  O2-  O193  1  0.04397291  0.08815806  0.60835298  1
  O2-  O194  1  0.04132899  0.08646805  0.92707082  1
  O2-  O195  1  0.04559078  0.58304845  0.27328113  1
  O2-  O196  1  0.03919284  0.57948813  0.59600763  1
  O2-  O197  1  0.04123662  0.57710686  0.93652590  1
  O2-  O198  1  0.54187438  0.08111432  0.26544375  1
  O2-  O199  1  0.55774425  0.07955134  0.61297521  1
  O2-  O200  1  0.54252746  0.08786998  0.93290580  1
  O2-  O201  1  0.54368471  0.58633643  0.26843097  1
  O2-  O202  1  0.53642022  0.58420296  0.59626076  1
  O2-  O203  1  0.53919897  0.58256846  0.93229155  1
  O2-  O204  1  0.16792038  0.21112385  0.26624556  1
  O2-  O205  1  0.16025621  0.21111880  0.60653091  1
  O2-  O206  1  0.16758073  0.21547451  0.92843785  1
  O2-  O207  1  0.16701273  0.69791116  0.26971380  1
  O2-  O208  1  0.17661231  0.69478514  0.60273356  1
  O2-  O209  1  0.17204087  0.69999341  0.93636880  1
  O2-  O210  1  0.66899903  0.20801372  0.26545634  1
  O2-  O211  1  0.66579614  0.20994293  0.60664572  1
  O2-  O212  1  0.66510378  0.20426254  0.93433088  1
  O2-  O213  1  0.66737731  0.69965772  0.27201508  1
  O2-  O214  1  0.66739003  0.70490394  0.59504505  1
  O2-  O215  1  0.66147490  0.71393007  0.93167818  1
  O2-  O216  1  0.08212175  0.45353060  0.06875722  1
  O2-  O217  1  0.08383333  0.45993041  0.40505445  1
  O2-  O218  1  0.08424510  0.45619327  0.72930583  1
  O2-  O219  1  0.08666879  0.96149867  0.06054646  1
  O2-  O220  1  0.08432874  0.95016965  0.39019663  1
  O2-  O221  1  0.08351678  0.95912332  0.73766953  1
  O2-  O222  1  0.58196875  0.45353857  0.06121832  1
  O2-  O223  1  0.58210487  0.46196108  0.40184661  1
  O2-  O224  1  0.58354036  0.45786744  0.72727662  1
  O2-  O225  1  0.58657006  0.96129151  0.06096891  1
  O2-  O226  1  0.58047342  0.95501568  0.40171944  1
  O2-  O227  1  0.58668379  0.94813879  0.73567171  1
  O2-  O228  1  0.21767981  0.33479407  0.06742699  1
  O2-  O229  1  0.21116174  0.33407493  0.40411917  1
  O2-  O230  1  0.20758696  0.33991509  0.73091482  1
  O2-  O231  1  0.20176300  0.83613063  0.06242261  1
  O2-  O232  1  0.20352410  0.83097159  0.39148002  1
  O2-  O233  1  0.20734504  0.82785457  0.73516971  1
  O2-  O234  1  0.69887126  0.33173832  0.05989504  1
  O2-  O235  1  0.70788662  0.33389820  0.40286669  1
  O2-  O236  1  0.70424480  0.34000951  0.73339244  1
  O2-  O237  1  0.70298734  0.83881992  0.06086410  1
  O2-  O238  1  0.70428514  0.82784843  0.39972476  1
  O2-  O239  1  0.70766640  0.83030214  0.72907591  1
  O2-  O240  1  0.45494376  0.42176741  0.26514908  1
  O2-  O241  1  0.46037401  0.41148656  0.59594261  1
  O2-  O242  1  0.45488238  0.41154246  0.93688339  1
  O2-  O243  1  0.45840919  0.91676680  0.26469123  1
  O2-  O244  1  0.45250056  0.91945389  0.61100820  1
  O2-  O245  1  0.45773472  0.91730876  0.93362635  1
  O2-  O246  1  0.95710525  0.42200013  0.26867989  1
  O2-  O247  1  0.95409702  0.41189567  0.60528343  1
  O2-  O248  1  0.95092295  0.41645583  0.93936282  1
  O2-  O249  1  0.95957118  0.91445314  0.26053949  1
  O2-  O250  1  0.95946039  0.92304223  0.59960062  1
  O2-  O251  1  0.95658879  0.91997148  0.93075187  1
  O2-  O252  1  0.33088746  0.29116253  0.26391775  1
  O2-  O253  1  0.32983668  0.29033737  0.60062395  1
  O2-  O254  1  0.34042347  0.28733712  0.93550438  1
  O2-  O255  1  0.33473588  0.78860237  0.26314146  1
  O2-  O256  1  0.33650446  0.79584454  0.60653600  1
  O2-  O257  1  0.33155338  0.80529136  0.93830633  1
  O2-  O258  1  0.82877306  0.30048963  0.26537022  1
  O2-  O259  1  0.83278147  0.29503516  0.61158868  1
  O2-  O260  1  0.83168872  0.29674675  0.93477273  1
  O2-  O261  1  0.83280260  0.78769766  0.26580966  1
  O2-  O262  1  0.83487643  0.79179298  0.59493741  1
  O2-  O263  1  0.82866509  0.79409258  0.93078492  1
  O2-  O264  1  0.41486280  0.04488480  0.06133583  1
  O2-  O265  1  0.41546514  0.03970105  0.39980440  1
  O2-  O266  1  0.42260336  0.04957685  0.73802250  1
  O2-  O267  1  0.41526714  0.54192521  0.06568235  1
  O2-  O268  1  0.41720402  0.55104014  0.39628105  1
  O2-  O269  1  0.41246202  0.53375634  0.72970255  1
  O2-  O270  1  0.91633354  0.04694553  0.05860031  1
  O2-  O271  1  0.92174110  0.03970701  0.39753478  1
  O2-  O272  1  0.91703637  0.04253578  0.73773869  1
  O2-  O273  1  0.91313568  0.54255570  0.07057183  1
  O2-  O274  1  0.91641658  0.54902793  0.39978064  1
  O2-  O275  1  0.91001104  0.53920603  0.72920258  1
  O2-  O276  1  0.29111770  0.16184058  0.06169706  1
  O2-  O277  1  0.28861443  0.16546106  0.40010435  1
  O2-  O278  1  0.28877652  0.17022544  0.73808742  1
  O2-  O279  1  0.30678919  0.67075153  0.05883017  1
  O2-  O280  1  0.29519289  0.66651778  0.39837539  1
  O2-  O281  1  0.30457069  0.66244710  0.73008225  1
  O2-  O282  1  0.79345421  0.16415930  0.06137717  1
  O2-  O283  1  0.79734300  0.16993714  0.39688798  1
  O2-  O284  1  0.78752106  0.16610453  0.74142339  1
  O2-  O285  1  0.78350845  0.66767095  0.06678055  1
  O2-  O286  1  0.79472925  0.66490087  0.40083889  1
  O2-  O287  1  0.79244396  0.66356280  0.72564617  1
