# generated using pymatgen
data_Ca2Al2SiO7
_symmetry_space_group_name_H-M   'P 1'
_cell_length_a   15.45716141
_cell_length_b   15.45799685
_cell_length_c   15.28402810
_cell_angle_alpha   90.01150273
_cell_angle_beta   89.99885781
_cell_angle_gamma   89.99383024
_symmetry_Int_Tables_number   1
_chemical_formula_structural   Ca2Al2SiO7
_chemical_formula_sum   'Ca48 Al48 Si24 O168'
_cell_volume   3651.91594271
_cell_formula_units_Z   24
loop_
 _symmetry_equiv_pos_site_id
 _symmetry_equiv_pos_as_xyz
  1  'x, y, z'
loop_
 _atom_type_symbol
 _atom_type_oxidation_number
  Ca2+  2.0
  Al0+  0.0
  Si0+  0.0
  O2-  -2.0
loop_
 _atom_site_type_symbol
 _atom_site_label
 _atom_site_symmetry_multiplicity
 _atom_site_fract_x
 _atom_site_fract_y
 _atom_site_fract_z
 _atom_site_occupancy
  Ca2+  Ca0  1  0.17285370  0.07825644  0.16194458  1
  Ca2+  Ca1  1  0.16609114  0.08038326  0.51072127  1
  Ca2+  Ca2  1  0.17216752  0.07623316  0.83665055  1
  Ca2+  Ca3  1  0.17304622  0.58428237  0.16507037  1
  Ca2+  Ca4  1  0.16912014  0.57452015  0.50902566  1
  Ca2+  Ca5  1  0.17429033  0.57225460  0.84071449  1
  Ca2+  Ca6  1  0.66201515  0.07546905  0.17011479  1
  Ca2+  Ca7  1  0.67181502  0.08419860  0.51038284  1
  Ca2+  Ca8  1  0.66149020  0.07034730  0.83285518  1
  Ca2+  Ca9  1  0.66947067  0.58027662  0.17510422  1
  Ca2+  Ca10  1  0.66844729  0.58120593  0.50092989  1
  Ca2+  Ca11  1  0.66215335  0.59049127  0.83515712  1
  Ca2+  Ca12  1  0.07833008  0.33943052  0.16263770  1
  Ca2+  Ca13  1  0.08133211  0.32871500  0.49913125  1
  Ca2+  Ca14  1  0.08945195  0.32893121  0.82524134  1
  Ca2+  Ca15  1  0.07122883  0.83737733  0.15930749  1
  Ca2+  Ca16  1  0.07130206  0.84017734  0.49842593  1
  Ca2+  Ca17  1  0.07566811  0.84750132  0.82821758  1
  Ca2+  Ca18  1  0.58489528  0.33051557  0.16805510  1
  Ca2+  Ca19  1  0.57941404  0.32474008  0.49247127  1
  Ca2+  Ca20  1  0.57317792  0.32426905  0.82132567  1
  Ca2+  Ca21  1  0.58101360  0.82520983  0.15170899  1
  Ca2+  Ca22  1  0.58406914  0.83311606  0.50398297  1
  Ca2+  Ca23  1  0.57729139  0.82933614  0.82829778  1
  Ca2+  Ca24  1  0.33307483  0.41954216  0.16796703  1
  Ca2+  Ca25  1  0.33436383  0.41110875  0.50691814  1
  Ca2+  Ca26  1  0.32608404  0.41588583  0.83906016  1
  Ca2+  Ca27  1  0.33688263  0.91904824  0.16555359  1
  Ca2+  Ca28  1  0.32653578  0.91762297  0.51173032  1
  Ca2+  Ca29  1  0.32815391  0.91461067  0.84248137  1
  Ca2+  Ca30  1  0.82762301  0.42409044  0.18129454  1
  Ca2+  Ca31  1  0.83260725  0.41786749  0.49949698  1
  Ca2+  Ca32  1  0.82980031  0.42048686  0.83746898  1
  Ca2+  Ca33  1  0.82865212  0.90873181  0.16767580  1
  Ca2+  Ca34  1  0.82974034  0.91967227  0.51206298  1
  Ca2+  Ca35  1  0.82649710  0.91563883  0.83261945  1
  Ca2+  Ca36  1  0.41777336  0.16921628  0.16593502  1
  Ca2+  Ca37  1  0.42653511  0.17548420  0.49712451  1
  Ca2+  Ca38  1  0.41673234  0.16834220  0.82538070  1
  Ca2+  Ca39  1  0.42312600  0.66980950  0.15381643  1
  Ca2+  Ca40  1  0.42050262  0.67115570  0.50374898  1
  Ca2+  Ca41  1  0.42222974  0.67220707  0.82976838  1
  Ca2+  Ca42  1  0.91513807  0.17486492  0.16596675  1
  Ca2+  Ca43  1  0.92292384  0.16386432  0.49811853  1
  Ca2+  Ca44  1  0.92433422  0.16236683  0.82442967  1
  Ca2+  Ca45  1  0.91232681  0.67451231  0.16231995  1
  Ca2+  Ca46  1  0.91240901  0.67752178  0.49597654  1
  Ca2+  Ca47  1  0.91932934  0.68066678  0.82948766  1
  Al0+  Al48  1  0.00002854  0.00415910  0.00107400  1
  Al0+  Al49  1  -0.00071139  -0.00140730  0.32653485  1
  Al0+  Al50  1  -0.00003794  0.00230954  0.66480268  1
  Al0+  Al51  1  -0.00254011  0.50152159  0.00212564  1
  Al0+  Al52  1  0.00216986  0.50132381  0.33467477  1
  Al0+  Al53  1  0.00052215  0.50125105  0.67239554  1
  Al0+  Al54  1  0.50111842  -0.00046705  0.00545197  1
  Al0+  Al55  1  0.49847117  0.00066632  0.33295257  1
  Al0+  Al56  1  0.50048889  0.00001566  0.66222103  1
  Al0+  Al57  1  0.49999031  0.49757341  -0.00067575  1
  Al0+  Al58  1  0.49909224  0.49991711  0.33503068  1
  Al0+  Al59  1  0.50056112  0.50194834  0.65979099  1
  Al0+  Al60  1  0.24845956  0.24887422  0.00913021  1
  Al0+  Al61  1  0.25211817  0.24850268  0.32960841  1
  Al0+  Al62  1  0.24787935  0.24903503  0.66211882  1
  Al0+  Al63  1  0.24734197  0.74773218  0.00570343  1
  Al0+  Al64  1  0.24887087  0.74947848  0.33548018  1
  Al0+  Al65  1  0.24880334  0.74809234  0.66809996  1
  Al0+  Al66  1  0.75015595  0.25017361  -0.00189319  1
  Al0+  Al67  1  0.75131969  0.24780462  0.32901940  1
  Al0+  Al68  1  0.75173630  0.25267578  0.66972667  1
  Al0+  Al69  1  0.75131463  0.75077912  -0.00444453  1
  Al0+  Al70  1  0.74954922  0.74992815  0.33376517  1
  Al0+  Al71  1  0.75049329  0.75010425  0.66307790  1
  Al0+  Al72  1  0.57266336  0.17760062  0.31609562  1
  Al0+  Al73  1  0.93177838  0.82108010  0.65318569  1
  Al0+  Al74  1  0.82180604  0.07382323  0.68090756  1
  Al0+  Al75  1  0.57124497  0.67638562  0.98574621  1
  Al0+  Al76  1  0.42578303  0.82192107  0.65238773  1
  Al0+  Al77  1  0.17768853  0.42869029  0.01709958  1
  Al0+  Al78  1  0.06886232  0.18032312  0.65436631  1
  Al0+  Al79  1  0.67907060  0.42735992  0.34935552  1
  Al0+  Al80  1  0.57220292  0.67977345  0.64862230  1
  Al0+  Al81  1  0.42926886  0.32219647  0.31519364  1
  Al0+  Al82  1  0.32262105  0.56996162  0.01503611  1
  Al0+  Al83  1  0.93160998  0.32138756  0.32098828  1
  Al0+  Al84  1  0.42807552  0.32030144  0.65337440  1
  Al0+  Al85  1  0.93115293  0.82306116  0.98415435  1
  Al0+  Al86  1  0.17653255  0.92737299  0.01577220  1
  Al0+  Al87  1  0.17925056  0.92790537  0.67830271  1
  Al0+  Al88  1  0.67783966  0.92821594  0.68131529  1
  Al0+  Al89  1  0.32284035  0.07005600  0.01535365  1
  Al0+  Al90  1  0.18016996  0.42782411  0.67918638  1
  Al0+  Al91  1  0.92843368  0.81963582  0.31846180  1
  Al0+  Al92  1  0.82264223  0.57252358  0.34958744  1
  Al0+  Al93  1  0.42684329  0.82200549  0.98687829  1
  Al0+  Al94  1  0.57399665  0.17812298  0.65305995  1
  Al0+  Al95  1  0.68177457  0.92911637  0.01359522  1
  Si0+  Si96  1  0.81866371  0.57081957  0.01393161  1
  Si0+  Si97  1  0.67787294  0.92871012  0.34777696  1
  Si0+  Si98  1  0.07063355  0.18275072  0.98519340  1
  Si0+  Si99  1  0.67915813  0.42669106  0.01370327  1
  Si0+  Si100  1  0.82096478  0.57140495  0.68352535  1
  Si0+  Si101  1  0.07288156  0.17666669  0.31362514  1
  Si0+  Si102  1  0.32354330  0.57171585  0.68351576  1
  Si0+  Si103  1  0.17850556  0.93002860  0.34850972  1
  Si0+  Si104  1  0.92783522  0.32637764  0.65195932  1
  Si0+  Si105  1  0.32081823  0.07091797  0.35123612  1
  Si0+  Si106  1  0.82202670  0.06949906  0.34661067  1
  Si0+  Si107  1  0.07130572  0.67536560  0.65110064  1
  Si0+  Si108  1  0.67785136  0.43029523  0.68202581  1
  Si0+  Si109  1  0.32119256  0.57202884  0.35074346  1
  Si0+  Si110  1  0.18015692  0.42781661  0.34948635  1
  Si0+  Si111  1  0.07092360  0.67601846  0.98308450  1
  Si0+  Si112  1  0.07388832  0.67805118  0.31666001  1
  Si0+  Si113  1  0.32141178  0.07105226  0.67984238  1
  Si0+  Si114  1  0.42803564  0.31844146  0.98595526  1
  Si0+  Si115  1  0.42638089  0.82050744  0.31901436  1
  Si0+  Si116  1  0.92796056  0.32332013  0.98466521  1
  Si0+  Si117  1  0.57234341  0.17830342  0.98452141  1
  Si0+  Si118  1  0.56939463  0.68105480  0.31878427  1
  Si0+  Si119  1  0.82199961  0.07421820  0.01825971  1
  O2-  O120  1  0.25506146  -0.00705895  0.06577363  1
  O2-  O121  1  0.24856903  0.00075248  0.39249846  1
  O2-  O122  1  0.25981058  -0.00366179  0.72428977  1
  O2-  O123  1  0.24986481  0.49972533  0.06794644  1
  O2-  O124  1  0.25237245  0.49781863  0.39175604  1
  O2-  O125  1  0.25662065  0.50022578  0.72580149  1
  O2-  O126  1  0.75552173  0.00387362  0.06312375  1
  O2-  O127  1  0.74903525  0.00038795  0.38824785  1
  O2-  O128  1  0.74745767  0.00380985  0.73014665  1
  O2-  O129  1  0.74719258  0.50042088  0.05573663  1
  O2-  O130  1  0.75275085  0.49815273  0.39946769  1
  O2-  O131  1  0.74860131  0.50132506  0.72572773  1
  O2-  O132  1  0.00719453  0.24910336  0.27062409  1
  O2-  O133  1  -0.00653043  0.25477619  0.60838420  1
  O2-  O134  1  0.00063386  0.25484787  0.94257025  1
  O2-  O135  1  0.00236655  0.74377032  0.27240651  1
  O2-  O136  1  0.00711112  0.74733867  0.60551432  1
  O2-  O137  1  0.01064388  0.75217667  0.93877527  1
  O2-  O138  1  0.50291787  0.25174995  0.26505753  1
  O2-  O139  1  0.50298797  0.25132297  0.60368499  1
  O2-  O140  1  0.49812061  0.24671438  0.94349742  1
  O2-  O141  1  0.49869650  0.75164458  0.27623258  1
  O2-  O142  1  0.50016608  0.75302497  0.60010797  1
  O2-  O143  1  0.49755011  0.74794724  0.93829407  1
  O2-  O144  1  0.06784454  0.18320260  0.09056917  1
  O2-  O145  1  0.07165247  0.17429617  0.41914157  1
  O2-  O146  1  0.07034591  0.18205962  0.76755986  1
  O2-  O147  1  0.06452062  0.67138209  0.08881780  1
  O2-  O148  1  0.07759717  0.68022267  0.42210292  1
  O2-  O149  1  0.06728655  0.67092071  0.75621506  1
  O2-  O150  1  0.57562934  0.18161122  0.08934907  1
  O2-  O151  1  0.57063651  0.17616246  0.42920279  1
  O2-  O152  1  0.57104956  0.18042130  0.76735263  1
  O2-  O153  1  0.57298525  0.67678523  0.10016241  1
  O2-  O154  1  0.56953996  0.68280753  0.42349122  1
  O2-  O155  1  0.57046363  0.67820467  0.76188066  1
  O2-  O156  1  0.17910051  0.43008004  0.24466249  1
  O2-  O157  1  0.17869603  0.43017035  0.56570930  1
  O2-  O158  1  0.17895612  0.42725416  0.90350312  1
  O2-  O159  1  0.17974532  0.93043869  0.24375896  1
  O2-  O160  1  0.17806789  0.93201972  0.56435798  1
  O2-  O161  1  0.17411374  0.93461808  0.90255324  1
  O2-  O162  1  0.68031792  0.43108053  0.23486618  1
  O2-  O163  1  0.68029641  0.42965090  0.57737890  1
  O2-  O164  1  0.68230897  0.42351137  0.90863473  1
  O2-  O165  1  0.67902446  0.92765782  0.24256866  1
  O2-  O166  1  0.68190911  0.92808804  0.56699715  1
  O2-  O167  1  0.68127242  0.92989130  0.90129638  1
  O2-  O168  1  0.43060942  0.31937737  0.09077604  1
  O2-  O169  1  0.42701619  0.31901135  0.42838596  1
  O2-  O170  1  0.42757750  0.31856384  0.76773354  1
  O2-  O171  1  0.43239982  0.82059165  0.10152425  1
  O2-  O172  1  0.42457750  0.81918853  0.42376434  1
  O2-  O173  1  0.42309330  0.81899143  0.76537174  1
  O2-  O174  1  0.92697906  0.32252738  0.08971208  1
  O2-  O175  1  0.93409234  0.31954157  0.43390203  1
  O2-  O176  1  0.92959834  0.32861031  0.75798292  1
  O2-  O177  1  0.92923473  0.81814520  0.09763244  1
  O2-  O178  1  0.93068582  0.82199734  0.43128934  1
  O2-  O179  1  0.93265002  0.81942392  0.76617506  1
  O2-  O180  1  0.32143502  0.06922264  0.24628525  1
  O2-  O181  1  0.31674703  0.07231764  0.57389677  1
  O2-  O182  1  0.31975709  0.07560644  0.90194922  1
  O2-  O183  1  0.32008495  0.57464541  0.24611731  1
  O2-  O184  1  0.32036258  0.57274551  0.57731877  1
  O2-  O185  1  0.32276905  0.56498397  0.90163014  1
  O2-  O186  1  0.82365351  0.06842153  0.24140375  1
  O2-  O187  1  0.82377653  0.07139801  0.56661925  1
  O2-  O188  1  0.82125429  0.07739288  0.91331850  1
  O2-  O189  1  0.81871156  0.57323905  0.23534586  1
  O2-  O190  1  0.82331293  0.56957203  0.57874569  1
  O2-  O191  1  0.82074072  0.56795931  0.90874851  1
  O2-  O192  1  0.04277101  0.08548549  0.26518268  1
  O2-  O193  1  0.03729456  0.08638922  0.59564536  1
  O2-  O194  1  0.04155983  0.09190129  0.93741651  1
  O2-  O195  1  0.05268714  0.58341390  0.27135303  1
  O2-  O196  1  0.04084248  0.58361928  0.60274117  1
  O2-  O197  1  0.03653106  0.58560763  0.93440679  1
  O2-  O198  1  0.53906794  0.07953496  0.26346288  1
  O2-  O199  1  0.54873127  0.08048839  0.59846592  1
  O2-  O200  1  0.54660006  0.08532842  0.94025615  1
  O2-  O201  1  0.54217986  0.58855410  0.27321193  1
  O2-  O202  1  0.54307696  0.58272696  0.59288515  1
  O2-  O203  1  0.54579098  0.57668145  0.93306626  1
  O2-  O204  1  0.16737450  0.19965571  0.26912674  1
  O2-  O205  1  0.16280925  0.21137994  0.59552996  1
  O2-  O206  1  0.16324016  0.21010125  0.93980977  1
  O2-  O207  1  0.16620371  0.70731956  0.26880137  1
  O2-  O208  1  0.16638554  0.69509972  0.60635026  1
  O2-  O209  1  0.16815863  0.69036334  0.94234401  1
  O2-  O210  1  0.67172211  0.20134040  0.26209147  1
  O2-  O211  1  0.67325747  0.20811645  0.60234233  1
  O2-  O212  1  0.66283002  0.20949707  0.93619605  1
  O2-  O213  1  0.66118052  0.70866353  0.27120010  1
  O2-  O214  1  0.67056944  0.70644269  0.59502663  1
  O2-  O215  1  0.66887105  0.70595792  0.93270273  1
  O2-  O216  1  0.07806567  0.45873039  0.06806938  1
  O2-  O217  1  0.08921399  0.45635485  0.39784489  1
  O2-  O218  1  0.08439093  0.45917884  0.73523701  1
  O2-  O219  1  0.08127052  0.96629408  0.07096148  1
  O2-  O220  1  0.08539867  0.95895732  0.39300685  1
  O2-  O221  1  0.08561931  0.96648363  0.73148758  1
  O2-  O222  1  0.58661798  0.45029696  0.06062982  1
  O2-  O223  1  0.58068164  0.45764003  0.40115539  1
  O2-  O224  1  0.58533580  0.45851331  0.72802680  1
  O2-  O225  1  0.58636775  0.95896989  0.07047542  1
  O2-  O226  1  0.58487321  0.95456301  0.39375560  1
  O2-  O227  1  0.57770898  0.95437063  0.73259861  1
  O2-  O228  1  0.20424542  0.33155048  0.07251593  1
  O2-  O229  1  0.20663992  0.33382864  0.39358654  1
  O2-  O230  1  0.20962083  0.33059353  0.73252429  1
  O2-  O231  1  0.19167155  0.82586155  0.06712382  1
  O2-  O232  1  0.20539888  0.83767376  0.39545511  1
  O2-  O233  1  0.20008547  0.82862614  0.73121639  1
  O2-  O234  1  0.71075468  0.33654401  0.06278522  1
  O2-  O235  1  0.70812429  0.32731643  0.39819694  1
  O2-  O236  1  0.70551316  0.33982530  0.73261311  1
  O2-  O237  1  0.71450123  0.83223429  0.06754180  1
  O2-  O238  1  0.70619250  0.83749180  0.39511666  1
  O2-  O239  1  0.71036732  0.83020854  0.73267529  1
  O2-  O240  1  0.45455042  0.42277334  0.26484388  1
  O2-  O241  1  0.45303657  0.41908747  0.60052154  1
  O2-  O242  1  0.45666133  0.40912869  0.93759650  1
  O2-  O243  1  0.45163613  0.91366441  0.27386333  1
  O2-  O244  1  0.45036218  0.92058374  0.59792102  1
  O2-  O245  1  0.45594415  0.92136952  0.93694792  1
  O2-  O246  1  0.96076506  0.41918409  0.26707034  1
  O2-  O247  1  0.95736120  0.41849391  0.60520018  1
  O2-  O248  1  0.95188549  0.41641368  0.93790371  1
  O2-  O249  1  0.96019418  0.91484658  0.26172448  1
  O2-  O250  1  0.96252776  0.91683334  0.59806684  1
  O2-  O251  1  0.95773577  0.92260476  0.93437784  1
  O2-  O252  1  0.33142109  0.29058519  0.26169181  1
  O2-  O253  1  0.33165548  0.28979837  0.59804153  1
  O2-  O254  1  0.33444024  0.29072243  0.94248167  1
  O2-  O255  1  0.33469542  0.79147417  0.27205247  1
  O2-  O256  1  0.32782522  0.78989765  0.59766512  1
  O2-  O257  1  0.32512889  0.79725480  0.93981227  1
  O2-  O258  1  0.83672075  0.28933405  0.26418931  1
  O2-  O259  1  0.83300989  0.30585440  0.60772699  1
  O2-  O260  1  0.83674522  0.29434369  0.93613796  1
  O2-  O261  1  0.83123130  0.78893682  0.26493296  1
  O2-  O262  1  0.83670743  0.78803417  0.59864404  1
  O2-  O263  1  0.83707555  0.78691118  0.92972401  1
  O2-  O264  1  0.42138815  0.04724139  0.07135109  1
  O2-  O265  1  0.41224674  0.04192267  0.39865477  1
  O2-  O266  1  0.41762606  0.05433681  0.72257450  1
  O2-  O267  1  0.42069703  0.53890999  0.06895030  1
  O2-  O268  1  0.41324527  0.54702196  0.39840511  1
  O2-  O269  1  0.41868148  0.54850486  0.72643362  1
  O2-  O270  1  0.91618741  0.05262053  0.06444360  1
  O2-  O271  1  0.91438721  0.03969804  0.39273726  1
  O2-  O272  1  0.91874173  0.04159148  0.73437501  1
  O2-  O273  1  0.90917004  0.54260711  0.06349993  1
  O2-  O274  1  0.92290268  0.54795390  0.40087797  1
  O2-  O275  1  0.91108670  0.54219393  0.73390467  1
  O2-  O276  1  0.28729472  0.16438064  0.07353871  1
  O2-  O277  1  0.29307671  0.16349430  0.39691913  1
  O2-  O278  1  0.28818184  0.16186309  0.72685123  1
  O2-  O279  1  0.29518224  0.66740827  0.07130976  1
  O2-  O280  1  0.28977910  0.66263074  0.39969764  1
  O2-  O281  1  0.29484264  0.66322617  0.73121009  1
  O2-  O282  1  0.79338931  0.16780832  0.06475696  1
  O2-  O283  1  0.79790247  0.16201830  0.39329760  1
  O2-  O284  1  0.80183952  0.17460535  0.73405206  1
  O2-  O285  1  0.79193729  0.66269187  0.06095001  1
  O2-  O286  1  0.78959684  0.66972709  0.40280395  1
  O2-  O287  1  0.79310098  0.66318779  0.73022098  1
