# generated using pymatgen
data_Ca2Al2SiO7
_symmetry_space_group_name_H-M   'P 1'
_cell_length_a   15.45704399
_cell_length_b   15.45628937
_cell_length_c   15.28255110
_cell_angle_alpha   90.00541599
_cell_angle_beta   89.99077283
_cell_angle_gamma   89.99186193
_symmetry_Int_Tables_number   1
_chemical_formula_structural   Ca2Al2SiO7
_chemical_formula_sum   'Ca48 Al48 Si24 O168'
_cell_volume   3651.13194224
_cell_formula_units_Z   24
loop_
 _symmetry_equiv_pos_site_id
 _symmetry_equiv_pos_as_xyz
  1  'x, y, z'
loop_
 _atom_type_symbol
 _atom_type_oxidation_number
  Ca2+  2.0
  Al0+  0.0
  Si0+  0.0
  O2-  -2.0
loop_
 _atom_site_type_symbol
 _atom_site_label
 _atom_site_symmetry_multiplicity
 _atom_site_fract_x
 _atom_site_fract_y
 _atom_site_fract_z
 _atom_site_occupancy
  Ca2+  Ca0  1  0.17143576  0.07608287  0.17155733  1
  Ca2+  Ca1  1  0.17024611  0.07836907  0.50382160  1
  Ca2+  Ca2  1  0.17723310  0.08538907  0.84015167  1
  Ca2+  Ca3  1  0.16140628  0.58078695  0.17374270  1
  Ca2+  Ca4  1  0.16646276  0.58299710  0.50141451  1
  Ca2+  Ca5  1  0.16581998  0.59049743  0.83397458  1
  Ca2+  Ca6  1  0.67539663  0.08094705  0.17344475  1
  Ca2+  Ca7  1  0.66793996  0.08438428  0.49533457  1
  Ca2+  Ca8  1  0.67414207  0.07871563  0.84196292  1
  Ca2+  Ca9  1  0.67134342  0.58375837  0.16340706  1
  Ca2+  Ca10  1  0.67000656  0.57256881  0.50887306  1
  Ca2+  Ca11  1  0.67197204  0.57322225  0.84474662  1
  Ca2+  Ca12  1  0.07242920  0.33745610  0.16386514  1
  Ca2+  Ca13  1  0.07330347  0.33815209  0.49274805  1
  Ca2+  Ca14  1  0.06843341  0.33401661  0.83122161  1
  Ca2+  Ca15  1  0.08464799  0.82451344  0.15970669  1
  Ca2+  Ca16  1  0.08625300  0.82494831  0.49581611  1
  Ca2+  Ca17  1  0.07213864  0.82514188  0.82947673  1
  Ca2+  Ca18  1  0.57434277  0.33079949  0.16150413  1
  Ca2+  Ca19  1  0.57780167  0.32826514  0.49026673  1
  Ca2+  Ca20  1  0.58295099  0.33950969  0.83337633  1
  Ca2+  Ca21  1  0.58212372  0.83164133  0.15945731  1
  Ca2+  Ca22  1  0.58249615  0.83481523  0.49376952  1
  Ca2+  Ca23  1  0.58294932  0.82678075  0.83621302  1
  Ca2+  Ca24  1  0.32897294  0.41356058  0.17214092  1
  Ca2+  Ca25  1  0.32749311  0.41853329  0.50407237  1
  Ca2+  Ca26  1  0.33304939  0.42280313  0.83948109  1
  Ca2+  Ca27  1  0.33236729  0.91825106  0.16997078  1
  Ca2+  Ca28  1  0.32620207  0.92163008  0.50472363  1
  Ca2+  Ca29  1  0.33661225  0.92701185  0.84134778  1
  Ca2+  Ca30  1  0.83471258  0.41778058  0.16650713  1
  Ca2+  Ca31  1  0.83072664  0.41156366  0.50565364  1
  Ca2+  Ca32  1  0.82552928  0.41558172  0.84359966  1
  Ca2+  Ca33  1  0.83542861  0.92616108  0.17352004  1
  Ca2+  Ca34  1  0.83187280  0.91965588  0.50092725  1
  Ca2+  Ca35  1  0.84128750  0.91862369  0.84274654  1
  Ca2+  Ca36  1  0.41885273  0.17313917  0.16114467  1
  Ca2+  Ca37  1  0.42157405  0.16993181  0.49075442  1
  Ca2+  Ca38  1  0.41231042  0.16993742  0.83221524  1
  Ca2+  Ca39  1  0.42484777  0.67481464  0.15519838  1
  Ca2+  Ca40  1  0.41545888  0.66325902  0.49838488  1
  Ca2+  Ca41  1  0.41964558  0.66724426  0.83354823  1
  Ca2+  Ca42  1  0.90841887  0.17313414  0.16305133  1
  Ca2+  Ca43  1  0.91123658  0.17780609  0.49391882  1
  Ca2+  Ca44  1  0.90660235  0.17631149  0.83317760  1
  Ca2+  Ca45  1  0.92664814  0.67015950  0.15523860  1
  Ca2+  Ca46  1  0.92820478  0.66997675  0.49617987  1
  Ca2+  Ca47  1  0.92210502  0.66966284  0.83041824  1
  Al0+  Al48  1  0.00350848  0.00011115  0.00218157  1
  Al0+  Al49  1  0.00046772  0.00139126  0.34473538  1
  Al0+  Al50  1  -0.00077939  0.00048828  0.66421196  1
  Al0+  Al51  1  -0.00067537  0.49828727  -0.00590221  1
  Al0+  Al52  1  0.00118886  0.50093975  0.33051674  1
  Al0+  Al53  1  -0.00067080  0.50060408  0.65859429  1
  Al0+  Al54  1  0.50057871  0.00223340  0.00132307  1
  Al0+  Al55  1  0.50197605  0.00003926  0.33280167  1
  Al0+  Al56  1  0.50091728  -0.00027407  0.67042783  1
  Al0+  Al57  1  0.49883043  0.49875592  -0.00200886  1
  Al0+  Al58  1  0.50084266  0.50145668  0.32954709  1
  Al0+  Al59  1  0.49851896  0.49923776  0.67310468  1
  Al0+  Al60  1  0.25129371  0.25048898  0.00084530  1
  Al0+  Al61  1  0.24726264  0.25169659  0.33582342  1
  Al0+  Al62  1  0.24902541  0.25074294  0.67041555  1
  Al0+  Al63  1  0.25140577  0.75073947  -0.00804592  1
  Al0+  Al64  1  0.25138139  0.74987618  0.33388910  1
  Al0+  Al65  1  0.25062159  0.75040271  0.66783147  1
  Al0+  Al66  1  0.74715743  0.24848735  0.00481913  1
  Al0+  Al67  1  0.74860942  0.25056110  0.32884573  1
  Al0+  Al68  1  0.74734738  0.24786612  0.66659005  1
  Al0+  Al69  1  0.75015715  0.74811711  -0.00382170  1
  Al0+  Al70  1  0.75136072  0.75046868  0.33860767  1
  Al0+  Al71  1  0.74893704  0.74937120  0.66203661  1
  Al0+  Al72  1  0.92759799  0.31839607  0.65320575  1
  Al0+  Al73  1  0.92646470  0.82348610  0.64827133  1
  Al0+  Al74  1  0.82073106  0.07397836  0.35089268  1
  Al0+  Al75  1  0.07259994  0.68037608  0.64795533  1
  Al0+  Al76  1  0.42756904  0.32002065  0.98424773  1
  Al0+  Al77  1  0.07119368  0.68185976  0.31836598  1
  Al0+  Al78  1  0.92944173  0.82323487  0.98891418  1
  Al0+  Al79  1  0.42970050  0.82368936  0.98440609  1
  Al0+  Al80  1  0.92730182  0.31766022  0.98695756  1
  Al0+  Al81  1  0.68016215  0.42731379  0.67951792  1
  Al0+  Al82  1  0.32215286  0.07227499  0.01627839  1
  Al0+  Al83  1  0.57194749  0.67773573  0.98437122  1
  Al0+  Al84  1  0.18017781  0.92707237  0.34733367  1
  Al0+  Al85  1  0.82322294  0.06940621  0.01319151  1
  Al0+  Al86  1  0.92967408  0.32036943  0.31828884  1
  Al0+  Al87  1  0.42644084  0.32259952  0.31944412  1
  Al0+  Al88  1  0.07157805  0.67642743  0.98386399  1
  Al0+  Al89  1  0.67699372  0.42849308  0.01876865  1
  Al0+  Al90  1  0.17803157  0.42959778  0.34623901  1
  Al0+  Al91  1  0.32112298  0.07074186  0.68028328  1
  Al0+  Al92  1  0.57002606  0.17796801  0.31625173  1
  Al0+  Al93  1  0.67890959  0.92765986  0.34873342  1
  Al0+  Al94  1  0.31973441  0.57067437  0.68164909  1
  Al0+  Al95  1  0.82293326  0.57088853  0.01444864  1
  Si0+  Si96  1  0.56883870  0.67710081  0.65086098  1
  Si0+  Si97  1  0.32365668  0.57149291  0.34771096  1
  Si0+  Si98  1  0.32181290  0.07221796  0.34926733  1
  Si0+  Si99  1  0.07449307  0.17908376  0.65011789  1
  Si0+  Si100  1  0.07229223  0.17514768  0.31818338  1
  Si0+  Si101  1  0.81960583  0.06973310  0.68163944  1
  Si0+  Si102  1  0.18071513  0.92741190  0.01579185  1
  Si0+  Si103  1  0.67847332  0.92691322  0.68302846  1
  Si0+  Si104  1  0.43023338  0.82006395  0.32104142  1
  Si0+  Si105  1  0.67808549  0.43127190  0.34742539  1
  Si0+  Si106  1  0.07348859  0.17792643  0.98521326  1
  Si0+  Si107  1  0.67872481  0.92704260  0.01451081  1
  Si0+  Si108  1  0.82222423  0.57082811  0.34910175  1
  Si0+  Si109  1  0.92775168  0.82323830  0.31820832  1
  Si0+  Si110  1  0.42820592  0.32172871  0.65268987  1
  Si0+  Si111  1  0.43154220  0.82249916  0.65100802  1
  Si0+  Si112  1  0.17910778  0.42988764  0.01352717  1
  Si0+  Si113  1  0.17532132  0.42840991  0.68442634  1
  Si0+  Si114  1  0.56913012  0.17750562  0.65219243  1
  Si0+  Si115  1  0.57112972  0.17920182  0.98137846  1
  Si0+  Si116  1  0.17735109  0.92838242  0.68523820  1
  Si0+  Si117  1  0.57404566  0.67859062  0.32018964  1
  Si0+  Si118  1  0.82195559  0.57198115  0.68127884  1
  Si0+  Si119  1  0.32027183  0.57239603  0.01482541  1
  O2-  O120  1  0.25043015  -0.00540242  0.06147496  1
  O2-  O121  1  0.25290464  0.00426795  0.39428784  1
  O2-  O122  1  0.24470423  -0.00120683  0.72888846  1
  O2-  O123  1  0.24680324  0.50428201  0.05647610  1
  O2-  O124  1  0.25698782  0.50086172  0.39181389  1
  O2-  O125  1  0.24273577  0.49834066  0.72867493  1
  O2-  O126  1  0.75249677  -0.00997188  0.05799646  1
  O2-  O127  1  0.74995501  -0.00027536  0.40047130  1
  O2-  O128  1  0.75494803  -0.00743011  0.72373018  1
  O2-  O129  1  0.75075706  0.49996790  0.06723672  1
  O2-  O130  1  0.75028322  0.50010954  0.39141698  1
  O2-  O131  1  0.75631905  0.50060607  0.72520089  1
  O2-  O132  1  0.00286928  0.24266003  0.27369346  1
  O2-  O133  1  0.00487315  0.24653603  0.60571495  1
  O2-  O134  1  -0.00010138  0.24074812  0.93996944  1
  O2-  O135  1  -0.00151905  0.75835458  0.27253790  1
  O2-  O136  1  0.00031098  0.75294782  0.59883036  1
  O2-  O137  1  -0.00281435  0.74799013  0.93740393  1
  O2-  O138  1  0.49552662  0.24860944  0.26853704  1
  O2-  O139  1  0.49715012  0.24856943  0.61104808  1
  O2-  O140  1  0.50298106  0.24729703  0.93523368  1
  O2-  O141  1  0.50440234  0.75183877  0.28009819  1
  O2-  O142  1  0.49950396  0.74920313  0.60690053  1
  O2-  O143  1  0.50046255  0.75064282  0.93387505  1
  O2-  O144  1  0.07568338  0.17993333  0.09064561  1
  O2-  O145  1  0.07364722  0.17710852  0.42401692  1
  O2-  O146  1  0.07599567  0.18034454  0.75571483  1
  O2-  O147  1  0.07337701  0.67815188  0.09774579  1
  O2-  O148  1  0.07141422  0.68182950  0.43119247  1
  O2-  O149  1  0.07095949  0.68161794  0.76110648  1
  O2-  O150  1  0.56917824  0.17904657  0.08654952  1
  O2-  O151  1  0.56792143  0.18027519  0.43114228  1
  O2-  O152  1  0.57020324  0.17585647  0.75697865  1
  O2-  O153  1  0.56941841  0.67997395  0.09873905  1
  O2-  O154  1  0.57142122  0.67548876  0.42576435  1
  O2-  O155  1  0.56834058  0.67834956  0.75526700  1
  O2-  O156  1  0.17669982  0.43273237  0.23305399  1
  O2-  O157  1  0.17807827  0.42645614  0.57873158  1
  O2-  O158  1  0.18108269  0.42828655  0.90831215  1
  O2-  O159  1  0.18425868  0.92602546  0.23440557  1
  O2-  O160  1  0.18111962  0.92894170  0.57924276  1
  O2-  O161  1  0.18034613  0.93055039  0.91030008  1
  O2-  O162  1  0.67570627  0.43496709  0.24312948  1
  O2-  O163  1  0.67893794  0.42842740  0.56559639  1
  O2-  O164  1  0.67937189  0.42858632  0.90460063  1
  O2-  O165  1  0.68004738  0.92418413  0.23557434  1
  O2-  O166  1  0.67385658  0.92952808  0.57828864  1
  O2-  O167  1  0.67655679  0.93107993  0.90834239  1
  O2-  O168  1  0.42542554  0.31843150  0.09698710  1
  O2-  O169  1  0.42964350  0.32347471  0.43403914  1
  O2-  O170  1  0.42879682  0.32143333  0.75761114  1
  O2-  O171  1  0.42984349  0.82144911  0.09873797  1
  O2-  O172  1  0.42951322  0.81848325  0.42664873  1
  O2-  O173  1  0.43522291  0.82456777  0.75544922  1
  O2-  O174  1  0.93058115  0.31857308  0.09982097  1
  O2-  O175  1  0.92972600  0.32077086  0.43189443  1
  O2-  O176  1  0.92623865  0.31584445  0.76619148  1
  O2-  O177  1  0.93356859  0.82539671  0.10256764  1
  O2-  O178  1  0.92691524  0.81829558  0.42368473  1
  O2-  O179  1  0.92691031  0.82379441  0.76167621  1
  O2-  O180  1  0.32120317  0.07022625  0.24388239  1
  O2-  O181  1  0.32205359  0.06807972  0.56695353  1
  O2-  O182  1  0.31915064  0.07241584  0.90282614  1
  O2-  O183  1  0.32433308  0.57400770  0.24243256  1
  O2-  O184  1  0.32385138  0.56660482  0.56826552  1
  O2-  O185  1  0.32028882  0.57044192  0.90957343  1
  O2-  O186  1  0.82021823  0.07181167  0.23738753  1
  O2-  O187  1  0.81522260  0.07325156  0.57706305  1
  O2-  O188  1  0.81961090  0.07005868  0.89925406  1
  O2-  O189  1  0.82097509  0.57251734  0.24446050  1
  O2-  O190  1  0.81799248  0.57147215  0.57500886  1
  O2-  O191  1  0.82265540  0.56809466  0.90050966  1
  O2-  O192  1  0.04916275  0.07986180  0.27429237  1
  O2-  O193  1  0.05095221  0.08451849  0.60541403  1
  O2-  O194  1  0.05515648  0.08269732  0.93990694  1
  O2-  O195  1  0.03826648  0.58627715  0.26508999  1
  O2-  O196  1  0.04537414  0.58153151  0.59448214  1
  O2-  O197  1  0.04549195  0.57863654  0.92895562  1
  O2-  O198  1  0.54514009  0.07829608  0.26437625  1
  O2-  O199  1  0.54080464  0.08572968  0.60431236  1
  O2-  O200  1  0.54584845  0.08558964  0.93500482  1
  O2-  O201  1  0.54518421  0.58913117  0.26982929  1
  O2-  O202  1  0.53772082  0.58557476  0.60379649  1
  O2-  O203  1  0.53992739  0.58097067  0.93116515  1
  O2-  O204  1  0.16593043  0.20047642  0.27223486  1
  O2-  O205  1  0.16799901  0.20498289  0.60286286  1
  O2-  O206  1  0.16403212  0.21015327  0.93654855  1
  O2-  O207  1  0.16977636  0.70983547  0.26639798  1
  O2-  O208  1  0.17268077  0.70899494  0.59675446  1
  O2-  O209  1  0.16906667  0.70592268  0.93008834  1
  O2-  O210  1  0.66685417  0.20796237  0.26335433  1
  O2-  O211  1  0.65958408  0.20635894  0.60315805  1
  O2-  O212  1  0.66450193  0.20471415  0.93500741  1
  O2-  O213  1  0.66646292  0.70549213  0.27428025  1
  O2-  O214  1  0.66064234  0.70256906  0.60217741  1
  O2-  O215  1  0.66943094  0.70367829  0.92861023  1
  O2-  O216  1  0.08619611  0.45465224  0.05947389  1
  O2-  O217  1  0.08340285  0.46504201  0.40190248  1
  O2-  O218  1  0.08014765  0.45335508  0.72739491  1
  O2-  O219  1  0.08897163  0.95403279  0.06488172  1
  O2-  O220  1  0.08482636  0.95461539  0.40514610  1
  O2-  O221  1  0.08239663  0.95305414  0.72867729  1
  O2-  O222  1  0.57765959  0.45841051  0.06927820  1
  O2-  O223  1  0.58683631  0.46138245  0.39649389  1
  O2-  O224  1  0.58472981  0.45963912  0.73404185  1
  O2-  O225  1  0.58742666  0.95791970  0.06242691  1
  O2-  O226  1  0.57972202  0.95584025  0.40282491  1
  O2-  O227  1  0.58969222  0.96016798  0.73304012  1
  O2-  O228  1  0.21032780  0.33986349  0.06213106  1
  O2-  O229  1  0.20308831  0.33234683  0.40312383  1
  O2-  O230  1  0.20158593  0.33552409  0.73155134  1
  O2-  O231  1  0.20725675  0.83301099  0.06000096  1
  O2-  O232  1  0.21673839  0.83297723  0.40373545  1
  O2-  O233  1  0.20492705  0.83568158  0.73041293  1
  O2-  O234  1  0.70327103  0.32967493  0.07045404  1
  O2-  O235  1  0.70384900  0.33836131  0.39276426  1
  O2-  O236  1  0.70779176  0.32993601  0.73359178  1
  O2-  O237  1  0.69551232  0.83067474  0.05689488  1
  O2-  O238  1  0.70569711  0.82937508  0.40540437  1
  O2-  O239  1  0.69994803  0.83203642  0.72702328  1
  O2-  O240  1  0.45645300  0.42060632  0.26613215  1
  O2-  O241  1  0.45816850  0.41300893  0.60581095  1
  O2-  O242  1  0.45636402  0.41684132  0.93046749  1
  O2-  O243  1  0.45471596  0.91234896  0.27383008  1
  O2-  O244  1  0.46296375  0.91305767  0.60241595  1
  O2-  O245  1  0.45943952  0.92217568  0.93222560  1
  O2-  O246  1  0.96394353  0.41572848  0.26466641  1
  O2-  O247  1  0.95410444  0.41559620  0.59828505  1
  O2-  O248  1  0.96027693  0.41180046  0.93033868  1
  O2-  O249  1  0.95018958  0.92033514  0.27947155  1
  O2-  O250  1  0.95197756  0.92379133  0.59690382  1
  O2-  O251  1  0.96196528  0.92035564  0.93362594  1
  O2-  O252  1  0.32598350  0.29787469  0.26944512  1
  O2-  O253  1  0.33472387  0.29624719  0.60710017  1
  O2-  O254  1  0.33186087  0.28757886  0.92901781  1
  O2-  O255  1  0.34085387  0.78942768  0.27160404  1
  O2-  O256  1  0.33846352  0.79701688  0.60546019  1
  O2-  O257  1  0.33285303  0.79672939  0.92848286  1
  O2-  O258  1  0.83247385  0.29322021  0.26513621  1
  O2-  O259  1  0.83153016  0.28387835  0.59917691  1
  O2-  O260  1  0.82983090  0.28639129  0.93487156  1
  O2-  O261  1  0.83397472  0.79593828  0.27359575  1
  O2-  O262  1  0.82720984  0.79507654  0.59553219  1
  O2-  O263  1  0.82974549  0.80152019  0.93609609  1
  O2-  O264  1  0.41951291  0.04378048  0.06941376  1
  O2-  O265  1  0.41527855  0.04526492  0.39477743  1
  O2-  O266  1  0.41689576  0.03802725  0.73520940  1
  O2-  O267  1  0.41101380  0.54267823  0.06244590  1
  O2-  O268  1  0.41816322  0.54820590  0.39471568  1
  O2-  O269  1  0.41417549  0.53749576  0.73833958  1
  O2-  O270  1  0.92184807  0.04557551  0.06676540  1
  O2-  O271  1  0.91911622  0.05050392  0.40645010  1
  O2-  O272  1  0.91447888  0.04993949  0.72653514  1
  O2-  O273  1  0.92170290  0.54038072  0.06624347  1
  O2-  O274  1  0.91298548  0.54067455  0.39644729  1
  O2-  O275  1  0.91771302  0.54992998  0.72297480  1
  O2-  O276  1  0.28800301  0.16776026  0.07003566  1
  O2-  O277  1  0.29693483  0.16583091  0.39584684  1
  O2-  O278  1  0.29246559  0.16830224  0.73433512  1
  O2-  O279  1  0.29684870  0.66670692  0.05955005  1
  O2-  O280  1  0.29645583  0.66364277  0.39642076  1
  O2-  O281  1  0.29420151  0.66934889  0.73437395  1
  O2-  O282  1  0.78704758  0.16297994  0.06844231  1
  O2-  O283  1  0.78673362  0.17208094  0.40296639  1
  O2-  O284  1  0.78430043  0.15830861  0.73088672  1
  O2-  O285  1  0.79479785  0.67027511  0.06687311  1
  O2-  O286  1  0.79474734  0.66178345  0.39881482  1
  O2-  O287  1  0.79312437  0.66530039  0.72591590  1
