# generated using pymatgen
data_Ca2Al2SiO7
_symmetry_space_group_name_H-M   'P 1'
_cell_length_a   15.45279856
_cell_length_b   15.45295856
_cell_length_c   15.27925878
_cell_angle_alpha   90.01740763
_cell_angle_beta   89.99436020
_cell_angle_gamma   89.99390879
_symmetry_Int_Tables_number   1
_chemical_formula_structural   Ca2Al2SiO7
_chemical_formula_sum   'Ca48 Al48 Si24 O168'
_cell_volume   3648.55624062
_cell_formula_units_Z   24
loop_
 _symmetry_equiv_pos_site_id
 _symmetry_equiv_pos_as_xyz
  1  'x, y, z'
loop_
 _atom_type_symbol
 _atom_type_oxidation_number
  Ca2+  2.0
  Al0+  0.0
  Si0+  0.0
  O2-  -2.0
loop_
 _atom_site_type_symbol
 _atom_site_label
 _atom_site_symmetry_multiplicity
 _atom_site_fract_x
 _atom_site_fract_y
 _atom_site_fract_z
 _atom_site_occupancy
  Ca2+  Ca0  1  0.16214248  0.07020127  0.17137979  1
  Ca2+  Ca1  1  0.16059864  0.07351593  0.50465411  1
  Ca2+  Ca2  1  0.15950262  0.07428947  0.83407203  1
  Ca2+  Ca3  1  0.16516017  0.57873270  0.17658187  1
  Ca2+  Ca4  1  0.16571038  0.57999700  0.49921541  1
  Ca2+  Ca5  1  0.17306801  0.58684479  0.83259786  1
  Ca2+  Ca6  1  0.66938605  0.07986486  0.17197303  1
  Ca2+  Ca7  1  0.67253472  0.08393438  0.50171555  1
  Ca2+  Ca8  1  0.66805503  0.07118214  0.83635805  1
  Ca2+  Ca9  1  0.68284595  0.58502462  0.17078824  1
  Ca2+  Ca10  1  0.67351917  0.57593389  0.50468209  1
  Ca2+  Ca11  1  0.67444945  0.57738138  0.83733340  1
  Ca2+  Ca12  1  0.07367980  0.33920377  0.16491691  1
  Ca2+  Ca13  1  0.07737205  0.33039233  0.49425500  1
  Ca2+  Ca14  1  0.07185009  0.32655927  0.82557433  1
  Ca2+  Ca15  1  0.07595567  0.83457558  0.16544916  1
  Ca2+  Ca16  1  0.07714299  0.83232407  0.49342676  1
  Ca2+  Ca17  1  0.07263778  0.84105445  0.82774181  1
  Ca2+  Ca18  1  0.57549171  0.32776256  0.16498455  1
  Ca2+  Ca19  1  0.58077245  0.33108503  0.49113044  1
  Ca2+  Ca20  1  0.58222336  0.33613737  0.82912897  1
  Ca2+  Ca21  1  0.57981543  0.83446499  0.15752094  1
  Ca2+  Ca22  1  0.57723222  0.84066375  0.50079169  1
  Ca2+  Ca23  1  0.57500184  0.84088262  0.82748843  1
  Ca2+  Ca24  1  0.32849710  0.41073634  0.17486094  1
  Ca2+  Ca25  1  0.32967935  0.41954495  0.50388944  1
  Ca2+  Ca26  1  0.33628153  0.42306109  0.83771668  1
  Ca2+  Ca27  1  0.32197263  0.91013500  0.16943139  1
  Ca2+  Ca28  1  0.31979053  0.91147138  0.50729235  1
  Ca2+  Ca29  1  0.32222795  0.90981584  0.83870465  1
  Ca2+  Ca30  1  0.84529967  0.42711989  0.17385649  1
  Ca2+  Ca31  1  0.83723879  0.41968174  0.50413064  1
  Ca2+  Ca32  1  0.83391331  0.41636409  0.83815473  1
  Ca2+  Ca33  1  0.83366479  0.91910696  0.17317356  1
  Ca2+  Ca34  1  0.83672897  0.92138188  0.50517431  1
  Ca2+  Ca35  1  0.82477711  0.90723272  0.83941116  1
  Ca2+  Ca36  1  0.41753426  0.17467010  0.16637936  1
  Ca2+  Ca37  1  0.42697000  0.17067540  0.48972208  1
  Ca2+  Ca38  1  0.41586033  0.17167782  0.83170290  1
  Ca2+  Ca39  1  0.42140252  0.67163433  0.16086413  1
  Ca2+  Ca40  1  0.41356096  0.66820265  0.50207658  1
  Ca2+  Ca41  1  0.41454779  0.67720375  0.82650284  1
  Ca2+  Ca42  1  0.90931022  0.17753652  0.16626707  1
  Ca2+  Ca43  1  0.91678503  0.17449701  0.49619452  1
  Ca2+  Ca44  1  0.92082279  0.17463295  0.82614193  1
  Ca2+  Ca45  1  0.91863255  0.67105781  0.16435154  1
  Ca2+  Ca46  1  0.91822226  0.67823590  0.49015076  1
  Ca2+  Ca47  1  0.91309872  0.67476124  0.83304195  1
  Al0+  Al48  1  -0.00078539  -0.00057283  0.00115321  1
  Al0+  Al49  1  -0.00229783  0.00044358  0.33898889  1
  Al0+  Al50  1  -0.00018442  0.00172359  0.66433345  1
  Al0+  Al51  1  0.00170689  0.50024484  -0.00348096  1
  Al0+  Al52  1  0.00257411  0.50169069  0.33764298  1
  Al0+  Al53  1  0.00116727  0.50122228  0.66610499  1
  Al0+  Al54  1  0.49921212  0.00075298  0.00056018  1
  Al0+  Al55  1  0.49941232  0.00046155  0.32819553  1
  Al0+  Al56  1  0.49908794  0.00110065  0.66490237  1
  Al0+  Al57  1  0.50149109  0.49947905  -0.00223932  1
  Al0+  Al58  1  0.50009281  0.50213075  0.32828694  1
  Al0+  Al59  1  0.50142920  0.50187513  0.67508759  1
  Al0+  Al60  1  0.25113196  0.24934812  -0.00529162  1
  Al0+  Al61  1  0.24954927  0.24841878  0.33509345  1
  Al0+  Al62  1  0.24968088  0.24945801  0.66323734  1
  Al0+  Al63  1  0.25082538  0.74871348  0.00245057  1
  Al0+  Al64  1  0.24940225  0.74854335  0.33417268  1
  Al0+  Al65  1  0.25001824  0.75026361  0.67129230  1
  Al0+  Al66  1  0.74823403  0.24949532  -0.00474376  1
  Al0+  Al67  1  0.74916880  0.24824071  0.32764736  1
  Al0+  Al68  1  0.74899478  0.25073640  0.66904754  1
  Al0+  Al69  1  0.75059158  0.74753711  0.00536700  1
  Al0+  Al70  1  0.74812814  0.75009941  0.33571799  1
  Al0+  Al71  1  0.74856501  0.74910413  0.66573709  1
  Al0+  Al72  1  0.32008777  0.56937057  0.68111816  1
  Al0+  Al73  1  0.07192153  0.17888418  0.64971968  1
  Al0+  Al74  1  0.57219444  0.17768688  0.31677942  1
  Al0+  Al75  1  0.82215266  0.57146003  0.34881621  1
  Al0+  Al76  1  0.81915289  0.07170872  0.34717999  1
  Al0+  Al77  1  0.92732367  0.82302480  0.31808066  1
  Al0+  Al78  1  0.17849758  0.92875261  0.01498603  1
  Al0+  Al79  1  0.92741483  0.32204051  0.65052021  1
  Al0+  Al80  1  0.42872207  0.82128718  0.65254945  1
  Al0+  Al81  1  0.17985270  0.92847100  0.34826920  1
  Al0+  Al82  1  0.17856192  0.93068797  0.68124557  1
  Al0+  Al83  1  0.92940809  0.82040588  0.98718396  1
  Al0+  Al84  1  0.67888197  0.92921368  0.67917585  1
  Al0+  Al85  1  0.42888563  0.32091384  0.98396025  1
  Al0+  Al86  1  0.92924080  0.32254083  0.98605443  1
  Al0+  Al87  1  0.17984035  0.42762531  0.34679522  1
  Al0+  Al88  1  0.42946025  0.82022382  0.98654665  1
  Al0+  Al89  1  0.93102526  0.32079857  0.32049716  1
  Al0+  Al90  1  0.67846384  0.92899286  0.01395452  1
  Al0+  Al91  1  0.68054456  0.42840902  0.67968915  1
  Al0+  Al92  1  0.82192153  0.56785652  0.01409623  1
  Al0+  Al93  1  0.07141541  0.68000686  0.31866393  1
  Al0+  Al94  1  0.92675808  0.81944542  0.65359858  1
  Al0+  Al95  1  0.42749860  0.32253706  0.32021994  1
  Si0+  Si96  1  0.18166583  0.42850838  0.01255251  1
  Si0+  Si97  1  0.67763623  0.42941427  0.34627500  1
  Si0+  Si98  1  0.17762308  0.42584970  0.68490278  1
  Si0+  Si99  1  0.32162888  0.07390195  0.01726488  1
  Si0+  Si100  1  0.57168028  0.17776659  0.97973654  1
  Si0+  Si101  1  0.82148058  0.07190526  0.68453486  1
  Si0+  Si102  1  0.67521895  0.92744867  0.35030170  1
  Si0+  Si103  1  0.57094966  0.67692862  0.64989641  1
  Si0+  Si104  1  0.56962137  0.17932123  0.65241946  1
  Si0+  Si105  1  0.82146540  0.07289257  0.01580587  1
  Si0+  Si106  1  0.32307241  0.07106028  0.35006702  1
  Si0+  Si107  1  0.07220627  0.17641833  0.31632536  1
  Si0+  Si108  1  0.32473853  0.57185324  0.34922879  1
  Si0+  Si109  1  0.43028952  0.32419718  0.65279191  1
  Si0+  Si110  1  0.32256364  0.57050761  0.01605844  1
  Si0+  Si111  1  0.07170883  0.17722115  0.98453825  1
  Si0+  Si112  1  0.07321772  0.67743971  0.98218494  1
  Si0+  Si113  1  0.42866712  0.82000755  0.31900000  1
  Si0+  Si114  1  0.82375586  0.57231879  0.68333430  1
  Si0+  Si115  1  0.57158049  0.67862745  0.31806264  1
  Si0+  Si116  1  0.57350144  0.67822154  0.98250953  1
  Si0+  Si117  1  0.67710221  0.42595446  0.01904392  1
  Si0+  Si118  1  0.07360118  0.67906838  0.65079590  1
  Si0+  Si119  1  0.32328280  0.07348180  0.68275364  1
  O2-  O120  1  0.25428403  0.00356492  0.06109116  1
  O2-  O121  1  0.25479347  0.00313041  0.39523301  1
  O2-  O122  1  0.25328896  0.00638397  0.72740578  1
  O2-  O123  1  0.25376344  0.49745465  0.05714683  1
  O2-  O124  1  0.25830709  0.50010206  0.39146259  1
  O2-  O125  1  0.24676908  0.49398187  0.72980998  1
  O2-  O126  1  0.75392966  0.00278333  0.05990010  1
  O2-  O127  1  0.74588230  -0.00555560  0.39310189  1
  O2-  O128  1  0.75702267  -0.00120083  0.72850331  1
  O2-  O129  1  0.74982899  0.49029467  0.06235060  1
  O2-  O130  1  0.74874471  0.49387697  0.39310075  1
  O2-  O131  1  0.75914113  0.49897563  0.72666962  1
  O2-  O132  1  0.00582091  0.24690861  0.27123125  1
  O2-  O133  1  0.00120968  0.25240472  0.60040418  1
  O2-  O134  1  0.00183012  0.24533856  0.94117308  1
  O2-  O135  1  -0.00069886  0.75104506  0.26768688  1
  O2-  O136  1  0.00196691  0.74491451  0.60779825  1
  O2-  O137  1  0.00636245  0.74838562  0.93911935  1
  O2-  O138  1  0.49896535  0.25041560  0.26961659  1
  O2-  O139  1  0.49971847  0.25205949  0.61051249  1
  O2-  O140  1  0.50444658  0.24832898  0.93539701  1
  O2-  O141  1  0.50219760  0.75184043  0.27676982  1
  O2-  O142  1  0.50464012  0.74797798  0.60484938  1
  O2-  O143  1  0.50573827  0.74782522  0.93827249  1
  O2-  O144  1  0.07356726  0.17799583  0.09002193  1
  O2-  O145  1  0.07124198  0.17791614  0.42166911  1
  O2-  O146  1  0.07028270  0.17984500  0.76407517  1
  O2-  O147  1  0.07327593  0.67436761  0.08743253  1
  O2-  O148  1  0.07255336  0.68173854  0.43238997  1
  O2-  O149  1  0.07400390  0.67932188  0.75677568  1
  O2-  O150  1  0.57161538  0.17869821  0.08495395  1
  O2-  O151  1  0.57068079  0.17840826  0.43106352  1
  O2-  O152  1  0.56745155  0.17863984  0.75755334  1
  O2-  O153  1  0.57086604  0.67801497  0.08864189  1
  O2-  O154  1  0.57021721  0.67526362  0.42293994  1
  O2-  O155  1  0.56957870  0.67631707  0.75544080  1
  O2-  O156  1  0.18066319  0.42964869  0.23286200  1
  O2-  O157  1  0.17935566  0.42610767  0.57951281  1
  O2-  O158  1  0.18335307  0.43018891  0.90747411  1
  O2-  O159  1  0.18238540  0.92862487  0.23483636  1
  O2-  O160  1  0.18092252  0.92948772  0.56826577  1
  O2-  O161  1  0.17826712  0.93023124  0.90187713  1
  O2-  O162  1  0.67557939  0.43399519  0.24082292  1
  O2-  O163  1  0.67645808  0.43063569  0.56656344  1
  O2-  O164  1  0.67583531  0.42851761  0.91320371  1
  O2-  O165  1  0.67301307  0.92762602  0.24460515  1
  O2-  O166  1  0.67667832  0.93382653  0.56634971  1
  O2-  O167  1  0.67808855  0.93052407  0.90059562  1
  O2-  O168  1  0.42785252  0.31947279  0.09669767  1
  O2-  O169  1  0.43102694  0.32337214  0.43429816  1
  O2-  O170  1  0.43148654  0.32273581  0.75808948  1
  O2-  O171  1  0.42950010  0.81589844  0.10019627  1
  O2-  O172  1  0.42882878  0.81909090  0.42416911  1
  O2-  O173  1  0.42905248  0.82005035  0.76561805  1
  O2-  O174  1  0.93234958  0.32400142  0.09913879  1
  O2-  O175  1  0.93083444  0.31971654  0.43312829  1
  O2-  O176  1  0.92851219  0.31950826  0.76463188  1
  O2-  O177  1  0.93000001  0.82052569  0.09974630  1
  O2-  O178  1  0.92860848  0.82189188  0.43190202  1
  O2-  O179  1  0.92590980  0.81699482  0.76720039  1
  O2-  O180  1  0.32309755  0.06986557  0.24432610  1
  O2-  O181  1  0.32603426  0.07243248  0.57736397  1
  O2-  O182  1  0.32072321  0.07553439  0.91159038  1
  O2-  O183  1  0.32581638  0.57362384  0.24344001  1
  O2-  O184  1  0.32106117  0.56673598  0.56803109  1
  O2-  O185  1  0.32134259  0.57127057  0.91094498  1
  O2-  O186  1  0.81738792  0.07213107  0.23374534  1
  O2-  O187  1  0.81806481  0.07409924  0.57901228  1
  O2-  O188  1  0.82016186  0.07374190  0.91014436  1
  O2-  O189  1  0.82087600  0.57101155  0.23550716  1
  O2-  O190  1  0.82103238  0.57293347  0.57784596  1
  O2-  O191  1  0.81915527  0.56758259  0.90079768  1
  O2-  O192  1  0.04358913  0.08358618  0.27128029  1
  O2-  O193  1  0.04210298  0.08168965  0.59626357  1
  O2-  O194  1  0.04485201  0.08440170  0.93765499  1
  O2-  O195  1  0.04406738  0.58117550  0.26665152  1
  O2-  O196  1  0.05288783  0.58357057  0.60625708  1
  O2-  O197  1  0.04647210  0.58553379  0.93275690  1
  O2-  O198  1  0.54230489  0.08018892  0.26154795  1
  O2-  O199  1  0.54016505  0.08971338  0.60203361  1
  O2-  O200  1  0.54299202  0.08498546  0.93369901  1
  O2-  O201  1  0.54227126  0.58962436  0.26561579  1
  O2-  O202  1  0.54044223  0.58448234  0.60361028  1
  O2-  O203  1  0.54752448  0.58456016  0.93655673  1
  O2-  O204  1  0.16742136  0.19767928  0.27169241  1
  O2-  O205  1  0.17177055  0.20368378  0.59665380  1
  O2-  O206  1  0.16425649  0.20326165  0.93626892  1
  O2-  O207  1  0.17093482  0.70601499  0.26509541  1
  O2-  O208  1  0.16627640  0.70667405  0.60489835  1
  O2-  O209  1  0.16807453  0.70136217  0.93802383  1
  O2-  O210  1  0.66786372  0.20627028  0.25966854  1
  O2-  O211  1  0.66178210  0.20640114  0.60638975  1
  O2-  O212  1  0.66494552  0.20154118  0.93172474  1
  O2-  O213  1  0.66280186  0.70593557  0.26960460  1
  O2-  O214  1  0.66475331  0.69926736  0.60346967  1
  O2-  O215  1  0.66750696  0.70171312  0.93788919  1
  O2-  O216  1  0.09030494  0.45819538  0.05924441  1
  O2-  O217  1  0.08725764  0.46273590  0.40496583  1
  O2-  O218  1  0.08427967  0.45343377  0.73119779  1
  O2-  O219  1  0.08233255  0.96110798  0.06931801  1
  O2-  O220  1  0.08362216  0.95912378  0.40185231  1
  O2-  O221  1  0.08168299  0.96296070  0.73476149  1
  O2-  O222  1  0.58389278  0.45521299  0.06464506  1
  O2-  O223  1  0.58491147  0.45948577  0.39314139  1
  O2-  O224  1  0.58704445  0.46284777  0.73858978  1
  O2-  O225  1  0.58162849  0.96052069  0.06800581  1
  O2-  O226  1  0.58135986  0.95603347  0.39554354  1
  O2-  O227  1  0.58283513  0.96452200  0.73296165  1
  O2-  O228  1  0.20809139  0.33568521  0.05868715  1
  O2-  O229  1  0.20744035  0.33038631  0.40166682  1
  O2-  O230  1  0.20305053  0.33171289  0.73005212  1
  O2-  O231  1  0.21114148  0.83207811  0.06843436  1
  O2-  O232  1  0.21338777  0.83228920  0.40171850  1
  O2-  O233  1  0.21030118  0.83508183  0.73630452  1
  O2-  O234  1  0.69695117  0.32932625  0.06043933  1
  O2-  O235  1  0.69810884  0.33348591  0.38829079  1
  O2-  O236  1  0.70575184  0.33143745  0.73669630  1
  O2-  O237  1  0.70563249  0.83173416  0.06787715  1
  O2-  O238  1  0.69526728  0.83285223  0.39625885  1
  O2-  O239  1  0.70346993  0.83012744  0.73178484  1
  O2-  O240  1  0.45427057  0.42085399  0.26541916  1
  O2-  O241  1  0.46043809  0.41593824  0.60781419  1
  O2-  O242  1  0.45891401  0.41856210  0.93083022  1
  O2-  O243  1  0.45286232  0.91210118  0.27072378  1
  O2-  O244  1  0.45887183  0.91785630  0.59790079  1
  O2-  O245  1  0.45579068  0.91879764  0.93471079  1
  O2-  O246  1  0.96514277  0.41724804  0.26867709  1
  O2-  O247  1  0.95393493  0.42261923  0.60138566  1
  O2-  O248  1  0.96360807  0.41673306  0.92957083  1
  O2-  O249  1  0.95597549  0.92230468  0.26744486  1
  O2-  O250  1  0.95593522  0.91724366  0.60269896  1
  O2-  O251  1  0.95695574  0.91828414  0.93342961  1
  O2-  O252  1  0.32949350  0.29169407  0.26704508  1
  O2-  O253  1  0.33723896  0.29986266  0.60689248  1
  O2-  O254  1  0.33331254  0.28987496  0.92725800  1
  O2-  O255  1  0.33862718  0.78845951  0.27089228  1
  O2-  O256  1  0.33291872  0.78602009  0.60000809  1
  O2-  O257  1  0.33343009  0.78557245  0.93343409  1
  O2-  O258  1  0.83463575  0.29165283  0.26540884  1
  O2-  O259  1  0.82800219  0.29303933  0.60012945  1
  O2-  O260  1  0.83094637  0.29501688  0.93352139  1
  O2-  O261  1  0.82680542  0.79563172  0.26891392  1
  O2-  O262  1  0.83013396  0.78998927  0.59868166  1
  O2-  O263  1  0.83266357  0.78540799  0.93531816  1
  O2-  O264  1  0.41575881  0.05056813  0.06273394  1
  O2-  O265  1  0.41742424  0.04511192  0.39514876  1
  O2-  O266  1  0.41597068  0.04741011  0.73051049  1
  O2-  O267  1  0.41629828  0.54535989  0.06139354  1
  O2-  O268  1  0.41905101  0.54882685  0.39564602  1
  O2-  O269  1  0.41550510  0.54046268  0.73873831  1
  O2-  O270  1  0.91515430  0.04973837  0.06196856  1
  O2-  O271  1  0.91469363  0.04372524  0.40433838  1
  O2-  O272  1  0.91650648  0.05109809  0.72854440  1
  O2-  O273  1  0.92046190  0.53891458  0.06581746  1
  O2-  O274  1  0.91802819  0.54263706  0.40360097  1
  O2-  O275  1  0.91920680  0.55260914  0.72858735  1
  O2-  O276  1  0.29431943  0.16752903  0.06338995  1
  O2-  O277  1  0.30044845  0.16503175  0.39665070  1
  O2-  O278  1  0.29958555  0.16850275  0.72831297  1
  O2-  O279  1  0.29377919  0.66067897  0.06575789  1
  O2-  O280  1  0.29609034  0.66362974  0.39721673  1
  O2-  O281  1  0.28765804  0.66453163  0.73761415  1
  O2-  O282  1  0.79279941  0.16666930  0.06122855  1
  O2-  O283  1  0.78515872  0.16786769  0.40132253  1
  O2-  O284  1  0.79052058  0.16332576  0.73245410  1
  O2-  O285  1  0.78833487  0.66215460  0.07094592  1
  O2-  O286  1  0.78663374  0.66671737  0.40304614  1
  O2-  O287  1  0.79164758  0.66342663  0.73077806  1
