# generated using pymatgen
data_Ca2Al2SiO7
_symmetry_space_group_name_H-M   'P 1'
_cell_length_a   15.45745401
_cell_length_b   15.45790688
_cell_length_c   15.28304717
_cell_angle_alpha   90.01858988
_cell_angle_beta   89.99997375
_cell_angle_gamma   90.02801017
_symmetry_Int_Tables_number   1
_chemical_formula_structural   Ca2Al2SiO7
_chemical_formula_sum   'Ca48 Al48 Si24 O168'
_cell_volume   3651.72890115
_cell_formula_units_Z   24
loop_
 _symmetry_equiv_pos_site_id
 _symmetry_equiv_pos_as_xyz
  1  'x, y, z'
loop_
 _atom_type_symbol
 _atom_type_oxidation_number
  Ca2+  2.0
  Al0+  0.0
  Si0+  0.0
  O2-  -2.0
loop_
 _atom_site_type_symbol
 _atom_site_label
 _atom_site_symmetry_multiplicity
 _atom_site_fract_x
 _atom_site_fract_y
 _atom_site_fract_z
 _atom_site_occupancy
  Ca2+  Ca0  1  0.17134496  0.07563612  0.17252867  1
  Ca2+  Ca1  1  0.16955541  0.07313638  0.50843160  1
  Ca2+  Ca2  1  0.17339763  0.07885499  0.82858267  1
  Ca2+  Ca3  1  0.17848186  0.58524750  0.17080836  1
  Ca2+  Ca4  1  0.16810898  0.58150985  0.50093350  1
  Ca2+  Ca5  1  0.17246324  0.57068493  0.83792982  1
  Ca2+  Ca6  1  0.66484417  0.07525992  0.17634030  1
  Ca2+  Ca7  1  0.67258931  0.07953193  0.50126845  1
  Ca2+  Ca8  1  0.66624703  0.07283562  0.83111950  1
  Ca2+  Ca9  1  0.66073364  0.56890069  0.17016661  1
  Ca2+  Ca10  1  0.67092058  0.57094631  0.50744358  1
  Ca2+  Ca11  1  0.66761502  0.57746942  0.83215336  1
  Ca2+  Ca12  1  0.07613268  0.33779962  0.16256732  1
  Ca2+  Ca13  1  0.07625651  0.33432227  0.49529848  1
  Ca2+  Ca14  1  0.08848080  0.33471986  0.82602754  1
  Ca2+  Ca15  1  0.08794474  0.82853608  0.16785043  1
  Ca2+  Ca16  1  0.07980297  0.83555871  0.49464601  1
  Ca2+  Ca17  1  0.07711481  0.83121446  0.82128680  1
  Ca2+  Ca18  1  0.58622756  0.32852533  0.16187099  1
  Ca2+  Ca19  1  0.58552525  0.32978628  0.49393493  1
  Ca2+  Ca20  1  0.57367585  0.34212237  0.82840804  1
  Ca2+  Ca21  1  0.57991024  0.83565291  0.15807326  1
  Ca2+  Ca22  1  0.58002749  0.84232179  0.49845829  1
  Ca2+  Ca23  1  0.57780081  0.83796203  0.82602122  1
  Ca2+  Ca24  1  0.33858692  0.42789840  0.16718725  1
  Ca2+  Ca25  1  0.33148337  0.42205533  0.50818734  1
  Ca2+  Ca26  1  0.32800190  0.41455074  0.84179984  1
  Ca2+  Ca27  1  0.33126722  0.91383250  0.17277259  1
  Ca2+  Ca28  1  0.32347073  0.91954350  0.50902880  1
  Ca2+  Ca29  1  0.33907184  0.91729804  0.83266124  1
  Ca2+  Ca30  1  0.82364892  0.41137056  0.17330197  1
  Ca2+  Ca31  1  0.82464879  0.41613669  0.50560109  1
  Ca2+  Ca32  1  0.82136782  0.42044463  0.83379128  1
  Ca2+  Ca33  1  0.82002425  0.92298721  0.17544245  1
  Ca2+  Ca34  1  0.82695070  0.92521628  0.51055793  1
  Ca2+  Ca35  1  0.82482300  0.91485107  0.83259641  1
  Ca2+  Ca36  1  0.42614881  0.17168533  0.16098810  1
  Ca2+  Ca37  1  0.42017462  0.17065851  0.49882039  1
  Ca2+  Ca38  1  0.41491457  0.17707765  0.82379972  1
  Ca2+  Ca39  1  0.41280719  0.66936844  0.16041653  1
  Ca2+  Ca40  1  0.41387618  0.67135229  0.49774173  1
  Ca2+  Ca41  1  0.41364986  0.67544916  0.83010455  1
  Ca2+  Ca42  1  0.91188248  0.16898510  0.17090394  1
  Ca2+  Ca43  1  0.90815385  0.16953679  0.49267885  1
  Ca2+  Ca44  1  0.91846699  0.16445863  0.82726669  1
  Ca2+  Ca45  1  0.92657173  0.66359951  0.16477604  1
  Ca2+  Ca46  1  0.91987271  0.66935983  0.49700475  1
  Ca2+  Ca47  1  0.91501569  0.67058379  0.82196674  1
  Al0+  Al48  1  0.00065994  0.00063011  0.00028092  1
  Al0+  Al49  1  -0.00060247  0.00073529  0.33639472  1
  Al0+  Al50  1  0.00098226  -0.00083013  0.66952063  1
  Al0+  Al51  1  0.00014805  0.49898996  -0.00017936  1
  Al0+  Al52  1  0.00092756  0.50106245  0.32186791  1
  Al0+  Al53  1  0.00076354  0.49945500  0.67293851  1
  Al0+  Al54  1  0.50056435  0.00041614  -0.00032115  1
  Al0+  Al55  1  0.49864244  0.00236035  0.33144213  1
  Al0+  Al56  1  0.49980091  0.00231264  0.66739502  1
  Al0+  Al57  1  0.50116150  0.50043934  0.00294627  1
  Al0+  Al58  1  0.49871926  0.50309488  0.34253312  1
  Al0+  Al59  1  0.49880085  0.50174455  0.66437896  1
  Al0+  Al60  1  0.24862977  0.24791894  0.00220849  1
  Al0+  Al61  1  0.24887016  0.25205883  0.33003871  1
  Al0+  Al62  1  0.24985667  0.24938872  0.66608024  1
  Al0+  Al63  1  0.24931603  0.74937854  -0.00360207  1
  Al0+  Al64  1  0.24937247  0.74970709  0.33734361  1
  Al0+  Al65  1  0.24967537  0.74853039  0.66551050  1
  Al0+  Al66  1  0.75275217  0.24896470  -0.00014196  1
  Al0+  Al67  1  0.74803024  0.24903818  0.33055354  1
  Al0+  Al68  1  0.74925367  0.24945739  0.67599500  1
  Al0+  Al69  1  0.75106436  0.75057393  0.00495419  1
  Al0+  Al70  1  0.74802646  0.74852934  0.33328863  1
  Al0+  Al71  1  0.75086728  0.74936293  0.66678874  1
  Al0+  Al72  1  0.67863094  0.93013071  0.01458890  1
  Al0+  Al73  1  0.18053864  0.42919193  0.67746073  1
  Al0+  Al74  1  0.67647176  0.42788338  0.68210233  1
  Al0+  Al75  1  0.42967071  0.82191068  0.65115816  1
  Al0+  Al76  1  0.42936666  0.82090224  0.98644920  1
  Al0+  Al77  1  0.31983747  0.57154485  0.01392210  1
  Al0+  Al78  1  0.82193518  0.57059127  0.67939390  1
  Al0+  Al79  1  0.31976037  0.57058792  0.34950437  1
  Al0+  Al80  1  0.17954395  0.92630683  0.68271088  1
  Al0+  Al81  1  0.43075994  0.32026944  0.98796335  1
  Al0+  Al82  1  0.18074481  0.93000013  0.34587656  1
  Al0+  Al83  1  0.92875383  0.82129743  0.65238884  1
  Al0+  Al84  1  0.07108946  0.68121980  0.31849651  1
  Al0+  Al85  1  0.32121831  0.07090028  0.68078463  1
  Al0+  Al86  1  0.68025877  0.42957079  0.01444570  1
  Al0+  Al87  1  0.82262510  0.07195347  0.68319730  1
  Al0+  Al88  1  0.42778875  0.32235255  0.65229411  1
  Al0+  Al89  1  0.17798239  0.42569658  0.01750158  1
  Al0+  Al90  1  0.92942305  0.31973933  0.32021853  1
  Al0+  Al91  1  0.68005663  0.42935939  0.34681039  1
  Al0+  Al92  1  0.67552830  0.92622692  0.34846477  1
  Al0+  Al93  1  0.56826835  0.18095973  0.31955778  1
  Al0+  Al94  1  0.81910930  0.07011805  0.34733500  1
  Al0+  Al95  1  0.67826924  0.92839436  0.68104863  1
  Si0+  Si96  1  0.57271067  0.67824271  0.64811719  1
  Si0+  Si97  1  0.57428157  0.67809710  0.98428573  1
  Si0+  Si98  1  0.57304469  0.17972666  0.65038860  1
  Si0+  Si99  1  0.17833548  0.92914117  0.01423738  1
  Si0+  Si100  1  0.92879654  0.32042762  0.65457844  1
  Si0+  Si101  1  0.32255709  0.57261073  0.68385670  1
  Si0+  Si102  1  0.43047490  0.81952673  0.31982862  1
  Si0+  Si103  1  0.92639835  0.82386694  0.31585733  1
  Si0+  Si104  1  0.57417021  0.17773154  0.98131120  1
  Si0+  Si105  1  0.17580151  0.42811525  0.34817719  1
  Si0+  Si106  1  0.82300109  0.57308996  0.01841437  1
  Si0+  Si107  1  0.07073208  0.17909403  0.65154778  1
  Si0+  Si108  1  0.07098774  0.67584188  0.65012272  1
  Si0+  Si109  1  0.57166346  0.67682862  0.31868978  1
  Si0+  Si110  1  0.07083325  0.17735114  0.98372368  1
  Si0+  Si111  1  0.82528158  0.57155379  0.34720675  1
  Si0+  Si112  1  0.07367442  0.17590745  0.31616629  1
  Si0+  Si113  1  0.32201939  0.07543710  0.34810975  1
  Si0+  Si114  1  0.42632213  0.32612900  0.31706240  1
  Si0+  Si115  1  0.92975412  0.82074740  0.98631382  1
  Si0+  Si116  1  0.07084626  0.67882404  0.98264052  1
  Si0+  Si117  1  0.92915902  0.32091773  0.98199170  1
  Si0+  Si118  1  0.32125406  0.07055351  0.01565893  1
  Si0+  Si119  1  0.82481390  0.07070904  0.01845971  1
  O2-  O120  1  0.25300112  -0.00397584  0.05706602  1
  O2-  O121  1  0.25040245  0.00955398  0.39098398  1
  O2-  O122  1  0.25493081  -0.00560549  0.73328622  1
  O2-  O123  1  0.25026255  0.49790275  0.06621353  1
  O2-  O124  1  0.24761861  0.49212923  0.39355844  1
  O2-  O125  1  0.25755320  0.49992137  0.72620751  1
  O2-  O126  1  0.75237413  0.00561711  0.06103772  1
  O2-  O127  1  0.75232505  -0.00647109  0.39681810  1
  O2-  O128  1  0.75216878  -0.00188990  0.73205540  1
  O2-  O129  1  0.75506177  0.50387862  0.06249325  1
  O2-  O130  1  0.75615619  0.50373527  0.39133849  1
  O2-  O131  1  0.74840893  0.50100003  0.73035940  1
  O2-  O132  1  0.00592022  0.24605663  0.27247056  1
  O2-  O133  1  -0.00346164  0.24733493  0.61019398  1
  O2-  O134  1  0.00250673  0.25127477  0.94131925  1
  O2-  O135  1  -0.00504662  0.75492385  0.27036927  1
  O2-  O136  1  0.00463086  0.74702805  0.60630423  1
  O2-  O137  1  -0.00231634  0.74793398  0.94182984  1
  O2-  O138  1  0.49354843  0.25618888  0.27271480  1
  O2-  O139  1  0.50597262  0.25082203  0.60663251  1
  O2-  O140  1  0.50704177  0.24837354  0.93823026  1
  O2-  O141  1  0.50532702  0.75290135  0.27697168  1
  O2-  O142  1  0.50568695  0.74897665  0.60349341  1
  O2-  O143  1  0.50631178  0.74788709  0.94047724  1
  O2-  O144  1  0.06888807  0.17332478  0.08864863  1
  O2-  O145  1  0.07599826  0.17664820  0.42150435  1
  O2-  O146  1  0.07177538  0.18117815  0.75713150  1
  O2-  O147  1  0.07201604  0.68137488  0.08789227  1
  O2-  O148  1  0.06944279  0.68061194  0.43126455  1
  O2-  O149  1  0.06904465  0.67566339  0.75611720  1
  O2-  O150  1  0.57232447  0.17708506  0.08728629  1
  O2-  O151  1  0.56754362  0.18149587  0.43243958  1
  O2-  O152  1  0.57156633  0.17922119  0.75620159  1
  O2-  O153  1  0.57392236  0.67912024  0.09032175  1
  O2-  O154  1  0.57005305  0.67360592  0.42329343  1
  O2-  O155  1  0.57071349  0.67651258  0.75391609  1
  O2-  O156  1  0.17603450  0.42943772  0.24285098  1
  O2-  O157  1  0.17771719  0.43132340  0.56426487  1
  O2-  O158  1  0.17869933  0.42699238  0.90374240  1
  O2-  O159  1  0.18475995  0.92932980  0.23168690  1
  O2-  O160  1  0.17903016  0.92926707  0.56909447  1
  O2-  O161  1  0.17510905  0.93128875  0.90986036  1
  O2-  O162  1  0.68004833  0.43014446  0.23337947  1
  O2-  O163  1  0.68005874  0.42660402  0.56842480  1
  O2-  O164  1  0.68087739  0.43187609  0.90186305  1
  O2-  O165  1  0.67466773  0.92862506  0.23431171  1
  O2-  O166  1  0.67874687  0.93138214  0.56786879  1
  O2-  O167  1  0.67992501  0.92943176  0.90204757  1
  O2-  O168  1  0.43262287  0.31744937  0.10129323  1
  O2-  O169  1  0.42527533  0.32411436  0.42260539  1
  O2-  O170  1  0.42659375  0.32074116  0.76571999  1
  O2-  O171  1  0.42814768  0.82040174  0.10023283  1
  O2-  O172  1  0.42970399  0.81854160  0.42469498  1
  O2-  O173  1  0.43030111  0.81863582  0.76447935  1
  O2-  O174  1  0.92775105  0.31957416  0.08716758  1
  O2-  O175  1  0.93079883  0.32055757  0.43367611  1
  O2-  O176  1  0.93224508  0.31996103  0.75980622  1
  O2-  O177  1  0.93268615  0.82071524  0.09142802  1
  O2-  O178  1  0.92797817  0.82310611  0.42108634  1
  O2-  O179  1  0.93031476  0.81904810  0.76646076  1
  O2-  O180  1  0.32215161  0.07312668  0.24181176  1
  O2-  O181  1  0.31675369  0.07202126  0.56699734  1
  O2-  O182  1  0.31965298  0.07209154  0.91104822  1
  O2-  O183  1  0.32033006  0.57263434  0.23644843  1
  O2-  O184  1  0.32020863  0.57311879  0.57807288  1
  O2-  O185  1  0.31658638  0.57306585  0.90069386  1
  O2-  O186  1  0.81743091  0.06915110  0.23325802  1
  O2-  O187  1  0.82107795  0.07430501  0.57000129  1
  O2-  O188  1  0.82919411  0.06831219  0.91334834  1
  O2-  O189  1  0.82430822  0.57038790  0.24126703  1
  O2-  O190  1  0.82381587  0.56665071  0.56559812  1
  O2-  O191  1  0.82345677  0.57364637  0.91306443  1
  O2-  O192  1  0.04675991  0.08290030  0.26828340  1
  O2-  O193  1  0.04633795  0.08606609  0.60574330  1
  O2-  O194  1  0.03991230  0.08677663  0.93433360  1
  O2-  O195  1  0.04264177  0.58645173  0.25877224  1
  O2-  O196  1  0.04197108  0.58289349  0.60383004  1
  O2-  O197  1  0.04459427  0.58554920  0.93711340  1
  O2-  O198  1  0.53539625  0.08526542  0.26213363  1
  O2-  O199  1  0.54563571  0.08747763  0.60300007  1
  O2-  O200  1  0.54521304  0.08506939  0.93580753  1
  O2-  O201  1  0.53731379  0.58693966  0.27037048  1
  O2-  O202  1  0.54422620  0.58602532  0.59991836  1
  O2-  O203  1  0.54828036  0.58494058  0.93825137  1
  O2-  O204  1  0.16752151  0.19961638  0.26778456  1
  O2-  O205  1  0.16022480  0.20962520  0.60176902  1
  O2-  O206  1  0.16345074  0.20204076  0.93661330  1
  O2-  O207  1  0.16698010  0.71665591  0.26412813  1
  O2-  O208  1  0.16564106  0.69773658  0.60505002  1
  O2-  O209  1  0.16074977  0.70847877  0.93346015  1
  O2-  O210  1  0.66343104  0.21121473  0.26249065  1
  O2-  O211  1  0.66785847  0.20558170  0.60663306  1
  O2-  O212  1  0.66982841  0.19937437  0.93814708  1
  O2-  O213  1  0.66513593  0.69670986  0.26993658  1
  O2-  O214  1  0.66736837  0.69966166  0.60298683  1
  O2-  O215  1  0.66920836  0.70267220  0.93994648  1
  O2-  O216  1  0.07819301  0.45483092  0.06720547  1
  O2-  O217  1  0.08264249  0.45824932  0.39218859  1
  O2-  O218  1  0.08641742  0.46039122  0.73608190  1
  O2-  O219  1  0.08856866  0.96111647  0.06390413  1
  O2-  O220  1  0.08274133  0.95600539  0.39813091  1
  O2-  O221  1  0.08362456  0.95925566  0.73716320  1
  O2-  O222  1  0.58472085  0.46006454  0.07020343  1
  O2-  O223  1  0.58503192  0.46106454  0.40207182  1
  O2-  O224  1  0.57811862  0.45965223  0.73298691  1
  O2-  O225  1  0.58152880  0.96054105  0.06849523  1
  O2-  O226  1  0.57792280  0.95986442  0.39910586  1
  O2-  O227  1  0.58124639  0.96001997  0.73462429  1
  O2-  O228  1  0.20101248  0.32551629  0.06911130  1
  O2-  O229  1  0.19497111  0.33181444  0.39180731  1
  O2-  O230  1  0.20790989  0.33233826  0.73168085  1
  O2-  O231  1  0.20362859  0.83602248  0.05969912  1
  O2-  O232  1  0.21418863  0.83629978  0.40155892  1
  O2-  O233  1  0.20291252  0.82601685  0.73344264  1
  O2-  O234  1  0.71260535  0.33166944  0.06591609  1
  O2-  O235  1  0.71127811  0.33316408  0.39896354  1
  O2-  O236  1  0.70494622  0.33216114  0.73884973  1
  O2-  O237  1  0.70922458  0.83349645  0.06936322  1
  O2-  O238  1  0.69588534  0.82449682  0.39719051  1
  O2-  O239  1  0.70408659  0.82919811  0.73283417  1
  O2-  O240  1  0.45425378  0.42059282  0.27453347  1
  O2-  O241  1  0.45372246  0.42058915  0.59902468  1
  O2-  O242  1  0.45891624  0.41847560  0.93549727  1
  O2-  O243  1  0.45221771  0.91310027  0.27228099  1
  O2-  O244  1  0.45673439  0.92045316  0.59884958  1
  O2-  O245  1  0.45826962  0.91867794  0.93368178  1
  O2-  O246  1  0.95857210  0.41463044  0.26110163  1
  O2-  O247  1  0.95977363  0.41155173  0.60768782  1
  O2-  O248  1  0.95451194  0.41393817  0.93559950  1
  O2-  O249  1  0.95333995  0.91730361  0.26945912  1
  O2-  O250  1  0.96088616  0.91820476  0.59961108  1
  O2-  O251  1  0.96007174  0.91218120  0.93955910  1
  O2-  O252  1  0.33156775  0.30421621  0.27057691  1
  O2-  O253  1  0.33248294  0.28796042  0.59699413  1
  O2-  O254  1  0.33280739  0.28716125  0.93700738  1
  O2-  O255  1  0.33989663  0.78704139  0.27254913  1
  O2-  O256  1  0.33252164  0.78886992  0.59804788  1
  O2-  O257  1  0.33261774  0.79063384  0.93174159  1
  O2-  O258  1  0.83476818  0.28600387  0.26352822  1
  O2-  O259  1  0.83505285  0.29479369  0.61009845  1
  O2-  O260  1  0.83833230  0.29100174  0.93351065  1
  O2-  O261  1  0.83193570  0.79824806  0.27026975  1
  O2-  O262  1  0.83247088  0.79103630  0.59782910  1
  O2-  O263  1  0.83663347  0.79471662  0.94054088  1
  O2-  O264  1  0.41356422  0.04501491  0.06307344  1
  O2-  O265  1  0.41378395  0.04743207  0.39453824  1
  O2-  O266  1  0.42019989  0.04910546  0.73406596  1
  O2-  O267  1  0.41919932  0.54683928  0.06692150  1
  O2-  O268  1  0.41508484  0.54398409  0.40713618  1
  O2-  O269  1  0.41752457  0.55256542  0.72778607  1
  O2-  O270  1  0.91703950  0.04175498  0.06656744  1
  O2-  O271  1  0.92002470  0.05035879  0.39817359  1
  O2-  O272  1  0.92126762  0.04496422  0.73584667  1
  O2-  O273  1  0.91714058  0.54659191  0.06286996  1
  O2-  O274  1  0.91974559  0.54600642  0.39040897  1
  O2-  O275  1  0.91781663  0.54105070  0.73702701  1
  O2-  O276  1  0.28915528  0.15919994  0.06620418  1
  O2-  O277  1  0.29992782  0.17091172  0.39175454  1
  O2-  O278  1  0.28525012  0.16621987  0.73544552  1
  O2-  O279  1  0.28700415  0.66959003  0.06737513  1
  O2-  O280  1  0.28468847  0.66481631  0.40441106  1
  O2-  O281  1  0.29325752  0.66430545  0.73085623  1
  O2-  O282  1  0.80290878  0.16627948  0.06144717  1
  O2-  O283  1  0.78675817  0.16712224  0.39938017  1
  O2-  O284  1  0.79464831  0.16842488  0.74033527  1
  O2-  O285  1  0.80030889  0.66657478  0.06606035  1
  O2-  O286  1  0.80144268  0.66587784  0.39187000  1
  O2-  O287  1  0.79516967  0.66851876  0.73350245  1
