# generated using pymatgen
data_Ca2Al2SiO7
_symmetry_space_group_name_H-M   'P 1'
_cell_length_a   15.46718525
_cell_length_b   15.46889887
_cell_length_c   15.29030936
_cell_angle_alpha   90.01276487
_cell_angle_beta   89.99130468
_cell_angle_gamma   89.98773483
_symmetry_Int_Tables_number   1
_chemical_formula_structural   Ca2Al2SiO7
_chemical_formula_sum   'Ca48 Al48 Si24 O168'
_cell_volume   3658.36416143
_cell_formula_units_Z   24
loop_
 _symmetry_equiv_pos_site_id
 _symmetry_equiv_pos_as_xyz
  1  'x, y, z'
loop_
 _atom_type_symbol
 _atom_type_oxidation_number
  Ca2+  2.0
  Al0+  0.0
  Si0+  0.0
  O2-  -2.0
loop_
 _atom_site_type_symbol
 _atom_site_label
 _atom_site_symmetry_multiplicity
 _atom_site_fract_x
 _atom_site_fract_y
 _atom_site_fract_z
 _atom_site_occupancy
  Ca2+  Ca0  1  0.17059608  0.08190564  0.17047893  1
  Ca2+  Ca1  1  0.17033650  0.08609822  0.49847935  1
  Ca2+  Ca2  1  0.17303505  0.08079140  0.84302367  1
  Ca2+  Ca3  1  0.17283807  0.57491308  0.17677789  1
  Ca2+  Ca4  1  0.16525183  0.58055314  0.49964371  1
  Ca2+  Ca5  1  0.16169689  0.58233820  0.83418585  1
  Ca2+  Ca6  1  0.67466039  0.09019386  0.17039525  1
  Ca2+  Ca7  1  0.66648241  0.08471892  0.50107963  1
  Ca2+  Ca8  1  0.67737902  0.08300429  0.84022333  1
  Ca2+  Ca9  1  0.66927787  0.56878854  0.17192436  1
  Ca2+  Ca10  1  0.66722901  0.57818447  0.50371664  1
  Ca2+  Ca11  1  0.66636648  0.57841699  0.83947329  1
  Ca2+  Ca12  1  0.08472781  0.32370660  0.16095989  1
  Ca2+  Ca13  1  0.07402512  0.33088354  0.48866604  1
  Ca2+  Ca14  1  0.07386559  0.32667513  0.82921598  1
  Ca2+  Ca15  1  0.08010920  0.84272070  0.16230669  1
  Ca2+  Ca16  1  0.07627437  0.83767321  0.49379556  1
  Ca2+  Ca17  1  0.07638110  0.83556792  0.83141650  1
  Ca2+  Ca18  1  0.58094203  0.33267625  0.16384664  1
  Ca2+  Ca19  1  0.57745879  0.32791965  0.49284762  1
  Ca2+  Ca20  1  0.57352627  0.33501972  0.83310494  1
  Ca2+  Ca21  1  0.57263958  0.83026823  0.16024716  1
  Ca2+  Ca22  1  0.58337363  0.82546464  0.49709485  1
  Ca2+  Ca23  1  0.57790533  0.82973668  0.83010339  1
  Ca2+  Ca24  1  0.32965995  0.41996650  0.17390057  1
  Ca2+  Ca25  1  0.32699938  0.41507568  0.49983320  1
  Ca2+  Ca26  1  0.33769565  0.41512324  0.83799244  1
  Ca2+  Ca27  1  0.32123367  0.92229796  0.17287148  1
  Ca2+  Ca28  1  0.32776524  0.93040763  0.50316721  1
  Ca2+  Ca29  1  0.32899554  0.92767675  0.84516214  1
  Ca2+  Ca30  1  0.82436137  0.40130500  0.17059166  1
  Ca2+  Ca31  1  0.82925807  0.40594555  0.50315802  1
  Ca2+  Ca32  1  0.82906506  0.41141303  0.84329723  1
  Ca2+  Ca33  1  0.84312283  0.92267380  0.16784440  1
  Ca2+  Ca34  1  0.83761404  0.91371805  0.50306981  1
  Ca2+  Ca35  1  0.83797613  0.91839304  0.84237281  1
  Ca2+  Ca36  1  0.41898448  0.16355532  0.16103785  1
  Ca2+  Ca37  1  0.41616696  0.16587048  0.49438077  1
  Ca2+  Ca38  1  0.40516157  0.17598725  0.83101550  1
  Ca2+  Ca39  1  0.41049415  0.67140681  0.16050676  1
  Ca2+  Ca40  1  0.42077287  0.66098957  0.49565815  1
  Ca2+  Ca41  1  0.42169614  0.67437232  0.82984634  1
  Ca2+  Ca42  1  0.92978284  0.17210562  0.16168177  1
  Ca2+  Ca43  1  0.92342278  0.17578713  0.48960894  1
  Ca2+  Ca44  1  0.91941460  0.17002746  0.83631931  1
  Ca2+  Ca45  1  0.91677003  0.67867784  0.16441353  1
  Ca2+  Ca46  1  0.92327005  0.67707684  0.49881784  1
  Ca2+  Ca47  1  0.92290662  0.67781863  0.82572386  1
  Al0+  Al48  1  0.00009796  0.00040750  -0.00138296  1
  Al0+  Al49  1  -0.00064470  0.00299920  0.33111728  1
  Al0+  Al50  1  0.00007215  0.00161090  0.66475793  1
  Al0+  Al51  1  -0.00100958  0.50116067  -0.00074873  1
  Al0+  Al52  1  -0.00378989  0.50464859  0.33204756  1
  Al0+  Al53  1  -0.00216720  0.50177813  0.66041841  1
  Al0+  Al54  1  0.50229607  -0.00089815  -0.00302158  1
  Al0+  Al55  1  0.50159186  -0.00197258  0.33273876  1
  Al0+  Al56  1  0.50089451  0.00049695  0.67364841  1
  Al0+  Al57  1  0.50158895  0.49824369  0.00147989  1
  Al0+  Al58  1  0.50431797  0.49886670  0.34091001  1
  Al0+  Al59  1  0.49920403  0.49845891  0.65997811  1
  Al0+  Al60  1  0.25116265  0.25023713  -0.00456300  1
  Al0+  Al61  1  0.25073525  0.25239869  0.33724794  1
  Al0+  Al62  1  0.24863183  0.25220293  0.66641319  1
  Al0+  Al63  1  0.25067616  0.75054289  -0.00300383  1
  Al0+  Al64  1  0.24970474  0.75098137  0.34292545  1
  Al0+  Al65  1  0.25057652  0.74923722  0.66504571  1
  Al0+  Al66  1  0.74887093  0.24864644  0.00506720  1
  Al0+  Al67  1  0.74756735  0.24829237  0.33326932  1
  Al0+  Al68  1  0.74746345  0.24866425  0.66702441  1
  Al0+  Al69  1  0.75060533  0.74764187  -0.00192082  1
  Al0+  Al70  1  0.74934694  0.74895807  0.32837364  1
  Al0+  Al71  1  0.74901847  0.74823825  0.66112180  1
  Al0+  Al72  1  0.07334847  0.67833050  0.65022463  1
  Al0+  Al73  1  0.17978021  0.92829852  0.01386885  1
  Al0+  Al74  1  0.43041597  0.32028992  0.98870234  1
  Al0+  Al75  1  0.67974066  0.42982569  0.01362718  1
  Al0+  Al76  1  0.07238022  0.17882183  0.98340787  1
  Al0+  Al77  1  0.56914202  0.67931705  0.65289834  1
  Al0+  Al78  1  0.92728707  0.32400331  0.31822159  1
  Al0+  Al79  1  0.42793624  0.31969062  0.65120462  1
  Al0+  Al80  1  0.32284267  0.07372180  0.01512071  1
  Al0+  Al81  1  0.42810332  0.82187866  0.98682325  1
  Al0+  Al82  1  0.32034910  0.07214011  0.68256865  1
  Al0+  Al83  1  0.92985812  0.82008119  0.98689988  1
  Al0+  Al84  1  0.92970988  0.82099462  0.31784285  1
  Al0+  Al85  1  0.17587447  0.42920885  0.34740056  1
  Al0+  Al86  1  0.17605886  0.93125223  0.35030562  1
  Al0+  Al87  1  0.82026862  0.06921082  0.01470331  1
  Al0+  Al88  1  0.93032623  0.82294687  0.65155643  1
  Al0+  Al89  1  0.32410297  0.07145359  0.34767480  1
  Al0+  Al90  1  0.68343243  0.42771552  0.35056996  1
  Al0+  Al91  1  0.07382441  0.18175300  0.31797610  1
  Al0+  Al92  1  0.56860947  0.17655657  0.31972104  1
  Al0+  Al93  1  0.92747174  0.32116920  0.98580180  1
  Al0+  Al94  1  0.92664308  0.31971433  0.65392934  1
  Al0+  Al95  1  0.32201910  0.57129396  0.34849133  1
  Si0+  Si96  1  0.81987132  0.57106204  0.68202829  1
  Si0+  Si97  1  0.67853949  0.42858425  0.68314676  1
  Si0+  Si98  1  0.57047791  0.67726462  0.98515343  1
  Si0+  Si99  1  0.57062592  0.67727500  0.31695737  1
  Si0+  Si100  1  0.43010586  0.32299275  0.31778294  1
  Si0+  Si101  1  0.42890754  0.81908847  0.32066538  1
  Si0+  Si102  1  0.67843051  0.92404398  0.01679098  1
  Si0+  Si103  1  0.32334780  0.57020532  0.68329865  1
  Si0+  Si104  1  0.07449030  0.67983674  0.31539100  1
  Si0+  Si105  1  0.32136653  0.57013901  0.01078419  1
  Si0+  Si106  1  0.67889697  0.92625808  0.34781654  1
  Si0+  Si107  1  0.07371700  0.67650731  0.98451836  1
  Si0+  Si108  1  0.17720897  0.92754896  0.68383495  1
  Si0+  Si109  1  0.57162127  0.17696695  0.65173062  1
  Si0+  Si110  1  0.57328543  0.17680342  0.98269623  1
  Si0+  Si111  1  0.68008632  0.92600163  0.68186874  1
  Si0+  Si112  1  0.81976034  0.57716693  0.35209644  1
  Si0+  Si113  1  0.07146447  0.17965514  0.64933238  1
  Si0+  Si114  1  0.82035288  0.07087204  0.68073143  1
  Si0+  Si115  1  0.17685309  0.43185673  0.68231421  1
  Si0+  Si116  1  0.82340550  0.57315992  0.01717575  1
  Si0+  Si117  1  0.17758068  0.42961202  0.01117293  1
  Si0+  Si118  1  0.81873777  0.06926559  0.34915026  1
  Si0+  Si119  1  0.42903223  0.82427447  0.64970835  1
  O2-  O120  1  0.25193310  0.00033455  0.06360719  1
  O2-  O121  1  0.24829057  0.00393094  0.39880527  1
  O2-  O122  1  0.24723442  -0.00506922  0.72759347  1
  O2-  O123  1  0.24898114  0.50096624  0.05222010  1
  O2-  O124  1  0.24855923  0.50073029  0.39872779  1
  O2-  O125  1  0.24915911  0.50229903  0.72560562  1
  O2-  O126  1  0.74655414  -0.00754260  0.06152752  1
  O2-  O127  1  0.74988940  -0.00391438  0.39188697  1
  O2-  O128  1  0.75320182  -0.00453628  0.72273814  1
  O2-  O129  1  0.75905519  0.49993666  0.06041946  1
  O2-  O130  1  0.76038866  0.50037042  0.39716232  1
  O2-  O131  1  0.75147262  0.49763796  0.72559829  1
  O2-  O132  1  0.00637089  0.25942682  0.26993057  1
  O2-  O133  1  0.00089166  0.24645666  0.60603660  1
  O2-  O134  1  0.00020216  0.25163654  0.93394250  1
  O2-  O135  1  0.00789173  0.75015635  0.27082669  1
  O2-  O136  1  0.00644148  0.75574255  0.60150953  1
  O2-  O137  1  0.00494001  0.74569373  0.94140681  1
  O2-  O138  1  0.49210489  0.24893983  0.27291838  1
  O2-  O139  1  0.49942337  0.24107363  0.60730324  1
  O2-  O140  1  0.50027381  0.24155493  0.93986090  1
  O2-  O141  1  0.49444578  0.74309919  0.27653018  1
  O2-  O142  1  0.49460718  0.75319386  0.60408759  1
  O2-  O143  1  0.50500373  0.74852379  0.94062421  1
  O2-  O144  1  0.07401052  0.18139009  0.09649426  1
  O2-  O145  1  0.06838109  0.17987923  0.43211956  1
  O2-  O146  1  0.07079470  0.18009390  0.75479764  1
  O2-  O147  1  0.07488742  0.67343097  0.08963572  1
  O2-  O148  1  0.07259638  0.68013583  0.42079861  1
  O2-  O149  1  0.06892927  0.67651162  0.76409756  1
  O2-  O150  1  0.57448060  0.17848253  0.08817882  1
  O2-  O151  1  0.56971260  0.17753165  0.43326225  1
  O2-  O152  1  0.57737225  0.17951244  0.75686031  1
  O2-  O153  1  0.56830718  0.67646341  0.09076333  1
  O2-  O154  1  0.57256163  0.67996438  0.42220628  1
  O2-  O155  1  0.56824699  0.68011659  0.76625319  1
  O2-  O156  1  0.17983955  0.43120756  0.23305293  1
  O2-  O157  1  0.17750324  0.43233890  0.57765335  1
  O2-  O158  1  0.17654599  0.43215099  0.90575766  1
  O2-  O159  1  0.17841493  0.92891901  0.23710598  1
  O2-  O160  1  0.17663054  0.92957433  0.57848743  1
  O2-  O161  1  0.18165504  0.92658668  0.89988055  1
  O2-  O162  1  0.68070615  0.43021934  0.23748863  1
  O2-  O163  1  0.68004085  0.42823582  0.57828033  1
  O2-  O164  1  0.67732907  0.43367430  0.89996122  1
  O2-  O165  1  0.67765927  0.92519790  0.24314963  1
  O2-  O166  1  0.67789964  0.92661229  0.57661612  1
  O2-  O167  1  0.67981756  0.92327263  0.91070718  1
  O2-  O168  1  0.43257092  0.32607899  0.10113672  1
  O2-  O169  1  0.43393346  0.32361842  0.42356219  1
  O2-  O170  1  0.43138208  0.32233033  0.76452011  1
  O2-  O171  1  0.42842908  0.81691832  0.10014363  1
  O2-  O172  1  0.43483127  0.82004979  0.42573627  1
  O2-  O173  1  0.43247866  0.82257478  0.75537761  1
  O2-  O174  1  0.92967764  0.31998074  0.09855372  1
  O2-  O175  1  0.92611945  0.31706942  0.43234096  1
  O2-  O176  1  0.92613655  0.31828526  0.76682559  1
  O2-  O177  1  0.92864093  0.81759645  0.09971759  1
  O2-  O178  1  0.92733758  0.81829106  0.43084320  1
  O2-  O179  1  0.92864381  0.82144614  0.76513498  1
  O2-  O180  1  0.32829476  0.06595296  0.23482017  1
  O2-  O181  1  0.32173477  0.07036497  0.56973856  1
  O2-  O182  1  0.31959194  0.07240426  0.90113588  1
  O2-  O183  1  0.32215164  0.57102103  0.23395730  1
  O2-  O184  1  0.32594988  0.56787214  0.57877828  1
  O2-  O185  1  0.32323366  0.56908375  0.90551744  1
  O2-  O186  1  0.81689534  0.06837197  0.24436198  1
  O2-  O187  1  0.81722252  0.07249480  0.57568584  1
  O2-  O188  1  0.81754081  0.06822968  0.90067412  1
  O2-  O189  1  0.81229116  0.58474775  0.24704915  1
  O2-  O190  1  0.81682277  0.57232087  0.57722316  1
  O2-  O191  1  0.82051193  0.57596672  0.91137341  1
  O2-  O192  1  0.03862744  0.08591575  0.26493503  1
  O2-  O193  1  0.04752477  0.08568007  0.60403773  1
  O2-  O194  1  0.04081015  0.08198050  0.92964590  1
  O2-  O195  1  0.04696264  0.58735190  0.26790256  1
  O2-  O196  1  0.03850976  0.58362335  0.59414354  1
  O2-  O197  1  0.04669912  0.58425405  0.93574948  1
  O2-  O198  1  0.54475362  0.07841975  0.26513952  1
  O2-  O199  1  0.55115504  0.08080029  0.60860487  1
  O2-  O200  1  0.55675914  0.08120710  0.93692753  1
  O2-  O201  1  0.54752587  0.58320202  0.27259896  1
  O2-  O202  1  0.53889048  0.58398960  0.59696075  1
  O2-  O203  1  0.54117733  0.58583686  0.93719496  1
  O2-  O204  1  0.17446807  0.20550024  0.26751442  1
  O2-  O205  1  0.16358605  0.20831357  0.60333772  1
  O2-  O206  1  0.16937513  0.20864183  0.92861713  1
  O2-  O207  1  0.17051152  0.70228389  0.27302685  1
  O2-  O208  1  0.17524653  0.69691736  0.60055719  1
  O2-  O209  1  0.16667185  0.70049086  0.93613668  1
  O2-  O210  1  0.66385889  0.21037868  0.26592421  1
  O2-  O211  1  0.66280111  0.20625146  0.60249116  1
  O2-  O212  1  0.66454446  0.20825858  0.93542277  1
  O2-  O213  1  0.65874208  0.71070177  0.26690693  1
  O2-  O214  1  0.66401617  0.71018810  0.59600382  1
  O2-  O215  1  0.66459943  0.69969307  0.93872303  1
  O2-  O216  1  0.08658678  0.45691328  0.06013871  1
  O2-  O217  1  0.07615998  0.45863910  0.39837231  1
  O2-  O218  1  0.08484787  0.46192494  0.72883881  1
  O2-  O219  1  0.08101028  0.95583961  0.06456344  1
  O2-  O220  1  0.07741424  0.96121980  0.40257763  1
  O2-  O221  1  0.08307575  0.95473106  0.72904779  1
  O2-  O222  1  0.58560135  0.46552014  0.07012081  1
  O2-  O223  1  0.58894171  0.46144792  0.40688090  1
  O2-  O224  1  0.58659846  0.46048446  0.72791118  1
  O2-  O225  1  0.58418057  0.94867377  0.06140992  1
  O2-  O226  1  0.58861591  0.95428651  0.39799910  1
  O2-  O227  1  0.58998907  0.95471355  0.73258991  1
  O2-  O228  1  0.20764635  0.33886001  0.05741216  1
  O2-  O229  1  0.20345197  0.33229898  0.40361938  1
  O2-  O230  1  0.20434243  0.34004640  0.72957140  1
  O2-  O231  1  0.20822614  0.82882219  0.06606534  1
  O2-  O232  1  0.20421624  0.83351729  0.40482497  1
  O2-  O233  1  0.19993983  0.83185157  0.72732894  1
  O2-  O234  1  0.70535756  0.33278999  0.06822772  1
  O2-  O235  1  0.71074844  0.33008294  0.40487353  1
  O2-  O236  1  0.70372181  0.33575534  0.73017133  1
  O2-  O237  1  0.70145868  0.82942155  0.06217577  1
  O2-  O238  1  0.70711527  0.83430901  0.39537747  1
  O2-  O239  1  0.70570915  0.83322182  0.72837561  1
  O2-  O240  1  0.46371828  0.41500549  0.27298089  1
  O2-  O241  1  0.46173945  0.41374650  0.59557172  1
  O2-  O242  1  0.46563268  0.41558624  0.93240396  1
  O2-  O243  1  0.46321359  0.90727884  0.27136525  1
  O2-  O244  1  0.45984285  0.91698324  0.60532951  1
  O2-  O245  1  0.45998997  0.91694333  0.93033923  1
  O2-  O246  1  0.93951943  0.42804241  0.27170543  1
  O2-  O247  1  0.95354230  0.41686262  0.60064895  1
  O2-  O248  1  0.95200815  0.42191375  0.93454148  1
  O2-  O249  1  0.95652467  0.91917541  0.26656397  1
  O2-  O250  1  0.95332111  0.92306172  0.59909520  1
  O2-  O251  1  0.95871728  0.91603252  0.93200158  1
  O2-  O252  1  0.33341524  0.30702766  0.27634839  1
  O2-  O253  1  0.32978503  0.29365538  0.59878064  1
  O2-  O254  1  0.33422685  0.29538989  0.93090541  1
  O2-  O255  1  0.33520047  0.79476198  0.27625518  1
  O2-  O256  1  0.33410850  0.80233542  0.60645042  1
  O2-  O257  1  0.33451068  0.78788519  0.92912313  1
  O2-  O258  1  0.83142677  0.28549747  0.26760674  1
  O2-  O259  1  0.82968728  0.28759169  0.60131255  1
  O2-  O260  1  0.82832757  0.29036909  0.93515863  1
  O2-  O261  1  0.83345956  0.78758640  0.26392677  1
  O2-  O262  1  0.83268486  0.79116474  0.59905334  1
  O2-  O263  1  0.83255251  0.78947260  0.93275656  1
  O2-  O264  1  0.42462984  0.04795233  0.06159292  1
  O2-  O265  1  0.42110606  0.03663898  0.40219911  1
  O2-  O266  1  0.41852232  0.04470212  0.73650166  1
  O2-  O267  1  0.41195956  0.54203442  0.06004685  1
  O2-  O268  1  0.42032760  0.54263766  0.40179791  1
  O2-  O269  1  0.41436365  0.53827246  0.73067005  1
  O2-  O270  1  0.91646680  0.03880058  0.06802756  1
  O2-  O271  1  0.91032925  0.04333950  0.39686817  1
  O2-  O272  1  0.91367733  0.04768511  0.72713600  1
  O2-  O273  1  0.91871170  0.55438842  0.06212257  1
  O2-  O274  1  0.91710065  0.56331278  0.39320160  1
  O2-  O275  1  0.91311453  0.54654488  0.72780838  1
  O2-  O276  1  0.29602985  0.17340039  0.06579257  1
  O2-  O277  1  0.30186376  0.17193061  0.39880401  1
  O2-  O278  1  0.28797442  0.16985451  0.73392918  1
  O2-  O279  1  0.29502359  0.66197721  0.05816231  1
  O2-  O280  1  0.29788290  0.66919420  0.40455030  1
  O2-  O281  1  0.30031358  0.66453561  0.72922769  1
  O2-  O282  1  0.78686680  0.16356811  0.07056757  1
  O2-  O283  1  0.78635596  0.15870683  0.39822055  1
  O2-  O284  1  0.78667493  0.16002864  0.73052063  1
  O2-  O285  1  0.79196198  0.66433293  0.06554617  1
  O2-  O286  1  0.78320556  0.66630913  0.40141463  1
  O2-  O287  1  0.78807699  0.66217413  0.72949418  1
