# generated using pymatgen
data_Ca2Al2SiO7
_symmetry_space_group_name_H-M   'P 1'
_cell_length_a   15.46826514
_cell_length_b   15.46838089
_cell_length_c   15.29072854
_cell_angle_alpha   90.00386420
_cell_angle_beta   90.00678378
_cell_angle_gamma   89.95664862
_symmetry_Int_Tables_number   1
_chemical_formula_structural   Ca2Al2SiO7
_chemical_formula_sum   'Ca48 Al48 Si24 O168'
_cell_volume   3658.59650398
_cell_formula_units_Z   24
loop_
 _symmetry_equiv_pos_site_id
 _symmetry_equiv_pos_as_xyz
  1  'x, y, z'
loop_
 _atom_type_symbol
 _atom_type_oxidation_number
  Ca2+  2.0
  Al0+  0.0
  Si0+  0.0
  O2-  -2.0
loop_
 _atom_site_type_symbol
 _atom_site_label
 _atom_site_symmetry_multiplicity
 _atom_site_fract_x
 _atom_site_fract_y
 _atom_site_fract_z
 _atom_site_occupancy
  Ca2+  Ca0  1  0.15745255  0.08060205  0.16950002  1
  Ca2+  Ca1  1  0.16514798  0.09146627  0.50257643  1
  Ca2+  Ca2  1  0.16385853  0.08304405  0.83925512  1
  Ca2+  Ca3  1  0.17666918  0.59052288  0.16915488  1
  Ca2+  Ca4  1  0.17460333  0.58210505  0.50203057  1
  Ca2+  Ca5  1  0.17004689  0.58326450  0.84628243  1
  Ca2+  Ca6  1  0.67039259  0.07653386  0.17448684  1
  Ca2+  Ca7  1  0.66232060  0.07557192  0.50373357  1
  Ca2+  Ca8  1  0.66233504  0.07658686  0.84015803  1
  Ca2+  Ca9  1  0.66352250  0.57695535  0.17649952  1
  Ca2+  Ca10  1  0.66131951  0.57707923  0.49714129  1
  Ca2+  Ca11  1  0.67069120  0.57697172  0.83736072  1
  Ca2+  Ca12  1  0.07763298  0.32139045  0.15966419  1
  Ca2+  Ca13  1  0.07767677  0.32333787  0.49742205  1
  Ca2+  Ca14  1  0.07621182  0.32602940  0.82852800  1
  Ca2+  Ca15  1  0.07021827  0.83455148  0.15715739  1
  Ca2+  Ca16  1  0.06726583  0.83857211  0.49476529  1
  Ca2+  Ca17  1  0.07410240  0.83618424  0.83524839  1
  Ca2+  Ca18  1  0.58694572  0.32431208  0.16719278  1
  Ca2+  Ca19  1  0.57759119  0.32794142  0.48958973  1
  Ca2+  Ca20  1  0.57895730  0.31723359  0.82764413  1
  Ca2+  Ca21  1  0.58421384  0.83226766  0.16131994  1
  Ca2+  Ca22  1  0.59258254  0.82892533  0.49313100  1
  Ca2+  Ca23  1  0.57979133  0.84140754  0.83199269  1
  Ca2+  Ca24  1  0.33848563  0.42698080  0.17534714  1
  Ca2+  Ca25  1  0.34329939  0.41699522  0.50206512  1
  Ca2+  Ca26  1  0.33553178  0.42105943  0.83909077  1
  Ca2+  Ca27  1  0.32712216  0.91283880  0.16425188  1
  Ca2+  Ca28  1  0.32939730  0.92096966  0.50407218  1
  Ca2+  Ca29  1  0.32618740  0.91795144  0.84676344  1
  Ca2+  Ca30  1  0.83047603  0.41653888  0.17193038  1
  Ca2+  Ca31  1  0.82798094  0.41204517  0.50318120  1
  Ca2+  Ca32  1  0.83992734  0.41168602  0.83916382  1
  Ca2+  Ca33  1  0.82708954  0.91762748  0.17495312  1
  Ca2+  Ca34  1  0.82843754  0.92061059  0.50023010  1
  Ca2+  Ca35  1  0.82591362  0.91327570  0.83747013  1
  Ca2+  Ca36  1  0.43040502  0.16674069  0.16572188  1
  Ca2+  Ca37  1  0.42934698  0.17563846  0.49540232  1
  Ca2+  Ca38  1  0.42776024  0.16505624  0.82771589  1
  Ca2+  Ca39  1  0.41832690  0.66707489  0.16399424  1
  Ca2+  Ca40  1  0.42273617  0.66849040  0.49000314  1
  Ca2+  Ca41  1  0.41132837  0.67255156  0.83838091  1
  Ca2+  Ca42  1  0.92117977  0.16516769  0.16261038  1
  Ca2+  Ca43  1  0.92539152  0.15863228  0.49522640  1
  Ca2+  Ca44  1  0.92663479  0.17247928  0.83169035  1
  Ca2+  Ca45  1  0.91829797  0.67995742  0.15935214  1
  Ca2+  Ca46  1  0.91003473  0.68058057  0.49583947  1
  Ca2+  Ca47  1  0.91930791  0.67788790  0.83294874  1
  Al0+  Al48  1  -0.00165291  0.00110621  -0.00465987  1
  Al0+  Al49  1  -0.00180538  -0.00155718  0.32918812  1
  Al0+  Al50  1  -0.00129833  -0.00185118  0.66107173  1
  Al0+  Al51  1  0.00063256  0.50101163  -0.00266948  1
  Al0+  Al52  1  0.00305778  0.50116844  0.33628949  1
  Al0+  Al53  1  0.00239906  0.50041351  0.66401391  1
  Al0+  Al54  1  0.49922304  -0.00218188  -0.00239775  1
  Al0+  Al55  1  0.49646273  -0.00006863  0.33483336  1
  Al0+  Al56  1  0.49704871  -0.00111434  0.66647148  1
  Al0+  Al57  1  0.50105712  0.50013250  0.00346502  1
  Al0+  Al58  1  0.50019990  0.50271760  0.33499903  1
  Al0+  Al59  1  0.50130858  0.50241571  0.66912662  1
  Al0+  Al60  1  0.25191895  0.25142264  -0.00041267  1
  Al0+  Al61  1  0.24871258  0.25078113  0.32522850  1
  Al0+  Al62  1  0.25107374  0.25219425  0.66307284  1
  Al0+  Al63  1  0.25106353  0.75106317  0.00211310  1
  Al0+  Al64  1  0.24966871  0.74969006  0.34163918  1
  Al0+  Al65  1  0.25032872  0.74992809  0.66741126  1
  Al0+  Al66  1  0.74846586  0.24835576  -0.00758910  1
  Al0+  Al67  1  0.75202971  0.24979584  0.33923188  1
  Al0+  Al68  1  0.75094140  0.24742915  0.66349104  1
  Al0+  Al69  1  0.74885478  0.74678276  -0.00046203  1
  Al0+  Al70  1  0.74883871  0.74936293  0.32724389  1
  Al0+  Al71  1  0.74974864  0.74913404  0.66867207  1
  Al0+  Al72  1  0.92851190  0.32088588  0.98769922  1
  Al0+  Al73  1  0.67928408  0.92936269  0.68176503  1
  Al0+  Al74  1  0.07003830  0.17914141  0.65114013  1
  Al0+  Al75  1  0.43196236  0.32305862  0.65337722  1
  Al0+  Al76  1  0.67668731  0.92856663  0.34741581  1
  Al0+  Al77  1  0.92823983  0.81828881  0.65138381  1
  Al0+  Al78  1  0.56919270  0.68160520  0.32015723  1
  Al0+  Al79  1  0.06935385  0.17965384  0.31792283  1
  Al0+  Al80  1  0.07381766  0.17815723  0.98477936  1
  Al0+  Al81  1  0.57128848  0.17482094  0.65107028  1
  Al0+  Al82  1  0.57396137  0.17690254  0.31807024  1
  Al0+  Al83  1  0.92524463  0.82195875  0.98387285  1
  Al0+  Al84  1  0.32004768  0.56999841  0.34976322  1
  Al0+  Al85  1  0.68110924  0.42941299  0.34642786  1
  Al0+  Al86  1  0.92838996  0.32393114  0.64981640  1
  Al0+  Al87  1  0.67830334  0.92757868  0.01356073  1
  Al0+  Al88  1  0.32032724  0.57002522  0.01512479  1
  Al0+  Al89  1  0.17753468  0.93226449  0.01300728  1
  Al0+  Al90  1  0.43098204  0.81878658  0.98807312  1
  Al0+  Al91  1  0.07233088  0.68099084  0.98723813  1
  Al0+  Al92  1  0.43010861  0.32209460  0.31677048  1
  Al0+  Al93  1  0.56913510  0.17792393  0.98686975  1
  Al0+  Al94  1  0.92917019  0.81878367  0.31839197  1
  Al0+  Al95  1  0.82237001  0.07036706  0.34777811  1
  Si0+  Si96  1  0.57045398  0.68065688  0.65324249  1
  Si0+  Si97  1  0.42642336  0.82016389  0.65183147  1
  Si0+  Si98  1  0.17895165  0.93051032  0.34878780  1
  Si0+  Si99  1  0.17643533  0.42722281  0.01790893  1
  Si0+  Si100  1  0.31979092  0.07370249  0.34838478  1
  Si0+  Si101  1  0.92801160  0.32570673  0.31814413  1
  Si0+  Si102  1  0.82452887  0.07158311  0.68532449  1
  Si0+  Si103  1  0.82141897  0.56979887  0.68152424  1
  Si0+  Si104  1  0.68069356  0.42799950  0.01343038  1
  Si0+  Si105  1  0.57208351  0.67462029  0.98173274  1
  Si0+  Si106  1  0.07466370  0.67809800  0.64870340  1
  Si0+  Si107  1  0.82271639  0.57014928  0.01495205  1
  Si0+  Si108  1  0.82408766  0.57256007  0.34899672  1
  Si0+  Si109  1  0.67870907  0.42795268  0.68239642  1
  Si0+  Si110  1  0.42342690  0.82284946  0.31812692  1
  Si0+  Si111  1  0.07460044  0.67788688  0.31870688  1
  Si0+  Si112  1  0.32248177  0.57261171  0.68453900  1
  Si0+  Si113  1  0.17813758  0.92812858  0.68123433  1
  Si0+  Si114  1  0.31858930  0.07115746  0.68099654  1
  Si0+  Si115  1  0.81951256  0.07253929  0.01428842  1
  Si0+  Si116  1  0.32323417  0.07347840  0.01687632  1
  Si0+  Si117  1  0.18032259  0.43022283  0.68254324  1
  Si0+  Si118  1  0.42983281  0.32491032  0.98508165  1
  Si0+  Si119  1  0.17791689  0.42584136  0.35169186  1
  O2-  O120  1  0.24809968  0.01122929  0.06066098  1
  O2-  O121  1  0.24885741  0.00227057  0.39155205  1
  O2-  O122  1  0.24692568  0.00093004  0.72335544  1
  O2-  O123  1  0.24631140  0.49481462  0.06207633  1
  O2-  O124  1  0.24803723  0.49311179  0.39722705  1
  O2-  O125  1  0.25119774  0.50172943  0.72537934  1
  O2-  O126  1  0.75520599  -0.00010199  0.05877156  1
  O2-  O127  1  0.74487370  0.00373982  0.39814362  1
  O2-  O128  1  0.75094510  0.00701372  0.72859854  1
  O2-  O129  1  0.75311763  0.49739586  0.05574384  1
  O2-  O130  1  0.75914981  0.50097535  0.39428449  1
  O2-  O131  1  0.75605314  0.49309343  0.72468568  1
  O2-  O132  1  -0.00562052  0.25518305  0.27418758  1
  O2-  O133  1  -0.00486040  0.24734489  0.59998543  1
  O2-  O134  1  0.00372976  0.25287287  0.93720388  1
  O2-  O135  1  0.00302551  0.74222960  0.27441840  1
  O2-  O136  1  0.00509169  0.74526972  0.60438159  1
  O2-  O137  1  0.00032301  0.75167829  0.93533939  1
  O2-  O138  1  0.50290421  0.25041703  0.26796651  1
  O2-  O139  1  0.50632160  0.25417761  0.60312836  1
  O2-  O140  1  0.49197955  0.25092341  0.94093829  1
  O2-  O141  1  0.49705372  0.75921786  0.27546887  1
  O2-  O142  1  0.49989687  0.75194330  0.61076747  1
  O2-  O143  1  0.50673671  0.74650252  0.93800088  1
  O2-  O144  1  0.07032294  0.17876874  0.09817139  1
  O2-  O145  1  0.07021516  0.18025998  0.43090092  1
  O2-  O146  1  0.07196763  0.18071695  0.76433258  1
  O2-  O147  1  0.06984091  0.68223659  0.10083437  1
  O2-  O148  1  0.07584351  0.68049434  0.42465686  1
  O2-  O149  1  0.07661014  0.67879317  0.75397124  1
  O2-  O150  1  0.57128767  0.17977061  0.09945479  1
  O2-  O151  1  0.56954117  0.17691260  0.43139601  1
  O2-  O152  1  0.56614565  0.17438337  0.76498553  1
  O2-  O153  1  0.57087622  0.67151153  0.08690354  1
  O2-  O154  1  0.56808237  0.68148585  0.43408229  1
  O2-  O155  1  0.56975010  0.67821805  0.75824018  1
  O2-  O156  1  0.17608447  0.42814541  0.24647878  1
  O2-  O157  1  0.18049734  0.43191384  0.57767158  1
  O2-  O158  1  0.17786323  0.42858311  0.91189521  1
  O2-  O159  1  0.18010025  0.92909454  0.24390223  1
  O2-  O160  1  0.18168923  0.92527484  0.57592364  1
  O2-  O161  1  0.18096210  0.93169627  0.89934180  1
  O2-  O162  1  0.68248780  0.43150178  0.23284773  1
  O2-  O163  1  0.67488683  0.43415638  0.57778698  1
  O2-  O164  1  0.67972980  0.43086619  0.90798396  1
  O2-  O165  1  0.67864108  0.92739320  0.23391454  1
  O2-  O166  1  0.68023219  0.92608723  0.56912444  1
  O2-  O167  1  0.67793847  0.93017834  0.90002780  1
  O2-  O168  1  0.43374999  0.32827908  0.09004905  1
  O2-  O169  1  0.43173099  0.32055404  0.43056600  1
  O2-  O170  1  0.43224740  0.32290369  0.76726277  1
  O2-  O171  1  0.43070172  0.81757867  0.10086014  1
  O2-  O172  1  0.41897067  0.81969916  0.42422181  1
  O2-  O173  1  0.42314513  0.81865328  0.75665224  1
  O2-  O174  1  0.92666800  0.32013296  0.10126823  1
  O2-  O175  1  0.93182953  0.32911483  0.42336071  1
  O2-  O176  1  0.93424006  0.32651486  0.76308995  1
  O2-  O177  1  0.92510968  0.81954512  0.09720703  1
  O2-  O178  1  0.93024643  0.81790374  0.43191839  1
  O2-  O179  1  0.92842876  0.81646480  0.76403034  1
  O2-  O180  1  0.32071060  0.07208370  0.24354308  1
  O2-  O181  1  0.31844593  0.06832177  0.57575084  1
  O2-  O182  1  0.32496929  0.06993934  0.91081446  1
  O2-  O183  1  0.31774008  0.57262719  0.23697751  1
  O2-  O184  1  0.32274739  0.57483373  0.57974620  1
  O2-  O185  1  0.32090174  0.56744518  0.90125879  1
  O2-  O186  1  0.82451918  0.06687372  0.23401069  1
  O2-  O187  1  0.82805734  0.06743824  0.58008481  1
  O2-  O188  1  0.81674542  0.07448355  0.90863713  1
  O2-  O189  1  0.82392249  0.57120876  0.24337471  1
  O2-  O190  1  0.81747474  0.57270681  0.57663630  1
  O2-  O191  1  0.82078079  0.57099088  0.90941079  1
  O2-  O192  1  0.03818198  0.08316303  0.26507892  1
  O2-  O193  1  0.04628987  0.07931337  0.59854193  1
  O2-  O194  1  0.04395487  0.08173550  0.92973808  1
  O2-  O195  1  0.05533609  0.58215003  0.27505200  1
  O2-  O196  1  0.05158321  0.58437716  0.60283276  1
  O2-  O197  1  0.04527470  0.58265625  0.93322628  1
  O2-  O198  1  0.54021868  0.07889625  0.26654958  1
  O2-  O199  1  0.53378675  0.07955451  0.59746788  1
  O2-  O200  1  0.53691102  0.08263510  0.93183452  1
  O2-  O201  1  0.53593435  0.58677762  0.26556290  1
  O2-  O202  1  0.54126825  0.58967625  0.60539691  1
  O2-  O203  1  0.54246659  0.58260189  0.93374582  1
  O2-  O204  1  0.16506651  0.20798911  0.26185788  1
  O2-  O205  1  0.16788122  0.21077385  0.59870007  1
  O2-  O206  1  0.17453024  0.20296394  0.93392737  1
  O2-  O207  1  0.16728036  0.70805142  0.27411048  1
  O2-  O208  1  0.16832767  0.70505333  0.60246598  1
  O2-  O209  1  0.17019828  0.70870520  0.93362780  1
  O2-  O210  1  0.67391632  0.20528550  0.26887209  1
  O2-  O211  1  0.67324952  0.19244897  0.60407630  1
  O2-  O212  1  0.66233693  0.21120059  0.92853924  1
  O2-  O213  1  0.66554386  0.70564711  0.26323267  1
  O2-  O214  1  0.66178899  0.70745178  0.60551328  1
  O2-  O215  1  0.66656997  0.69561989  0.93617773  1
  O2-  O216  1  0.08277841  0.45336725  0.06341341  1
  O2-  O217  1  0.08567688  0.45387101  0.40087810  1
  O2-  O218  1  0.08862215  0.45876699  0.73031643  1
  O2-  O219  1  0.07910038  0.95919395  0.06578917  1
  O2-  O220  1  0.08724396  0.95867871  0.39537831  1
  O2-  O221  1  0.08497783  0.95350892  0.72607194  1
  O2-  O222  1  0.59062934  0.45833993  0.06229749  1
  O2-  O223  1  0.58701403  0.46687314  0.40145814  1
  O2-  O224  1  0.59057880  0.46419847  0.73295738  1
  O2-  O225  1  0.58094421  0.95781429  0.06569511  1
  O2-  O226  1  0.57511779  0.94978448  0.39917726  1
  O2-  O227  1  0.57901205  0.95631078  0.73232967  1
  O2-  O228  1  0.20058915  0.33270980  0.06310625  1
  O2-  O229  1  0.20250118  0.33116421  0.39563313  1
  O2-  O230  1  0.20921485  0.33872075  0.73008666  1
  O2-  O231  1  0.21354697  0.83783358  0.06769312  1
  O2-  O232  1  0.20736307  0.84040816  0.39983725  1
  O2-  O233  1  0.20869892  0.83694805  0.72896013  1
  O2-  O234  1  0.70743859  0.33538111  0.05886575  1
  O2-  O235  1  0.70733761  0.33360566  0.40375639  1
  O2-  O236  1  0.69893313  0.33293882  0.72677321  1
  O2-  O237  1  0.70401645  0.82778539  0.06397740  1
  O2-  O238  1  0.70923363  0.82934929  0.39774502  1
  O2-  O239  1  0.71078089  0.83213307  0.73555956  1
  O2-  O240  1  0.45875108  0.42140548  0.26744049  1
  O2-  O241  1  0.45860367  0.42335487  0.60275043  1
  O2-  O242  1  0.46118515  0.41592316  0.93648706  1
  O2-  O243  1  0.44098341  0.91838712  0.27457613  1
  O2-  O244  1  0.44942091  0.91277341  0.60492432  1
  O2-  O245  1  0.45819686  0.91452149  0.93051606  1
  O2-  O246  1  0.95492689  0.41964812  0.27212130  1
  O2-  O247  1  0.95954154  0.42160402  0.59635940  1
  O2-  O248  1  0.95315148  0.42031080  0.93497382  1
  O2-  O249  1  0.96363656  0.91259204  0.26337439  1
  O2-  O250  1  0.95958415  0.91346102  0.59615393  1
  O2-  O251  1  0.95206089  0.91986774  0.93077686  1
  O2-  O252  1  0.33167388  0.29613253  0.26377129  1
  O2-  O253  1  0.33408484  0.29549082  0.60036734  1
  O2-  O254  1  0.33365200  0.30716516  0.94165976  1
  O2-  O255  1  0.33152975  0.79074814  0.27241580  1
  O2-  O256  1  0.33603837  0.78999267  0.60226517  1
  O2-  O257  1  0.33598535  0.78589895  0.93203518  1
  O2-  O258  1  0.83298649  0.30374107  0.27519665  1
  O2-  O259  1  0.82665527  0.30353282  0.60213430  1
  O2-  O260  1  0.83228368  0.29163835  0.93048698  1
  O2-  O261  1  0.83418937  0.78763200  0.26321998  1
  O2-  O262  1  0.83277559  0.78227214  0.59865106  1
  O2-  O263  1  0.82892980  0.78663664  0.93030049  1
  O2-  O264  1  0.41302039  0.03872301  0.06445694  1
  O2-  O265  1  0.40986567  0.04537243  0.39928209  1
  O2-  O266  1  0.40880838  0.04042479  0.72994596  1
  O2-  O267  1  0.41799295  0.54026370  0.06840966  1
  O2-  O268  1  0.41695676  0.54220900  0.40447390  1
  O2-  O269  1  0.41438659  0.54605317  0.73276288  1
  O2-  O270  1  0.91518476  0.05164045  0.05736035  1
  O2-  O271  1  0.91835744  0.03288992  0.40205971  1
  O2-  O272  1  0.91680540  0.03979274  0.73158710  1
  O2-  O273  1  0.91479277  0.54534885  0.06297180  1
  O2-  O274  1  0.91944634  0.55387534  0.39546801  1
  O2-  O275  1  0.91622837  0.54836452  0.72620316  1
  O2-  O276  1  0.30722871  0.17029004  0.05994806  1
  O2-  O277  1  0.28939286  0.16525914  0.39450966  1
  O2-  O278  1  0.29289021  0.16379092  0.72763206  1
  O2-  O279  1  0.29010122  0.66632340  0.06922023  1
  O2-  O280  1  0.28747225  0.66530341  0.40773376  1
  O2-  O281  1  0.29352942  0.66481193  0.73165387  1
  O2-  O282  1  0.78940814  0.16493479  0.06071567  1
  O2-  O283  1  0.80623646  0.17126390  0.40000578  1
  O2-  O284  1  0.80527786  0.16810136  0.72866507  1
  O2-  O285  1  0.79217187  0.66023897  0.06370624  1
  O2-  O286  1  0.79179486  0.66417748  0.39493602  1
  O2-  O287  1  0.78669898  0.65796358  0.73209029  1
