# generated using pymatgen
data_Ca2Al2SiO7
_symmetry_space_group_name_H-M   'P 1'
_cell_length_a   15.45819818
_cell_length_b   15.45787608
_cell_length_c   15.28356483
_cell_angle_alpha   90.01260189
_cell_angle_beta   90.00824564
_cell_angle_gamma   89.99537297
_symmetry_Int_Tables_number   1
_chemical_formula_structural   Ca2Al2SiO7
_chemical_formula_sum   'Ca48 Al48 Si24 O168'
_cell_volume   3652.02161654
_cell_formula_units_Z   24
loop_
 _symmetry_equiv_pos_site_id
 _symmetry_equiv_pos_as_xyz
  1  'x, y, z'
loop_
 _atom_type_symbol
 _atom_type_oxidation_number
  Ca2+  2.0
  Al0+  0.0
  Si0+  0.0
  O2-  -2.0
loop_
 _atom_site_type_symbol
 _atom_site_label
 _atom_site_symmetry_multiplicity
 _atom_site_fract_x
 _atom_site_fract_y
 _atom_site_fract_z
 _atom_site_occupancy
  Ca2+  Ca0  1  0.16454099  0.07193618  0.17568529  1
  Ca2+  Ca1  1  0.16485173  0.07601960  0.50608101  1
  Ca2+  Ca2  1  0.16745498  0.07483175  0.83313594  1
  Ca2+  Ca3  1  0.15666692  0.57456387  0.16843743  1
  Ca2+  Ca4  1  0.16065986  0.57026896  0.50310569  1
  Ca2+  Ca5  1  0.16037246  0.57247581  0.84069712  1
  Ca2+  Ca6  1  0.67415609  0.08412855  0.17631043  1
  Ca2+  Ca7  1  0.67095887  0.08161713  0.50200505  1
  Ca2+  Ca8  1  0.66440575  0.07479891  0.83339349  1
  Ca2+  Ca9  1  0.66424093  0.58666582  0.16781119  1
  Ca2+  Ca10  1  0.67339927  0.58893693  0.50515699  1
  Ca2+  Ca11  1  0.67812646  0.58187992  0.84335032  1
  Ca2+  Ca12  1  0.08380142  0.33371390  0.16685086  1
  Ca2+  Ca13  1  0.07967362  0.32610147  0.49548455  1
  Ca2+  Ca14  1  0.08182605  0.33257490  0.82104867  1
  Ca2+  Ca15  1  0.08124163  0.83489142  0.16070765  1
  Ca2+  Ca16  1  0.08075603  0.83874980  0.49170714  1
  Ca2+  Ca17  1  0.09146289  0.82793865  0.83181984  1
  Ca2+  Ca18  1  0.58986781  0.32839541  0.16311359  1
  Ca2+  Ca19  1  0.58049573  0.32619401  0.49128752  1
  Ca2+  Ca20  1  0.58451262  0.33590380  0.83280330  1
  Ca2+  Ca21  1  0.57202171  0.82377444  0.16059598  1
  Ca2+  Ca22  1  0.57295947  0.83630464  0.49314633  1
  Ca2+  Ca23  1  0.57482038  0.83233565  0.82682354  1
  Ca2+  Ca24  1  0.32210536  0.42000539  0.17306466  1
  Ca2+  Ca25  1  0.32074574  0.41377873  0.50383303  1
  Ca2+  Ca26  1  0.31949539  0.41494644  0.83863409  1
  Ca2+  Ca27  1  0.32512957  0.90521834  0.16898277  1
  Ca2+  Ca28  1  0.32656039  0.91735302  0.50735607  1
  Ca2+  Ca29  1  0.32984197  0.91572175  0.83347997  1
  Ca2+  Ca30  1  0.83325860  0.42300370  0.16857475  1
  Ca2+  Ca31  1  0.84007966  0.41960499  0.50465971  1
  Ca2+  Ca32  1  0.83463119  0.42634816  0.83858057  1
  Ca2+  Ca33  1  0.83641083  0.92256257  0.17796298  1
  Ca2+  Ca34  1  0.83119498  0.92206691  0.50178571  1
  Ca2+  Ca35  1  0.82597627  0.91582992  0.83409065  1
  Ca2+  Ca36  1  0.42280724  0.16552506  0.16741095  1
  Ca2+  Ca37  1  0.42020504  0.16059379  0.49767197  1
  Ca2+  Ca38  1  0.41407210  0.16451713  0.82778418  1
  Ca2+  Ca39  1  0.42267237  0.67365326  0.16071023  1
  Ca2+  Ca40  1  0.42164236  0.67919795  0.49137739  1
  Ca2+  Ca41  1  0.41722170  0.67822731  0.82993284  1
  Ca2+  Ca42  1  0.92140870  0.16861615  0.17001268  1
  Ca2+  Ca43  1  0.92669395  0.17310173  0.49052182  1
  Ca2+  Ca44  1  0.92663529  0.17736944  0.82204644  1
  Ca2+  Ca45  1  0.92000568  0.67158315  0.16291853  1
  Ca2+  Ca46  1  0.91523596  0.67334501  0.49702545  1
  Ca2+  Ca47  1  0.91896991  0.65793049  0.83299753  1
  Al0+  Al48  1  0.00058656  0.00148014  0.00061594  1
  Al0+  Al49  1  -0.00048298  0.00188797  0.33467774  1
  Al0+  Al50  1  -0.00003941  -0.00077633  0.66904746  1
  Al0+  Al51  1  -0.00265119  0.50091016  0.00552578  1
  Al0+  Al52  1  -0.00218398  0.49942111  0.33591639  1
  Al0+  Al53  1  -0.00104141  0.50076719  0.66981421  1
  Al0+  Al54  1  0.50036568  0.00131920  -0.00264530  1
  Al0+  Al55  1  0.49921736  -0.00017049  0.32261468  1
  Al0+  Al56  1  0.49953893  -0.00073979  0.66992350  1
  Al0+  Al57  1  0.50006728  0.49786315  -0.00124755  1
  Al0+  Al58  1  0.49992052  0.50004637  0.33221516  1
  Al0+  Al59  1  0.50079874  0.50003734  0.66472772  1
  Al0+  Al60  1  0.25119226  0.24790468  0.00515504  1
  Al0+  Al61  1  0.24989784  0.24852963  0.33386731  1
  Al0+  Al62  1  0.25077411  0.24862980  0.66987581  1
  Al0+  Al63  1  0.24855711  0.74969013  -0.00520426  1
  Al0+  Al64  1  0.24964849  0.74739714  0.33496091  1
  Al0+  Al65  1  0.25103616  0.74862035  0.66299809  1
  Al0+  Al66  1  0.75100656  0.25043084  -0.00035893  1
  Al0+  Al67  1  0.75123195  0.25155717  0.33099682  1
  Al0+  Al68  1  0.74982314  0.25133877  0.66372564  1
  Al0+  Al69  1  0.74954526  0.75139211  0.00144344  1
  Al0+  Al70  1  0.75042522  0.75043023  0.32633761  1
  Al0+  Al71  1  0.75160959  0.74922940  0.67591337  1
  Al0+  Al72  1  0.67842343  0.42836663  0.01573329  1
  Al0+  Al73  1  0.57222985  0.67689496  0.98163791  1
  Al0+  Al74  1  0.18096729  0.43092480  0.67999393  1
  Al0+  Al75  1  0.92914253  0.32323014  0.65187358  1
  Al0+  Al76  1  0.06747320  0.67910749  0.98684787  1
  Al0+  Al77  1  0.42967323  0.82089174  0.65036781  1
  Al0+  Al78  1  0.57122132  0.17998033  0.32018324  1
  Al0+  Al79  1  0.82002793  0.57310675  0.01964190  1
  Al0+  Al80  1  0.32120752  0.06983049  0.68128109  1
  Al0+  Al81  1  0.17810008  0.42774994  0.01492450  1
  Al0+  Al82  1  0.17979270  0.92799009  0.34636773  1
  Al0+  Al83  1  0.67979299  0.93050661  0.67853922  1
  Al0+  Al84  1  0.82060500  0.07290716  0.34772807  1
  Al0+  Al85  1  0.42840584  0.82127686  0.98102224  1
  Al0+  Al86  1  0.18050108  0.92929856  0.01411191  1
  Al0+  Al87  1  0.07261062  0.17890786  0.31695197  1
  Al0+  Al88  1  0.93091352  0.82212017  0.32215018  1
  Al0+  Al89  1  0.07261007  0.17757427  0.65185461  1
  Al0+  Al90  1  0.42591912  0.82138102  0.31705719  1
  Al0+  Al91  1  0.92950800  0.32311080  0.31578125  1
  Al0+  Al92  1  0.17640726  0.92602047  0.68222858  1
  Al0+  Al93  1  0.81956984  0.56985079  0.68006709  1
  Al0+  Al94  1  0.57206461  0.67820005  0.31882149  1
  Al0+  Al95  1  0.17825931  0.42889710  0.34914531  1
  Si0+  Si96  1  0.32423180  0.07124607  0.34844188  1
  Si0+  Si97  1  0.42900166  0.32211248  0.65254114  1
  Si0+  Si98  1  0.32110208  0.57120190  0.01502439  1
  Si0+  Si99  1  0.07088791  0.67693927  0.31947881  1
  Si0+  Si100  1  0.07068052  0.67866672  0.65205249  1
  Si0+  Si101  1  0.67812400  0.92832902  0.34657272  1
  Si0+  Si102  1  0.82197849  0.07430095  0.68331090  1
  Si0+  Si103  1  0.42718354  0.31935206  0.98515650  1
  Si0+  Si104  1  0.07259656  0.17817980  0.98470486  1
  Si0+  Si105  1  0.32421915  0.57073218  0.35139158  1
  Si0+  Si106  1  0.81921108  0.57245232  0.34954875  1
  Si0+  Si107  1  0.57419241  0.67869832  0.65117574  1
  Si0+  Si108  1  0.93041354  0.31970756  0.98510420  1
  Si0+  Si109  1  0.67759770  0.93052043  0.01634936  1
  Si0+  Si110  1  0.32402273  0.07197226  0.01971590  1
  Si0+  Si111  1  0.42740141  0.32241892  0.31685129  1
  Si0+  Si112  1  0.82035066  0.07052641  0.01396072  1
  Si0+  Si113  1  0.92789865  0.82610485  0.98225190  1
  Si0+  Si114  1  0.67521294  0.42584907  0.68142017  1
  Si0+  Si115  1  0.92744764  0.82049393  0.65398892  1
  Si0+  Si116  1  0.67793708  0.42900859  0.34907528  1
  Si0+  Si117  1  0.57085100  0.17869509  0.65271734  1
  Si0+  Si118  1  0.57278183  0.18052800  0.98288018  1
  Si0+  Si119  1  0.32453385  0.57180658  0.68263684  1
  O2-  O120  1  0.25691231  0.00156225  0.06236311  1
  O2-  O121  1  0.25632670  0.00177397  0.39170790  1
  O2-  O122  1  0.24838867  -0.00122386  0.73122272  1
  O2-  O123  1  0.25163894  0.50390645  0.06107287  1
  O2-  O124  1  0.25440175  0.50272993  0.39537729  1
  O2-  O125  1  0.25589641  0.50421086  0.72863168  1
  O2-  O126  1  0.75221574  -0.00225542  0.05807461  1
  O2-  O127  1  0.74501731  -0.00220393  0.39278061  1
  O2-  O128  1  0.75382233  0.00538042  0.72813130  1
  O2-  O129  1  0.74439855  0.50393487  0.06865515  1
  O2-  O130  1  0.74656544  0.50233196  0.39116907  1
  O2-  O131  1  0.74460235  0.49400514  0.72401198  1
  O2-  O132  1  0.00321703  0.25298778  0.26540466  1
  O2-  O133  1  -0.00138953  0.24842979  0.60302431  1
  O2-  O134  1  0.00569070  0.25327345  0.94267060  1
  O2-  O135  1  0.00849792  0.75102905  0.27526718  1
  O2-  O136  1  0.00381478  0.75484342  0.61183854  1
  O2-  O137  1  -0.00620797  0.75464097  0.93830437  1
  O2-  O138  1  0.49721693  0.25497342  0.27221659  1
  O2-  O139  1  0.50198420  0.25231635  0.61133358  1
  O2-  O140  1  0.50025218  0.25036292  0.94158780  1
  O2-  O141  1  0.49839813  0.74844013  0.26963861  1
  O2-  O142  1  0.50467425  0.74515650  0.60559336  1
  O2-  O143  1  0.50174384  0.75001325  0.93105772  1
  O2-  O144  1  0.06989404  0.17612510  0.08940966  1
  O2-  O145  1  0.07173928  0.17883464  0.43023855  1
  O2-  O146  1  0.07097705  0.18025303  0.76646539  1
  O2-  O147  1  0.06600786  0.67976406  0.10003317  1
  O2-  O148  1  0.06707746  0.67510283  0.42546517  1
  O2-  O149  1  0.06900381  0.67597501  0.75712945  1
  O2-  O150  1  0.57401992  0.18050469  0.08782419  1
  O2-  O151  1  0.56989227  0.18073058  0.43368820  1
  O2-  O152  1  0.57159027  0.17988482  0.75818650  1
  O2-  O153  1  0.56852950  0.67919985  0.09509920  1
  O2-  O154  1  0.57307920  0.68000812  0.43296230  1
  O2-  O155  1  0.57296563  0.67906216  0.75632253  1
  O2-  O156  1  0.17957287  0.43193517  0.23581396  1
  O2-  O157  1  0.18127685  0.43181894  0.56700569  1
  O2-  O158  1  0.17911800  0.42643910  0.90162868  1
  O2-  O159  1  0.17949232  0.92820241  0.23305896  1
  O2-  O160  1  0.17682177  0.92625958  0.56865391  1
  O2-  O161  1  0.17890763  0.93214388  0.90145572  1
  O2-  O162  1  0.67795218  0.42830442  0.24437566  1
  O2-  O163  1  0.67142773  0.42567592  0.57586475  1
  O2-  O164  1  0.68377320  0.42387081  0.90194577  1
  O2-  O165  1  0.68100700  0.93044757  0.24079850  1
  O2-  O166  1  0.68098564  0.93214117  0.56542529  1
  O2-  O167  1  0.67743758  0.93390674  0.91089429  1
  O2-  O168  1  0.42586862  0.31630945  0.09003245  1
  O2-  O169  1  0.42921788  0.32240903  0.42283617  1
  O2-  O170  1  0.43007634  0.32317985  0.75779387  1
  O2-  O171  1  0.42950541  0.82009419  0.09439450  1
  O2-  O172  1  0.42861289  0.82264691  0.43096532  1
  O2-  O173  1  0.43120948  0.82019321  0.76315229  1
  O2-  O174  1  0.92854382  0.31673044  0.08978290  1
  O2-  O175  1  0.93028345  0.32369619  0.42917582  1
  O2-  O176  1  0.93058319  0.32268293  0.76628481  1
  O2-  O177  1  0.93061705  0.82981918  0.08787334  1
  O2-  O178  1  0.92790444  0.81921263  0.43573919  1
  O2-  O179  1  0.92448575  0.81882033  0.75897912  1
  O2-  O180  1  0.32407869  0.07281161  0.24278190  1
  O2-  O181  1  0.32523001  0.06825368  0.56794069  1
  O2-  O182  1  0.32342836  0.07565311  0.91444270  1
  O2-  O183  1  0.32573184  0.56848479  0.24577825  1
  O2-  O184  1  0.32477687  0.56852379  0.57706859  1
  O2-  O185  1  0.31969243  0.56709212  0.90924586  1
  O2-  O186  1  0.81881102  0.07089812  0.23392910  1
  O2-  O187  1  0.81996732  0.07396174  0.57803942  1
  O2-  O188  1  0.81792512  0.07054695  0.90871241  1
  O2-  O189  1  0.82064757  0.57223353  0.24505243  1
  O2-  O190  1  0.81794470  0.57318686  0.56661990  1
  O2-  O191  1  0.82251319  0.56764642  0.90593790  1
  O2-  O192  1  0.03846781  0.08256439  0.26352027  1
  O2-  O193  1  0.04446660  0.07773264  0.60163074  1
  O2-  O194  1  0.03974257  0.08868529  0.93555988  1
  O2-  O195  1  0.03783367  0.58656981  0.27200441  1
  O2-  O196  1  0.03626008  0.58968479  0.60334615  1
  O2-  O197  1  0.03467817  0.58186154  0.93327932  1
  O2-  O198  1  0.54260649  0.08545382  0.26097293  1
  O2-  O199  1  0.54071766  0.08827800  0.60519178  1
  O2-  O200  1  0.54503497  0.08893866  0.93502323  1
  O2-  O201  1  0.54572853  0.57850961  0.26693254  1
  O2-  O202  1  0.55199143  0.58345934  0.60553917  1
  O2-  O203  1  0.54687123  0.57604226  0.93139990  1
  O2-  O204  1  0.17230104  0.20385023  0.26468669  1
  O2-  O205  1  0.17162269  0.20619125  0.60104052  1
  O2-  O206  1  0.16704811  0.20189146  0.94115015  1
  O2-  O207  1  0.16690850  0.69311807  0.27604961  1
  O2-  O208  1  0.16380899  0.69882175  0.60411218  1
  O2-  O209  1  0.16399119  0.70599204  0.93092078  1
  O2-  O210  1  0.66624154  0.21244842  0.26468195  1
  O2-  O211  1  0.66288459  0.20377103  0.60430138  1
  O2-  O212  1  0.66372676  0.20925427  0.93374326  1
  O2-  O213  1  0.66874827  0.70646040  0.26307046  1
  O2-  O214  1  0.66851992  0.70632517  0.60778707  1
  O2-  O215  1  0.67258638  0.70568936  0.93237807  1
  O2-  O216  1  0.08232967  0.45892819  0.06888080  1
  O2-  O217  1  0.08237310  0.46274314  0.40295755  1
  O2-  O218  1  0.08541794  0.46375808  0.73418912  1
  O2-  O219  1  0.08332205  0.96255160  0.06680087  1
  O2-  O220  1  0.08377000  0.96068207  0.40000620  1
  O2-  O221  1  0.07729564  0.95143747  0.73628773  1
  O2-  O222  1  0.57625432  0.44674547  0.06558268  1
  O2-  O223  1  0.58432726  0.45219334  0.39616455  1
  O2-  O224  1  0.58176958  0.45093490  0.72894426  1
  O2-  O225  1  0.58730857  0.96329279  0.06327880  1
  O2-  O226  1  0.58321508  0.95493911  0.38912785  1
  O2-  O227  1  0.58617837  0.96417470  0.73609006  1
  O2-  O228  1  0.21113849  0.33186727  0.06907139  1
  O2-  O229  1  0.21071894  0.33186897  0.40127093  1
  O2-  O230  1  0.21236515  0.33497313  0.73429219  1
  O2-  O231  1  0.20757971  0.83032500  0.06518475  1
  O2-  O232  1  0.20485671  0.82919622  0.39960511  1
  O2-  O233  1  0.20623947  0.82625399  0.73194489  1
  O2-  O234  1  0.71135116  0.33018118  0.06826871  1
  O2-  O235  1  0.70757067  0.33822854  0.39720143  1
  O2-  O236  1  0.69851567  0.33160236  0.72773359  1
  O2-  O237  1  0.70050265  0.83746025  0.06203902  1
  O2-  O238  1  0.70519064  0.83490890  0.39182106  1
  O2-  O239  1  0.71206335  0.83656475  0.73676286  1
  O2-  O240  1  0.45131046  0.41600922  0.27079826  1
  O2-  O241  1  0.45527381  0.41355254  0.60271346  1
  O2-  O242  1  0.45153454  0.41101228  0.93630606  1
  O2-  O243  1  0.45260372  0.91825945  0.26088468  1
  O2-  O244  1  0.46398446  0.91751270  0.59887331  1
  O2-  O245  1  0.45804044  0.92140439  0.93103139  1
  O2-  O246  1  0.95726339  0.42226715  0.26397937  1
  O2-  O247  1  0.95936481  0.42130904  0.59967164  1
  O2-  O248  1  0.95472019  0.41341496  0.94096557  1
  O2-  O249  1  0.95820782  0.91858862  0.26734605  1
  O2-  O250  1  0.94881446  0.91439271  0.60804846  1
  O2-  O251  1  0.95458015  0.91904474  0.93454828  1
  O2-  O252  1  0.33493999  0.29539708  0.27000595  1
  O2-  O253  1  0.33858387  0.29217661  0.60452664  1
  O2-  O254  1  0.33638834  0.28779350  0.93651415  1
  O2-  O255  1  0.32798153  0.78900362  0.26514312  1
  O2-  O256  1  0.33322537  0.78966266  0.59607875  1
  O2-  O257  1  0.33047204  0.79196009  0.92800155  1
  O2-  O258  1  0.83148713  0.29413040  0.26316797  1
  O2-  O259  1  0.82835225  0.29997219  0.60066190  1
  O2-  O260  1  0.84037507  0.28722977  0.93631621  1
  O2-  O261  1  0.83653503  0.79071952  0.26454373  1
  O2-  O262  1  0.83749943  0.78684807  0.60615158  1
  O2-  O263  1  0.83216898  0.80394943  0.93960543  1
  O2-  O264  1  0.41983172  0.04956088  0.06328358  1
  O2-  O265  1  0.41958871  0.04668685  0.39216420  1
  O2-  O266  1  0.41884674  0.04212206  0.73715000  1
  O2-  O267  1  0.41397228  0.54325726  0.06105991  1
  O2-  O268  1  0.41738726  0.54444867  0.39910065  1
  O2-  O269  1  0.41854669  0.54664510  0.72849511  1
  O2-  O270  1  0.91281888  0.04558382  0.06121520  1
  O2-  O271  1  0.91530677  0.04044169  0.40297810  1
  O2-  O272  1  0.91463720  0.04838157  0.73067253  1
  O2-  O273  1  0.91594384  0.53998631  0.07435758  1
  O2-  O274  1  0.90994326  0.54372630  0.39867555  1
  O2-  O275  1  0.91473892  0.53840870  0.73630041  1
  O2-  O276  1  0.29822776  0.16451707  0.06800058  1
  O2-  O277  1  0.30153512  0.16543789  0.39492884  1
  O2-  O278  1  0.29618622  0.16862092  0.73626646  1
  O2-  O279  1  0.29638531  0.66534220  0.05897256  1
  O2-  O280  1  0.29884324  0.66396211  0.39796261  1
  O2-  O281  1  0.29904507  0.66556079  0.72700024  1
  O2-  O282  1  0.78942315  0.16105901  0.06129438  1
  O2-  O283  1  0.78813766  0.16915687  0.40118153  1
  O2-  O284  1  0.79455716  0.16780901  0.72957999  1
  O2-  O285  1  0.79743880  0.67450639  0.06931724  1
  O2-  O286  1  0.79094694  0.66507549  0.39606198  1
  O2-  O287  1  0.79087705  0.66412388  0.73929401  1
