# generated using pymatgen
data_Ca2Al2SiO7
_symmetry_space_group_name_H-M   'P 1'
_cell_length_a   15.46988715
_cell_length_b   15.46709802
_cell_length_c   15.29090982
_cell_angle_alpha   89.99655370
_cell_angle_beta   89.98607206
_cell_angle_gamma   89.97303310
_symmetry_Int_Tables_number   1
_chemical_formula_structural   Ca2Al2SiO7
_chemical_formula_sum   'Ca48 Al48 Si24 O168'
_cell_volume   3658.72062686
_cell_formula_units_Z   24
loop_
 _symmetry_equiv_pos_site_id
 _symmetry_equiv_pos_as_xyz
  1  'x, y, z'
loop_
 _atom_type_symbol
 _atom_type_oxidation_number
  Ca2+  2.0
  Al0+  0.0
  Si0+  0.0
  O2-  -2.0
loop_
 _atom_site_type_symbol
 _atom_site_label
 _atom_site_symmetry_multiplicity
 _atom_site_fract_x
 _atom_site_fract_y
 _atom_site_fract_z
 _atom_site_occupancy
  Ca2+  Ca0  1  0.17504787  0.08609730  0.16800113  1
  Ca2+  Ca1  1  0.16631654  0.08291133  0.50683736  1
  Ca2+  Ca2  1  0.17220093  0.08448935  0.83872812  1
  Ca2+  Ca3  1  0.17240290  0.59373647  0.16698075  1
  Ca2+  Ca4  1  0.16634318  0.58527379  0.50625075  1
  Ca2+  Ca5  1  0.17103411  0.59496956  0.84129629  1
  Ca2+  Ca6  1  0.67376705  0.07705080  0.17139724  1
  Ca2+  Ca7  1  0.67844028  0.07639710  0.50018747  1
  Ca2+  Ca8  1  0.67556571  0.07914848  0.84238488  1
  Ca2+  Ca9  1  0.66552017  0.57600364  0.17409457  1
  Ca2+  Ca10  1  0.66427721  0.58458069  0.49596160  1
  Ca2+  Ca11  1  0.65947508  0.57799098  0.83974009  1
  Ca2+  Ca12  1  0.06712472  0.33278271  0.16346168  1
  Ca2+  Ca13  1  0.07643479  0.32454812  0.49420601  1
  Ca2+  Ca14  1  0.07631867  0.32700469  0.83208336  1
  Ca2+  Ca15  1  0.06939117  0.82925915  0.16157195  1
  Ca2+  Ca16  1  0.07084428  0.83033993  0.50029106  1
  Ca2+  Ca17  1  0.07650513  0.82686357  0.83237136  1
  Ca2+  Ca18  1  0.58858484  0.33157950  0.16041214  1
  Ca2+  Ca19  1  0.58079500  0.33389400  0.49042868  1
  Ca2+  Ca20  1  0.58869574  0.32740924  0.83696365  1
  Ca2+  Ca21  1  0.59262521  0.82143296  0.16613830  1
  Ca2+  Ca22  1  0.57947863  0.82875995  0.48931495  1
  Ca2+  Ca23  1  0.57782321  0.82049928  0.82633915  1
  Ca2+  Ca24  1  0.33513377  0.42259697  0.17030820  1
  Ca2+  Ca25  1  0.33416497  0.41624634  0.50272443  1
  Ca2+  Ca26  1  0.32586414  0.42543664  0.84419516  1
  Ca2+  Ca27  1  0.33519163  0.91821463  0.17112599  1
  Ca2+  Ca28  1  0.33408675  0.90746159  0.50446388  1
  Ca2+  Ca29  1  0.33168157  0.91582280  0.84151713  1
  Ca2+  Ca30  1  0.82506339  0.41845012  0.17482640  1
  Ca2+  Ca31  1  0.83320038  0.42139620  0.49534927  1
  Ca2+  Ca32  1  0.82796283  0.41907797  0.84334566  1
  Ca2+  Ca33  1  0.83403769  0.92308481  0.17576230  1
  Ca2+  Ca34  1  0.83591381  0.91895624  0.50192115  1
  Ca2+  Ca35  1  0.84651872  0.92607366  0.83586113  1
  Ca2+  Ca36  1  0.42493566  0.17115082  0.16006673  1
  Ca2+  Ca37  1  0.42036680  0.17463809  0.49091522  1
  Ca2+  Ca38  1  0.42458483  0.15964490  0.83515682  1
  Ca2+  Ca39  1  0.42813658  0.66780409  0.16336916  1
  Ca2+  Ca40  1  0.42919478  0.67623382  0.49535141  1
  Ca2+  Ca41  1  0.42467816  0.66473209  0.82987515  1
  Ca2+  Ca42  1  0.89857876  0.17679674  0.16307861  1
  Ca2+  Ca43  1  0.91559422  0.16439467  0.49598897  1
  Ca2+  Ca44  1  0.91062657  0.17035454  0.82997966  1
  Ca2+  Ca45  1  0.91016243  0.67742413  0.16047681  1
  Ca2+  Ca46  1  0.91407689  0.67433003  0.49207555  1
  Ca2+  Ca47  1  0.92239291  0.68008520  0.82654991  1
  Al0+  Al48  1  0.00223109  0.00266750  0.00352790  1
  Al0+  Al49  1  0.00599284  -0.00190615  0.33299687  1
  Al0+  Al50  1  0.00317616  0.00108700  0.66523943  1
  Al0+  Al51  1  -0.00000116  0.49884721  -0.00793209  1
  Al0+  Al52  1  0.00245747  0.49644651  0.33396187  1
  Al0+  Al53  1  -0.00081896  0.49727483  0.66656865  1
  Al0+  Al54  1  0.50067768  0.00129171  0.00113307  1
  Al0+  Al55  1  0.49944162  0.00194171  0.33494323  1
  Al0+  Al56  1  0.50158729  0.00208109  0.66308770  1
  Al0+  Al57  1  0.49688542  0.49966800  0.00387390  1
  Al0+  Al58  1  0.49757387  0.50080061  0.33199723  1
  Al0+  Al59  1  0.49791803  0.49977163  0.66543744  1
  Al0+  Al60  1  0.24922488  0.25199395  0.00569402  1
  Al0+  Al61  1  0.25094719  0.25101897  0.32983742  1
  Al0+  Al62  1  0.24856835  0.25024201  0.66585893  1
  Al0+  Al63  1  0.24910715  0.75148173  0.00547241  1
  Al0+  Al64  1  0.25163611  0.75112319  0.33278651  1
  Al0+  Al65  1  0.24959305  0.75017550  0.66334145  1
  Al0+  Al66  1  0.74755965  0.24947747  -0.00288672  1
  Al0+  Al67  1  0.75037662  0.24956910  0.33917461  1
  Al0+  Al68  1  0.74872282  0.25008260  0.66924022  1
  Al0+  Al69  1  0.74854527  0.75079258  -0.01370103  1
  Al0+  Al70  1  0.75054370  0.74989538  0.33197492  1
  Al0+  Al71  1  0.74912376  0.74866800  0.66173675  1
  Al0+  Al72  1  0.82417835  0.07013762  0.34860579  1
  Al0+  Al73  1  0.57077751  0.67546329  0.65004692  1
  Al0+  Al74  1  0.42837788  0.32144567  0.31903479  1
  Al0+  Al75  1  0.07168088  0.67953377  0.98720914  1
  Al0+  Al76  1  0.92669047  0.31924021  0.98604917  1
  Al0+  Al77  1  0.67692956  0.42943129  0.34865395  1
  Al0+  Al78  1  0.42797528  0.82327074  0.31602965  1
  Al0+  Al79  1  0.82137476  0.06944912  0.01278628  1
  Al0+  Al80  1  0.56970849  0.17892658  0.98650824  1
  Al0+  Al81  1  0.92745223  0.82442621  0.98456447  1
  Al0+  Al82  1  0.07070234  0.67666670  0.65160588  1
  Al0+  Al83  1  0.56949329  0.67660815  0.98541494  1
  Al0+  Al84  1  0.31854321  0.57196454  0.01517104  1
  Al0+  Al85  1  0.82102130  0.06875399  0.68179763  1
  Al0+  Al86  1  0.43034612  0.82297673  0.65393822  1
  Al0+  Al87  1  0.07124052  0.18090688  0.65457295  1
  Al0+  Al88  1  0.67976914  0.43054210  0.01204803  1
  Al0+  Al89  1  0.82331732  0.57079421  0.34586592  1
  Al0+  Al90  1  0.92973772  0.82177557  0.65045841  1
  Al0+  Al91  1  0.92902320  0.31847245  0.32039030  1
  Al0+  Al92  1  0.32283340  0.07164349  0.01420903  1
  Al0+  Al93  1  0.92972770  0.82057246  0.31957144  1
  Al0+  Al94  1  0.67858037  0.92799266  0.34755084  1
  Al0+  Al95  1  0.57172904  0.68014418  0.31631304  1
  Si0+  Si96  1  0.17507342  0.42744356  0.01889674  1
  Si0+  Si97  1  0.31766791  0.56936723  0.68123407  1
  Si0+  Si98  1  0.07225430  0.67617305  0.31833179  1
  Si0+  Si99  1  0.67731585  0.43054466  0.68226282  1
  Si0+  Si100  1  0.42636653  0.32196625  0.98292651  1
  Si0+  Si101  1  0.18208064  0.92971111  0.68243526  1
  Si0+  Si102  1  0.42858133  0.82235055  0.98610607  1
  Si0+  Si103  1  0.17780285  0.42612160  0.68251034  1
  Si0+  Si104  1  0.82268780  0.57132899  0.68200600  1
  Si0+  Si105  1  0.57230292  0.17952438  0.31750893  1
  Si0+  Si106  1  0.82259688  0.57353898  0.01125382  1
  Si0+  Si107  1  0.92488282  0.32073958  0.64904389  1
  Si0+  Si108  1  0.67738067  0.92623829  0.01364350  1
  Si0+  Si109  1  0.32004432  0.07312723  0.34978639  1
  Si0+  Si110  1  0.18045719  0.42758115  0.35008594  1
  Si0+  Si111  1  0.67602884  0.92690189  0.68383411  1
  Si0+  Si112  1  0.32263570  0.07417572  0.68070278  1
  Si0+  Si113  1  0.31939092  0.57191088  0.35118896  1
  Si0+  Si114  1  0.17891144  0.92914251  0.01988970  1
  Si0+  Si115  1  0.42890391  0.31912058  0.65442452  1
  Si0+  Si116  1  0.57264425  0.17982120  0.65027523  1
  Si0+  Si117  1  0.07348262  0.17705764  0.31548187  1
  Si0+  Si118  1  0.07492784  0.18000153  0.98468246  1
  Si0+  Si119  1  0.18248000  0.92811935  0.35135637  1
  O2-  O120  1  0.24894431  -0.00235485  0.06287311  1
  O2-  O121  1  0.25329566  -0.00034114  0.39419534  1
  O2-  O122  1  0.25716891  -0.00187194  0.72299414  1
  O2-  O123  1  0.24060168  0.49984442  0.06180901  1
  O2-  O124  1  0.24857591  0.50055420  0.39398010  1
  O2-  O125  1  0.24309120  0.50236219  0.72477929  1
  O2-  O126  1  0.75173692  -0.01065919  0.05697051  1
  O2-  O127  1  0.75440233  -0.00407417  0.39858479  1
  O2-  O128  1  0.74873390  -0.00868189  0.72875239  1
  O2-  O129  1  0.75344896  0.50650650  0.05686621  1
  O2-  O130  1  0.74921309  0.50131069  0.39852072  1
  O2-  O131  1  0.74834173  0.50224366  0.72332691  1
  O2-  O132  1  -0.00183007  0.23850485  0.27266734  1
  O2-  O133  1  -0.00612702  0.25147557  0.60677993  1
  O2-  O134  1  0.00173372  0.24364919  0.94060450  1
  O2-  O135  1  -0.00107031  0.73942352  0.27474385  1
  O2-  O136  1  -0.00498388  0.74312743  0.60057482  1
  O2-  O137  1  -0.00264461  0.74850628  0.93702869  1
  O2-  O138  1  0.50665652  0.25117091  0.27314135  1
  O2-  O139  1  0.49968900  0.24969706  0.61001454  1
  O2-  O140  1  0.49311963  0.25202397  0.93791492  1
  O2-  O141  1  0.50249909  0.75502744  0.26604982  1
  O2-  O142  1  0.50592328  0.75560237  0.60339516  1
  O2-  O143  1  0.49496049  0.75279648  0.94055200  1
  O2-  O144  1  0.08010523  0.18327076  0.08987630  1
  O2-  O145  1  0.07815338  0.18083509  0.42127171  1
  O2-  O146  1  0.07663354  0.18465738  0.76725311  1
  O2-  O147  1  0.07224028  0.68257971  0.10075166  1
  O2-  O148  1  0.07423175  0.67859079  0.42396693  1
  O2-  O149  1  0.07281255  0.68081132  0.76473761  1
  O2-  O150  1  0.56908294  0.18020470  0.09917169  1
  O2-  O151  1  0.56809965  0.18008796  0.42378143  1
  O2-  O152  1  0.57207039  0.17981574  0.75539102  1
  O2-  O153  1  0.57012479  0.67561368  0.09766327  1
  O2-  O154  1  0.56698540  0.67928819  0.42978361  1
  O2-  O155  1  0.56386776  0.67072951  0.76380477  1
  O2-  O156  1  0.18137562  0.42623281  0.24544538  1
  O2-  O157  1  0.18209663  0.42272367  0.57751842  1
  O2-  O158  1  0.17923707  0.42243136  0.91304875  1
  O2-  O159  1  0.18293459  0.92878888  0.24652843  1
  O2-  O160  1  0.18249011  0.93088676  0.57724501  1
  O2-  O161  1  0.18055783  0.92879166  0.91394051  1
  O2-  O162  1  0.67862212  0.42835353  0.23522952  1
  O2-  O163  1  0.67526673  0.42833302  0.57771349  1
  O2-  O164  1  0.68025623  0.43038035  0.89802974  1
  O2-  O165  1  0.67872035  0.93051890  0.23370698  1
  O2-  O166  1  0.67280845  0.93196974  0.57874045  1
  O2-  O167  1  0.67215237  0.93012929  0.90809933  1
  O2-  O168  1  0.42688267  0.32112956  0.08825607  1
  O2-  O169  1  0.42550865  0.31726408  0.43313687  1
  O2-  O170  1  0.42811160  0.31899049  0.75921957  1
  O2-  O171  1  0.42993242  0.82233528  0.09118812  1
  O2-  O172  1  0.42555415  0.81879261  0.42955692  1
  O2-  O173  1  0.42807818  0.82138129  0.76785733  1
  O2-  O174  1  0.92690538  0.31878820  0.09902420  1
  O2-  O175  1  0.93404122  0.31942305  0.43357240  1
  O2-  O176  1  0.92470675  0.32048866  0.75478798  1
  O2-  O177  1  0.92808788  0.82383287  0.09821316  1
  O2-  O178  1  0.93424472  0.82238602  0.43242112  1
  O2-  O179  1  0.93568254  0.82360812  0.76377032  1
  O2-  O180  1  0.31658101  0.07505860  0.24493876  1
  O2-  O181  1  0.31937847  0.07935372  0.57584414  1
  O2-  O182  1  0.32072322  0.06978012  0.90037186  1
  O2-  O183  1  0.31710212  0.57182982  0.24622766  1
  O2-  O184  1  0.31796165  0.56531800  0.57626433  1
  O2-  O185  1  0.31823040  0.56941067  0.90127521  1
  O2-  O186  1  0.81983211  0.07100763  0.23508960  1
  O2-  O187  1  0.81926091  0.07088368  0.56920298  1
  O2-  O188  1  0.81969369  0.07015857  0.89922375  1
  O2-  O189  1  0.82500029  0.56803427  0.23218599  1
  O2-  O190  1  0.82635417  0.56780476  0.57739913  1
  O2-  O191  1  0.82114579  0.57010739  0.90521163  1
  O2-  O192  1  0.05945188  0.08068811  0.27247978  1
  O2-  O193  1  0.04595528  0.08420929  0.59953447  1
  O2-  O194  1  0.05587037  0.08430705  0.94165650  1
  O2-  O195  1  0.05648123  0.57976148  0.27534313  1
  O2-  O196  1  0.05048538  0.57428564  0.60295396  1
  O2-  O197  1  0.05360609  0.57912434  0.93415447  1
  O2-  O198  1  0.54272075  0.08777420  0.27124872  1
  O2-  O199  1  0.54604390  0.08900567  0.60135982  1
  O2-  O200  1  0.53760063  0.08331136  0.93017205  1
  O2-  O201  1  0.53770271  0.58266811  0.26532603  1
  O2-  O202  1  0.53376145  0.57996094  0.59612782  1
  O2-  O203  1  0.53329599  0.58085601  0.93216743  1
  O2-  O204  1  0.16370212  0.21106819  0.26757857  1
  O2-  O205  1  0.16618896  0.21471790  0.59736744  1
  O2-  O206  1  0.16666832  0.21086999  0.93643866  1
  O2-  O207  1  0.16387588  0.70884075  0.27267920  1
  O2-  O208  1  0.16780595  0.70793583  0.59795854  1
  O2-  O209  1  0.16975010  0.71309559  0.93470417  1
  O2-  O210  1  0.66687411  0.20239912  0.27410527  1
  O2-  O211  1  0.66267837  0.21149145  0.60263115  1
  O2-  O212  1  0.66271834  0.21305628  0.92812335  1
  O2-  O213  1  0.67099606  0.70384984  0.26377700  1
  O2-  O214  1  0.67222654  0.69303073  0.60136777  1
  O2-  O215  1  0.66403949  0.70434218  0.92597897  1
  O2-  O216  1  0.07934374  0.44963310  0.06149375  1
  O2-  O217  1  0.08900183  0.45178042  0.39966625  1
  O2-  O218  1  0.08332301  0.44563367  0.72811148  1
  O2-  O219  1  0.08713980  0.95737347  0.06782217  1
  O2-  O220  1  0.09194238  0.95673419  0.40060277  1
  O2-  O221  1  0.09294252  0.96233774  0.73125132  1
  O2-  O222  1  0.58196606  0.45661821  0.06488694  1
  O2-  O223  1  0.57702175  0.45690590  0.40101521  1
  O2-  O224  1  0.58477097  0.45765726  0.72977025  1
  O2-  O225  1  0.58673151  0.95685240  0.06248412  1
  O2-  O226  1  0.58067342  0.96052855  0.40165477  1
  O2-  O227  1  0.58366760  0.95834487  0.73082827  1
  O2-  O228  1  0.20425065  0.33671726  0.06859305  1
  O2-  O229  1  0.21256760  0.33668398  0.39820033  1
  O2-  O230  1  0.21267251  0.33765093  0.73271091  1
  O2-  O231  1  0.20426503  0.83707392  0.06845541  1
  O2-  O232  1  0.21119414  0.83680759  0.39976598  1
  O2-  O233  1  0.20839014  0.83729006  0.72998897  1
  O2-  O234  1  0.71061987  0.33386616  0.06440791  1
  O2-  O235  1  0.70459388  0.33151331  0.40349911  1
  O2-  O236  1  0.70554463  0.33864206  0.73010413  1
  O2-  O237  1  0.69888171  0.82959490  0.05444415  1
  O2-  O238  1  0.70263868  0.82868054  0.39934559  1
  O2-  O239  1  0.69488582  0.82971022  0.72534220  1
  O2-  O240  1  0.45101895  0.41979829  0.26718425  1
  O2-  O241  1  0.45559973  0.41048980  0.60600232  1
  O2-  O242  1  0.45302205  0.41460285  0.93619008  1
  O2-  O243  1  0.44809834  0.92594410  0.26936760  1
  O2-  O244  1  0.45045653  0.92399558  0.60142244  1
  O2-  O245  1  0.45311756  0.91594685  0.93969165  1
  O2-  O246  1  0.96590926  0.41290462  0.26584628  1
  O2-  O247  1  0.95232748  0.41360359  0.60360544  1
  O2-  O248  1  0.95751505  0.41425048  0.92848723  1
  O2-  O249  1  0.96821506  0.91505984  0.26569758  1
  O2-  O250  1  0.96665108  0.91743565  0.59794659  1
  O2-  O251  1  0.96311763  0.92233117  0.93415297  1
  O2-  O252  1  0.33394693  0.28737443  0.26321982  1
  O2-  O253  1  0.33791808  0.29098772  0.60559287  1
  O2-  O254  1  0.33135872  0.29797029  0.93878442  1
  O2-  O255  1  0.33023847  0.79140977  0.26337220  1
  O2-  O256  1  0.33322169  0.79144532  0.60065527  1
  O2-  O257  1  0.33342780  0.79874906  0.94288164  1
  O2-  O258  1  0.83036873  0.29149076  0.26897347  1
  O2-  O259  1  0.83133112  0.29505717  0.60376312  1
  O2-  O260  1  0.83224524  0.28735031  0.92919576  1
  O2-  O261  1  0.83250799  0.79579795  0.26583029  1
  O2-  O262  1  0.82860130  0.80074949  0.60137540  1
  O2-  O263  1  0.83028664  0.80124917  0.92684751  1
  O2-  O264  1  0.41906614  0.04280121  0.06927311  1
  O2-  O265  1  0.41334733  0.05218405  0.39667586  1
  O2-  O266  1  0.41721502  0.05235186  0.72539234  1
  O2-  O267  1  0.41215615  0.53655198  0.07102522  1
  O2-  O268  1  0.40995547  0.54229119  0.39902295  1
  O2-  O269  1  0.40802322  0.53661815  0.72919187  1
  O2-  O270  1  0.92067873  0.04978055  0.06620648  1
  O2-  O271  1  0.92581194  0.04502259  0.39730241  1
  O2-  O272  1  0.92050439  0.04201086  0.73320403  1
  O2-  O273  1  0.91717871  0.54865491  0.05473378  1
  O2-  O274  1  0.92126005  0.53879437  0.40047166  1
  O2-  O275  1  0.91338600  0.54052796  0.73120816  1
  O2-  O276  1  0.29155004  0.16814498  0.06865719  1
  O2-  O277  1  0.28801149  0.16416959  0.39762830  1
  O2-  O278  1  0.28923980  0.16337753  0.73046780  1
  O2-  O279  1  0.29013227  0.66822788  0.07121415  1
  O2-  O280  1  0.29034610  0.66342841  0.39871615  1
  O2-  O281  1  0.29275613  0.66237187  0.72751526  1
  O2-  O282  1  0.78248131  0.16409466  0.06445019  1
  O2-  O283  1  0.79397781  0.16706391  0.40392550  1
  O2-  O284  1  0.78708478  0.16609893  0.73444788  1
  O2-  O285  1  0.79783241  0.66944485  0.05212879  1
  O2-  O286  1  0.79718879  0.66944652  0.39854822  1
  O2-  O287  1  0.79903760  0.66516210  0.72741356  1
