# generated using pymatgen
data_Ca2Al2SiO7
_symmetry_space_group_name_H-M   'P 1'
_cell_length_a   15.45495112
_cell_length_b   15.45519886
_cell_length_c   15.28146995
_cell_angle_alpha   89.98598294
_cell_angle_beta   90.00176279
_cell_angle_gamma   90.00213279
_symmetry_Int_Tables_number   1
_chemical_formula_structural   Ca2Al2SiO7
_chemical_formula_sum   'Ca48 Al48 Si24 O168'
_cell_volume   3650.12175745
_cell_formula_units_Z   24
loop_
 _symmetry_equiv_pos_site_id
 _symmetry_equiv_pos_as_xyz
  1  'x, y, z'
loop_
 _atom_type_symbol
 _atom_type_oxidation_number
  Ca2+  2.0
  Al0+  0.0
  Si0+  0.0
  O2-  -2.0
loop_
 _atom_site_type_symbol
 _atom_site_label
 _atom_site_symmetry_multiplicity
 _atom_site_fract_x
 _atom_site_fract_y
 _atom_site_fract_z
 _atom_site_occupancy
  Ca2+  Ca0  1  0.18126260  0.08463091  0.17404507  1
  Ca2+  Ca1  1  0.17590965  0.08184066  0.51140545  1
  Ca2+  Ca2  1  0.17373928  0.08398853  0.83510611  1
  Ca2+  Ca3  1  0.16461911  0.57819085  0.17518992  1
  Ca2+  Ca4  1  0.15996525  0.57625009  0.50691973  1
  Ca2+  Ca5  1  0.16688225  0.58255729  0.82894963  1
  Ca2+  Ca6  1  0.66565711  0.07836500  0.17861742  1
  Ca2+  Ca7  1  0.66806128  0.08411261  0.49773439  1
  Ca2+  Ca8  1  0.66067151  0.08542483  0.83662922  1
  Ca2+  Ca9  1  0.67500371  0.59088209  0.17306201  1
  Ca2+  Ca10  1  0.67918119  0.59053017  0.50202065  1
  Ca2+  Ca11  1  0.67798088  0.58529792  0.84115417  1
  Ca2+  Ca12  1  0.07332918  0.33775143  0.16790114  1
  Ca2+  Ca13  1  0.08424304  0.33486802  0.49586282  1
  Ca2+  Ca14  1  0.08114182  0.33160504  0.82806199  1
  Ca2+  Ca15  1  0.07794585  0.83019065  0.16861710  1
  Ca2+  Ca16  1  0.08333211  0.82276728  0.49439129  1
  Ca2+  Ca17  1  0.08370999  0.82914922  0.82207425  1
  Ca2+  Ca18  1  0.58767311  0.31852946  0.16327472  1
  Ca2+  Ca19  1  0.58051087  0.32305640  0.49465246  1
  Ca2+  Ca20  1  0.58283397  0.32076195  0.82716120  1
  Ca2+  Ca21  1  0.58512982  0.82647575  0.16486817  1
  Ca2+  Ca22  1  0.58286025  0.82941905  0.49112553  1
  Ca2+  Ca23  1  0.57558531  0.83036594  0.83615868  1
  Ca2+  Ca24  1  0.32379479  0.41553009  0.17527250  1
  Ca2+  Ca25  1  0.32057903  0.42304384  0.50753739  1
  Ca2+  Ca26  1  0.32793302  0.41755955  0.83105015  1
  Ca2+  Ca27  1  0.34221196  0.92418933  0.16825200  1
  Ca2+  Ca28  1  0.32729317  0.92511689  0.50569149  1
  Ca2+  Ca29  1  0.33045839  0.92257552  0.83559934  1
  Ca2+  Ca30  1  0.83889522  0.42443846  0.17255287  1
  Ca2+  Ca31  1  0.83968198  0.42713573  0.50023069  1
  Ca2+  Ca32  1  0.83929766  0.42745284  0.83796651  1
  Ca2+  Ca33  1  0.82627317  0.92225629  0.18113917  1
  Ca2+  Ca34  1  0.83040413  0.91424681  0.49599386  1
  Ca2+  Ca35  1  0.83113905  0.92044264  0.83714677  1
  Ca2+  Ca36  1  0.42510356  0.15716652  0.16381218  1
  Ca2+  Ca37  1  0.42205370  0.15725386  0.49634538  1
  Ca2+  Ca38  1  0.42262345  0.15705994  0.82932915  1
  Ca2+  Ca39  1  0.43170215  0.67192982  0.15681305  1
  Ca2+  Ca40  1  0.41968692  0.66603179  0.49274534  1
  Ca2+  Ca41  1  0.41543109  0.66948471  0.82779953  1
  Ca2+  Ca42  1  0.90668354  0.18083649  0.16460702  1
  Ca2+  Ca43  1  0.92394703  0.17146864  0.49086665  1
  Ca2+  Ca44  1  0.92198138  0.17720644  0.82489061  1
  Ca2+  Ca45  1  0.91579489  0.66577716  0.16927013  1
  Ca2+  Ca46  1  0.92374051  0.66604888  0.49143716  1
  Ca2+  Ca47  1  0.91879714  0.66389369  0.82715432  1
  Al0+  Al48  1  0.00096662  -0.00046856  0.00142090  1
  Al0+  Al49  1  0.00168106  -0.00026931  0.33164909  1
  Al0+  Al50  1  -0.00232311  0.00186314  0.66619413  1
  Al0+  Al51  1  -0.00086254  0.50033238  0.00000960  1
  Al0+  Al52  1  0.00027499  0.49885403  0.33341459  1
  Al0+  Al53  1  -0.00096556  0.50175500  0.67197782  1
  Al0+  Al54  1  0.49970142  -0.00233158  -0.00409399  1
  Al0+  Al55  1  0.50056266  -0.00123182  0.33864704  1
  Al0+  Al56  1  0.50084027  -0.00241983  0.66511007  1
  Al0+  Al57  1  0.50148779  0.49728415  -0.00308032  1
  Al0+  Al58  1  0.50014031  0.49854196  0.32751455  1
  Al0+  Al59  1  0.50135178  0.49841589  0.66903186  1
  Al0+  Al60  1  0.25026181  0.24903794  0.00658237  1
  Al0+  Al61  1  0.25033712  0.25105332  0.34215370  1
  Al0+  Al62  1  0.25090068  0.25122623  0.67199718  1
  Al0+  Al63  1  0.24901430  0.74975094  -0.00172423  1
  Al0+  Al64  1  0.25095134  0.75094364  0.32661594  1
  Al0+  Al65  1  0.24904364  0.75059418  0.66751463  1
  Al0+  Al66  1  0.75046788  0.25265663  -0.01151604  1
  Al0+  Al67  1  0.74977393  0.25023073  0.32980789  1
  Al0+  Al68  1  0.74880948  0.25031750  0.66124403  1
  Al0+  Al69  1  0.75173941  0.75086049  -0.00025629  1
  Al0+  Al70  1  0.75020005  0.75111549  0.33504369  1
  Al0+  Al71  1  0.74858804  0.75166557  0.67307865  1
  Al0+  Al72  1  0.56949066  0.17743475  0.64944767  1
  Al0+  Al73  1  0.17782366  0.42940089  0.68414491  1
  Al0+  Al74  1  0.93073676  0.32152145  0.98436414  1
  Al0+  Al75  1  0.82001690  0.57038246  0.01674997  1
  Al0+  Al76  1  0.32225381  0.06997382  0.68308916  1
  Al0+  Al77  1  0.67999544  0.92928455  0.34903382  1
  Al0+  Al78  1  0.81865542  0.56963156  0.34692351  1
  Al0+  Al79  1  0.07124171  0.67766318  0.31739631  1
  Al0+  Al80  1  0.06938411  0.68087380  0.65387580  1
  Al0+  Al81  1  0.57126772  0.67742026  0.32152061  1
  Al0+  Al82  1  0.42858789  0.81917769  0.98331875  1
  Al0+  Al83  1  0.32051983  0.06818066  0.01523387  1
  Al0+  Al84  1  0.82311583  0.07464047  0.34730541  1
  Al0+  Al85  1  0.07226450  0.17939974  0.65411872  1
  Al0+  Al86  1  0.57390430  0.67721712  0.98306284  1
  Al0+  Al87  1  0.93036597  0.31928241  0.32083818  1
  Al0+  Al88  1  0.56891844  0.17964553  0.98615927  1
  Al0+  Al89  1  0.32032795  0.06926422  0.34851840  1
  Al0+  Al90  1  0.81876887  0.57089720  0.68100478  1
  Al0+  Al91  1  0.56841278  0.17919280  0.32007266  1
  Al0+  Al92  1  0.17925073  0.43191627  0.34717283  1
  Al0+  Al93  1  0.32353712  0.57210777  0.68060043  1
  Al0+  Al94  1  0.17599246  0.92942358  0.68042826  1
  Al0+  Al95  1  0.92889737  0.82219300  0.31857515  1
  Si0+  Si96  1  0.17590030  0.92510468  0.01913535  1
  Si0+  Si97  1  0.67538394  0.42629120  0.34875162  1
  Si0+  Si98  1  0.18008121  0.43041553  0.01636552  1
  Si0+  Si99  1  0.92438202  0.82389525  0.65094430  1
  Si0+  Si100  1  0.67752514  0.42570913  0.01617376  1
  Si0+  Si101  1  0.42812386  0.32373792  0.64945459  1
  Si0+  Si102  1  0.07347553  0.17748533  0.98554139  1
  Si0+  Si103  1  0.42922961  0.81874623  0.65031015  1
  Si0+  Si104  1  0.06971670  0.67925847  0.98402532  1
  Si0+  Si105  1  0.92928211  0.32255930  0.64889074  1
  Si0+  Si106  1  0.42866896  0.82178452  0.31753315  1
  Si0+  Si107  1  0.42596105  0.32155461  0.31713772  1
  Si0+  Si108  1  0.68101993  0.93167844  0.01393667  1
  Si0+  Si109  1  0.32410995  0.57368605  0.34557857  1
  Si0+  Si110  1  0.42398656  0.32206834  0.98348451  1
  Si0+  Si111  1  0.81975659  0.07336669  0.68177543  1
  Si0+  Si112  1  0.17713471  0.92558403  0.34920223  1
  Si0+  Si113  1  0.07531729  0.17737802  0.31745423  1
  Si0+  Si114  1  0.67925722  0.92950273  0.68464635  1
  Si0+  Si115  1  0.82225755  0.07362490  0.01167024  1
  Si0+  Si116  1  0.92962278  0.82303720  0.98450316  1
  Si0+  Si117  1  0.57211414  0.67806037  0.65278387  1
  Si0+  Si118  1  0.67820271  0.42579912  0.68335706  1
  Si0+  Si119  1  0.32249701  0.57249005  0.01513709  1
  O2-  O120  1  0.24497888  -0.00601966  0.06237501  1
  O2-  O121  1  0.24224972  -0.00249684  0.39318359  1
  O2-  O122  1  0.24598499  0.00218013  0.73270432  1
  O2-  O123  1  0.25355365  0.49958843  0.05793341  1
  O2-  O124  1  0.25320177  0.50866564  0.39115181  1
  O2-  O125  1  0.25113029  0.50136900  0.73289782  1
  O2-  O126  1  0.75092935  0.00409383  0.05507283  1
  O2-  O127  1  0.75291232  0.00121276  0.39843197  1
  O2-  O128  1  0.74917245  0.00241079  0.72582172  1
  O2-  O129  1  0.74151702  0.49826919  0.06144799  1
  O2-  O130  1  0.74170773  0.49690357  0.39374871  1
  O2-  O131  1  0.74489791  0.49588411  0.72848600  1
  O2-  O132  1  0.00162636  0.24077021  0.27287404  1
  O2-  O133  1  -0.00092654  0.25482647  0.60596599  1
  O2-  O134  1  0.00341558  0.24395482  0.94003443  1
  O2-  O135  1  0.00008606  0.75021001  0.26651454  1
  O2-  O136  1  -0.00442685  0.75705930  0.60866447  1
  O2-  O137  1  0.00139915  0.75320891  0.94234646  1
  O2-  O138  1  0.49413681  0.25316013  0.27146535  1
  O2-  O139  1  0.49275232  0.25109433  0.60499475  1
  O2-  O140  1  0.49361947  0.25397084  0.93962048  1
  O2-  O141  1  0.49394739  0.74924599  0.27473465  1
  O2-  O142  1  0.49701615  0.74376972  0.60942560  1
  O2-  O143  1  0.49629043  0.74290940  0.93233354  1
  O2-  O144  1  0.07415264  0.17865419  0.09107820  1
  O2-  O145  1  0.07612957  0.18038141  0.42302435  1
  O2-  O146  1  0.06744408  0.17992080  0.76780134  1
  O2-  O147  1  0.06935108  0.67818454  0.08891242  1
  O2-  O148  1  0.07089266  0.67779378  0.43086801  1
  O2-  O149  1  0.06646364  0.68166482  0.76772400  1
  O2-  O150  1  0.56983210  0.17838080  0.09912963  1
  O2-  O151  1  0.56712721  0.18058219  0.43295146  1
  O2-  O152  1  0.56977352  0.17889195  0.76294116  1
  O2-  O153  1  0.57457447  0.68169666  0.09661568  1
  O2-  O154  1  0.56923824  0.67892066  0.43528653  1
  O2-  O155  1  0.57365138  0.68184492  0.75759746  1
  O2-  O156  1  0.18072306  0.43160058  0.23322611  1
  O2-  O157  1  0.17730436  0.43187666  0.57075386  1
  O2-  O158  1  0.17982140  0.43037410  0.91165270  1
  O2-  O159  1  0.17907278  0.92560210  0.24330546  1
  O2-  O160  1  0.17928458  0.92840875  0.56693548  1
  O2-  O161  1  0.17294063  0.92563955  0.91385126  1
  O2-  O162  1  0.67653695  0.42537071  0.24308102  1
  O2-  O163  1  0.67858517  0.42563902  0.57785112  1
  O2-  O164  1  0.68049209  0.42420490  0.91054895  1
  O2-  O165  1  0.67851490  0.93079711  0.23482720  1
  O2-  O166  1  0.67946074  0.92566556  0.58018606  1
  O2-  O167  1  0.68271260  0.93209237  0.90827039  1
  O2-  O168  1  0.42257560  0.32196536  0.08904246  1
  O2-  O169  1  0.42754106  0.32341422  0.42241935  1
  O2-  O170  1  0.43173350  0.32589728  0.75522014  1
  O2-  O171  1  0.43227698  0.81957218  0.09695536  1
  O2-  O172  1  0.42810709  0.82062171  0.42334962  1
  O2-  O173  1  0.43174902  0.82021288  0.75531550  1
  O2-  O174  1  0.93158106  0.32204959  0.09736411  1
  O2-  O175  1  0.93322781  0.32103579  0.43374207  1
  O2-  O176  1  0.92865725  0.32063847  0.75496819  1
  O2-  O177  1  0.92904487  0.82487079  0.08891171  1
  O2-  O178  1  0.92955165  0.81937965  0.43218124  1
  O2-  O179  1  0.92271484  0.82283477  0.75726980  1
  O2-  O180  1  0.32175223  0.06752299  0.23494256  1
  O2-  O181  1  0.32320763  0.06558336  0.56960484  1
  O2-  O182  1  0.31928783  0.06782585  0.90265621  1
  O2-  O183  1  0.32430321  0.57017568  0.23960133  1
  O2-  O184  1  0.32645487  0.56995498  0.56700509  1
  O2-  O185  1  0.31966293  0.57300483  0.91028897  1
  O2-  O186  1  0.81784209  0.07529879  0.23282547  1
  O2-  O187  1  0.81935233  0.07356887  0.57728321  1
  O2-  O188  1  0.82281132  0.06997976  0.90613245  1
  O2-  O189  1  0.81847891  0.56809563  0.23374228  1
  O2-  O190  1  0.81829488  0.57182212  0.56809886  1
  O2-  O191  1  0.82141799  0.56935021  0.90342480  1
  O2-  O192  1  0.05884034  0.08161029  0.27278768  1
  O2-  O193  1  0.03996770  0.08344713  0.59948471  1
  O2-  O194  1  0.05039028  0.08255643  0.94057588  1
  O2-  O195  1  0.04029186  0.58056928  0.26375781  1
  O2-  O196  1  0.03618896  0.58392104  0.60240170  1
  O2-  O197  1  0.03837955  0.58881337  0.93641752  1
  O2-  O198  1  0.53707985  0.08149300  0.26834834  1
  O2-  O199  1  0.54114205  0.07930144  0.59755574  1
  O2-  O200  1  0.53895714  0.08329195  0.93158395  1
  O2-  O201  1  0.54537458  0.58067075  0.26435035  1
  O2-  O202  1  0.55170436  0.58360968  0.60800993  1
  O2-  O203  1  0.55343858  0.57524191  0.93414520  1
  O2-  O204  1  0.16731101  0.21031179  0.27149045  1
  O2-  O205  1  0.17080307  0.20758014  0.60308370  1
  O2-  O206  1  0.16647793  0.20649116  0.94018580  1
  O2-  O207  1  0.17012168  0.70467984  0.26261959  1
  O2-  O208  1  0.16710993  0.70810406  0.60019948  1
  O2-  O209  1  0.16248413  0.70356636  0.93722726  1
  O2-  O210  1  0.66454434  0.20950108  0.26483334  1
  O2-  O211  1  0.66608656  0.20963319  0.59594962  1
  O2-  O212  1  0.66420122  0.21007985  0.92834192  1
  O2-  O213  1  0.66585261  0.71253846  0.26752167  1
  O2-  O214  1  0.66235276  0.71311585  0.60626630  1
  O2-  O215  1  0.67047221  0.71322262  0.93008478  1
  O2-  O216  1  0.08930334  0.46261694  0.06307428  1
  O2-  O217  1  0.08378152  0.46193067  0.40204967  1
  O2-  O218  1  0.08087189  0.45983771  0.73898790  1
  O2-  O219  1  0.08213947  0.95106920  0.06596422  1
  O2-  O220  1  0.08217319  0.94529970  0.39359904  1
  O2-  O221  1  0.07575216  0.95441015  0.73319618  1
  O2-  O222  1  0.58101408  0.44262002  0.06032913  1
  O2-  O223  1  0.58022310  0.44883713  0.39339591  1
  O2-  O224  1  0.58455283  0.44816528  0.73032551  1
  O2-  O225  1  0.58876109  0.95784180  0.05987784  1
  O2-  O226  1  0.58311336  0.95755219  0.40465429  1
  O2-  O227  1  0.58780608  0.95773379  0.73207942  1
  O2-  O228  1  0.20517041  0.33850823  0.06526198  1
  O2-  O229  1  0.21035960  0.33705909  0.40377389  1
  O2-  O230  1  0.20658405  0.33209206  0.73949008  1
  O2-  O231  1  0.20079306  0.83078941  0.06440782  1
  O2-  O232  1  0.20684570  0.83245479  0.39464234  1
  O2-  O233  1  0.20659855  0.83218184  0.73449270  1
  O2-  O234  1  0.70882010  0.33259681  0.06105827  1
  O2-  O235  1  0.70310234  0.33388523  0.39542299  1
  O2-  O236  1  0.70589650  0.33225753  0.72957031  1
  O2-  O237  1  0.71087075  0.84048123  0.06076991  1
  O2-  O238  1  0.70893146  0.83221481  0.40449212  1
  O2-  O239  1  0.70832389  0.83994558  0.73642889  1
  O2-  O240  1  0.44920408  0.41455925  0.26793577  1
  O2-  O241  1  0.45790148  0.41562574  0.60117788  1
  O2-  O242  1  0.44736656  0.41582458  0.93645235  1
  O2-  O243  1  0.46066389  0.91329766  0.27135553  1
  O2-  O244  1  0.46295530  0.90800670  0.60180652  1
  O2-  O245  1  0.46338259  0.91423882  0.92760271  1
  O2-  O246  1  0.96560427  0.41336058  0.26481544  1
  O2-  O247  1  0.95481751  0.41713600  0.60611291  1
  O2-  O248  1  0.96552023  0.41694685  0.93033648  1
  O2-  O249  1  0.95585203  0.92113338  0.26343625  1
  O2-  O250  1  0.94461827  0.91878282  0.60645544  1
  O2-  O251  1  0.95554216  0.91568128  0.93601596  1
  O2-  O252  1  0.33185130  0.29485134  0.27231798  1
  O2-  O253  1  0.33226354  0.30306771  0.60714682  1
  O2-  O254  1  0.33032970  0.29514698  0.93808511  1
  O2-  O255  1  0.33506651  0.80295267  0.26862008  1
  O2-  O256  1  0.33684537  0.79481411  0.60304745  1
  O2-  O257  1  0.32807666  0.79506518  0.93208906  1
  O2-  O258  1  0.83350658  0.29255291  0.26439491  1
  O2-  O259  1  0.83590455  0.29657815  0.60323204  1
  O2-  O260  1  0.83586673  0.29333980  0.92580904  1
  O2-  O261  1  0.83048246  0.79377194  0.26587628  1
  O2-  O262  1  0.83085397  0.79505706  0.60652958  1
  O2-  O263  1  0.83854893  0.79502278  0.93565690  1
  O2-  O264  1  0.41768559  0.03397194  0.06700856  1
  O2-  O265  1  0.41450723  0.03475820  0.40353968  1
  O2-  O266  1  0.41979681  0.03464537  0.73464968  1
  O2-  O267  1  0.41657053  0.54705669  0.05959486  1
  O2-  O268  1  0.41740074  0.54637789  0.39161924  1
  O2-  O269  1  0.42196494  0.54362333  0.73532537  1
  O2-  O270  1  0.91415406  0.04750119  0.05930853  1
  O2-  O271  1  0.92375784  0.04929848  0.39725821  1
  O2-  O272  1  0.91070390  0.04635980  0.73137160  1
  O2-  O273  1  0.91651236  0.53624171  0.06911892  1
  O2-  O274  1  0.91444155  0.53579018  0.39987702  1
  O2-  O275  1  0.91373477  0.53983758  0.73756152  1
  O2-  O276  1  0.29175724  0.16523029  0.07076459  1
  O2-  O277  1  0.29378186  0.16628865  0.40297811  1
  O2-  O278  1  0.30083402  0.17033708  0.73432269  1
  O2-  O279  1  0.29295738  0.66371294  0.06281165  1
  O2-  O280  1  0.30348935  0.66963395  0.38832406  1
  O2-  O281  1  0.29466139  0.67004624  0.73382324  1
  O2-  O282  1  0.79479368  0.16752259  0.05398313  1
  O2-  O283  1  0.79262965  0.17216430  0.40076396  1
  O2-  O284  1  0.79094272  0.16553431  0.72877567  1
  O2-  O285  1  0.79259356  0.66959888  0.06761903  1
  O2-  O286  1  0.78907968  0.66582001  0.40129147  1
  O2-  O287  1  0.78756751  0.66711888  0.73686654  1
