# generated using pymatgen
data_Ca2Al2SiO7
_symmetry_space_group_name_H-M   'P 1'
_cell_length_a   15.45471202
_cell_length_b   15.45426427
_cell_length_c   15.28066874
_cell_angle_alpha   90.00093099
_cell_angle_beta   90.01073570
_cell_angle_gamma   90.00025949
_symmetry_Int_Tables_number   1
_chemical_formula_structural   Ca2Al2SiO7
_chemical_formula_sum   'Ca48 Al48 Si24 O168'
_cell_volume   3649.65325374
_cell_formula_units_Z   24
loop_
 _symmetry_equiv_pos_site_id
 _symmetry_equiv_pos_as_xyz
  1  'x, y, z'
loop_
 _atom_type_symbol
 _atom_type_oxidation_number
  Ca2+  2.0
  Al0+  0.0
  Si0+  0.0
  O2-  -2.0
loop_
 _atom_site_type_symbol
 _atom_site_label
 _atom_site_symmetry_multiplicity
 _atom_site_fract_x
 _atom_site_fract_y
 _atom_site_fract_z
 _atom_site_occupancy
  Ca2+  Ca0  1  0.16314136  0.08055844  0.16608842  1
  Ca2+  Ca1  1  0.17435747  0.08041554  0.50938817  1
  Ca2+  Ca2  1  0.17016744  0.07461982  0.83909082  1
  Ca2+  Ca3  1  0.16978505  0.57742677  0.17281122  1
  Ca2+  Ca4  1  0.17861759  0.57868391  0.50174159  1
  Ca2+  Ca5  1  0.17188493  0.58332883  0.84212503  1
  Ca2+  Ca6  1  0.66816360  0.08198595  0.17667229  1
  Ca2+  Ca7  1  0.66493440  0.07645907  0.50164361  1
  Ca2+  Ca8  1  0.65971423  0.07930550  0.83527251  1
  Ca2+  Ca9  1  0.65850176  0.57229396  0.16952297  1
  Ca2+  Ca10  1  0.66068501  0.57535884  0.50373250  1
  Ca2+  Ca11  1  0.66331652  0.58251577  0.83972781  1
  Ca2+  Ca12  1  0.08110910  0.33536203  0.16079886  1
  Ca2+  Ca13  1  0.07865205  0.33394455  0.48991130  1
  Ca2+  Ca14  1  0.09095264  0.32893067  0.83528149  1
  Ca2+  Ca15  1  0.07921601  0.82942363  0.15857294  1
  Ca2+  Ca16  1  0.07257627  0.84190582  0.49689079  1
  Ca2+  Ca17  1  0.08329268  0.83559821  0.82992966  1
  Ca2+  Ca18  1  0.58636944  0.32789484  0.16419295  1
  Ca2+  Ca19  1  0.57926613  0.32133935  0.48875888  1
  Ca2+  Ca20  1  0.58889503  0.32234076  0.82997649  1
  Ca2+  Ca21  1  0.57770331  0.82917471  0.15834351  1
  Ca2+  Ca22  1  0.59174372  0.82917753  0.49705907  1
  Ca2+  Ca23  1  0.58012061  0.82470343  0.82675254  1
  Ca2+  Ca24  1  0.32451681  0.41876548  0.17735385  1
  Ca2+  Ca25  1  0.33943572  0.42338140  0.49880397  1
  Ca2+  Ca26  1  0.33139789  0.42409207  0.83812472  1
  Ca2+  Ca27  1  0.32993087  0.91177017  0.16590558  1
  Ca2+  Ca28  1  0.32631137  0.92465378  0.51111487  1
  Ca2+  Ca29  1  0.32862937  0.91805245  0.83701843  1
  Ca2+  Ca30  1  0.82350383  0.41334052  0.17332745  1
  Ca2+  Ca31  1  0.82818644  0.41073474  0.49733617  1
  Ca2+  Ca32  1  0.82570933  0.42027833  0.84156319  1
  Ca2+  Ca33  1  0.82689128  0.92339614  0.17833201  1
  Ca2+  Ca34  1  0.82750571  0.91667203  0.50161160  1
  Ca2+  Ca35  1  0.82913213  0.91190222  0.83105794  1
  Ca2+  Ca36  1  0.42836119  0.17168673  0.16372060  1
  Ca2+  Ca37  1  0.42460635  0.16575148  0.49338589  1
  Ca2+  Ca38  1  0.42460013  0.16527267  0.82789098  1
  Ca2+  Ca39  1  0.41802717  0.67092897  0.16042887  1
  Ca2+  Ca40  1  0.41599597  0.66188160  0.49961910  1
  Ca2+  Ca41  1  0.42316590  0.66802088  0.83063206  1
  Ca2+  Ca42  1  0.91708928  0.17063543  0.16622975  1
  Ca2+  Ca43  1  0.91784181  0.16877128  0.49060673  1
  Ca2+  Ca44  1  0.92392137  0.16542573  0.83415142  1
  Ca2+  Ca45  1  0.92118759  0.67225827  0.16330485  1
  Ca2+  Ca46  1  0.91593441  0.68046196  0.49506237  1
  Ca2+  Ca47  1  0.92618517  0.67067889  0.82763521  1
  Al0+  Al48  1  0.00021975  0.00253853  0.00036591  1
  Al0+  Al49  1  -0.00208280  -0.00009045  0.33173896  1
  Al0+  Al50  1  -0.00118057  0.00146615  0.66593583  1
  Al0+  Al51  1  -0.00122211  0.50236461  -0.00098920  1
  Al0+  Al52  1  0.00022475  0.50005588  0.33357646  1
  Al0+  Al53  1  -0.00083476  0.50037616  0.66557235  1
  Al0+  Al54  1  0.49877376  0.00122855  -0.00640098  1
  Al0+  Al55  1  0.49939041  -0.00263683  0.33238442  1
  Al0+  Al56  1  0.50079470  -0.00132677  0.67040716  1
  Al0+  Al57  1  0.50020313  0.49998155  0.00153439  1
  Al0+  Al58  1  0.49950133  0.49915229  0.33756530  1
  Al0+  Al59  1  0.49928912  0.49892539  0.66884646  1
  Al0+  Al60  1  0.25023953  0.25000071  -0.00013119  1
  Al0+  Al61  1  0.25073800  0.24903874  0.33370208  1
  Al0+  Al62  1  0.25045780  0.25082606  0.66923651  1
  Al0+  Al63  1  0.24838166  0.75223354  -0.00305641  1
  Al0+  Al64  1  0.25026397  0.74897948  0.33846366  1
  Al0+  Al65  1  0.25038527  0.74721033  0.67352189  1
  Al0+  Al66  1  0.74992152  0.25073914  -0.00135091  1
  Al0+  Al67  1  0.75316657  0.24895984  0.33422868  1
  Al0+  Al68  1  0.75039878  0.24854810  0.66338855  1
  Al0+  Al69  1  0.75019302  0.75109002  -0.00168780  1
  Al0+  Al70  1  0.75039159  0.74975810  0.32897062  1
  Al0+  Al71  1  0.75137179  0.74923553  0.66287782  1
  Al0+  Al72  1  0.32183220  0.56884391  0.68406926  1
  Al0+  Al73  1  0.93138457  0.82077695  0.65230173  1
  Al0+  Al74  1  0.17904273  0.42887911  0.01360052  1
  Al0+  Al75  1  0.68118483  0.92749727  0.68152333  1
  Al0+  Al76  1  0.42880027  0.32228402  0.31787523  1
  Al0+  Al77  1  0.57227697  0.18115442  0.98525821  1
  Al0+  Al78  1  0.57126050  0.17741563  0.31814863  1
  Al0+  Al79  1  0.68016566  0.42910800  0.34809416  1
  Al0+  Al80  1  0.32138041  0.57181000  0.34852676  1
  Al0+  Al81  1  0.17751859  0.42657259  0.34861723  1
  Al0+  Al82  1  0.17667275  0.92999570  0.68169250  1
  Al0+  Al83  1  0.67957500  0.42956493  0.01338355  1
  Al0+  Al84  1  0.42785186  0.82178663  0.98345447  1
  Al0+  Al85  1  0.82153733  0.07085945  0.34860740  1
  Al0+  Al86  1  0.93050276  0.32204364  0.31930682  1
  Al0+  Al87  1  0.92831194  0.82174343  0.31743195  1
  Al0+  Al88  1  0.57031915  0.67849968  0.65119981  1
  Al0+  Al89  1  0.57151895  0.67785808  0.98587386  1
  Al0+  Al90  1  0.06945902  0.67898211  0.98710989  1
  Al0+  Al91  1  0.57074839  0.17692545  0.65095105  1
  Al0+  Al92  1  0.07156622  0.17991478  0.98635621  1
  Al0+  Al93  1  0.67695800  0.92723412  0.34670550  1
  Al0+  Al94  1  0.32258605  0.07268408  0.68280241  1
  Al0+  Al95  1  0.17889697  0.92997898  0.01556334  1
  Si0+  Si96  1  0.82261698  0.57290604  0.34994687  1
  Si0+  Si97  1  0.68064941  0.42782100  0.68097553  1
  Si0+  Si98  1  0.82215089  0.57453282  0.01670295  1
  Si0+  Si99  1  0.07104874  0.18095375  0.65240095  1
  Si0+  Si100  1  0.92795505  0.32229118  0.98290504  1
  Si0+  Si101  1  0.07354047  0.17737124  0.31734654  1
  Si0+  Si102  1  0.92883079  0.32242648  0.65212275  1
  Si0+  Si103  1  0.42720104  0.32227939  0.98333506  1
  Si0+  Si104  1  0.17861938  0.92881741  0.34691792  1
  Si0+  Si105  1  0.82048475  0.07084013  0.01412782  1
  Si0+  Si106  1  0.42762472  0.32145126  0.65049932  1
  Si0+  Si107  1  0.82139038  0.07410237  0.68537537  1
  Si0+  Si108  1  0.57080700  0.67832468  0.31932955  1
  Si0+  Si109  1  0.42658811  0.82055293  0.32072627  1
  Si0+  Si110  1  0.67788491  0.92916645  0.01327707  1
  Si0+  Si111  1  0.92832067  0.82420423  0.98301349  1
  Si0+  Si112  1  0.32341957  0.07212475  0.01882025  1
  Si0+  Si113  1  0.42716919  0.82027766  0.64948303  1
  Si0+  Si114  1  0.82110415  0.57090542  0.68069722  1
  Si0+  Si115  1  0.07301084  0.68034658  0.31810544  1
  Si0+  Si116  1  0.32132783  0.06994772  0.34601654  1
  Si0+  Si117  1  0.32138489  0.57261430  0.01693829  1
  Si0+  Si118  1  0.07403812  0.67572504  0.64835011  1
  Si0+  Si119  1  0.17446819  0.42902173  0.68454461  1
  O2-  O120  1  0.25464405  0.00328516  0.06356738  1
  O2-  O121  1  0.24828291  0.00093715  0.38846820  1
  O2-  O122  1  0.25064979  -0.00007198  0.73191404  1
  O2-  O123  1  0.25334476  0.50326026  0.06085975  1
  O2-  O124  1  0.25158723  0.49661934  0.39788476  1
  O2-  O125  1  0.24314865  0.49733426  0.72888043  1
  O2-  O126  1  0.74862313  0.00024674  0.05538154  1
  O2-  O127  1  0.74822762  -0.00028241  0.39734281  1
  O2-  O128  1  0.75262937  0.00546218  0.72959092  1
  O2-  O129  1  0.75126749  0.50766265  0.05997727  1
  O2-  O130  1  0.75430879  0.50450542  0.39583525  1
  O2-  O131  1  0.75040463  0.49989171  0.72355404  1
  O2-  O132  1  0.00810862  0.24967062  0.27399477  1
  O2-  O133  1  0.00201726  0.25353710  0.61058685  1
  O2-  O134  1  0.00012315  0.25760437  0.93799978  1
  O2-  O135  1  0.00413794  0.74793680  0.27217740  1
  O2-  O136  1  0.00980384  0.74926618  0.60519398  1
  O2-  O137  1  -0.00412777  0.75438010  0.93924144  1
  O2-  O138  1  0.50235993  0.25220605  0.26739499  1
  O2-  O139  1  0.49285310  0.24929080  0.60664879  1
  O2-  O140  1  0.49783076  0.25605886  0.93819276  1
  O2-  O141  1  0.49944729  0.75040455  0.27962670  1
  O2-  O142  1  0.49637894  0.75333625  0.60282474  1
  O2-  O143  1  0.50083841  0.75001572  0.93466196  1
  O2-  O144  1  0.06750904  0.17870532  0.09914069  1
  O2-  O145  1  0.07269287  0.17580970  0.42343447  1
  O2-  O146  1  0.06972420  0.18124351  0.75754512  1
  O2-  O147  1  0.06728230  0.67969420  0.10037336  1
  O2-  O148  1  0.07335335  0.68341377  0.42375522  1
  O2-  O149  1  0.06943111  0.67125594  0.75395289  1
  O2-  O150  1  0.57367324  0.18048929  0.09789826  1
  O2-  O151  1  0.56719459  0.17587457  0.43176932  1
  O2-  O152  1  0.57339989  0.18210567  0.76433728  1
  O2-  O153  1  0.57043339  0.67907684  0.09991676  1
  O2-  O154  1  0.57179225  0.67853133  0.42454902  1
  O2-  O155  1  0.57045104  0.67811676  0.76400617  1
  O2-  O156  1  0.17677199  0.42994416  0.23491977  1
  O2-  O157  1  0.17092531  0.42950470  0.57937178  1
  O2-  O158  1  0.18181560  0.43031895  0.90010051  1
  O2-  O159  1  0.17997432  0.92720499  0.24179816  1
  O2-  O160  1  0.17641522  0.93451643  0.56718995  1
  O2-  O161  1  0.17730335  0.93268505  0.90301902  1
  O2-  O162  1  0.68066964  0.43100869  0.23493916  1
  O2-  O163  1  0.68254846  0.42760668  0.57599590  1
  O2-  O164  1  0.68369107  0.42794405  0.89964578  1
  O2-  O165  1  0.67697850  0.92721919  0.23245969  1
  O2-  O166  1  0.68410193  0.92655126  0.56884727  1
  O2-  O167  1  0.68060037  0.92827786  0.90815091  1
  O2-  O168  1  0.42686588  0.32027797  0.08859888  1
  O2-  O169  1  0.43030896  0.31924359  0.43178809  1
  O2-  O170  1  0.42943717  0.32278976  0.75631654  1
  O2-  O171  1  0.42966986  0.82085155  0.09815399  1
  O2-  O172  1  0.42331446  0.82160871  0.42548378  1
  O2-  O173  1  0.42881102  0.81809714  0.75483850  1
  O2-  O174  1  0.92611058  0.32005781  0.08813360  1
  O2-  O175  1  0.93200310  0.31974741  0.43312679  1
  O2-  O176  1  0.92751643  0.32290313  0.75726228  1
  O2-  O177  1  0.92864382  0.82354324  0.08860659  1
  O2-  O178  1  0.93022704  0.82118487  0.43068567  1
  O2-  O179  1  0.93087373  0.81692702  0.76560491  1
  O2-  O180  1  0.32159656  0.06806278  0.24103193  1
  O2-  O181  1  0.31903123  0.07239459  0.56826491  1
  O2-  O182  1  0.32239183  0.07218891  0.91338219  1
  O2-  O183  1  0.31824687  0.57660109  0.23511729  1
  O2-  O184  1  0.32195908  0.56622105  0.57122526  1
  O2-  O185  1  0.32104875  0.57020047  0.91116201  1
  O2-  O186  1  0.82276878  0.06896729  0.23438488  1
  O2-  O187  1  0.82287012  0.07599308  0.58034660  1
  O2-  O188  1  0.82157288  0.07055360  0.90882721  1
  O2-  O189  1  0.82145122  0.57297837  0.24430614  1
  O2-  O190  1  0.82220135  0.56909686  0.57580864  1
  O2-  O191  1  0.82345048  0.57280217  0.91059678  1
  O2-  O192  1  0.04401430  0.08537685  0.26994262  1
  O2-  O193  1  0.04168834  0.09038124  0.60377069  1
  O2-  O194  1  0.03583318  0.08553329  0.93045219  1
  O2-  O195  1  0.04765720  0.58639318  0.27332648  1
  O2-  O196  1  0.04252385  0.58415316  0.60070039  1
  O2-  O197  1  0.03768530  0.58382774  0.92965600  1
  O2-  O198  1  0.53946910  0.07928595  0.26523600  1
  O2-  O199  1  0.54298180  0.07829975  0.60004205  1
  O2-  O200  1  0.54133207  0.08529605  0.93059681  1
  O2-  O201  1  0.54167318  0.58686599  0.27277611  1
  O2-  O202  1  0.53878431  0.58054142  0.59959015  1
  O2-  O203  1  0.54434034  0.57872114  0.93317675  1
  O2-  O204  1  0.16816043  0.19732698  0.27166580  1
  O2-  O205  1  0.16370653  0.20674428  0.60526830  1
  O2-  O206  1  0.16858401  0.20806453  0.93161487  1
  O2-  O207  1  0.16615085  0.70778012  0.27185694  1
  O2-  O208  1  0.17022443  0.69609579  0.60659910  1
  O2-  O209  1  0.16516884  0.70868232  0.93223721  1
  O2-  O210  1  0.67133930  0.20375695  0.26909030  1
  O2-  O211  1  0.66737588  0.21000931  0.59793960  1
  O2-  O212  1  0.66829330  0.21253559  0.92954181  1
  O2-  O213  1  0.66199676  0.70388709  0.26993755  1
  O2-  O214  1  0.66747158  0.70710156  0.59741170  1
  O2-  O215  1  0.67119610  0.70460042  0.93349979  1
  O2-  O216  1  0.08029262  0.45838783  0.06400999  1
  O2-  O217  1  0.07957949  0.45704512  0.40214579  1
  O2-  O218  1  0.08034625  0.45340664  0.73121856  1
  O2-  O219  1  0.08230315  0.96334909  0.06931404  1
  O2-  O220  1  0.08654949  0.95683674  0.39287869  1
  O2-  O221  1  0.07894278  0.96140622  0.73459877  1
  O2-  O222  1  0.58210517  0.45690639  0.06765597  1
  O2-  O223  1  0.58453315  0.45968755  0.40348892  1
  O2-  O224  1  0.58871216  0.45365714  0.72798253  1
  O2-  O225  1  0.58505863  0.95678406  0.05812322  1
  O2-  O226  1  0.57771343  0.95203277  0.40011540  1
  O2-  O227  1  0.58390644  0.95447662  0.73529328  1
  O2-  O228  1  0.20711172  0.33115047  0.06661072  1
  O2-  O229  1  0.20215819  0.32645259  0.40071436  1
  O2-  O230  1  0.20076483  0.33507705  0.72944078  1
  O2-  O231  1  0.20830955  0.83257055  0.06915461  1
  O2-  O232  1  0.20656742  0.83857802  0.39659575  1
  O2-  O233  1  0.20026650  0.82958750  0.73185937  1
  O2-  O234  1  0.71481146  0.33410780  0.06720462  1
  O2-  O235  1  0.71352187  0.33360699  0.40200808  1
  O2-  O236  1  0.71222648  0.33683222  0.72826972  1
  O2-  O237  1  0.70504097  0.83707962  0.06090355  1
  O2-  O238  1  0.70807389  0.82853032  0.39786739  1
  O2-  O239  1  0.71647372  0.83141299  0.73492154  1
  O2-  O240  1  0.45438721  0.42234464  0.26719837  1
  O2-  O241  1  0.45815565  0.41319365  0.60399918  1
  O2-  O242  1  0.45072404  0.41698054  0.93882414  1
  O2-  O243  1  0.45241049  0.91112799  0.27019646  1
  O2-  O244  1  0.45035905  0.91546145  0.60608469  1
  O2-  O245  1  0.45477939  0.91978741  0.92977399  1
  O2-  O246  1  0.95632323  0.42010331  0.26522762  1
  O2-  O247  1  0.95380093  0.41468878  0.60388603  1
  O2-  O248  1  0.94836888  0.41751091  0.93810679  1
  O2-  O249  1  0.95890292  0.91805874  0.26319694  1
  O2-  O250  1  0.95840709  0.91916665  0.59885845  1
  O2-  O251  1  0.95495633  0.91717591  0.93705051  1
  O2-  O252  1  0.33002180  0.29268874  0.26596096  1
  O2-  O253  1  0.33178587  0.30131702  0.60610464  1
  O2-  O254  1  0.33489047  0.29526168  0.93532248  1
  O2-  O255  1  0.33544119  0.79065195  0.27199671  1
  O2-  O256  1  0.33254149  0.79349522  0.60523860  1
  O2-  O257  1  0.32961042  0.79502085  0.93074617  1
  O2-  O258  1  0.83560671  0.28875039  0.26402018  1
  O2-  O259  1  0.83850547  0.29236859  0.60321982  1
  O2-  O260  1  0.83728833  0.29110025  0.93366071  1
  O2-  O261  1  0.83292419  0.78960637  0.26131095  1
  O2-  O262  1  0.83746253  0.78485670  0.59679187  1
  O2-  O263  1  0.83441568  0.79932753  0.93716307  1
  O2-  O264  1  0.41733314  0.04504153  0.06404964  1
  O2-  O265  1  0.41108973  0.03878307  0.39512365  1
  O2-  O266  1  0.42052708  0.04510560  0.73598515  1
  O2-  O267  1  0.41552266  0.54894907  0.06246178  1
  O2-  O268  1  0.41920291  0.54492539  0.40340627  1
  O2-  O269  1  0.41713888  0.53443290  0.73933814  1
  O2-  O270  1  0.91145488  0.04338127  0.06272775  1
  O2-  O271  1  0.92001451  0.04109646  0.40235064  1
  O2-  O272  1  0.91484798  0.04721253  0.73141067  1
  O2-  O273  1  0.91458399  0.54762892  0.06393478  1
  O2-  O274  1  0.91621538  0.54908639  0.39653217  1
  O2-  O275  1  0.91267439  0.54221708  0.72948727  1
  O2-  O276  1  0.29667253  0.16550246  0.06419122  1
  O2-  O277  1  0.29609974  0.16143179  0.39493471  1
  O2-  O278  1  0.29416771  0.17140785  0.73576138  1
  O2-  O279  1  0.29453402  0.66657567  0.06063117  1
  O2-  O280  1  0.29006403  0.66832472  0.40596827  1
  O2-  O281  1  0.29485704  0.66565378  0.73884100  1
  O2-  O282  1  0.79306284  0.16310034  0.06043121  1
  O2-  O283  1  0.79769542  0.16935235  0.40243095  1
  O2-  O284  1  0.79655744  0.16808982  0.73202503  1
  O2-  O285  1  0.79986837  0.66948788  0.06204616  1
  O2-  O286  1  0.79588625  0.66657280  0.39509550  1
  O2-  O287  1  0.79363856  0.66178951  0.72900556  1
