# generated using pymatgen
data_Ca2Al2SiO7
_symmetry_space_group_name_H-M   'P 1'
_cell_length_a   15.46184802
_cell_length_b   15.46298890
_cell_length_c   15.28704551
_cell_angle_alpha   90.00713526
_cell_angle_beta   90.00067409
_cell_angle_gamma   89.99885288
_symmetry_Int_Tables_number   1
_chemical_formula_structural   Ca2Al2SiO7
_chemical_formula_sum   'Ca48 Al48 Si24 O168'
_cell_volume   3654.92440801
_cell_formula_units_Z   24
loop_
 _symmetry_equiv_pos_site_id
 _symmetry_equiv_pos_as_xyz
  1  'x, y, z'
loop_
 _atom_type_symbol
 _atom_type_oxidation_number
  Ca2+  2.0
  Al0+  0.0
  Si0+  0.0
  O2-  -2.0
loop_
 _atom_site_type_symbol
 _atom_site_label
 _atom_site_symmetry_multiplicity
 _atom_site_fract_x
 _atom_site_fract_y
 _atom_site_fract_z
 _atom_site_occupancy
  Ca2+  Ca0  1  0.16628120  0.07736394  0.17601860  1
  Ca2+  Ca1  1  0.16399900  0.07557025  0.50093148  1
  Ca2+  Ca2  1  0.16940121  0.08578409  0.83520839  1
  Ca2+  Ca3  1  0.17316007  0.57655119  0.18094107  1
  Ca2+  Ca4  1  0.17292946  0.57886736  0.50455076  1
  Ca2+  Ca5  1  0.16789215  0.57921528  0.82763271  1
  Ca2+  Ca6  1  0.67605228  0.08636361  0.17091800  1
  Ca2+  Ca7  1  0.66411257  0.08379202  0.50414528  1
  Ca2+  Ca8  1  0.66302568  0.07507615  0.83769721  1
  Ca2+  Ca9  1  0.67755308  0.57709858  0.16767230  1
  Ca2+  Ca10  1  0.67126567  0.57988253  0.50712785  1
  Ca2+  Ca11  1  0.66691055  0.57250698  0.83732038  1
  Ca2+  Ca12  1  0.07744685  0.33821115  0.16262109  1
  Ca2+  Ca13  1  0.08074604  0.34256389  0.49885181  1
  Ca2+  Ca14  1  0.06881269  0.33996350  0.82682542  1
  Ca2+  Ca15  1  0.07888618  0.83050854  0.17027123  1
  Ca2+  Ca16  1  0.08176693  0.82173946  0.48946385  1
  Ca2+  Ca17  1  0.07715068  0.82356655  0.82437892  1
  Ca2+  Ca18  1  0.57525892  0.33572332  0.16329369  1
  Ca2+  Ca19  1  0.57728017  0.33091414  0.49621594  1
  Ca2+  Ca20  1  0.57901787  0.33653855  0.82265528  1
  Ca2+  Ca21  1  0.58774328  0.83231022  0.16385423  1
  Ca2+  Ca22  1  0.58689746  0.82862493  0.50085113  1
  Ca2+  Ca23  1  0.59074713  0.82913057  0.82542697  1
  Ca2+  Ca24  1  0.32986485  0.41548965  0.17714044  1
  Ca2+  Ca25  1  0.32743908  0.41834392  0.50590612  1
  Ca2+  Ca26  1  0.33759590  0.41773352  0.83292037  1
  Ca2+  Ca27  1  0.32561813  0.91854022  0.17521164  1
  Ca2+  Ca28  1  0.32813459  0.91478103  0.50125976  1
  Ca2+  Ca29  1  0.33284995  0.91928561  0.83543936  1
  Ca2+  Ca30  1  0.83394328  0.42320882  0.16903482  1
  Ca2+  Ca31  1  0.83064853  0.42088566  0.50638809  1
  Ca2+  Ca32  1  0.82301182  0.41390428  0.83958245  1
  Ca2+  Ca33  1  0.83304240  0.92604963  0.17340003  1
  Ca2+  Ca34  1  0.83372254  0.92262937  0.50177418  1
  Ca2+  Ca35  1  0.82077280  0.92283081  0.84029490  1
  Ca2+  Ca36  1  0.42051689  0.17865466  0.16392666  1
  Ca2+  Ca37  1  0.42820069  0.17734472  0.49427775  1
  Ca2+  Ca38  1  0.42515811  0.18001681  0.82407422  1
  Ca2+  Ca39  1  0.41584634  0.66390146  0.16653320  1
  Ca2+  Ca40  1  0.42072233  0.65377108  0.49973864  1
  Ca2+  Ca41  1  0.42412165  0.66745373  0.82314542  1
  Ca2+  Ca42  1  0.91353968  0.16776542  0.16207648  1
  Ca2+  Ca43  1  0.91053952  0.17444688  0.49722009  1
  Ca2+  Ca44  1  0.90674879  0.17758536  0.83385415  1
  Ca2+  Ca45  1  0.91691741  0.66250954  0.16702589  1
  Ca2+  Ca46  1  0.92778328  0.66773741  0.48916313  1
  Ca2+  Ca47  1  0.91987405  0.66143967  0.82633111  1
  Al0+  Al48  1  0.00082498  -0.00286530  -0.00023257  1
  Al0+  Al49  1  -0.00175080  -0.00035412  0.33933110  1
  Al0+  Al50  1  -0.00086524  0.00143489  0.67073764  1
  Al0+  Al51  1  0.00227805  0.49906264  -0.00199346  1
  Al0+  Al52  1  0.00049255  0.50086102  0.33509263  1
  Al0+  Al53  1  0.00258758  0.50089174  0.66139616  1
  Al0+  Al54  1  0.49644710  -0.00033759  0.00460377  1
  Al0+  Al55  1  0.50173222  -0.00018338  0.32814860  1
  Al0+  Al56  1  0.49942451  -0.00007963  0.66739394  1
  Al0+  Al57  1  0.49976548  0.50238599  0.00022013  1
  Al0+  Al58  1  0.50068995  0.49968025  0.33003640  1
  Al0+  Al59  1  0.50008427  0.50243804  0.66559111  1
  Al0+  Al60  1  0.25113599  0.25001198  -0.00454489  1
  Al0+  Al61  1  0.24994014  0.24886297  0.33442172  1
  Al0+  Al62  1  0.24734913  0.24896415  0.66792841  1
  Al0+  Al63  1  0.24996250  0.74935805  -0.00233928  1
  Al0+  Al64  1  0.25081976  0.74887618  0.33633558  1
  Al0+  Al65  1  0.24930996  0.74977372  0.66827554  1
  Al0+  Al66  1  0.74788666  0.24811244  0.00375195  1
  Al0+  Al67  1  0.75017218  0.24865546  0.33291408  1
  Al0+  Al68  1  0.75117567  0.25128516  0.66198621  1
  Al0+  Al69  1  0.75105393  0.74987858  0.00584464  1
  Al0+  Al70  1  0.75046844  0.75135778  0.33262074  1
  Al0+  Al71  1  0.75009370  0.75321115  0.66543749  1
  Al0+  Al72  1  0.17857805  0.42631184  0.34792049  1
  Al0+  Al73  1  0.67653941  0.92808275  0.01704231  1
  Al0+  Al74  1  0.57146248  0.17768706  0.65244048  1
  Al0+  Al75  1  0.82013948  0.07163912  0.34967443  1
  Al0+  Al76  1  0.07185465  0.67820763  0.31602144  1
  Al0+  Al77  1  0.82127485  0.07021812  0.01525337  1
  Al0+  Al78  1  0.42752382  0.32312512  0.65079227  1
  Al0+  Al79  1  0.67897260  0.93022194  0.67922300  1
  Al0+  Al80  1  0.32129061  0.57113234  0.68411297  1
  Al0+  Al81  1  0.42960870  0.32258633  0.98386319  1
  Al0+  Al82  1  0.07073608  0.68042944  0.65160416  1
  Al0+  Al83  1  0.17939972  0.92952646  0.34713851  1
  Al0+  Al84  1  0.57189001  0.68013396  0.65384017  1
  Al0+  Al85  1  0.82023620  0.57204233  0.34806014  1
  Al0+  Al86  1  0.42869325  0.32139689  0.31768839  1
  Al0+  Al87  1  0.57296883  0.17799252  0.31488668  1
  Al0+  Al88  1  0.92862167  0.82199824  0.31743721  1
  Al0+  Al89  1  0.68028554  0.42984829  0.67727320  1
  Al0+  Al90  1  0.82418950  0.56919368  0.01352861  1
  Al0+  Al91  1  0.17793106  0.42718682  0.68451688  1
  Al0+  Al92  1  0.92976983  0.32026067  0.65243727  1
  Al0+  Al93  1  0.67581893  0.42781504  0.01507422  1
  Al0+  Al94  1  0.32355755  0.57053935  0.34806836  1
  Al0+  Al95  1  0.92857960  0.32030596  0.98802140  1
  Si0+  Si96  1  0.18029666  0.92702778  0.01429367  1
  Si0+  Si97  1  0.17782984  0.92858227  0.68337677  1
  Si0+  Si98  1  0.32015004  0.57241139  0.01429686  1
  Si0+  Si99  1  0.42662004  0.82119999  0.98554216  1
  Si0+  Si100  1  0.18074916  0.42875456  0.01353670  1
  Si0+  Si101  1  0.82267706  0.07342336  0.68478333  1
  Si0+  Si102  1  0.57160979  0.68200150  0.98617971  1
  Si0+  Si103  1  0.42738051  0.82264569  0.65059225  1
  Si0+  Si104  1  0.82272681  0.57285909  0.68006149  1
  Si0+  Si105  1  0.57236944  0.67881599  0.31689675  1
  Si0+  Si106  1  0.67938405  0.42852599  0.34968657  1
  Si0+  Si107  1  0.92787716  0.82409287  0.65085062  1
  Si0+  Si108  1  0.32357390  0.07117120  0.35014636  1
  Si0+  Si109  1  0.92982299  0.32139704  0.31845924  1
  Si0+  Si110  1  0.42922812  0.82124189  0.31832895  1
  Si0+  Si111  1  0.07211350  0.17526859  0.64976953  1
  Si0+  Si112  1  0.31844672  0.07215718  0.01558938  1
  Si0+  Si113  1  0.07020720  0.17762567  0.32097739  1
  Si0+  Si114  1  0.92905445  0.82122050  0.98399683  1
  Si0+  Si115  1  0.32033151  0.06992100  0.68167471  1
  Si0+  Si116  1  0.07241394  0.67938536  0.98370193  1
  Si0+  Si117  1  0.67644662  0.92815210  0.35143190  1
  Si0+  Si118  1  0.07238083  0.17528093  0.98429867  1
  Si0+  Si119  1  0.57018887  0.17661564  0.98357372  1
  O2-  O120  1  0.24690218  0.00139208  0.05756107  1
  O2-  O121  1  0.25509832  0.00264019  0.39522130  1
  O2-  O122  1  0.24800582  0.00006105  0.72611020  1
  O2-  O123  1  0.25316298  0.49791599  0.05584496  1
  O2-  O124  1  0.25177352  0.49786948  0.39608555  1
  O2-  O125  1  0.25302363  0.49594969  0.73560931  1
  O2-  O126  1  0.74814549  0.00008247  0.06678490  1
  O2-  O127  1  0.74392567  -0.00208920  0.39489471  1
  O2-  O128  1  0.75178105  0.00596428  0.72691563  1
  O2-  O129  1  0.75334475  0.49552551  0.06336819  1
  O2-  O130  1  0.74671145  0.49748649  0.39525234  1
  O2-  O131  1  0.75439128  0.50494759  0.72530320  1
  O2-  O132  1  0.00325249  0.25155410  0.27763517  1
  O2-  O133  1  0.00534886  0.24544862  0.60618139  1
  O2-  O134  1  0.00104778  0.24178910  0.94183511  1
  O2-  O135  1  -0.00205129  0.74811362  0.26500917  1
  O2-  O136  1  -0.00434267  0.75526520  0.60688879  1
  O2-  O137  1  -0.00309690  0.74659487  0.94207874  1
  O2-  O138  1  0.50096243  0.25045876  0.26596317  1
  O2-  O139  1  0.50200387  0.25240105  0.60312874  1
  O2-  O140  1  0.50760630  0.25051796  0.93864336  1
  O2-  O141  1  0.49961590  0.74964880  0.27587719  1
  O2-  O142  1  0.49488110  0.75309006  0.60691855  1
  O2-  O143  1  0.50271447  0.75606124  0.94428904  1
  O2-  O144  1  0.07592958  0.17462458  0.08993311  1
  O2-  O145  1  0.06864021  0.17568156  0.42578982  1
  O2-  O146  1  0.07083078  0.17094702  0.75550274  1
  O2-  O147  1  0.07758237  0.68218506  0.08804346  1
  O2-  O148  1  0.07203575  0.68095795  0.42926359  1
  O2-  O149  1  0.06896169  0.68292460  0.76594960  1
  O2-  O150  1  0.56493482  0.17434903  0.08871693  1
  O2-  O151  1  0.57042177  0.17716444  0.42825331  1
  O2-  O152  1  0.56789433  0.17451195  0.76632426  1
  O2-  O153  1  0.56838107  0.68191984  0.09146466  1
  O2-  O154  1  0.57327309  0.67980235  0.42183218  1
  O2-  O155  1  0.57249104  0.68318645  0.76742361  1
  O2-  O156  1  0.17891490  0.42674255  0.23309894  1
  O2-  O157  1  0.17741576  0.42943287  0.57166404  1
  O2-  O158  1  0.17894049  0.43043066  0.90896281  1
  O2-  O159  1  0.18144719  0.93215799  0.23325636  1
  O2-  O160  1  0.17810191  0.92941811  0.57867941  1
  O2-  O161  1  0.18294782  0.92606604  0.90897885  1
  O2-  O162  1  0.68045262  0.43031178  0.24388092  1
  O2-  O163  1  0.68254704  0.43121223  0.56426230  1
  O2-  O164  1  0.67467270  0.43150859  0.90125720  1
  O2-  O165  1  0.67619504  0.92785420  0.24590009  1
  O2-  O166  1  0.67992715  0.92938215  0.56659760  1
  O2-  O167  1  0.67702075  0.92803881  0.90321747  1
  O2-  O168  1  0.42468976  0.31967662  0.09645368  1
  O2-  O169  1  0.42920344  0.32018268  0.43065540  1
  O2-  O170  1  0.42995402  0.31998890  0.76503247  1
  O2-  O171  1  0.42022215  0.81812100  0.09032441  1
  O2-  O172  1  0.43038504  0.82534209  0.42302523  1
  O2-  O173  1  0.42738440  0.82380623  0.75681267  1
  O2-  O174  1  0.93439464  0.32233537  0.10115724  1
  O2-  O175  1  0.92883644  0.32040950  0.42343590  1
  O2-  O176  1  0.92841037  0.31854349  0.76588790  1
  O2-  O177  1  0.93297541  0.82505104  0.08834348  1
  O2-  O178  1  0.93152216  0.82194195  0.43113649  1
  O2-  O179  1  0.92985859  0.82400503  0.75712418  1
  O2-  O180  1  0.32009625  0.06928659  0.24394932  1
  O2-  O181  1  0.31924941  0.06614475  0.57699047  1
  O2-  O182  1  0.31784772  0.06984847  0.91028331  1
  O2-  O183  1  0.32173592  0.57122513  0.23329422  1
  O2-  O184  1  0.31874352  0.57377498  0.57143617  1
  O2-  O185  1  0.31867245  0.57661475  0.90979920  1
  O2-  O186  1  0.82220319  0.07062374  0.23677650  1
  O2-  O187  1  0.82682644  0.07033277  0.57950009  1
  O2-  O188  1  0.82187063  0.06738508  0.90160450  1
  O2-  O189  1  0.81892570  0.56881076  0.23485131  1
  O2-  O190  1  0.82051521  0.57235943  0.57452017  1
  O2-  O191  1  0.82342258  0.57048048  0.89974192  1
  O2-  O192  1  0.03947564  0.08732767  0.27219187  1
  O2-  O193  1  0.04501070  0.08149432  0.60362718  1
  O2-  O194  1  0.05153259  0.08008462  0.93798757  1
  O2-  O195  1  0.04343450  0.57914870  0.26366510  1
  O2-  O196  1  0.04279823  0.58489284  0.59657610  1
  O2-  O197  1  0.04831394  0.58672890  0.93665218  1
  O2-  O198  1  0.54487122  0.07919395  0.26151078  1
  O2-  O199  1  0.53864985  0.08026065  0.59913026  1
  O2-  O200  1  0.53703364  0.08384470  0.93813257  1
  O2-  O201  1  0.54503817  0.58809588  0.26729397  1
  O2-  O202  1  0.54269380  0.58506700  0.59748359  1
  O2-  O203  1  0.54032701  0.59189430  0.93796086  1
  O2-  O204  1  0.16371102  0.19893032  0.27330998  1
  O2-  O205  1  0.16671794  0.19539113  0.60442325  1
  O2-  O206  1  0.16461988  0.20296933  0.93604883  1
  O2-  O207  1  0.17077103  0.70999773  0.26459156  1
  O2-  O208  1  0.16681612  0.71479013  0.59991602  1
  O2-  O209  1  0.16166389  0.71354091  0.93370210  1
  O2-  O210  1  0.67169575  0.20711188  0.26304493  1
  O2-  O211  1  0.67057538  0.20162581  0.60043598  1
  O2-  O212  1  0.66672299  0.19303318  0.94127501  1
  O2-  O213  1  0.66235962  0.70945450  0.26776179  1
  O2-  O214  1  0.66703825  0.71410385  0.59822770  1
  O2-  O215  1  0.66448494  0.70736247  0.93998891  1
  O2-  O216  1  0.09017477  0.45813185  0.06183779  1
  O2-  O217  1  0.08059739  0.45510483  0.39976385  1
  O2-  O218  1  0.08043550  0.46348959  0.73675807  1
  O2-  O219  1  0.08757905  0.95060528  0.06067278  1
  O2-  O220  1  0.08558679  0.96263364  0.40356725  1
  O2-  O221  1  0.08636952  0.95630533  0.73254044  1
  O2-  O222  1  0.58021803  0.46445354  0.06984126  1
  O2-  O223  1  0.58544647  0.45486287  0.39316173  1
  O2-  O224  1  0.58440871  0.46134103  0.73147414  1
  O2-  O225  1  0.57525768  0.95090580  0.06772110  1
  O2-  O226  1  0.58159013  0.95216338  0.39578298  1
  O2-  O227  1  0.58088776  0.95671255  0.73396319  1
  O2-  O228  1  0.20631227  0.33522316  0.05889801  1
  O2-  O229  1  0.20270892  0.32661731  0.40045443  1
  O2-  O230  1  0.19701950  0.32525150  0.73527375  1
  O2-  O231  1  0.21353555  0.83722157  0.06211837  1
  O2-  O232  1  0.21202461  0.83452478  0.40156414  1
  O2-  O233  1  0.20692839  0.83846705  0.73306160  1
  O2-  O234  1  0.69622288  0.32750843  0.06572991  1
  O2-  O235  1  0.70575152  0.33509895  0.39410506  1
  O2-  O236  1  0.71114775  0.33296849  0.73109080  1
  O2-  O237  1  0.70525402  0.83034932  0.07025898  1
  O2-  O238  1  0.70252877  0.83461759  0.39670679  1
  O2-  O239  1  0.71215869  0.83471912  0.73546833  1
  O2-  O240  1  0.45701088  0.41972465  0.26294687  1
  O2-  O241  1  0.45301207  0.42227159  0.60051575  1
  O2-  O242  1  0.45621658  0.42197310  0.93330867  1
  O2-  O243  1  0.45598858  0.91188245  0.26709060  1
  O2-  O244  1  0.45333359  0.91514005  0.60336257  1
  O2-  O245  1  0.44738361  0.91587310  0.94020719  1
  O2-  O246  1  0.95730178  0.41282942  0.27065253  1
  O2-  O247  1  0.96052909  0.41615502  0.59790697  1
  O2-  O248  1  0.96372868  0.41496106  0.93206551  1
  O2-  O249  1  0.96270584  0.91997324  0.26582578  1
  O2-  O250  1  0.95511695  0.91827180  0.60720013  1
  O2-  O251  1  0.96135234  0.91046747  0.93316934  1
  O2-  O252  1  0.32969013  0.29000018  0.26522527  1
  O2-  O253  1  0.32846460  0.29083420  0.60217930  1
  O2-  O254  1  0.33396404  0.28779246  0.92906020  1
  O2-  O255  1  0.33758849  0.79386841  0.27002585  1
  O2-  O256  1  0.33270786  0.79970650  0.60640599  1
  O2-  O257  1  0.33740251  0.78941989  0.93394202  1
  O2-  O258  1  0.83905762  0.29156079  0.27108964  1
  O2-  O259  1  0.83552322  0.28942662  0.59465907  1
  O2-  O260  1  0.83015154  0.29117069  0.93575147  1
  O2-  O261  1  0.82886787  0.79744864  0.26520662  1
  O2-  O262  1  0.83433313  0.80213889  0.60467729  1
  O2-  O263  1  0.83528939  0.79630268  0.93918907  1
  O2-  O264  1  0.40820692  0.04307663  0.06526566  1
  O2-  O265  1  0.41704154  0.04268115  0.39365704  1
  O2-  O266  1  0.40986895  0.03913731  0.73183713  1
  O2-  O267  1  0.41321390  0.55018821  0.06076076  1
  O2-  O268  1  0.42340440  0.54432507  0.39848934  1
  O2-  O269  1  0.42138547  0.54762461  0.73610951  1
  O2-  O270  1  0.92145915  0.04073553  0.06589916  1
  O2-  O271  1  0.91500480  0.03995090  0.40596124  1
  O2-  O272  1  0.91528946  0.04661351  0.73363761  1
  O2-  O273  1  0.92360683  0.54224599  0.06616884  1
  O2-  O274  1  0.91696229  0.54197292  0.40054379  1
  O2-  O275  1  0.91686686  0.54781991  0.72399506  1
  O2-  O276  1  0.28959110  0.16357439  0.06288639  1
  O2-  O277  1  0.29705646  0.16341700  0.39660412  1
  O2-  O278  1  0.29196679  0.16046177  0.73125197  1
  O2-  O279  1  0.28866767  0.66333711  0.06237789  1
  O2-  O280  1  0.29883870  0.66962025  0.40031059  1
  O2-  O281  1  0.29049924  0.67023798  0.73766766  1
  O2-  O282  1  0.79642373  0.16878086  0.06903260  1
  O2-  O283  1  0.79060596  0.16872594  0.40327154  1
  O2-  O284  1  0.79808315  0.16774939  0.72804329  1
  O2-  O285  1  0.79564288  0.66699218  0.06738664  1
  O2-  O286  1  0.79002047  0.66934079  0.40026885  1
  O2-  O287  1  0.79912833  0.66766755  0.72485288  1
