# generated using pymatgen
data_Ca2Al2SiO7
_symmetry_space_group_name_H-M   'P 1'
_cell_length_a   15.46192965
_cell_length_b   15.46097187
_cell_length_c   15.28687248
_cell_angle_alpha   90.00271295
_cell_angle_beta   89.98607563
_cell_angle_gamma   89.99503243
_symmetry_Int_Tables_number   1
_chemical_formula_structural   Ca2Al2SiO7
_chemical_formula_sum   'Ca48 Al48 Si24 O168'
_cell_volume   3654.42548341
_cell_formula_units_Z   24
loop_
 _symmetry_equiv_pos_site_id
 _symmetry_equiv_pos_as_xyz
  1  'x, y, z'
loop_
 _atom_type_symbol
 _atom_type_oxidation_number
  Ca2+  2.0
  Al0+  0.0
  Si0+  0.0
  O2-  -2.0
loop_
 _atom_site_type_symbol
 _atom_site_label
 _atom_site_symmetry_multiplicity
 _atom_site_fract_x
 _atom_site_fract_y
 _atom_site_fract_z
 _atom_site_occupancy
  Ca2+  Ca0  1  0.17252821  0.06856405  0.17716036  1
  Ca2+  Ca1  1  0.17260566  0.07869602  0.49797768  1
  Ca2+  Ca2  1  0.16835218  0.07444332  0.84328059  1
  Ca2+  Ca3  1  0.16344697  0.58819339  0.17127332  1
  Ca2+  Ca4  1  0.17121947  0.58636642  0.49894166  1
  Ca2+  Ca5  1  0.17074358  0.58977142  0.83754541  1
  Ca2+  Ca6  1  0.66565250  0.08724314  0.17319388  1
  Ca2+  Ca7  1  0.67575819  0.08897058  0.49877633  1
  Ca2+  Ca8  1  0.67011321  0.08429863  0.83584080  1
  Ca2+  Ca9  1  0.67895776  0.58025905  0.17691729  1
  Ca2+  Ca10  1  0.66719129  0.57308004  0.50451923  1
  Ca2+  Ca11  1  0.67780909  0.58019202  0.83703449  1
  Ca2+  Ca12  1  0.06922536  0.33378642  0.16290213  1
  Ca2+  Ca13  1  0.07440262  0.33070312  0.49083282  1
  Ca2+  Ca14  1  0.07599120  0.33405514  0.83409254  1
  Ca2+  Ca15  1  0.08332047  0.82650906  0.16184354  1
  Ca2+  Ca16  1  0.07854815  0.82787885  0.49380401  1
  Ca2+  Ca17  1  0.07469843  0.83199296  0.83559518  1
  Ca2+  Ca18  1  0.58072697  0.32519058  0.16676322  1
  Ca2+  Ca19  1  0.58555391  0.33337506  0.48818931  1
  Ca2+  Ca20  1  0.58546212  0.33298329  0.83397117  1
  Ca2+  Ca21  1  0.57509322  0.83242640  0.16507158  1
  Ca2+  Ca22  1  0.57749217  0.82268173  0.48834253  1
  Ca2+  Ca23  1  0.57751937  0.83293490  0.83232903  1
  Ca2+  Ca24  1  0.33455595  0.41116179  0.17135171  1
  Ca2+  Ca25  1  0.33728870  0.42244590  0.50485662  1
  Ca2+  Ca26  1  0.33425516  0.42220123  0.83807741  1
  Ca2+  Ca27  1  0.32714654  0.91246510  0.17545372  1
  Ca2+  Ca28  1  0.33087518  0.91355247  0.49523507  1
  Ca2+  Ca29  1  0.32589971  0.91397641  0.84656356  1
  Ca2+  Ca30  1  0.83359802  0.42287534  0.17595761  1
  Ca2+  Ca31  1  0.82523661  0.42582142  0.49961605  1
  Ca2+  Ca32  1  0.83196193  0.42590620  0.83924628  1
  Ca2+  Ca33  1  0.83641767  0.92361059  0.17207123  1
  Ca2+  Ca34  1  0.83759696  0.92655809  0.50520402  1
  Ca2+  Ca35  1  0.84190189  0.91906555  0.83777247  1
  Ca2+  Ca36  1  0.42288030  0.17107486  0.16316889  1
  Ca2+  Ca37  1  0.42440798  0.17451389  0.48411834  1
  Ca2+  Ca38  1  0.42267066  0.17080061  0.83382433  1
  Ca2+  Ca39  1  0.42339321  0.67528660  0.16747597  1
  Ca2+  Ca40  1  0.42265945  0.66670460  0.48883401  1
  Ca2+  Ca41  1  0.41149143  0.67157205  0.83017530  1
  Ca2+  Ca42  1  0.90543193  0.17975935  0.16647525  1
  Ca2+  Ca43  1  0.90912279  0.17049562  0.49191952  1
  Ca2+  Ca44  1  0.91150253  0.17232693  0.82964018  1
  Ca2+  Ca45  1  0.92505576  0.66420967  0.15864670  1
  Ca2+  Ca46  1  0.91593313  0.66593934  0.49355399  1
  Ca2+  Ca47  1  0.91374592  0.67276954  0.83090088  1
  Al0+  Al48  1  0.00148914  -0.00034428  0.00474851  1
  Al0+  Al49  1  0.00146625  -0.00105190  0.34283792  1
  Al0+  Al50  1  0.00121978  -0.00021168  0.66710352  1
  Al0+  Al51  1  0.00256946  0.49969655  -0.00602320  1
  Al0+  Al52  1  0.00089530  0.50003249  0.33130243  1
  Al0+  Al53  1  0.00080277  0.49916272  0.66795593  1
  Al0+  Al54  1  0.50133899  0.00039461  -0.00860686  1
  Al0+  Al55  1  0.49904633  0.00036358  0.33181239  1
  Al0+  Al56  1  0.49996138  0.00237919  0.66436876  1
  Al0+  Al57  1  0.50123214  0.49914616  -0.00114377  1
  Al0+  Al58  1  0.50055648  0.50020180  0.32718789  1
  Al0+  Al59  1  0.49807076  0.50056069  0.67684030  1
  Al0+  Al60  1  0.25129931  0.25115420  -0.00334686  1
  Al0+  Al61  1  0.24794514  0.24792836  0.33441533  1
  Al0+  Al62  1  0.25025452  0.24927248  0.66677608  1
  Al0+  Al63  1  0.25019735  0.74933411  -0.00188564  1
  Al0+  Al64  1  0.24745937  0.74847691  0.33226738  1
  Al0+  Al65  1  0.24761010  0.75095523  0.66964978  1
  Al0+  Al66  1  0.74948742  0.25050733  -0.00884841  1
  Al0+  Al67  1  0.74910351  0.25168350  0.33300375  1
  Al0+  Al68  1  0.74940788  0.24895506  0.67361628  1
  Al0+  Al69  1  0.75067159  0.75161305  0.00199125  1
  Al0+  Al70  1  0.75209680  0.75195100  0.33271179  1
  Al0+  Al71  1  0.74744295  0.75148025  0.66407293  1
  Al0+  Al72  1  0.57526327  0.67705159  0.31847916  1
  Al0+  Al73  1  0.17950384  0.92843886  0.01549316  1
  Al0+  Al74  1  0.32257215  0.07166629  0.34826250  1
  Al0+  Al75  1  0.82225418  0.57367172  0.68208541  1
  Al0+  Al76  1  0.42883483  0.81973609  0.32002513  1
  Al0+  Al77  1  0.06804219  0.67972507  0.32093993  1
  Al0+  Al78  1  0.57171874  0.17925069  0.31978890  1
  Al0+  Al79  1  0.31825450  0.57112237  0.67951959  1
  Al0+  Al80  1  0.67853931  0.43137615  0.34560072  1
  Al0+  Al81  1  0.92939199  0.32068754  0.98463764  1
  Al0+  Al82  1  0.42560544  0.32254233  0.32008155  1
  Al0+  Al83  1  0.43037416  0.81846951  0.98631597  1
  Al0+  Al84  1  0.57116392  0.17894003  0.98164823  1
  Al0+  Al85  1  0.67841726  0.42886120  0.68406541  1
  Al0+  Al86  1  0.42740957  0.32247630  0.98198768  1
  Al0+  Al87  1  0.82224655  0.57124262  0.01447973  1
  Al0+  Al88  1  0.92988047  0.31916416  0.32215300  1
  Al0+  Al89  1  0.82459487  0.57332340  0.34721979  1
  Al0+  Al90  1  0.81881087  0.07051259  0.34497309  1
  Al0+  Al91  1  0.07139660  0.67864337  0.98332161  1
  Al0+  Al92  1  0.92813263  0.82269517  0.98718091  1
  Al0+  Al93  1  0.82137002  0.06824968  0.68188149  1
  Al0+  Al94  1  0.17994926  0.92561620  0.35174498  1
  Al0+  Al95  1  0.92809319  0.82104526  0.65173746  1
  Si0+  Si96  1  0.17746533  0.42708947  0.34645874  1
  Si0+  Si97  1  0.67538160  0.92856877  0.68281521  1
  Si0+  Si98  1  0.92844228  0.31993850  0.65089373  1
  Si0+  Si99  1  0.67604918  0.92680173  0.34937787  1
  Si0+  Si100  1  0.32209178  0.07239828  0.68288101  1
  Si0+  Si101  1  0.56773797  0.67858393  0.65354574  1
  Si0+  Si102  1  0.67916918  0.42697593  0.01848771  1
  Si0+  Si103  1  0.17827393  0.42477578  0.68356039  1
  Si0+  Si104  1  0.31976849  0.56857594  0.34466698  1
  Si0+  Si105  1  0.32177315  0.57110908  0.01689671  1
  Si0+  Si106  1  0.67733862  0.92985121  0.01448287  1
  Si0+  Si107  1  0.92833945  0.82538902  0.31811625  1
  Si0+  Si108  1  0.42932312  0.32131071  0.65222180  1
  Si0+  Si109  1  0.07208414  0.17828637  0.98532230  1
  Si0+  Si110  1  0.57141753  0.18006052  0.64908646  1
  Si0+  Si111  1  0.07186466  0.17520839  0.31766414  1
  Si0+  Si112  1  0.82067598  0.07176098  0.01455226  1
  Si0+  Si113  1  0.57366182  0.67814182  0.98267563  1
  Si0+  Si114  1  0.42652158  0.82219244  0.65196487  1
  Si0+  Si115  1  0.07210668  0.17870827  0.65151809  1
  Si0+  Si116  1  0.32329754  0.07201658  0.01530956  1
  Si0+  Si117  1  0.18098657  0.93061357  0.68421323  1
  Si0+  Si118  1  0.07229755  0.67790679  0.64892362  1
  Si0+  Si119  1  0.18016798  0.42801808  0.01530996  1
  O2-  O120  1  0.25559922  0.00305841  0.05952154  1
  O2-  O121  1  0.25269374  -0.00180555  0.40063362  1
  O2-  O122  1  0.25412818  -0.00039255  0.72692993  1
  O2-  O123  1  0.25218278  0.49797406  0.05782100  1
  O2-  O124  1  0.25426626  0.49247081  0.38775867  1
  O2-  O125  1  0.24352626  0.49685278  0.72734120  1
  O2-  O126  1  0.74988092  0.00013037  0.05554728  1
  O2-  O127  1  0.74578033  -0.00517336  0.39341959  1
  O2-  O128  1  0.74829420  -0.00797746  0.72871916  1
  O2-  O129  1  0.74760272  0.49633761  0.06107944  1
  O2-  O130  1  0.74671032  0.50700858  0.39609446  1
  O2-  O131  1  0.75253110  0.49966078  0.73274136  1
  O2-  O132  1  0.00176448  0.24201157  0.27364274  1
  O2-  O133  1  0.00078238  0.24943535  0.60929500  1
  O2-  O134  1  0.00244857  0.24389939  0.93762882  1
  O2-  O135  1  -0.00835491  0.75209668  0.27456964  1
  O2-  O136  1  -0.00192829  0.74098750  0.60587213  1
  O2-  O137  1  -0.00346278  0.74836702  0.93497117  1
  O2-  O138  1  0.49575311  0.24812897  0.27173232  1
  O2-  O139  1  0.50146439  0.25284016  0.60875213  1
  O2-  O140  1  0.49999297  0.25183393  0.93096271  1
  O2-  O141  1  0.50523516  0.75238432  0.27044591  1
  O2-  O142  1  0.49699163  0.75049236  0.61101403  1
  O2-  O143  1  0.50294851  0.74376913  0.93587839  1
  O2-  O144  1  0.07258118  0.18112146  0.09039981  1
  O2-  O145  1  0.07255603  0.17866280  0.42389939  1
  O2-  O146  1  0.07354491  0.17956958  0.75673673  1
  O2-  O147  1  0.07202822  0.67936154  0.09672719  1
  O2-  O148  1  0.07027154  0.67968861  0.43435646  1
  O2-  O149  1  0.07714572  0.68130986  0.75394307  1
  O2-  O150  1  0.57145393  0.17836224  0.09461209  1
  O2-  O151  1  0.57308206  0.18257244  0.43399745  1
  O2-  O152  1  0.56885257  0.17709029  0.75387538  1
  O2-  O153  1  0.57239148  0.68092952  0.08779667  1
  O2-  O154  1  0.56945984  0.67600559  0.43301569  1
  O2-  O155  1  0.56641686  0.68087621  0.75872458  1
  O2-  O156  1  0.17503811  0.42864180  0.24148696  1
  O2-  O157  1  0.18019833  0.42082379  0.57799094  1
  O2-  O158  1  0.18118879  0.42726288  0.90991841  1
  O2-  O159  1  0.18064321  0.92618046  0.23837780  1
  O2-  O160  1  0.18250199  0.93004287  0.57955611  1
  O2-  O161  1  0.18040511  0.93165484  0.90143538  1
  O2-  O162  1  0.68125533  0.42921569  0.23232227  1
  O2-  O163  1  0.67598457  0.42903529  0.57072481  1
  O2-  O164  1  0.68026485  0.42864201  0.91252261  1
  O2-  O165  1  0.67684018  0.92707616  0.24362914  1
  O2-  O166  1  0.67172166  0.93163625  0.57765160  1
  O2-  O167  1  0.67607309  0.93018043  0.90914489  1
  O2-  O168  1  0.42432161  0.31990973  0.09474301  1
  O2-  O169  1  0.42640754  0.32364983  0.43451516  1
  O2-  O170  1  0.42720513  0.31807506  0.75693053  1
  O2-  O171  1  0.43140230  0.81827290  0.09864743  1
  O2-  O172  1  0.42875711  0.81469570  0.43455513  1
  O2-  O173  1  0.42684575  0.82207525  0.75718509  1
  O2-  O174  1  0.92957526  0.31944586  0.09765632  1
  O2-  O175  1  0.93223899  0.31840778  0.43568073  1
  O2-  O176  1  0.93129383  0.31845456  0.75614089  1
  O2-  O177  1  0.92962365  0.82567836  0.10026641  1
  O2-  O178  1  0.93115301  0.82694635  0.42399528  1
  O2-  O179  1  0.93296310  0.82386534  0.76449684  1
  O2-  O180  1  0.31886381  0.07298660  0.23481872  1
  O2-  O181  1  0.32065899  0.07380926  0.57849168  1
  O2-  O182  1  0.32031521  0.07043674  0.90864729  1
  O2-  O183  1  0.31688270  0.57010661  0.23975923  1
  O2-  O184  1  0.31912804  0.57000156  0.56610468  1
  O2-  O185  1  0.31949642  0.57157636  0.91134856  1
  O2-  O186  1  0.81849417  0.07030889  0.23163974  1
  O2-  O187  1  0.81947055  0.07029147  0.56895197  1
  O2-  O188  1  0.82146047  0.07016055  0.90923483  1
  O2-  O189  1  0.82713385  0.56809039  0.23369938  1
  O2-  O190  1  0.82064049  0.57146864  0.56885665  1
  O2-  O191  1  0.81934432  0.57064137  0.90113236  1
  O2-  O192  1  0.04810078  0.08011992  0.27541223  1
  O2-  O193  1  0.04592073  0.08688062  0.60443380  1
  O2-  O194  1  0.04756018  0.08409598  0.94011324  1
  O2-  O195  1  0.04199276  0.58285999  0.26545896  1
  O2-  O196  1  0.05546829  0.58043402  0.60659224  1
  O2-  O197  1  0.04943992  0.57966862  0.92887757  1
  O2-  O198  1  0.54832253  0.07968802  0.26786981  1
  O2-  O199  1  0.54239823  0.08857536  0.60136964  1
  O2-  O200  1  0.54265394  0.08197753  0.92451662  1
  O2-  O201  1  0.54301329  0.58252266  0.26173994  1
  O2-  O202  1  0.53651223  0.58659074  0.60864205  1
  O2-  O203  1  0.55074985  0.58341754  0.93836974  1
  O2-  O204  1  0.16406545  0.20140679  0.27051092  1
  O2-  O205  1  0.16380280  0.20749804  0.60326373  1
  O2-  O206  1  0.16452566  0.20474083  0.93641971  1
  O2-  O207  1  0.16358320  0.71075272  0.26573932  1
  O2-  O208  1  0.16405181  0.71070451  0.60163869  1
  O2-  O209  1  0.16872883  0.71007150  0.92966231  1
  O2-  O210  1  0.66761224  0.21116417  0.26460068  1
  O2-  O211  1  0.66499020  0.20681636  0.60534696  1
  O2-  O212  1  0.66841168  0.20696890  0.92569113  1
  O2-  O213  1  0.67417940  0.70410309  0.26641828  1
  O2-  O214  1  0.65875025  0.70481930  0.60459744  1
  O2-  O215  1  0.66543804  0.70822796  0.93580080  1
  O2-  O216  1  0.08838998  0.45627444  0.06176504  1
  O2-  O217  1  0.08992289  0.46142530  0.39811567  1
  O2-  O218  1  0.08363974  0.44685854  0.72861952  1
  O2-  O219  1  0.08434020  0.96028642  0.07132439  1
  O2-  O220  1  0.08365731  0.95613784  0.40814735  1
  O2-  O221  1  0.09050995  0.96225528  0.73131843  1
  O2-  O222  1  0.58378901  0.45009165  0.06163448  1
  O2-  O223  1  0.57837259  0.45709503  0.39807079  1
  O2-  O224  1  0.58120191  0.45806690  0.73948894  1
  O2-  O225  1  0.58578346  0.96028156  0.06097823  1
  O2-  O226  1  0.58251809  0.95068575  0.39611579  1
  O2-  O227  1  0.58312272  0.95975733  0.73079116  1
  O2-  O228  1  0.20640074  0.33551680  0.06257563  1
  O2-  O229  1  0.19722224  0.33389280  0.39470689  1
  O2-  O230  1  0.20713088  0.33280384  0.73224655  1
  O2-  O231  1  0.21203392  0.83154945  0.06659532  1
  O2-  O232  1  0.21081403  0.82791632  0.40596568  1
  O2-  O233  1  0.20721982  0.83879434  0.73212315  1
  O2-  O234  1  0.70629445  0.33200796  0.05987522  1
  O2-  O235  1  0.71111277  0.33511713  0.40061441  1
  O2-  O236  1  0.70629216  0.33068856  0.73748426  1
  O2-  O237  1  0.70222033  0.83831283  0.06306357  1
  O2-  O238  1  0.70036761  0.83327649  0.39670483  1
  O2-  O239  1  0.69426901  0.83316287  0.72721987  1
  O2-  O240  1  0.45221799  0.41936092  0.26472018  1
  O2-  O241  1  0.45360446  0.41611181  0.60965028  1
  O2-  O242  1  0.45482113  0.42223675  0.93024169  1
  O2-  O243  1  0.45108710  0.91940649  0.26845640  1
  O2-  O244  1  0.45404621  0.91465300  0.60575887  1
  O2-  O245  1  0.46010505  0.91407606  0.92936104  1
  O2-  O246  1  0.96582727  0.41280714  0.26683412  1
  O2-  O247  1  0.95590264  0.41240593  0.60465506  1
  O2-  O248  1  0.96529788  0.41383782  0.92789876  1
  O2-  O249  1  0.95932901  0.91785498  0.27280375  1
  O2-  O250  1  0.96444856  0.91699168  0.59868953  1
  O2-  O251  1  0.96095679  0.92092040  0.93413747  1
  O2-  O252  1  0.32553695  0.29630832  0.26902727  1
  O2-  O253  1  0.33709896  0.29274878  0.60542544  1
  O2-  O254  1  0.32903751  0.29428360  0.92691344  1
  O2-  O255  1  0.33275997  0.78524847  0.26749336  1
  O2-  O256  1  0.33385323  0.79485081  0.60672275  1
  O2-  O257  1  0.33497031  0.78665140  0.93053908  1
  O2-  O258  1  0.83494119  0.28857232  0.26654868  1
  O2-  O259  1  0.83641798  0.28877679  0.60701481  1
  O2-  O260  1  0.83485336  0.29029169  0.92757601  1
  O2-  O261  1  0.83245544  0.80946219  0.27415475  1
  O2-  O262  1  0.82827440  0.79927989  0.59953182  1
  O2-  O263  1  0.82814747  0.79931901  0.93440160  1
  O2-  O264  1  0.41839833  0.04673818  0.05643245  1
  O2-  O265  1  0.42147204  0.04592085  0.40218117  1
  O2-  O266  1  0.41537140  0.04699827  0.72867467  1
  O2-  O267  1  0.41531838  0.54608830  0.06184815  1
  O2-  O268  1  0.41290278  0.54572331  0.39154732  1
  O2-  O269  1  0.41216295  0.54189490  0.73894559  1
  O2-  O270  1  0.91236297  0.04653627  0.06278519  1
  O2-  O271  1  0.91537369  0.04353448  0.40185938  1
  O2-  O272  1  0.91965129  0.04117405  0.73516717  1
  O2-  O273  1  0.92123480  0.53954114  0.06259668  1
  O2-  O274  1  0.92042705  0.53759918  0.40190137  1
  O2-  O275  1  0.92282748  0.54736759  0.73253751  1
  O2-  O276  1  0.29764592  0.16652672  0.05835227  1
  O2-  O277  1  0.29012133  0.16887564  0.40402096  1
  O2-  O278  1  0.29175026  0.16331900  0.73124264  1
  O2-  O279  1  0.29171858  0.66184824  0.06391665  1
  O2-  O280  1  0.28619933  0.65704558  0.39494435  1
  O2-  O281  1  0.28733399  0.66768185  0.73510235  1
  O2-  O282  1  0.79074744  0.16450434  0.05841779  1
  O2-  O283  1  0.78686116  0.16610818  0.40058044  1
  O2-  O284  1  0.78890213  0.16334988  0.73744397  1
  O2-  O285  1  0.79298177  0.66898905  0.06705548  1
  O2-  O286  1  0.80499426  0.67534318  0.39594577  1
  O2-  O287  1  0.79082241  0.67266582  0.73288514  1
