# generated using pymatgen
data_Ca2Al2SiO7
_symmetry_space_group_name_H-M   'P 1'
_cell_length_a   15.46462522
_cell_length_b   15.46317775
_cell_length_c   15.28861015
_cell_angle_alpha   90.00234687
_cell_angle_beta   89.97873095
_cell_angle_gamma   89.99019748
_symmetry_Int_Tables_number   1
_chemical_formula_structural   Ca2Al2SiO7
_chemical_formula_sum   'Ca48 Al48 Si24 O168'
_cell_volume   3655.99941553
_cell_formula_units_Z   24
loop_
 _symmetry_equiv_pos_site_id
 _symmetry_equiv_pos_as_xyz
  1  'x, y, z'
loop_
 _atom_type_symbol
 _atom_type_oxidation_number
  Ca2+  2.0
  Al0+  0.0
  Si0+  0.0
  O2-  -2.0
loop_
 _atom_site_type_symbol
 _atom_site_label
 _atom_site_symmetry_multiplicity
 _atom_site_fract_x
 _atom_site_fract_y
 _atom_site_fract_z
 _atom_site_occupancy
  Ca2+  Ca0  1  0.16183477  0.08371962  0.16807731  1
  Ca2+  Ca1  1  0.16520782  0.08334527  0.50869718  1
  Ca2+  Ca2  1  0.16123531  0.08966410  0.83490643  1
  Ca2+  Ca3  1  0.16888890  0.59055121  0.16535286  1
  Ca2+  Ca4  1  0.17653769  0.57449959  0.51210583  1
  Ca2+  Ca5  1  0.17463853  0.58305433  0.83810376  1
  Ca2+  Ca6  1  0.68039016  0.07754671  0.16853934  1
  Ca2+  Ca7  1  0.67766621  0.08542379  0.50736658  1
  Ca2+  Ca8  1  0.67779309  0.08173558  0.83772050  1
  Ca2+  Ca9  1  0.68194988  0.57891881  0.17096161  1
  Ca2+  Ca10  1  0.66655057  0.57579886  0.50288282  1
  Ca2+  Ca11  1  0.66865265  0.57781698  0.83362631  1
  Ca2+  Ca12  1  0.07379243  0.32556452  0.15530140  1
  Ca2+  Ca13  1  0.08211481  0.33252107  0.50398266  1
  Ca2+  Ca14  1  0.07202534  0.32689019  0.82739659  1
  Ca2+  Ca15  1  0.06945706  0.82579748  0.15995892  1
  Ca2+  Ca16  1  0.07227194  0.83167397  0.49848538  1
  Ca2+  Ca17  1  0.07147524  0.82626443  0.83311981  1
  Ca2+  Ca18  1  0.58253820  0.34085275  0.16960538  1
  Ca2+  Ca19  1  0.57990622  0.33918492  0.49938369  1
  Ca2+  Ca20  1  0.58086615  0.33095286  0.81897514  1
  Ca2+  Ca21  1  0.58084718  0.83805182  0.16281983  1
  Ca2+  Ca22  1  0.57923954  0.82485199  0.49672761  1
  Ca2+  Ca23  1  0.58945696  0.82644104  0.82789295  1
  Ca2+  Ca24  1  0.33251440  0.42116774  0.16991429  1
  Ca2+  Ca25  1  0.33124944  0.41382734  0.51258903  1
  Ca2+  Ca26  1  0.33101853  0.42264068  0.83192140  1
  Ca2+  Ca27  1  0.33079432  0.91700693  0.17338950  1
  Ca2+  Ca28  1  0.33308380  0.91482889  0.50357573  1
  Ca2+  Ca29  1  0.32898931  0.91886533  0.83941730  1
  Ca2+  Ca30  1  0.83609544  0.42585303  0.17321091  1
  Ca2+  Ca31  1  0.82322288  0.41763237  0.50752703  1
  Ca2+  Ca32  1  0.83069784  0.41255298  0.83831156  1
  Ca2+  Ca33  1  0.84216363  0.92374369  0.16898033  1
  Ca2+  Ca34  1  0.84399435  0.92564696  0.50487515  1
  Ca2+  Ca35  1  0.83667407  0.92557003  0.83926731  1
  Ca2+  Ca36  1  0.41915357  0.17530558  0.16350596  1
  Ca2+  Ca37  1  0.42433042  0.17875087  0.49818114  1
  Ca2+  Ca38  1  0.42754258  0.17383122  0.82217319  1
  Ca2+  Ca39  1  0.41709756  0.67020926  0.16208759  1
  Ca2+  Ca40  1  0.42371469  0.66105113  0.49910258  1
  Ca2+  Ca41  1  0.42095282  0.66020896  0.82586448  1
  Ca2+  Ca42  1  0.91467667  0.16994254  0.15749699  1
  Ca2+  Ca43  1  0.91223752  0.16995228  0.50414886  1
  Ca2+  Ca44  1  0.91631351  0.17261458  0.82688021  1
  Ca2+  Ca45  1  0.91369758  0.67100627  0.15568734  1
  Ca2+  Ca46  1  0.90881088  0.67806183  0.49414236  1
  Ca2+  Ca47  1  0.90349770  0.67859734  0.83209291  1
  Al0+  Al48  1  0.00196268  -0.00174061  -0.00130921  1
  Al0+  Al49  1  0.00209608  -0.00231814  0.33437781  1
  Al0+  Al50  1  0.00058157  -0.00029563  0.66502141  1
  Al0+  Al51  1  0.00191211  0.49831273  -0.00351375  1
  Al0+  Al52  1  0.00337284  0.50006856  0.33827258  1
  Al0+  Al53  1  0.00042175  0.50157133  0.66771732  1
  Al0+  Al54  1  0.49813652  0.00169773  0.00405035  1
  Al0+  Al55  1  0.50035993  0.00134121  0.32994874  1
  Al0+  Al56  1  0.50025898  -0.00064466  0.66307673  1
  Al0+  Al57  1  0.49740090  0.50250470  0.00543688  1
  Al0+  Al58  1  0.50030385  0.50053458  0.32916513  1
  Al0+  Al59  1  0.50162755  0.50124261  0.66620239  1
  Al0+  Al60  1  0.25081097  0.25186968  -0.00255041  1
  Al0+  Al61  1  0.25259440  0.24965880  0.32852092  1
  Al0+  Al62  1  0.24949539  0.24924954  0.66602195  1
  Al0+  Al63  1  0.24990104  0.75177023  0.00165419  1
  Al0+  Al64  1  0.25017107  0.75074584  0.33177191  1
  Al0+  Al65  1  0.24832421  0.75150246  0.67149963  1
  Al0+  Al66  1  0.74624426  0.24717619  0.00279383  1
  Al0+  Al67  1  0.75031583  0.24870524  0.33919360  1
  Al0+  Al68  1  0.75134386  0.24941229  0.66773318  1
  Al0+  Al69  1  0.74500707  0.74780482  0.00289421  1
  Al0+  Al70  1  0.74875754  0.75221686  0.33056227  1
  Al0+  Al71  1  0.74717751  0.75100173  0.65462227  1
  Al0+  Al72  1  0.82167835  0.56826038  0.00997515  1
  Al0+  Al73  1  0.67690646  0.92781400  0.01416889  1
  Al0+  Al74  1  0.82426830  0.57375962  0.34875734  1
  Al0+  Al75  1  0.56945086  0.67924978  0.65261008  1
  Al0+  Al76  1  0.82298891  0.06823196  0.34923879  1
  Al0+  Al77  1  0.06968676  0.17946533  0.65082734  1
  Al0+  Al78  1  0.07294250  0.67771434  0.98452197  1
  Al0+  Al79  1  0.67973208  0.43030823  0.34887958  1
  Al0+  Al80  1  0.31979057  0.57178168  0.01636029  1
  Al0+  Al81  1  0.82274828  0.06936868  0.01516797  1
  Al0+  Al82  1  0.92761920  0.32447061  0.65051967  1
  Al0+  Al83  1  0.43108366  0.32078860  0.65366369  1
  Al0+  Al84  1  0.42958766  0.32134560  0.31718739  1
  Al0+  Al85  1  0.42900907  0.82114285  0.31947579  1
  Al0+  Al86  1  0.92936351  0.82013109  0.31843424  1
  Al0+  Al87  1  0.07195074  0.17818660  0.98610757  1
  Al0+  Al88  1  0.57395546  0.17653919  0.65156734  1
  Al0+  Al89  1  0.17645409  0.42602674  0.68413269  1
  Al0+  Al90  1  0.32120335  0.57116026  0.68108385  1
  Al0+  Al91  1  0.92511422  0.81826727  0.98465874  1
  Al0+  Al92  1  0.92976851  0.81893912  0.65248170  1
  Al0+  Al93  1  0.92483329  0.32046848  0.98723391  1
  Al0+  Al94  1  0.82105824  0.06901996  0.68126997  1
  Al0+  Al95  1  0.68154026  0.43027039  0.68023948  1
  Si0+  Si96  1  0.32045367  0.07283642  0.01580547  1
  Si0+  Si97  1  0.18178185  0.92975808  0.34942820  1
  Si0+  Si98  1  0.07518820  0.67860044  0.65002511  1
  Si0+  Si99  1  0.17879745  0.92986367  0.68363328  1
  Si0+  Si100  1  0.92930447  0.32083315  0.32072792  1
  Si0+  Si101  1  0.17958110  0.42692265  0.01816957  1
  Si0+  Si102  1  0.82137563  0.57597013  0.68090146  1
  Si0+  Si103  1  0.43071465  0.32340777  0.98462086  1
  Si0+  Si104  1  0.67470248  0.92902666  0.35150959  1
  Si0+  Si105  1  0.18028459  0.92918099  0.01682369  1
  Si0+  Si106  1  0.42482516  0.82278049  0.65219997  1
  Si0+  Si107  1  0.67590395  0.42660555  0.01570019  1
  Si0+  Si108  1  0.07277179  0.67697664  0.31849109  1
  Si0+  Si109  1  0.56790364  0.17780148  0.98606504  1
  Si0+  Si110  1  0.57412868  0.17843853  0.31399334  1
  Si0+  Si111  1  0.32254566  0.07007109  0.68112576  1
  Si0+  Si112  1  0.32194795  0.07248595  0.34863342  1
  Si0+  Si113  1  0.07203873  0.17922513  0.31941224  1
  Si0+  Si114  1  0.18128468  0.42573210  0.34780671  1
  Si0+  Si115  1  0.31939755  0.57171558  0.34720971  1
  Si0+  Si116  1  0.67635737  0.92662150  0.68031739  1
  Si0+  Si117  1  0.42883672  0.82318499  0.98546439  1
  Si0+  Si118  1  0.56774082  0.67879208  0.98503105  1
  Si0+  Si119  1  0.57113988  0.67820984  0.31214518  1
  O2-  O120  1  0.24732636  0.00464876  0.05897628  1
  O2-  O121  1  0.25288074  0.00047989  0.39226792  1
  O2-  O122  1  0.25187400  -0.00042620  0.72502408  1
  O2-  O123  1  0.24388214  0.49919122  0.06464672  1
  O2-  O124  1  0.25160827  0.49812988  0.38898569  1
  O2-  O125  1  0.24776141  0.50083502  0.73143928  1
  O2-  O126  1  0.75427292  -0.00659266  0.06527762  1
  O2-  O127  1  0.74731155  -0.00668768  0.39523553  1
  O2-  O128  1  0.74353727  -0.00442106  0.72511169  1
  O2-  O129  1  0.75222989  0.48814220  0.05727881  1
  O2-  O130  1  0.75322978  0.50088526  0.39860831  1
  O2-  O131  1  0.76000697  0.50135786  0.72627181  1
  O2-  O132  1  -0.00038773  0.24874358  0.27817000  1
  O2-  O133  1  0.00087208  0.25329862  0.59957395  1
  O2-  O134  1  -0.00501212  0.24554236  0.93860600  1
  O2-  O135  1  -0.00300203  0.73771837  0.27440913  1
  O2-  O136  1  0.00117912  0.74085672  0.60517067  1
  O2-  O137  1  -0.00606032  0.74235090  0.93491908  1
  O2-  O138  1  0.50657637  0.24909999  0.26971266  1
  O2-  O139  1  0.50390960  0.25067621  0.60183339  1
  O2-  O140  1  0.50389638  0.25494241  0.94353131  1
  O2-  O141  1  0.50387087  0.74947368  0.26888101  1
  O2-  O142  1  0.49133120  0.75240068  0.60848010  1
  O2-  O143  1  0.49935125  0.75299065  0.94287190  1
  O2-  O144  1  0.07463345  0.18146849  0.10064795  1
  O2-  O145  1  0.07610911  0.17991274  0.42381251  1
  O2-  O146  1  0.06785507  0.17780669  0.76385916  1
  O2-  O147  1  0.07490103  0.68369255  0.09864763  1
  O2-  O148  1  0.07900586  0.68112012  0.42363410  1
  O2-  O149  1  0.08061943  0.68432651  0.75488090  1
  O2-  O150  1  0.56427657  0.17630327  0.09120290  1
  O2-  O151  1  0.57086888  0.17586700  0.41903260  1
  O2-  O152  1  0.56918039  0.17549622  0.76580845  1
  O2-  O153  1  0.56446791  0.67723543  0.08992119  1
  O2-  O154  1  0.56780693  0.67711094  0.41769962  1
  O2-  O155  1  0.57038873  0.68135687  0.76609568  1
  O2-  O156  1  0.18125441  0.42418039  0.24281325  1
  O2-  O157  1  0.18109881  0.42734725  0.56926454  1
  O2-  O158  1  0.18534290  0.42340176  0.91359965  1
  O2-  O159  1  0.18268615  0.93138866  0.24434064  1
  O2-  O160  1  0.18103810  0.92904680  0.57806503  1
  O2-  O161  1  0.18457225  0.92659506  0.91190778  1
  O2-  O162  1  0.68151369  0.43180279  0.23459196  1
  O2-  O163  1  0.67889161  0.43343921  0.56756017  1
  O2-  O164  1  0.67053082  0.42896542  0.91044498  1
  O2-  O165  1  0.67153466  0.93273461  0.24605751  1
  O2-  O166  1  0.67515904  0.92645656  0.57480251  1
  O2-  O167  1  0.67171874  0.93188172  0.90082289  1
  O2-  O168  1  0.43015924  0.32160677  0.09013092  1
  O2-  O169  1  0.42511766  0.31876833  0.42929332  1
  O2-  O170  1  0.43262782  0.31873272  0.76775814  1
  O2-  O171  1  0.42887364  0.82286521  0.09071026  1
  O2-  O172  1  0.42740799  0.81854777  0.43233168  1
  O2-  O173  1  0.42524486  0.82594554  0.75784982  1
  O2-  O174  1  0.92778614  0.32040589  0.10210395  1
  O2-  O175  1  0.93142992  0.32121963  0.42521887  1
  O2-  O176  1  0.92588985  0.32076060  0.76381877  1
  O2-  O177  1  0.92930150  0.81882504  0.09843186  1
  O2-  O178  1  0.93580982  0.82275641  0.43142265  1
  O2-  O179  1  0.92935424  0.81905409  0.76527318  1
  O2-  O180  1  0.31922897  0.07272579  0.24320825  1
  O2-  O181  1  0.32235574  0.06717904  0.57577039  1
  O2-  O182  1  0.32365925  0.07002674  0.91088899  1
  O2-  O183  1  0.31646174  0.57289747  0.24200219  1
  O2-  O184  1  0.31980990  0.57244826  0.56674797  1
  O2-  O185  1  0.32323638  0.56998387  0.90411206  1
  O2-  O186  1  0.82416008  0.06839511  0.23622719  1
  O2-  O187  1  0.82188486  0.06553216  0.56791219  1
  O2-  O188  1  0.81977474  0.07060790  0.90199900  1
  O2-  O189  1  0.82490386  0.57029063  0.23470479  1
  O2-  O190  1  0.81678273  0.57773401  0.57543926  1
  O2-  O191  1  0.81399314  0.57201609  0.89732186  1
  O2-  O192  1  0.04659971  0.08600135  0.27377216  1
  O2-  O193  1  0.04181539  0.08107919  0.59699500  1
  O2-  O194  1  0.05454337  0.07656928  0.93697834  1
  O2-  O195  1  0.05732371  0.58005705  0.27491770  1
  O2-  O196  1  0.05776156  0.58249297  0.60721129  1
  O2-  O197  1  0.05858065  0.57568013  0.93647443  1
  O2-  O198  1  0.54446494  0.08648292  0.26652462  1
  O2-  O199  1  0.54256009  0.07939512  0.59677040  1
  O2-  O200  1  0.53201264  0.08925654  0.93778368  1
  O2-  O201  1  0.54234894  0.58659613  0.26432685  1
  O2-  O202  1  0.53768736  0.58490463  0.59590682  1
  O2-  O203  1  0.53529070  0.58804800  0.93793094  1
  O2-  O204  1  0.16311273  0.20692403  0.26968496  1
  O2-  O205  1  0.17006930  0.20321645  0.59870839  1
  O2-  O206  1  0.17020683  0.20897008  0.93298314  1
  O2-  O207  1  0.16280846  0.71125418  0.26922867  1
  O2-  O208  1  0.16620628  0.71153501  0.60133360  1
  O2-  O209  1  0.16905471  0.71584328  0.93208044  1
  O2-  O210  1  0.66827213  0.20419950  0.26893313  1
  O2-  O211  1  0.67206973  0.20286710  0.60005509  1
  O2-  O212  1  0.66161342  0.19835638  0.94067559  1
  O2-  O213  1  0.66502065  0.70323767  0.26689730  1
  O2-  O214  1  0.66115299  0.71237243  0.59114176  1
  O2-  O215  1  0.65910179  0.70341071  0.93647016  1
  O2-  O216  1  0.08425651  0.44699126  0.06271857  1
  O2-  O217  1  0.09012223  0.45135248  0.39710325  1
  O2-  O218  1  0.07706513  0.45255054  0.73549852  1
  O2-  O219  1  0.08835998  0.95343516  0.06539513  1
  O2-  O220  1  0.09153877  0.95865801  0.39843270  1
  O2-  O221  1  0.08888203  0.96034697  0.73152861  1
  O2-  O222  1  0.58604022  0.46108495  0.06502107  1
  O2-  O223  1  0.57971584  0.46072117  0.39832041  1
  O2-  O224  1  0.58631549  0.46450643  0.73494807  1
  O2-  O225  1  0.58007809  0.96254833  0.06981478  1
  O2-  O226  1  0.58140903  0.95694667  0.39801328  1
  O2-  O227  1  0.58127385  0.94837735  0.72610384  1
  O2-  O228  1  0.21148059  0.33522283  0.06687874  1
  O2-  O229  1  0.21188651  0.33443019  0.39451860  1
  O2-  O230  1  0.20723530  0.32784396  0.73595260  1
  O2-  O231  1  0.21395604  0.84101731  0.06762064  1
  O2-  O232  1  0.21116358  0.83838578  0.39708165  1
  O2-  O233  1  0.20583087  0.83930123  0.73366439  1
  O2-  O234  1  0.69106985  0.33058751  0.06063043  1
  O2-  O235  1  0.70345446  0.33077171  0.40044265  1
  O2-  O236  1  0.70728791  0.33251669  0.73403634  1
  O2-  O237  1  0.69405025  0.82688485  0.06606453  1
  O2-  O238  1  0.69440771  0.83257017  0.39294407  1
  O2-  O239  1  0.70358982  0.83248391  0.72431659  1
  O2-  O240  1  0.45783217  0.41843054  0.26209449  1
  O2-  O241  1  0.45782069  0.41894491  0.60078231  1
  O2-  O242  1  0.45630036  0.41673963  0.94037145  1
  O2-  O243  1  0.45511016  0.91957492  0.26532867  1
  O2-  O244  1  0.45129615  0.91462675  0.60283719  1
  O2-  O245  1  0.45350881  0.91651789  0.93946907  1
  O2-  O246  1  0.95946793  0.41306438  0.27450236  1
  O2-  O247  1  0.95278126  0.42477344  0.59874717  1
  O2-  O248  1  0.95329000  0.41775454  0.93353762  1
  O2-  O249  1  0.97045248  0.91388026  0.26454811  1
  O2-  O250  1  0.96835358  0.91258745  0.59837015  1
  O2-  O251  1  0.95965701  0.91547670  0.93366539  1
  O2-  O252  1  0.33516997  0.28603198  0.25968813  1
  O2-  O253  1  0.33354891  0.28965214  0.60113492  1
  O2-  O254  1  0.34008232  0.29315589  0.93788227  1
  O2-  O255  1  0.33248387  0.78994262  0.26422546  1
  O2-  O256  1  0.33009000  0.80039655  0.60703073  1
  O2-  O257  1  0.33710366  0.79611620  0.93871738  1
  O2-  O258  1  0.83692544  0.29361995  0.27475893  1
  O2-  O259  1  0.83088320  0.29187008  0.59716869  1
  O2-  O260  1  0.82422247  0.29482122  0.93735912  1
  O2-  O261  1  0.82922917  0.80083652  0.26722030  1
  O2-  O262  1  0.83378424  0.79316836  0.59497762  1
  O2-  O263  1  0.82463952  0.79231177  0.93440733  1
  O2-  O264  1  0.40938862  0.04230431  0.06731429  1
  O2-  O265  1  0.41444477  0.04577206  0.39433159  1
  O2-  O266  1  0.41409959  0.04125139  0.72938923  1
  O2-  O267  1  0.41467733  0.53936039  0.07391341  1
  O2-  O268  1  0.41327811  0.54686362  0.39024945  1
  O2-  O269  1  0.41906095  0.54211570  0.73387442  1
  O2-  O270  1  0.92328478  0.04464239  0.06669077  1
  O2-  O271  1  0.91993496  0.03580886  0.40206195  1
  O2-  O272  1  0.91703222  0.03446314  0.73372637  1
  O2-  O273  1  0.92105613  0.54512667  0.06301384  1
  O2-  O274  1  0.92466272  0.55068796  0.40050555  1
  O2-  O275  1  0.91852746  0.56231982  0.72265712  1
  O2-  O276  1  0.29481403  0.16570743  0.06282860  1
  O2-  O277  1  0.29178375  0.16363695  0.39542992  1
  O2-  O278  1  0.29559845  0.16119305  0.72921180  1
  O2-  O279  1  0.29083456  0.66986538  0.06970467  1
  O2-  O280  1  0.29023247  0.66289656  0.39492842  1
  O2-  O281  1  0.29520426  0.67096580  0.73403451  1
  O2-  O282  1  0.78839489  0.16618767  0.07027289  1
  O2-  O283  1  0.79267521  0.16480592  0.40261627  1
  O2-  O284  1  0.79192165  0.16561342  0.73466283  1
  O2-  O285  1  0.78460692  0.66187324  0.06687374  1
  O2-  O286  1  0.79327582  0.67328102  0.39796973  1
  O2-  O287  1  0.78569520  0.66764870  0.72530473  1
