# generated using pymatgen
data_Ca2Al2SiO7
_symmetry_space_group_name_H-M   'P 1'
_cell_length_a   15.46770439
_cell_length_b   15.46869455
_cell_length_c   15.29154035
_cell_angle_alpha   90.00768200
_cell_angle_beta   89.99303803
_cell_angle_gamma   89.99829046
_symmetry_Int_Tables_number   1
_chemical_formula_structural   Ca2Al2SiO7
_chemical_formula_sum   'Ca48 Al48 Si24 O168'
_cell_volume   3658.73331598
_cell_formula_units_Z   24
loop_
 _symmetry_equiv_pos_site_id
 _symmetry_equiv_pos_as_xyz
  1  'x, y, z'
loop_
 _atom_type_symbol
 _atom_type_oxidation_number
  Ca2+  2.0
  Al0+  0.0
  Si0+  0.0
  O2-  -2.0
loop_
 _atom_site_type_symbol
 _atom_site_label
 _atom_site_symmetry_multiplicity
 _atom_site_fract_x
 _atom_site_fract_y
 _atom_site_fract_z
 _atom_site_occupancy
  Ca2+  Ca0  1  0.16710653  0.07312901  0.16903437  1
  Ca2+  Ca1  1  0.17409170  0.08094557  0.50550162  1
  Ca2+  Ca2  1  0.17467743  0.07525688  0.83916085  1
  Ca2+  Ca3  1  0.16402241  0.58492846  0.17403509  1
  Ca2+  Ca4  1  0.15811788  0.58182057  0.49783976  1
  Ca2+  Ca5  1  0.16344123  0.59020873  0.83724468  1
  Ca2+  Ca6  1  0.66598831  0.07318508  0.17129435  1
  Ca2+  Ca7  1  0.67185776  0.07792440  0.49397753  1
  Ca2+  Ca8  1  0.66675240  0.07880301  0.84235216  1
  Ca2+  Ca9  1  0.67668623  0.58106955  0.17597845  1
  Ca2+  Ca10  1  0.67855422  0.59078164  0.49830186  1
  Ca2+  Ca11  1  0.68076927  0.58003286  0.84219676  1
  Ca2+  Ca12  1  0.07728534  0.33725389  0.17094522  1
  Ca2+  Ca13  1  0.07816637  0.33221042  0.48877164  1
  Ca2+  Ca14  1  0.08261684  0.33172060  0.83061136  1
  Ca2+  Ca15  1  0.07179154  0.82466527  0.15922436  1
  Ca2+  Ca16  1  0.07251009  0.82147164  0.49247000  1
  Ca2+  Ca17  1  0.07349288  0.82550861  0.83035385  1
  Ca2+  Ca18  1  0.59215138  0.33099707  0.16179529  1
  Ca2+  Ca19  1  0.57278415  0.33921201  0.48967963  1
  Ca2+  Ca20  1  0.58534830  0.32958467  0.83124552  1
  Ca2+  Ca21  1  0.58007178  0.83793234  0.16470515  1
  Ca2+  Ca22  1  0.57848592  0.82903028  0.48780292  1
  Ca2+  Ca23  1  0.58099371  0.83919365  0.83554896  1
  Ca2+  Ca24  1  0.32634472  0.41671849  0.17649327  1
  Ca2+  Ca25  1  0.32910597  0.40966384  0.50161707  1
  Ca2+  Ca26  1  0.33373086  0.41708161  0.83380257  1
  Ca2+  Ca27  1  0.32975269  0.90538156  0.16942946  1
  Ca2+  Ca28  1  0.33408482  0.91978963  0.50525360  1
  Ca2+  Ca29  1  0.32913780  0.91861420  0.84375488  1
  Ca2+  Ca30  1  0.82608620  0.42663108  0.17463746  1
  Ca2+  Ca31  1  0.83571782  0.43035460  0.49812913  1
  Ca2+  Ca32  1  0.83257281  0.43052137  0.84172279  1
  Ca2+  Ca33  1  0.82758774  0.91533226  0.17526489  1
  Ca2+  Ca34  1  0.83006098  0.90509519  0.49817968  1
  Ca2+  Ca35  1  0.83128969  0.91228083  0.84154873  1
  Ca2+  Ca36  1  0.42535357  0.17464687  0.16263105  1
  Ca2+  Ca37  1  0.41442916  0.17413217  0.49577940  1
  Ca2+  Ca38  1  0.42322592  0.16909008  0.82784903  1
  Ca2+  Ca39  1  0.42616260  0.67452578  0.16794083  1
  Ca2+  Ca40  1  0.42649834  0.67187141  0.48742033  1
  Ca2+  Ca41  1  0.41694984  0.67425785  0.83432434  1
  Ca2+  Ca42  1  0.90029148  0.17476539  0.16946977  1
  Ca2+  Ca43  1  0.91316600  0.17342977  0.48869333  1
  Ca2+  Ca44  1  0.91811233  0.16891786  0.83075840  1
  Ca2+  Ca45  1  0.92102081  0.66562347  0.16226080  1
  Ca2+  Ca46  1  0.91911383  0.66911263  0.49378275  1
  Ca2+  Ca47  1  0.91811887  0.67151935  0.82974838  1
  Al0+  Al48  1  0.00268460  0.00136541  0.00054906  1
  Al0+  Al49  1  0.00318352  0.00023347  0.33570821  1
  Al0+  Al50  1  -0.00075731  -0.00083261  0.66396712  1
  Al0+  Al51  1  0.00183778  0.49884716  -0.00093676  1
  Al0+  Al52  1  0.00055791  0.49620399  0.33349516  1
  Al0+  Al53  1  -0.00012476  0.49881823  0.67010465  1
  Al0+  Al54  1  0.50147276  0.00449021  -0.00494688  1
  Al0+  Al55  1  0.49922969  0.00268081  0.33474091  1
  Al0+  Al56  1  0.50076431  0.00226035  0.66991028  1
  Al0+  Al57  1  0.49767907  0.50000817  0.00206463  1
  Al0+  Al58  1  0.49707778  0.50202431  0.32694515  1
  Al0+  Al59  1  0.49770042  0.49850879  0.66472526  1
  Al0+  Al60  1  0.25060045  0.25030153  -0.00051226  1
  Al0+  Al61  1  0.25005527  0.24990989  0.33210742  1
  Al0+  Al62  1  0.25130018  0.24902327  0.67011358  1
  Al0+  Al63  1  0.25053507  0.75037908  -0.00302476  1
  Al0+  Al64  1  0.24930331  0.74906201  0.33042051  1
  Al0+  Al65  1  0.24863038  0.74827356  0.66395748  1
  Al0+  Al66  1  0.74987346  0.25096393  -0.00616895  1
  Al0+  Al67  1  0.74815706  0.24925438  0.33738328  1
  Al0+  Al68  1  0.74861757  0.24687843  0.66560998  1
  Al0+  Al69  1  0.74974953  0.75081242  0.00477628  1
  Al0+  Al70  1  0.74923982  0.75011281  0.33563153  1
  Al0+  Al71  1  0.74874643  0.74918208  0.67061997  1
  Al0+  Al72  1  0.67812905  0.92856700  0.34924170  1
  Al0+  Al73  1  0.32065392  0.07037954  0.68196571  1
  Al0+  Al74  1  0.92840437  0.82315980  0.31775490  1
  Al0+  Al75  1  0.92762249  0.31835785  0.32046750  1
  Al0+  Al76  1  0.18083073  0.42874384  0.34724029  1
  Al0+  Al77  1  0.92637448  0.82089206  0.65072430  1
  Al0+  Al78  1  0.67528774  0.42890961  0.34848879  1
  Al0+  Al79  1  0.57288055  0.67895590  0.31825691  1
  Al0+  Al80  1  0.18069043  0.92878886  0.01407046  1
  Al0+  Al81  1  0.82166584  0.57094650  0.34886733  1
  Al0+  Al82  1  0.42743960  0.32151287  0.31884865  1
  Al0+  Al83  1  0.43120467  0.82082984  0.98585606  1
  Al0+  Al84  1  0.07030259  0.67764649  0.98405633  1
  Al0+  Al85  1  0.67905125  0.93102209  0.01279281  1
  Al0+  Al86  1  0.57120611  0.18242965  0.98533670  1
  Al0+  Al87  1  0.82265389  0.57142471  0.01642317  1
  Al0+  Al88  1  0.67847948  0.42805917  0.01291634  1
  Al0+  Al89  1  0.82051558  0.56961361  0.68273097  1
  Al0+  Al90  1  0.92664280  0.82286210  0.98578205  1
  Al0+  Al91  1  0.07158000  0.67671687  0.64965781  1
  Al0+  Al92  1  0.06847442  0.67730783  0.31747799  1
  Al0+  Al93  1  0.43022575  0.31949908  0.65235738  1
  Al0+  Al94  1  0.42915707  0.82452176  0.32012545  1
  Al0+  Al95  1  0.82296675  0.07015143  0.34788558  1
  Si0+  Si96  1  0.31952073  0.07140897  0.34753819  1
  Si0+  Si97  1  0.42939207  0.82264244  0.65439665  1
  Si0+  Si98  1  0.93099246  0.31916109  0.98389559  1
  Si0+  Si99  1  0.57205751  0.67612777  0.98273198  1
  Si0+  Si100  1  0.57278529  0.17591189  0.64618226  1
  Si0+  Si101  1  0.82234549  0.07313644  0.68249432  1
  Si0+  Si102  1  0.32074720  0.57229780  0.01525895  1
  Si0+  Si103  1  0.92889404  0.31920395  0.65318282  1
  Si0+  Si104  1  0.67548484  0.42686697  0.68193757  1
  Si0+  Si105  1  0.32016406  0.57333875  0.35042193  1
  Si0+  Si106  1  0.07395054  0.17744233  0.31668243  1
  Si0+  Si107  1  0.68009330  0.93011147  0.68262168  1
  Si0+  Si108  1  0.82451518  0.07314952  0.01374178  1
  Si0+  Si109  1  0.17820736  0.92655402  0.68336816  1
  Si0+  Si110  1  0.07129942  0.17929015  0.65324367  1
  Si0+  Si111  1  0.32251987  0.07299782  0.01800171  1
  Si0+  Si112  1  0.18010526  0.92654280  0.34985615  1
  Si0+  Si113  1  0.32288612  0.57178278  0.68159243  1
  Si0+  Si114  1  0.57101406  0.17986896  0.31665426  1
  Si0+  Si115  1  0.56898827  0.67912090  0.65502318  1
  Si0+  Si116  1  0.18051670  0.42718480  0.01469845  1
  Si0+  Si117  1  0.42515547  0.32345999  0.98207908  1
  Si0+  Si118  1  0.07504836  0.17877703  0.98382316  1
  Si0+  Si119  1  0.17987098  0.42904697  0.68247430  1
  O2-  O120  1  0.25733866  0.00172262  0.06267798  1
  O2-  O121  1  0.25264238  -0.00292244  0.39122426  1
  O2-  O122  1  0.24890331  -0.00689485  0.72863327  1
  O2-  O123  1  0.25009896  0.49965089  0.05526864  1
  O2-  O124  1  0.25410692  0.50301090  0.39663515  1
  O2-  O125  1  0.24863100  0.50298486  0.72342057  1
  O2-  O126  1  0.75998333  0.00059186  0.05639207  1
  O2-  O127  1  0.75594084  -0.00538266  0.40027511  1
  O2-  O128  1  0.75393950  -0.00058155  0.72369080  1
  O2-  O129  1  0.74617169  0.50258418  0.06347710  1
  O2-  O130  1  0.74637599  0.50120250  0.39935896  1
  O2-  O131  1  0.74594368  0.49279179  0.72698367  1
  O2-  O132  1  -0.00101755  0.23967033  0.27321109  1
  O2-  O133  1  -0.00196009  0.24671118  0.61026901  1
  O2-  O134  1  0.00215649  0.24784480  0.94150429  1
  O2-  O135  1  -0.00418255  0.74760157  0.26719667  1
  O2-  O136  1  -0.00137423  0.74849436  0.60225616  1
  O2-  O137  1  -0.00389300  0.74809832  0.93552287  1
  O2-  O138  1  0.50752973  0.25349049  0.27236622  1
  O2-  O139  1  0.50678204  0.24789982  0.60405340  1
  O2-  O140  1  0.49781438  0.25894195  0.93874441  1
  O2-  O141  1  0.50470785  0.75638009  0.27081657  1
  O2-  O142  1  0.49796989  0.75026967  0.61242035  1
  O2-  O143  1  0.50651428  0.74772497  0.93669483  1
  O2-  O144  1  0.08096913  0.18073134  0.08809265  1
  O2-  O145  1  0.07790833  0.18101911  0.42282204  1
  O2-  O146  1  0.07063107  0.18144165  0.75865773  1
  O2-  O147  1  0.07120523  0.67647469  0.09682775  1
  O2-  O148  1  0.06964302  0.67922937  0.43113331  1
  O2-  O149  1  0.07294856  0.67886344  0.76296475  1
  O2-  O150  1  0.56961191  0.18239275  0.09801031  1
  O2-  O151  1  0.56728696  0.17695199  0.42239560  1
  O2-  O152  1  0.57298084  0.17505514  0.75183324  1
  O2-  O153  1  0.56794974  0.67410112  0.08740153  1
  O2-  O154  1  0.56870489  0.67964773  0.43318666  1
  O2-  O155  1  0.56729488  0.68006074  0.76020180  1
  O2-  O156  1  0.18266074  0.42670645  0.23399763  1
  O2-  O157  1  0.18030385  0.42479202  0.57805818  1
  O2-  O158  1  0.18216020  0.42331648  0.90914990  1
  O2-  O159  1  0.18059437  0.92791825  0.24489967  1
  O2-  O160  1  0.18073499  0.92929141  0.57768166  1
  O2-  O161  1  0.18289263  0.93294381  0.90059600  1
  O2-  O162  1  0.67999239  0.42826060  0.23506746  1
  O2-  O163  1  0.67417865  0.42836391  0.57706256  1
  O2-  O164  1  0.68251602  0.42776487  0.89850074  1
  O2-  O165  1  0.67279302  0.93453988  0.23626053  1
  O2-  O166  1  0.67691959  0.93093208  0.57814212  1
  O2-  O167  1  0.67761406  0.93513753  0.89886785  1
  O2-  O168  1  0.41870621  0.31990295  0.08693318  1
  O2-  O169  1  0.42443922  0.31525388  0.43216701  1
  O2-  O170  1  0.43032811  0.31884767  0.76554136  1
  O2-  O171  1  0.43078606  0.81864182  0.09807048  1
  O2-  O172  1  0.42839992  0.82308813  0.43486562  1
  O2-  O173  1  0.43048421  0.82266548  0.75945699  1
  O2-  O174  1  0.93094789  0.31784466  0.08851358  1
  O2-  O175  1  0.93182530  0.31811882  0.43422537  1
  O2-  O176  1  0.93143648  0.31730548  0.75875188  1
  O2-  O177  1  0.92971628  0.82654035  0.09834228  1
  O2-  O178  1  0.93314088  0.82245142  0.43150229  1
  O2-  O179  1  0.92686374  0.82269133  0.76417636  1
  O2-  O180  1  0.31677510  0.07404976  0.24276187  1
  O2-  O181  1  0.31819071  0.07006440  0.56863106  1
  O2-  O182  1  0.31887221  0.07424049  0.91208402  1
  O2-  O183  1  0.31729161  0.57317488  0.24471742  1
  O2-  O184  1  0.32720749  0.57161517  0.57750808  1
  O2-  O185  1  0.32191706  0.57102669  0.90939649  1
  O2-  O186  1  0.81760822  0.07211976  0.23430911  1
  O2-  O187  1  0.82146783  0.07938507  0.57858640  1
  O2-  O188  1  0.82316655  0.07504243  0.90736752  1
  O2-  O189  1  0.82367463  0.56769408  0.23584814  1
  O2-  O190  1  0.82127204  0.56917523  0.57033023  1
  O2-  O191  1  0.82308391  0.56814651  0.90196591  1
  O2-  O192  1  0.05677863  0.08165305  0.27342497  1
  O2-  O193  1  0.04888001  0.08646085  0.60601630  1
  O2-  O194  1  0.04861472  0.08779331  0.93462701  1
  O2-  O195  1  0.04542944  0.57687508  0.26742426  1
  O2-  O196  1  0.04529607  0.57550979  0.60169401  1
  O2-  O197  1  0.04701078  0.57689826  0.93134493  1
  O2-  O198  1  0.53831774  0.08925443  0.26912757  1
  O2-  O199  1  0.54218293  0.08373225  0.60029216  1
  O2-  O200  1  0.53787369  0.08885803  0.92651424  1
  O2-  O201  1  0.53882625  0.58446751  0.26155090  1
  O2-  O202  1  0.54064908  0.58805595  0.60755331  1
  O2-  O203  1  0.54177427  0.58368474  0.93511125  1
  O2-  O204  1  0.16331636  0.21048590  0.26725318  1
  O2-  O205  1  0.16224990  0.21022908  0.60661613  1
  O2-  O206  1  0.16480941  0.21049783  0.93294382  1
  O2-  O207  1  0.16749705  0.70625053  0.26664562  1
  O2-  O208  1  0.17130888  0.70281692  0.59693414  1
  O2-  O209  1  0.16856207  0.70799262  0.93110339  1
  O2-  O210  1  0.66567556  0.20022576  0.27202938  1
  O2-  O211  1  0.66799670  0.19696555  0.60176740  1
  O2-  O212  1  0.66699724  0.21119209  0.92635160  1
  O2-  O213  1  0.67208967  0.70194037  0.26750410  1
  O2-  O214  1  0.66009441  0.70820982  0.60843939  1
  O2-  O215  1  0.66661384  0.70025661  0.93883056  1
  O2-  O216  1  0.08807637  0.45198414  0.06085302  1
  O2-  O217  1  0.08439749  0.45578258  0.40254569  1
  O2-  O218  1  0.08805785  0.45285982  0.73220038  1
  O2-  O219  1  0.08616144  0.96471789  0.06879194  1
  O2-  O220  1  0.09068992  0.95686987  0.40005025  1
  O2-  O221  1  0.08488905  0.95587802  0.72802805  1
  O2-  O222  1  0.57596510  0.44637805  0.06092094  1
  O2-  O223  1  0.57392218  0.45560921  0.39651930  1
  O2-  O224  1  0.58185310  0.45295747  0.72859858  1
  O2-  O225  1  0.58382731  0.96896845  0.06476575  1
  O2-  O226  1  0.58097475  0.96412452  0.40385389  1
  O2-  O227  1  0.58935629  0.96140513  0.73110880  1
  O2-  O228  1  0.20945647  0.33612110  0.06293543  1
  O2-  O229  1  0.21326591  0.33213258  0.40197872  1
  O2-  O230  1  0.21099121  0.33892742  0.73262806  1
  O2-  O231  1  0.21258283  0.83243479  0.06660687  1
  O2-  O232  1  0.20873047  0.83547063  0.39786651  1
  O2-  O233  1  0.20263355  0.83213083  0.72788308  1
  O2-  O234  1  0.71119094  0.32997705  0.06350413  1
  O2-  O235  1  0.70044771  0.32975927  0.40130679  1
  O2-  O236  1  0.69922980  0.33072544  0.72501943  1
  O2-  O237  1  0.69966439  0.83262321  0.06568802  1
  O2-  O238  1  0.69996800  0.82935923  0.40318265  1
  O2-  O239  1  0.70384477  0.83803437  0.73125417  1
  O2-  O240  1  0.44605400  0.42038314  0.26619713  1
  O2-  O241  1  0.45517830  0.41754377  0.59827255  1
  O2-  O242  1  0.44516474  0.41913744  0.93776418  1
  O2-  O243  1  0.45126209  0.92472061  0.26860566  1
  O2-  O244  1  0.45852136  0.91455384  0.60811227  1
  O2-  O245  1  0.45947301  0.91850240  0.93183515  1
  O2-  O246  1  0.96429400  0.41096922  0.26447533  1
  O2-  O247  1  0.95941422  0.41001578  0.60739745  1
  O2-  O248  1  0.96268120  0.40889419  0.93478391  1
  O2-  O249  1  0.96028956  0.92191544  0.26763420  1
  O2-  O250  1  0.95228812  0.92111467  0.59922348  1
  O2-  O251  1  0.95793262  0.92223221  0.93323914  1
  O2-  O252  1  0.33379258  0.28355196  0.26346204  1
  O2-  O253  1  0.33308560  0.28541810  0.60085667  1
  O2-  O254  1  0.33353676  0.29290440  0.93297146  1
  O2-  O255  1  0.33268447  0.79133523  0.26723158  1
  O2-  O256  1  0.33652858  0.79809670  0.60837057  1
  O2-  O257  1  0.33632863  0.78727746  0.92947815  1
  O2-  O258  1  0.83076105  0.28774411  0.26698477  1
  O2-  O259  1  0.83624505  0.29261180  0.60774342  1
  O2-  O260  1  0.84123695  0.29096245  0.93265318  1
  O2-  O261  1  0.82622928  0.80347796  0.27215433  1
  O2-  O262  1  0.82663168  0.79160067  0.60124600  1
  O2-  O263  1  0.82629465  0.79754458  0.93428894  1
  O2-  O264  1  0.41773284  0.05216683  0.06018271  1
  O2-  O265  1  0.41160133  0.04883901  0.39648931  1
  O2-  O266  1  0.41836159  0.04292642  0.73581813  1
  O2-  O267  1  0.41178689  0.54552534  0.06403611  1
  O2-  O268  1  0.41476907  0.55015708  0.39434110  1
  O2-  O269  1  0.41220017  0.54012250  0.73279889  1
  O2-  O270  1  0.92027999  0.05767722  0.05819486  1
  O2-  O271  1  0.92533396  0.05296655  0.39853468  1
  O2-  O272  1  0.91646162  0.04986166  0.72847567  1
  O2-  O273  1  0.92025408  0.53617767  0.06614059  1
  O2-  O274  1  0.91794932  0.53505680  0.40210070  1
  O2-  O275  1  0.91654243  0.53614142  0.73732154  1
  O2-  O276  1  0.29258858  0.16580289  0.06351541  1
  O2-  O277  1  0.28586506  0.16045144  0.39731179  1
  O2-  O278  1  0.28667455  0.16518989  0.73811673  1
  O2-  O279  1  0.29224801  0.66311524  0.06216520  1
  O2-  O280  1  0.29330076  0.66603034  0.39845746  1
  O2-  O281  1  0.29667371  0.66453777  0.72940407  1
  O2-  O282  1  0.79316125  0.16579678  0.05757187  1
  O2-  O283  1  0.78916554  0.16614767  0.40397382  1
  O2-  O284  1  0.79247898  0.16369313  0.73337583  1
  O2-  O285  1  0.79875345  0.67063161  0.06720863  1
  O2-  O286  1  0.79480738  0.66927978  0.40292206  1
  O2-  O287  1  0.78607214  0.66504165  0.73738351  1
