# generated using pymatgen
data_Ca2Al2SiO7
_symmetry_space_group_name_H-M   'P 1'
_cell_length_a   15.46067588
_cell_length_b   15.46050011
_cell_length_c   15.28589362
_cell_angle_alpha   90.01138579
_cell_angle_beta   89.99980157
_cell_angle_gamma   89.97667349
_symmetry_Int_Tables_number   1
_chemical_formula_structural   Ca2Al2SiO7
_chemical_formula_sum   'Ca48 Al48 Si24 O168'
_cell_volume   3653.78343256
_cell_formula_units_Z   24
loop_
 _symmetry_equiv_pos_site_id
 _symmetry_equiv_pos_as_xyz
  1  'x, y, z'
loop_
 _atom_type_symbol
 _atom_type_oxidation_number
  Ca2+  2.0
  Al0+  0.0
  Si0+  0.0
  O2-  -2.0
loop_
 _atom_site_type_symbol
 _atom_site_label
 _atom_site_symmetry_multiplicity
 _atom_site_fract_x
 _atom_site_fract_y
 _atom_site_fract_z
 _atom_site_occupancy
  Ca2+  Ca0  1  0.17266212  0.07844382  0.17622554  1
  Ca2+  Ca1  1  0.16971821  0.08082823  0.49986963  1
  Ca2+  Ca2  1  0.16605287  0.08968841  0.83765673  1
  Ca2+  Ca3  1  0.16974655  0.57969745  0.17498928  1
  Ca2+  Ca4  1  0.17311945  0.58846660  0.49776875  1
  Ca2+  Ca5  1  0.16958747  0.57317731  0.84279501  1
  Ca2+  Ca6  1  0.67095642  0.08223705  0.17998512  1
  Ca2+  Ca7  1  0.66547695  0.08091978  0.49431433  1
  Ca2+  Ca8  1  0.66662352  0.08380611  0.83943424  1
  Ca2+  Ca9  1  0.66314550  0.57850238  0.17194235  1
  Ca2+  Ca10  1  0.65830807  0.57225980  0.50468235  1
  Ca2+  Ca11  1  0.65811381  0.57991075  0.83473005  1
  Ca2+  Ca12  1  0.07860155  0.32779693  0.15570460  1
  Ca2+  Ca13  1  0.07718050  0.32919130  0.49845173  1
  Ca2+  Ca14  1  0.07949371  0.32823373  0.82890056  1
  Ca2+  Ca15  1  0.07706879  0.83588419  0.16959478  1
  Ca2+  Ca16  1  0.08070440  0.82981712  0.48624427  1
  Ca2+  Ca17  1  0.07613950  0.83554310  0.83267214  1
  Ca2+  Ca18  1  0.58294521  0.32396196  0.16927922  1
  Ca2+  Ca19  1  0.57841455  0.33513747  0.49165036  1
  Ca2+  Ca20  1  0.58188315  0.32921207  0.82666769  1
  Ca2+  Ca21  1  0.57326175  0.83581673  0.16097890  1
  Ca2+  Ca22  1  0.57643833  0.83112092  0.49288602  1
  Ca2+  Ca23  1  0.57322899  0.82209141  0.82878962  1
  Ca2+  Ca24  1  0.33114702  0.42200104  0.17484603  1
  Ca2+  Ca25  1  0.34443099  0.42186024  0.50231116  1
  Ca2+  Ca26  1  0.32938723  0.41316199  0.83849696  1
  Ca2+  Ca27  1  0.33258153  0.91925093  0.17990521  1
  Ca2+  Ca28  1  0.33544160  0.91718619  0.49886939  1
  Ca2+  Ca29  1  0.33572119  0.91375158  0.83692599  1
  Ca2+  Ca30  1  0.82832684  0.41554232  0.17332262  1
  Ca2+  Ca31  1  0.82036968  0.41248392  0.50602377  1
  Ca2+  Ca32  1  0.83335225  0.41236654  0.83538173  1
  Ca2+  Ca33  1  0.82972157  0.92073579  0.17872415  1
  Ca2+  Ca34  1  0.83201737  0.91928080  0.49648761  1
  Ca2+  Ca35  1  0.83226124  0.91721025  0.84062317  1
  Ca2+  Ca36  1  0.42882269  0.15890448  0.16840059  1
  Ca2+  Ca37  1  0.41945756  0.17890570  0.48887150  1
  Ca2+  Ca38  1  0.42303540  0.17211149  0.82964269  1
  Ca2+  Ca39  1  0.41682316  0.67621130  0.16617158  1
  Ca2+  Ca40  1  0.41807246  0.67400305  0.49395658  1
  Ca2+  Ca41  1  0.42409402  0.67336026  0.82871109  1
  Ca2+  Ca42  1  0.92032188  0.16881019  0.15973543  1
  Ca2+  Ca43  1  0.91685091  0.16644151  0.49802749  1
  Ca2+  Ca44  1  0.92826821  0.17787945  0.82989161  1
  Ca2+  Ca45  1  0.91788536  0.67871817  0.16675030  1
  Ca2+  Ca46  1  0.92514197  0.67179287  0.48953610  1
  Ca2+  Ca47  1  0.91490041  0.67183116  0.83354808  1
  Al0+  Al48  1  0.00035467  0.00079512  -0.00715065  1
  Al0+  Al49  1  -0.00026769  0.00056187  0.33803888  1
  Al0+  Al50  1  0.00098103  -0.00005003  0.66583848  1
  Al0+  Al51  1  -0.00212736  0.50101599  0.00297480  1
  Al0+  Al52  1  0.00070865  0.49998790  0.33016435  1
  Al0+  Al53  1  -0.00096077  0.49986998  0.66426264  1
  Al0+  Al54  1  0.49996219  -0.00017705  -0.00894557  1
  Al0+  Al55  1  0.50092947  0.00137128  0.33569446  1
  Al0+  Al56  1  0.49932692  -0.00031053  0.66700490  1
  Al0+  Al57  1  0.49968569  0.50000082  0.00018547  1
  Al0+  Al58  1  0.49786593  0.50013611  0.33591878  1
  Al0+  Al59  1  0.50086721  0.50038705  0.66859722  1
  Al0+  Al60  1  0.25098105  0.24869391  0.00425628  1
  Al0+  Al61  1  0.24800964  0.25195847  0.33340075  1
  Al0+  Al62  1  0.25075218  0.24883102  0.65995863  1
  Al0+  Al63  1  0.24831793  0.75048563  -0.00226894  1
  Al0+  Al64  1  0.25040957  0.74721209  0.33280021  1
  Al0+  Al65  1  0.24942557  0.75124521  0.66848794  1
  Al0+  Al66  1  0.75050775  0.24967419  -0.00660784  1
  Al0+  Al67  1  0.74966573  0.25034565  0.33879195  1
  Al0+  Al68  1  0.75147275  0.24912398  0.67027344  1
  Al0+  Al69  1  0.74906854  0.74877330  -0.00654710  1
  Al0+  Al70  1  0.75101568  0.74917058  0.33445770  1
  Al0+  Al71  1  0.74999643  0.74899301  0.66404788  1
  Al0+  Al72  1  0.07243466  0.67781159  0.31720060  1
  Al0+  Al73  1  0.42746274  0.82136536  0.64898693  1
  Al0+  Al74  1  0.92848796  0.32358441  0.98600476  1
  Al0+  Al75  1  0.43090882  0.82119031  0.32080165  1
  Al0+  Al76  1  0.43059510  0.31977818  0.65470379  1
  Al0+  Al77  1  0.67753639  0.92625496  0.34709616  1
  Al0+  Al78  1  0.42691181  0.32395829  0.31663049  1
  Al0+  Al79  1  0.07147413  0.17812891  0.64833199  1
  Al0+  Al80  1  0.92940921  0.82109567  0.98640697  1
  Al0+  Al81  1  0.92807095  0.82275342  0.31931935  1
  Al0+  Al82  1  0.31947295  0.56929599  0.34729807  1
  Al0+  Al83  1  0.57078062  0.67706828  0.98598121  1
  Al0+  Al84  1  0.42636326  0.82173202  0.98515193  1
  Al0+  Al85  1  0.82200491  0.07198241  0.34809076  1
  Al0+  Al86  1  0.57151473  0.17923915  0.98616674  1
  Al0+  Al87  1  0.68025558  0.43110935  0.34554770  1
  Al0+  Al88  1  0.57115296  0.67904143  0.64917123  1
  Al0+  Al89  1  0.07321483  0.17951819  0.98691071  1
  Al0+  Al90  1  0.32249670  0.07331042  0.34903658  1
  Al0+  Al91  1  0.17840014  0.42808181  0.01349122  1
  Al0+  Al92  1  0.92849089  0.32172696  0.64933841  1
  Al0+  Al93  1  0.67923922  0.42944550  0.68319675  1
  Al0+  Al94  1  0.18043749  0.92883205  0.34754744  1
  Al0+  Al95  1  0.57126405  0.18067043  0.32022220  1
  Si0+  Si96  1  0.32004252  0.57170325  0.68365009  1
  Si0+  Si97  1  0.42872491  0.32160043  0.98551141  1
  Si0+  Si98  1  0.32281406  0.06920783  0.01395723  1
  Si0+  Si99  1  0.82404915  0.57194535  0.34951986  1
  Si0+  Si100  1  0.17858204  0.42870281  0.68025490  1
  Si0+  Si101  1  0.17706890  0.92911125  0.01384078  1
  Si0+  Si102  1  0.17491092  0.42749878  0.35186134  1
  Si0+  Si103  1  0.57394165  0.17678888  0.65008373  1
  Si0+  Si104  1  0.32149026  0.57246199  0.01671757  1
  Si0+  Si105  1  0.92903144  0.82124057  0.65156914  1
  Si0+  Si106  1  0.07126477  0.67782775  0.98291778  1
  Si0+  Si107  1  0.32041402  0.07203294  0.68301388  1
  Si0+  Si108  1  0.17856326  0.92902952  0.68421428  1
  Si0+  Si109  1  0.92849467  0.32031057  0.31907930  1
  Si0+  Si110  1  0.67895188  0.42751099  0.01521336  1
  Si0+  Si111  1  0.67884523  0.92793499  0.68382847  1
  Si0+  Si112  1  0.67930550  0.92874671  0.01190229  1
  Si0+  Si113  1  0.82272710  0.06891511  0.68560413  1
  Si0+  Si114  1  0.82006850  0.57326311  0.01621670  1
  Si0+  Si115  1  0.07064264  0.67896577  0.65402447  1
  Si0+  Si116  1  0.82045830  0.06993574  0.01245239  1
  Si0+  Si117  1  0.07055831  0.17880859  0.31826744  1
  Si0+  Si118  1  0.57247389  0.67684933  0.31796080  1
  Si0+  Si119  1  0.82387852  0.57261535  0.68441921  1
  O2-  O120  1  0.25154181  -0.00283804  0.05438031  1
  O2-  O121  1  0.25237070  -0.00044378  0.39998253  1
  O2-  O122  1  0.25000917  -0.00001840  0.72627445  1
  O2-  O123  1  0.25234025  0.50366630  0.05985694  1
  O2-  O124  1  0.24649663  0.49311334  0.39592809  1
  O2-  O125  1  0.24969998  0.49897182  0.72464262  1
  O2-  O126  1  0.74942621  -0.00021633  0.05531979  1
  O2-  O127  1  0.75096238  -0.00221251  0.39695545  1
  O2-  O128  1  0.74960149  -0.00072334  0.72768867  1
  O2-  O129  1  0.74971709  0.49998482  0.05642781  1
  O2-  O130  1  0.75350987  0.50630215  0.39431168  1
  O2-  O131  1  0.75495731  0.50441714  0.72955166  1
  O2-  O132  1  -0.00024387  0.25015938  0.27628508  1
  O2-  O133  1  -0.00152104  0.24876797  0.59825807  1
  O2-  O134  1  0.00505079  0.25552043  0.93770454  1
  O2-  O135  1  0.00049386  0.75108141  0.26937239  1
  O2-  O136  1  -0.00066446  0.74914172  0.61179221  1
  O2-  O137  1  0.00394949  0.74712017  0.93723367  1
  O2-  O138  1  0.49618951  0.24860827  0.26810679  1
  O2-  O139  1  0.50725670  0.24768830  0.60802148  1
  O2-  O140  1  0.49861958  0.25539119  0.93956841  1
  O2-  O141  1  0.50985363  0.75089238  0.27380728  1
  O2-  O142  1  0.50057087  0.75141234  0.59886606  1
  O2-  O143  1  0.49680559  0.74749776  0.93699300  1
  O2-  O144  1  0.07001132  0.17702236  0.10046633  1
  O2-  O145  1  0.07006980  0.18018415  0.42322962  1
  O2-  O146  1  0.07163982  0.18009826  0.76208267  1
  O2-  O147  1  0.07125681  0.67855108  0.08769585  1
  O2-  O148  1  0.06981248  0.67757318  0.43174105  1
  O2-  O149  1  0.07011916  0.67977369  0.75945768  1
  O2-  O150  1  0.57324874  0.17725964  0.09840384  1
  O2-  O151  1  0.57280309  0.18411739  0.43369317  1
  O2-  O152  1  0.57140587  0.17658243  0.75648412  1
  O2-  O153  1  0.57179538  0.67775028  0.09938659  1
  O2-  O154  1  0.56925972  0.67535697  0.42334138  1
  O2-  O155  1  0.56878434  0.68020533  0.76294391  1
  O2-  O156  1  0.17262602  0.42919095  0.24619778  1
  O2-  O157  1  0.17740973  0.43145452  0.57560497  1
  O2-  O158  1  0.18134005  0.42959557  0.89941327  1
  O2-  O159  1  0.17937136  0.93225041  0.23327351  1
  O2-  O160  1  0.17685336  0.92671488  0.57992679  1
  O2-  O161  1  0.17614881  0.92973867  0.90829613  1
  O2-  O162  1  0.68313817  0.43075467  0.23176252  1
  O2-  O163  1  0.67949217  0.43080106  0.57039845  1
  O2-  O164  1  0.67882484  0.42785301  0.91016989  1
  O2-  O165  1  0.67845415  0.92749674  0.23268618  1
  O2-  O166  1  0.68001811  0.92833893  0.57931338  1
  O2-  O167  1  0.68192150  0.93076328  0.90631311  1
  O2-  O168  1  0.42982719  0.32193961  0.09039059  1
  O2-  O169  1  0.43168416  0.32468220  0.43037255  1
  O2-  O170  1  0.42868729  0.31658218  0.76852694  1
  O2-  O171  1  0.42740495  0.82397146  0.09842579  1
  O2-  O172  1  0.43043878  0.81809380  0.43346724  1
  O2-  O173  1  0.42717133  0.81888472  0.76285176  1
  O2-  O174  1  0.92605600  0.31964875  0.09993564  1
  O2-  O175  1  0.93001343  0.32089480  0.42395497  1
  O2-  O176  1  0.93235952  0.32222886  0.76282079  1
  O2-  O177  1  0.92938961  0.82210440  0.09847817  1
  O2-  O178  1  0.93005290  0.81980749  0.43342056  1
  O2-  O179  1  0.92998499  0.82150586  0.75722326  1
  O2-  O180  1  0.32035712  0.07111130  0.23460068  1
  O2-  O181  1  0.31965030  0.07234155  0.57870430  1
  O2-  O182  1  0.32232738  0.07041850  0.90841477  1
  O2-  O183  1  0.31868071  0.56871163  0.23394720  1
  O2-  O184  1  0.31811330  0.57330737  0.57890073  1
  O2-  O185  1  0.32002819  0.57152634  0.91056360  1
  O2-  O186  1  0.82205644  0.07358736  0.23375806  1
  O2-  O187  1  0.82438683  0.06692126  0.58101337  1
  O2-  O188  1  0.81937754  0.06753967  0.90704727  1
  O2-  O189  1  0.82434728  0.56984645  0.24357902  1
  O2-  O190  1  0.82697524  0.57297254  0.57933366  1
  O2-  O191  1  0.82144482  0.57489467  0.91113261  1
  O2-  O192  1  0.04264365  0.08697404  0.27220410  1
  O2-  O193  1  0.04275755  0.07872641  0.59812209  1
  O2-  O194  1  0.04192416  0.08415325  0.92942344  1
  O2-  O195  1  0.04254195  0.58002865  0.26309607  1
  O2-  O196  1  0.04491171  0.58775328  0.60551557  1
  O2-  O197  1  0.04325528  0.58499369  0.93665513  1
  O2-  O198  1  0.54633175  0.08137672  0.26742651  1
  O2-  O199  1  0.54713171  0.08338751  0.60604572  1
  O2-  O200  1  0.53968807  0.08519348  0.92758818  1
  O2-  O201  1  0.54049791  0.58609642  0.27050609  1
  O2-  O202  1  0.54084595  0.58056236  0.59963515  1
  O2-  O203  1  0.54286210  0.57828596  0.93233685  1
  O2-  O204  1  0.16193979  0.20594514  0.27025341  1
  O2-  O205  1  0.16884937  0.20648192  0.59516036  1
  O2-  O206  1  0.17298696  0.20499544  0.93487480  1
  O2-  O207  1  0.16988617  0.70462311  0.26348845  1
  O2-  O208  1  0.16195152  0.70811549  0.60754952  1
  O2-  O209  1  0.16453568  0.70183606  0.93512945  1
  O2-  O210  1  0.66930297  0.21292040  0.26730880  1
  O2-  O211  1  0.66937374  0.19831400  0.60848298  1
  O2-  O212  1  0.66673319  0.20852975  0.92897657  1
  O2-  O213  1  0.66914441  0.69375934  0.27538794  1
  O2-  O214  1  0.67137681  0.70356531  0.59841844  1
  O2-  O215  1  0.66734467  0.70539719  0.92936940  1
  O2-  O216  1  0.08102241  0.45777970  0.06697281  1
  O2-  O217  1  0.08240469  0.45699101  0.39897096  1
  O2-  O218  1  0.08702178  0.45820050  0.72826470  1
  O2-  O219  1  0.08581675  0.96030436  0.06029895  1
  O2-  O220  1  0.08291714  0.95750740  0.40215158  1
  O2-  O221  1  0.08639317  0.95731245  0.73240351  1
  O2-  O222  1  0.58657805  0.45431316  0.06223496  1
  O2-  O223  1  0.58411259  0.46162888  0.39973032  1
  O2-  O224  1  0.58278079  0.46089095  0.73889316  1
  O2-  O225  1  0.58593947  0.95645958  0.05545889  1
  O2-  O226  1  0.58185910  0.95722254  0.40331387  1
  O2-  O227  1  0.58653084  0.95576651  0.73141074  1
  O2-  O228  1  0.20817766  0.33183501  0.06879346  1
  O2-  O229  1  0.19528594  0.33281863  0.39685250  1
  O2-  O230  1  0.20774234  0.33606101  0.72562543  1
  O2-  O231  1  0.19921759  0.83502907  0.05913752  1
  O2-  O232  1  0.20611955  0.82939930  0.39877195  1
  O2-  O233  1  0.20529870  0.83720654  0.73389819  1
  O2-  O234  1  0.70922228  0.33550751  0.06089937  1
  O2-  O235  1  0.71226278  0.33693008  0.40232980  1
  O2-  O236  1  0.70903630  0.33152194  0.73704480  1
  O2-  O237  1  0.70644165  0.83607373  0.05677185  1
  O2-  O238  1  0.70524744  0.82777678  0.40155097  1
  O2-  O239  1  0.70860559  0.83577660  0.73040297  1
  O2-  O240  1  0.45886963  0.42117831  0.26365587  1
  O2-  O241  1  0.45871125  0.41757266  0.60380438  1
  O2-  O242  1  0.45096121  0.41584502  0.93925339  1
  O2-  O243  1  0.45725573  0.91924581  0.26824580  1
  O2-  O244  1  0.45393623  0.92177560  0.60084580  1
  O2-  O245  1  0.45704500  0.91727337  0.92773454  1
  O2-  O246  1  0.95504703  0.41211714  0.27113311  1
  O2-  O247  1  0.95656517  0.42042029  0.59684031  1
  O2-  O248  1  0.95136552  0.42397846  0.93494529  1
  O2-  O249  1  0.95657739  0.92179403  0.26791793  1
  O2-  O250  1  0.95853896  0.91216472  0.60538762  1
  O2-  O251  1  0.96126733  0.91539434  0.92813792  1
  O2-  O252  1  0.32530404  0.30179086  0.26791494  1
  O2-  O253  1  0.33563785  0.29025023  0.59851194  1
  O2-  O254  1  0.33583333  0.29314432  0.93970178  1
  O2-  O255  1  0.33595469  0.78615670  0.26695277  1
  O2-  O256  1  0.32766665  0.79251481  0.59998401  1
  O2-  O257  1  0.32704938  0.79578971  0.93177269  1
  O2-  O258  1  0.83689317  0.29225021  0.27264334  1
  O2-  O259  1  0.82920459  0.29165574  0.60005826  1
  O2-  O260  1  0.83340743  0.29100194  0.92944690  1
  O2-  O261  1  0.83000847  0.79309270  0.26563765  1
  O2-  O262  1  0.83716223  0.79556858  0.60488318  1
  O2-  O263  1  0.83467403  0.78900404  0.92947816  1
  O2-  O264  1  0.41530161  0.04006792  0.05940091  1
  O2-  O265  1  0.42109009  0.04910997  0.40194622  1
  O2-  O266  1  0.41306605  0.04553454  0.73119580  1
  O2-  O267  1  0.41506510  0.54685774  0.06253797  1
  O2-  O268  1  0.41495670  0.53964339  0.40395434  1
  O2-  O269  1  0.41126747  0.54369685  0.73151997  1
  O2-  O270  1  0.91317601  0.04180467  0.05766240  1
  O2-  O271  1  0.91868198  0.04410613  0.40461194  1
  O2-  O272  1  0.91406902  0.03792750  0.73325371  1
  O2-  O273  1  0.91169566  0.54814337  0.06524912  1
  O2-  O274  1  0.91718358  0.54401096  0.39562966  1
  O2-  O275  1  0.91757351  0.54657159  0.73227132  1
  O2-  O276  1  0.29703880  0.16029121  0.06308633  1
  O2-  O277  1  0.29097319  0.17182251  0.40060432  1
  O2-  O278  1  0.29063091  0.16370762  0.73091269  1
  O2-  O279  1  0.29485115  0.66667424  0.06108844  1
  O2-  O280  1  0.28622018  0.66365541  0.40386690  1
  O2-  O281  1  0.28906608  0.66240150  0.73249157  1
  O2-  O282  1  0.79366634  0.16290339  0.05773175  1
  O2-  O283  1  0.79180038  0.16808978  0.40466535  1
  O2-  O284  1  0.79691951  0.16128637  0.73309450  1
  O2-  O285  1  0.78963875  0.66460462  0.06357608  1
  O2-  O286  1  0.80371756  0.66644731  0.39532609  1
  O2-  O287  1  0.79901350  0.66747468  0.73009912  1
