# generated using pymatgen
data_Ca2Al2SiO7
_symmetry_space_group_name_H-M   'P 1'
_cell_length_a   15.45300897
_cell_length_b   15.45309398
_cell_length_c   15.27956059
_cell_angle_alpha   89.99909549
_cell_angle_beta   90.00018483
_cell_angle_gamma   89.98701661
_symmetry_Int_Tables_number   1
_chemical_formula_structural   Ca2Al2SiO7
_chemical_formula_sum   'Ca48 Al48 Si24 O168'
_cell_volume   3648.71008130
_cell_formula_units_Z   24
loop_
 _symmetry_equiv_pos_site_id
 _symmetry_equiv_pos_as_xyz
  1  'x, y, z'
loop_
 _atom_type_symbol
 _atom_type_oxidation_number
  Ca2+  2.0
  Al0+  0.0
  Si0+  0.0
  O2-  -2.0
loop_
 _atom_site_type_symbol
 _atom_site_label
 _atom_site_symmetry_multiplicity
 _atom_site_fract_x
 _atom_site_fract_y
 _atom_site_fract_z
 _atom_site_occupancy
  Ca2+  Ca0  1  0.16583598  0.08341353  0.16938655  1
  Ca2+  Ca1  1  0.15655422  0.07442315  0.50532977  1
  Ca2+  Ca2  1  0.16419894  0.08407532  0.83647493  1
  Ca2+  Ca3  1  0.17004189  0.58575844  0.16645326  1
  Ca2+  Ca4  1  0.16997420  0.57603631  0.51170563  1
  Ca2+  Ca5  1  0.16473591  0.57912425  0.83893198  1
  Ca2+  Ca6  1  0.66941089  0.07532954  0.17366971  1
  Ca2+  Ca7  1  0.67047668  0.07890195  0.50689795  1
  Ca2+  Ca8  1  0.67636678  0.08682899  0.83520489  1
  Ca2+  Ca9  1  0.67858560  0.58943388  0.16693013  1
  Ca2+  Ca10  1  0.67276822  0.58090362  0.50613109  1
  Ca2+  Ca11  1  0.66793170  0.58134362  0.83891206  1
  Ca2+  Ca12  1  0.07981061  0.32169394  0.15878189  1
  Ca2+  Ca13  1  0.08445179  0.32229825  0.49966990  1
  Ca2+  Ca14  1  0.07521974  0.32709706  0.82541359  1
  Ca2+  Ca15  1  0.07768553  0.82906231  0.15941722  1
  Ca2+  Ca16  1  0.08924812  0.83130106  0.49877985  1
  Ca2+  Ca17  1  0.08534403  0.82394276  0.83052233  1
  Ca2+  Ca18  1  0.57209615  0.33713616  0.16352792  1
  Ca2+  Ca19  1  0.57378115  0.33976911  0.49993613  1
  Ca2+  Ca20  1  0.57145681  0.34296917  0.82723860  1
  Ca2+  Ca21  1  0.58096501  0.83163314  0.16236061  1
  Ca2+  Ca22  1  0.57979305  0.83167684  0.49389356  1
  Ca2+  Ca23  1  0.58312004  0.81843425  0.82888076  1
  Ca2+  Ca24  1  0.33920020  0.41994004  0.16513050  1
  Ca2+  Ca25  1  0.32971699  0.41210533  0.50823180  1
  Ca2+  Ca26  1  0.32781787  0.41477655  0.83881735  1
  Ca2+  Ca27  1  0.32817810  0.92226781  0.17502042  1
  Ca2+  Ca28  1  0.32359957  0.91379381  0.50399891  1
  Ca2+  Ca29  1  0.32586464  0.92406615  0.83962318  1
  Ca2+  Ca30  1  0.84390050  0.42925180  0.16699289  1
  Ca2+  Ca31  1  0.82959728  0.41887011  0.50990385  1
  Ca2+  Ca32  1  0.83119579  0.41488841  0.83922073  1
  Ca2+  Ca33  1  0.82824324  0.91103288  0.17133966  1
  Ca2+  Ca34  1  0.82886906  0.92377702  0.50469096  1
  Ca2+  Ca35  1  0.84032542  0.92067090  0.83502717  1
  Ca2+  Ca36  1  0.41141053  0.17650824  0.16023456  1
  Ca2+  Ca37  1  0.41069510  0.18031665  0.49707325  1
  Ca2+  Ca38  1  0.41074384  0.17649975  0.83211649  1
  Ca2+  Ca39  1  0.42074231  0.67268233  0.15867861  1
  Ca2+  Ca40  1  0.42481138  0.67077134  0.49689522  1
  Ca2+  Ca41  1  0.42784739  0.65395471  0.83133463  1
  Ca2+  Ca42  1  0.92911100  0.16888005  0.15758144  1
  Ca2+  Ca43  1  0.92193292  0.16642448  0.50167890  1
  Ca2+  Ca44  1  0.92411579  0.17312238  0.82496038  1
  Ca2+  Ca45  1  0.91803916  0.66949762  0.15506924  1
  Ca2+  Ca46  1  0.92415796  0.65957235  0.49956256  1
  Ca2+  Ca47  1  0.92392275  0.66777150  0.83359761  1
  Al0+  Al48  1  -0.00072817  -0.00068339  -0.00467600  1
  Al0+  Al49  1  0.00062317  -0.00127641  0.33228748  1
  Al0+  Al50  1  -0.00078618  -0.00154846  0.67267172  1
  Al0+  Al51  1  -0.00076150  0.49901309  -0.00068233  1
  Al0+  Al52  1  0.00235129  0.49960941  0.33822770  1
  Al0+  Al53  1  0.00068276  0.50068748  0.66318498  1
  Al0+  Al54  1  0.49880530  0.00117156  0.00432095  1
  Al0+  Al55  1  0.49921769  0.00091652  0.33553952  1
  Al0+  Al56  1  0.49930081  -0.00046400  0.66879361  1
  Al0+  Al57  1  0.49867321  0.49986110  -0.00101882  1
  Al0+  Al58  1  0.50201694  0.50162734  0.32826594  1
  Al0+  Al59  1  0.50231291  0.50127722  0.65872989  1
  Al0+  Al60  1  0.25012739  0.24888947  -0.00218246  1
  Al0+  Al61  1  0.24955647  0.25088243  0.32378880  1
  Al0+  Al62  1  0.24874207  0.25001985  0.66289311  1
  Al0+  Al63  1  0.25000168  0.75029214  0.00183698  1
  Al0+  Al64  1  0.25220242  0.75010031  0.33328017  1
  Al0+  Al65  1  0.25086742  0.75078994  0.66877963  1
  Al0+  Al66  1  0.74812516  0.24867928  0.00310533  1
  Al0+  Al67  1  0.74976679  0.25262276  0.33226721  1
  Al0+  Al68  1  0.74842744  0.25047690  0.67220807  1
  Al0+  Al69  1  0.74893843  0.74925688  -0.00529594  1
  Al0+  Al70  1  0.75190656  0.74935493  0.34497123  1
  Al0+  Al71  1  0.75012182  0.74982408  0.66151597  1
  Al0+  Al72  1  0.17966959  0.92912767  0.34657406  1
  Al0+  Al73  1  0.32017136  0.07144265  0.01502518  1
  Al0+  Al74  1  0.17881491  0.42818895  0.67953916  1
  Al0+  Al75  1  0.07224900  0.67973274  0.65223272  1
  Al0+  Al76  1  0.32158308  0.57076061  0.01365091  1
  Al0+  Al77  1  0.06984978  0.17750468  0.65037505  1
  Al0+  Al78  1  0.17945826  0.92789397  0.68269847  1
  Al0+  Al79  1  0.06790163  0.17762834  0.31830728  1
  Al0+  Al80  1  0.67877179  0.43098320  0.68044065  1
  Al0+  Al81  1  0.07142254  0.17890995  0.98295392  1
  Al0+  Al82  1  0.92598441  0.32174820  0.65089254  1
  Al0+  Al83  1  0.92680962  0.32165898  0.98611343  1
  Al0+  Al84  1  0.42979513  0.31960691  0.65334874  1
  Al0+  Al85  1  0.42877951  0.82148882  0.31971757  1
  Al0+  Al86  1  0.82296091  0.56995921  0.34888873  1
  Al0+  Al87  1  0.92684405  0.82034622  0.98528287  1
  Al0+  Al88  1  0.43154085  0.31994079  0.98520669  1
  Al0+  Al89  1  0.42983040  0.32158284  0.31740209  1
  Al0+  Al90  1  0.82032609  0.56991926  0.01120669  1
  Al0+  Al91  1  0.67771829  0.92989021  0.34757057  1
  Al0+  Al92  1  0.57175404  0.67945522  0.65021555  1
  Al0+  Al93  1  0.81906781  0.06996413  0.68109634  1
  Al0+  Al94  1  0.56893782  0.68106548  0.98782202  1
  Al0+  Al95  1  0.07362995  0.67845344  0.98660870  1
  Si0+  Si96  1  0.32238034  0.57123522  0.68108832  1
  Si0+  Si97  1  0.32059709  0.07468321  0.35033056  1
  Si0+  Si98  1  0.57227049  0.17471271  0.98416374  1
  Si0+  Si99  1  0.07220809  0.67740085  0.31960077  1
  Si0+  Si100  1  0.18160688  0.42861316  0.34746590  1
  Si0+  Si101  1  0.82228958  0.07305928  0.34791666  1
  Si0+  Si102  1  0.67658287  0.42875839  0.34974770  1
  Si0+  Si103  1  0.67616227  0.92608011  0.68474045  1
  Si0+  Si104  1  0.17685909  0.92810333  0.01808891  1
  Si0+  Si105  1  0.92693321  0.32411063  0.31701840  1
  Si0+  Si106  1  0.32262135  0.57122785  0.34796278  1
  Si0+  Si107  1  0.57395148  0.17752244  0.31768642  1
  Si0+  Si108  1  0.57424570  0.68070734  0.31573635  1
  Si0+  Si109  1  0.32247497  0.07289757  0.68252324  1
  Si0+  Si110  1  0.17782601  0.42803798  0.01730673  1
  Si0+  Si111  1  0.92891379  0.82191276  0.64740580  1
  Si0+  Si112  1  0.67962559  0.92866926  0.01346379  1
  Si0+  Si113  1  0.42720272  0.82483171  0.98411148  1
  Si0+  Si114  1  0.82180927  0.07100165  0.01645959  1
  Si0+  Si115  1  0.92933207  0.81897170  0.32148388  1
  Si0+  Si116  1  0.42868818  0.82425674  0.65101861  1
  Si0+  Si117  1  0.82288299  0.57290673  0.68481985  1
  Si0+  Si118  1  0.67628458  0.42726163  0.01824280  1
  Si0+  Si119  1  0.57234865  0.17578867  0.65153122  1
  O2-  O120  1  0.24561528  -0.00318679  0.06234821  1
  O2-  O121  1  0.25335150  0.00479009  0.39471426  1
  O2-  O122  1  0.25367734  0.00430382  0.72661566  1
  O2-  O123  1  0.24480985  0.49886740  0.06242865  1
  O2-  O124  1  0.25400911  0.49838961  0.39039022  1
  O2-  O125  1  0.25260531  0.50429636  0.72560200  1
  O2-  O126  1  0.75068984  -0.00076938  0.05770785  1
  O2-  O127  1  0.74954518  0.00837948  0.39235012  1
  O2-  O128  1  0.74381687  -0.00483241  0.72910014  1
  O2-  O129  1  0.74923784  0.49245951  0.06115461  1
  O2-  O130  1  0.74905433  0.49341140  0.39338315  1
  O2-  O131  1  0.75561658  0.50267881  0.72830646  1
  O2-  O132  1  -0.00885856  0.25131489  0.27333777  1
  O2-  O133  1  -0.00142116  0.25054231  0.60011546  1
  O2-  O134  1  -0.00200695  0.25019605  0.93519674  1
  O2-  O135  1  -0.00002866  0.74783273  0.27879403  1
  O2-  O136  1  -0.00264325  0.75313521  0.60266003  1
  O2-  O137  1  0.00168083  0.75058607  0.93700176  1
  O2-  O138  1  0.50533122  0.24598067  0.27306188  1
  O2-  O139  1  0.50310132  0.24320710  0.60630821  1
  O2-  O140  1  0.50649087  0.24529066  0.93929972  1
  O2-  O141  1  0.50613517  0.75007976  0.27181387  1
  O2-  O142  1  0.49903084  0.75739676  0.60620938  1
  O2-  O143  1  0.49157968  0.75262995  0.93946494  1
  O2-  O144  1  0.06948608  0.17862605  0.09730522  1
  O2-  O145  1  0.06726785  0.17716233  0.43097432  1
  O2-  O146  1  0.06946488  0.17907066  0.76335498  1
  O2-  O147  1  0.07242568  0.68096120  0.10125776  1
  O2-  O148  1  0.07279347  0.67726723  0.42464791  1
  O2-  O149  1  0.07213108  0.68043407  0.76477959  1
  O2-  O150  1  0.57205174  0.17315911  0.09004059  1
  O2-  O151  1  0.57511969  0.17809112  0.42314147  1
  O2-  O152  1  0.57060204  0.17415337  0.75700677  1
  O2-  O153  1  0.57109919  0.68537449  0.10113899  1
  O2-  O154  1  0.57162119  0.68010941  0.42131107  1
  O2-  O155  1  0.57037574  0.67901600  0.76345856  1
  O2-  O156  1  0.17968843  0.43105328  0.24245066  1
  O2-  O157  1  0.18271156  0.42849090  0.56548425  1
  O2-  O158  1  0.17945640  0.42810007  0.91182470  1
  O2-  O159  1  0.17948015  0.92817627  0.23374757  1
  O2-  O160  1  0.18162382  0.92749739  0.56903368  1
  O2-  O161  1  0.17916285  0.92741022  0.91265597  1
  O2-  O162  1  0.67390617  0.43010261  0.24434078  1
  O2-  O163  1  0.67759869  0.43396721  0.56685210  1
  O2-  O164  1  0.67394276  0.42933748  0.91276475  1
  O2-  O165  1  0.68121064  0.92840966  0.23389756  1
  O2-  O166  1  0.67616559  0.92806396  0.57892009  1
  O2-  O167  1  0.67881954  0.93058798  0.90866736  1
  O2-  O168  1  0.43357987  0.31973561  0.09863556  1
  O2-  O169  1  0.42941854  0.32175728  0.43052908  1
  O2-  O170  1  0.43018810  0.32011465  0.76615589  1
  O2-  O171  1  0.43072758  0.82518601  0.09000099  1
  O2-  O172  1  0.42812893  0.81683623  0.43286590  1
  O2-  O173  1  0.43054885  0.82628312  0.75644690  1
  O2-  O174  1  0.92963576  0.31983264  0.10058206  1
  O2-  O175  1  0.92693839  0.32468152  0.42222016  1
  O2-  O176  1  0.92620380  0.31995630  0.76417221  1
  O2-  O177  1  0.92503077  0.81899786  0.09999175  1
  O2-  O178  1  0.93046964  0.82031604  0.42629315  1
  O2-  O179  1  0.92781990  0.82019563  0.75274707  1
  O2-  O180  1  0.31921035  0.07375100  0.24466287  1
  O2-  O181  1  0.32531437  0.07154911  0.57686168  1
  O2-  O182  1  0.32215772  0.06894192  0.90194322  1
  O2-  O183  1  0.32102623  0.57195190  0.24285838  1
  O2-  O184  1  0.32106692  0.57081839  0.57460768  1
  O2-  O185  1  0.32454474  0.56628291  0.90089075  1
  O2-  O186  1  0.82168268  0.07030781  0.24208463  1
  O2-  O187  1  0.81678280  0.06726175  0.56727385  1
  O2-  O188  1  0.81970420  0.07194888  0.91172020  1
  O2-  O189  1  0.82294439  0.57242561  0.23560964  1
  O2-  O190  1  0.82061552  0.57210087  0.57864325  1
  O2-  O191  1  0.81688908  0.57167796  0.89873280  1
  O2-  O192  1  0.03804051  0.08085077  0.26330234  1
  O2-  O193  1  0.03766988  0.07823498  0.60068915  1
  O2-  O194  1  0.04406403  0.08017874  0.93204829  1
  O2-  O195  1  0.04542760  0.58493561  0.27309581  1
  O2-  O196  1  0.04225199  0.58403639  0.59551902  1
  O2-  O197  1  0.04602303  0.57990812  0.93561610  1
  O2-  O198  1  0.54934961  0.08350040  0.27192220  1
  O2-  O199  1  0.54867060  0.08104177  0.60531352  1
  O2-  O200  1  0.54574457  0.08182707  0.93727797  1
  O2-  O201  1  0.54891302  0.58775691  0.26872047  1
  O2-  O202  1  0.53787798  0.58669004  0.59128975  1
  O2-  O203  1  0.53890621  0.58442469  0.93423502  1
  O2-  O204  1  0.16304859  0.21073925  0.26297052  1
  O2-  O205  1  0.16824138  0.20468546  0.59652304  1
  O2-  O206  1  0.16961085  0.20635170  0.93123307  1
  O2-  O207  1  0.16379789  0.70578187  0.27262192  1
  O2-  O208  1  0.16988302  0.71048521  0.59893093  1
  O2-  O209  1  0.17234802  0.70556858  0.93342687  1
  O2-  O210  1  0.66788190  0.20161824  0.26978311  1
  O2-  O211  1  0.66533315  0.20182991  0.60570375  1
  O2-  O212  1  0.66715406  0.19750915  0.94018485  1
  O2-  O213  1  0.66939801  0.70815749  0.27431393  1
  O2-  O214  1  0.66826337  0.70879336  0.59497608  1
  O2-  O215  1  0.66220553  0.71386501  0.92999740  1
  O2-  O216  1  0.08409511  0.45165971  0.06436493  1
  O2-  O217  1  0.09102961  0.45640550  0.39709970  1
  O2-  O218  1  0.08190189  0.45924288  0.73196665  1
  O2-  O219  1  0.08210834  0.95383324  0.06254166  1
  O2-  O220  1  0.08209368  0.95800652  0.40039400  1
  O2-  O221  1  0.08282768  0.95525878  0.73679941  1
  O2-  O222  1  0.58506451  0.45879886  0.06563292  1
  O2-  O223  1  0.58413480  0.45919454  0.39650739  1
  O2-  O224  1  0.58250786  0.46688377  0.73266662  1
  O2-  O225  1  0.58839825  0.95644042  0.06313341  1
  O2-  O226  1  0.58066943  0.95800201  0.40278204  1
  O2-  O227  1  0.58185837  0.94898490  0.73078453  1
  O2-  O228  1  0.20741378  0.33546206  0.06331621  1
  O2-  O229  1  0.21040185  0.33599434  0.39247511  1
  O2-  O230  1  0.21082002  0.33196409  0.73290867  1
  O2-  O231  1  0.20171600  0.83450969  0.06488750  1
  O2-  O232  1  0.21248438  0.83245004  0.40070967  1
  O2-  O233  1  0.21322646  0.83265360  0.73811949  1
  O2-  O234  1  0.69553735  0.33152575  0.06392254  1
  O2-  O235  1  0.69665680  0.33294296  0.39457743  1
  O2-  O236  1  0.70114756  0.33310579  0.73536527  1
  O2-  O237  1  0.70833417  0.83745705  0.06130900  1
  O2-  O238  1  0.71108366  0.83634456  0.40544787  1
  O2-  O239  1  0.70376193  0.83190206  0.72826106  1
  O2-  O240  1  0.46196666  0.41825665  0.26308096  1
  O2-  O241  1  0.46236349  0.41435553  0.59648407  1
  O2-  O242  1  0.46203245  0.41592732  0.93121320  1
  O2-  O243  1  0.45566389  0.92036436  0.26800746  1
  O2-  O244  1  0.45243933  0.91808163  0.60324111  1
  O2-  O245  1  0.45655041  0.91722432  0.93794801  1
  O2-  O246  1  0.96011623  0.41622492  0.27143773  1
  O2-  O247  1  0.95272591  0.42066187  0.59850442  1
  O2-  O248  1  0.95194541  0.42018232  0.93387516  1
  O2-  O249  1  0.95530555  0.91020858  0.27195882  1
  O2-  O250  1  0.95548889  0.91539552  0.60265961  1
  O2-  O251  1  0.95286979  0.91867386  0.93238134  1
  O2-  O252  1  0.33466140  0.29183521  0.26066292  1
  O2-  O253  1  0.33441692  0.28859438  0.59688310  1
  O2-  O254  1  0.33498899  0.28895624  0.93294064  1
  O2-  O255  1  0.33403540  0.78748714  0.26365992  1
  O2-  O256  1  0.33613602  0.79593232  0.60487779  1
  O2-  O257  1  0.33190792  0.80401222  0.94130289  1
  O2-  O258  1  0.83091601  0.30631176  0.27193565  1
  O2-  O259  1  0.82650184  0.29189513  0.59990236  1
  O2-  O260  1  0.82600757  0.29488635  0.93776654  1
  O2-  O261  1  0.83662844  0.79012635  0.27619955  1
  O2-  O262  1  0.83465434  0.79829987  0.60085023  1
  O2-  O263  1  0.83054866  0.79211011  0.92908535  1
  O2-  O264  1  0.41709536  0.04221658  0.07120920  1
  O2-  O265  1  0.41543054  0.05298237  0.39553664  1
  O2-  O266  1  0.41604567  0.04775204  0.73033390  1
  O2-  O267  1  0.41685586  0.53733449  0.07030748  1
  O2-  O268  1  0.41665864  0.54591344  0.39255058  1
  O2-  O269  1  0.41630341  0.54296318  0.72367027  1
  O2-  O270  1  0.91359234  0.04209336  0.06331346  1
  O2-  O271  1  0.91321160  0.04145668  0.39497066  1
  O2-  O272  1  0.91338334  0.03701142  0.73730963  1
  O2-  O273  1  0.91753641  0.54242506  0.06778328  1
  O2-  O274  1  0.91987878  0.54023335  0.40375273  1
  O2-  O275  1  0.91803863  0.55092687  0.72743420  1
  O2-  O276  1  0.28938496  0.16817669  0.06928714  1
  O2-  O277  1  0.29299581  0.16912132  0.39347185  1
  O2-  O278  1  0.29577680  0.16612801  0.72771887  1
  O2-  O279  1  0.29471671  0.66901075  0.06839078  1
  O2-  O280  1  0.29342242  0.66161155  0.39692157  1
  O2-  O281  1  0.30136817  0.66550936  0.72693300  1
  O2-  O282  1  0.79333490  0.16173787  0.06675643  1
  O2-  O283  1  0.80112086  0.16895543  0.39173292  1
  O2-  O284  1  0.78754980  0.16486481  0.73774197  1
  O2-  O285  1  0.78514780  0.66628287  0.06542972  1
  O2-  O286  1  0.79230161  0.66409103  0.40755143  1
  O2-  O287  1  0.79499318  0.66747787  0.72728644  1
