# generated using pymatgen
data_Ca2Al2SiO7
_symmetry_space_group_name_H-M   'P 1'
_cell_length_a   15.45705308
_cell_length_b   15.45672090
_cell_length_c   15.28270157
_cell_angle_alpha   89.98993004
_cell_angle_beta   89.99410935
_cell_angle_gamma   89.99909180
_symmetry_Int_Tables_number   1
_chemical_formula_structural   Ca2Al2SiO7
_chemical_formula_sum   'Ca48 Al48 Si24 O168'
_cell_volume   3651.27200237
_cell_formula_units_Z   24
loop_
 _symmetry_equiv_pos_site_id
 _symmetry_equiv_pos_as_xyz
  1  'x, y, z'
loop_
 _atom_type_symbol
 _atom_type_oxidation_number
  Ca2+  2.0
  Al0+  0.0
  Si0+  0.0
  O2-  -2.0
loop_
 _atom_site_type_symbol
 _atom_site_label
 _atom_site_symmetry_multiplicity
 _atom_site_fract_x
 _atom_site_fract_y
 _atom_site_fract_z
 _atom_site_occupancy
  Ca2+  Ca0  1  0.17410623  0.08867441  0.16923302  1
  Ca2+  Ca1  1  0.16944570  0.08199467  0.49954814  1
  Ca2+  Ca2  1  0.17009687  0.07748940  0.84114806  1
  Ca2+  Ca3  1  0.18155892  0.58537945  0.17070703  1
  Ca2+  Ca4  1  0.18151399  0.58985342  0.50338246  1
  Ca2+  Ca5  1  0.17907218  0.58504927  0.84034439  1
  Ca2+  Ca6  1  0.66622015  0.07738405  0.16975945  1
  Ca2+  Ca7  1  0.66437413  0.07121118  0.50174836  1
  Ca2+  Ca8  1  0.67343674  0.08217921  0.84637718  1
  Ca2+  Ca9  1  0.67055122  0.58760619  0.17389846  1
  Ca2+  Ca10  1  0.66126144  0.57686213  0.49865628  1
  Ca2+  Ca11  1  0.66408354  0.58386265  0.83664256  1
  Ca2+  Ca12  1  0.08658404  0.32158476  0.16182068  1
  Ca2+  Ca13  1  0.08370141  0.32689149  0.49027179  1
  Ca2+  Ca14  1  0.08463078  0.32710595  0.83504489  1
  Ca2+  Ca15  1  0.06979570  0.83502177  0.16284491  1
  Ca2+  Ca16  1  0.07406766  0.83952752  0.49776222  1
  Ca2+  Ca17  1  0.07335985  0.83915088  0.82914320  1
  Ca2+  Ca18  1  0.57478278  0.33365201  0.16269658  1
  Ca2+  Ca19  1  0.58168703  0.33780919  0.49343752  1
  Ca2+  Ca20  1  0.58176872  0.33296516  0.83453997  1
  Ca2+  Ca21  1  0.58268306  0.82427536  0.16097524  1
  Ca2+  Ca22  1  0.58766391  0.81979506  0.49225180  1
  Ca2+  Ca23  1  0.57625207  0.82087155  0.83364802  1
  Ca2+  Ca24  1  0.34401390  0.42291880  0.16991630  1
  Ca2+  Ca25  1  0.34162934  0.42657585  0.49767048  1
  Ca2+  Ca26  1  0.33823183  0.42554717  0.83861163  1
  Ca2+  Ca27  1  0.34541947  0.93019506  0.16856292  1
  Ca2+  Ca28  1  0.32668767  0.92383578  0.50535801  1
  Ca2+  Ca29  1  0.32731022  0.91607397  0.84363239  1
  Ca2+  Ca30  1  0.82471208  0.42996981  0.17497652  1
  Ca2+  Ca31  1  0.82073891  0.42062275  0.50449425  1
  Ca2+  Ca32  1  0.82455508  0.42368330  0.84311139  1
  Ca2+  Ca33  1  0.83022843  0.91508762  0.16964320  1
  Ca2+  Ca34  1  0.83158355  0.90866258  0.49718221  1
  Ca2+  Ca35  1  0.83507317  0.91665064  0.84102033  1
  Ca2+  Ca36  1  0.41635076  0.17545707  0.15673259  1
  Ca2+  Ca37  1  0.41415491  0.17546587  0.48841663  1
  Ca2+  Ca38  1  0.41791038  0.16880769  0.83844741  1
  Ca2+  Ca39  1  0.42712372  0.66510337  0.15861970  1
  Ca2+  Ca40  1  0.42441387  0.65931000  0.49469530  1
  Ca2+  Ca41  1  0.42355351  0.65885529  0.83126247  1
  Ca2+  Ca42  1  0.92762384  0.16047755  0.15949436  1
  Ca2+  Ca43  1  0.92515439  0.16824925  0.49219063  1
  Ca2+  Ca44  1  0.92191588  0.15952129  0.83376398  1
  Ca2+  Ca45  1  0.90599601  0.67442285  0.16151150  1
  Ca2+  Ca46  1  0.91256295  0.67620965  0.49210369  1
  Ca2+  Ca47  1  0.91058276  0.67740166  0.83100166  1
  Al0+  Al48  1  -0.00064591  -0.00036373  -0.00392818  1
  Al0+  Al49  1  0.00043249  -0.00011140  0.32504001  1
  Al0+  Al50  1  0.00118342  0.00042249  0.66399586  1
  Al0+  Al51  1  -0.00022743  0.49955814  0.00484710  1
  Al0+  Al52  1  0.00134516  0.50154401  0.33679538  1
  Al0+  Al53  1  0.00047921  0.50036978  0.66604128  1
  Al0+  Al54  1  0.49919391  -0.00114748  -0.00461807  1
  Al0+  Al55  1  0.50044715  0.00025182  0.34613921  1
  Al0+  Al56  1  0.50109505  0.00015156  0.66790999  1
  Al0+  Al57  1  0.49965000  0.49807126  -0.00413534  1
  Al0+  Al58  1  0.50121911  0.49990122  0.33170960  1
  Al0+  Al59  1  0.50115849  0.49820601  0.67093000  1
  Al0+  Al60  1  0.24887662  0.24836146  -0.00797986  1
  Al0+  Al61  1  0.25095515  0.25093068  0.32985976  1
  Al0+  Al62  1  0.25076992  0.25103880  0.66543964  1
  Al0+  Al63  1  0.24703338  0.74959334  0.00497593  1
  Al0+  Al64  1  0.24882407  0.75272657  0.33802826  1
  Al0+  Al65  1  0.24950547  0.75239906  0.67593678  1
  Al0+  Al66  1  0.75153545  0.24969363  0.00386041  1
  Al0+  Al67  1  0.75131824  0.24973503  0.33652586  1
  Al0+  Al68  1  0.74971384  0.25009792  0.66955703  1
  Al0+  Al69  1  0.74873085  0.74996574  -0.00643844  1
  Al0+  Al70  1  0.74982672  0.75126830  0.33300953  1
  Al0+  Al71  1  0.74861193  0.75017146  0.65860586  1
  Al0+  Al72  1  0.56999590  0.67843418  0.98418770  1
  Al0+  Al73  1  0.57351084  0.17774661  0.98700466  1
  Al0+  Al74  1  0.31992078  0.56908640  0.68107515  1
  Al0+  Al75  1  0.93012786  0.81845863  0.98535586  1
  Al0+  Al76  1  0.32116967  0.57205824  0.34590359  1
  Al0+  Al77  1  0.43230777  0.31967157  0.32025637  1
  Al0+  Al78  1  0.56712631  0.67887087  0.64994013  1
  Al0+  Al79  1  0.42879665  0.32029761  0.98223133  1
  Al0+  Al80  1  0.82213640  0.07101157  0.01371210  1
  Al0+  Al81  1  0.93068950  0.82055307  0.65077162  1
  Al0+  Al82  1  0.32151421  0.57028929  0.01524270  1
  Al0+  Al83  1  0.82218677  0.57334270  0.34977265  1
  Al0+  Al84  1  0.32042548  0.07280000  0.34651658  1
  Al0+  Al85  1  0.67954008  0.92996009  0.34660122  1
  Al0+  Al86  1  0.06961722  0.18125855  0.31854491  1
  Al0+  Al87  1  0.67913473  0.42855927  0.34743749  1
  Al0+  Al88  1  0.17908604  0.93220113  0.68106133  1
  Al0+  Al89  1  0.06941627  0.17933394  0.98362689  1
  Al0+  Al90  1  0.81962099  0.57243005  0.01221459  1
  Al0+  Al91  1  0.42576311  0.82159509  0.98723279  1
  Al0+  Al92  1  0.93021484  0.81799747  0.31740495  1
  Al0+  Al93  1  0.68048399  0.42865464  0.68353427  1
  Al0+  Al94  1  0.56778376  0.68072554  0.31968420  1
  Al0+  Al95  1  0.32045721  0.06944766  0.01249215  1
  Si0+  Si96  1  0.92713991  0.32215959  0.65251515  1
  Si0+  Si97  1  0.67813865  0.92844399  0.01414614  1
  Si0+  Si98  1  0.82268412  0.57319456  0.68267835  1
  Si0+  Si99  1  0.17525102  0.42563470  0.68331240  1
  Si0+  Si100  1  0.42541077  0.82416506  0.64975111  1
  Si0+  Si101  1  0.92621125  0.32478169  0.31713729  1
  Si0+  Si102  1  0.42505235  0.82493482  0.32088881  1
  Si0+  Si103  1  0.67790761  0.42715775  0.01784359  1
  Si0+  Si104  1  0.81973380  0.06963587  0.67998764  1
  Si0+  Si105  1  0.07559254  0.67647008  0.31701825  1
  Si0+  Si106  1  0.17550838  0.93023229  0.34931287  1
  Si0+  Si107  1  0.67897485  0.92658842  0.68296811  1
  Si0+  Si108  1  0.17901924  0.42768898  0.34884989  1
  Si0+  Si109  1  0.57403099  0.17743636  0.65083488  1
  Si0+  Si110  1  0.07447560  0.67694310  0.65120431  1
  Si0+  Si111  1  0.82504693  0.07093666  0.34944703  1
  Si0+  Si112  1  0.32307740  0.07452626  0.68438957  1
  Si0+  Si113  1  0.17795002  0.42673419  0.01644606  1
  Si0+  Si114  1  0.07018642  0.18110632  0.65037003  1
  Si0+  Si115  1  0.57393392  0.17400439  0.32007846  1
  Si0+  Si116  1  0.07230005  0.67503252  0.98449019  1
  Si0+  Si117  1  0.17590999  0.92805379  0.01886505  1
  Si0+  Si118  1  0.92816170  0.32410908  0.98450136  1
  Si0+  Si119  1  0.43081834  0.31828996  0.65058715  1
  O2-  O120  1  0.24948562  -0.00784823  0.06177268  1
  O2-  O121  1  0.24719912  -0.00356579  0.39307917  1
  O2-  O122  1  0.25764661  0.00272877  0.72763939  1
  O2-  O123  1  0.24686245  0.49461539  0.06107271  1
  O2-  O124  1  0.24339822  0.50019315  0.39348209  1
  O2-  O125  1  0.24081971  0.49742798  0.72626485  1
  O2-  O126  1  0.74419130  -0.00029987  0.05890605  1
  O2-  O127  1  0.75320615  0.00643815  0.39473337  1
  O2-  O128  1  0.74890913  -0.00062902  0.72378088  1
  O2-  O129  1  0.74490575  0.49843183  0.05963755  1
  O2-  O130  1  0.75308254  0.49816066  0.39907988  1
  O2-  O131  1  0.75632416  0.50320027  0.72814299  1
  O2-  O132  1  -0.00556398  0.25598624  0.27250902  1
  O2-  O133  1  0.00199803  0.25526045  0.60890267  1
  O2-  O134  1  -0.00638150  0.25353482  0.93712437  1
  O2-  O135  1  0.00279336  0.74034845  0.27235481  1
  O2-  O136  1  0.00382233  0.74301150  0.60568730  1
  O2-  O137  1  0.00335517  0.74245559  0.93847806  1
  O2-  O138  1  0.50688221  0.24364127  0.27612894  1
  O2-  O139  1  0.49917832  0.24434153  0.60867843  1
  O2-  O140  1  0.50281372  0.24909720  0.93334975  1
  O2-  O141  1  0.49090123  0.75457078  0.27595401  1
  O2-  O142  1  0.49186816  0.75440546  0.60403752  1
  O2-  O143  1  0.49242708  0.74573819  0.93515918  1
  O2-  O144  1  0.06997672  0.18057997  0.09651107  1
  O2-  O145  1  0.06827847  0.18194296  0.43272661  1
  O2-  O146  1  0.06881539  0.18009851  0.75511625  1
  O2-  O147  1  0.07249097  0.67627811  0.09002004  1
  O2-  O148  1  0.07836818  0.67956962  0.42279572  1
  O2-  O149  1  0.07313625  0.67654978  0.75663057  1
  O2-  O150  1  0.57237848  0.17792516  0.10060744  1
  O2-  O151  1  0.57164320  0.17387191  0.42637680  1
  O2-  O152  1  0.57653390  0.17739415  0.75537711  1
  O2-  O153  1  0.57221292  0.68071434  0.09765632  1
  O2-  O154  1  0.56606827  0.67995683  0.43313277  1
  O2-  O155  1  0.56774890  0.68011835  0.76271901  1
  O2-  O156  1  0.17978297  0.42586143  0.24361984  1
  O2-  O157  1  0.17514139  0.42122305  0.57794285  1
  O2-  O158  1  0.17635618  0.42921853  0.91040127  1
  O2-  O159  1  0.17273775  0.93060337  0.24434494  1
  O2-  O160  1  0.17744382  0.93718648  0.56771631  1
  O2-  O161  1  0.17410812  0.93145098  0.91281682  1
  O2-  O162  1  0.67917055  0.42893040  0.23431341  1
  O2-  O163  1  0.68102435  0.42646755  0.57079535  1
  O2-  O164  1  0.68103777  0.42589110  0.91175842  1
  O2-  O165  1  0.67919545  0.93093275  0.23373150  1
  O2-  O166  1  0.67937542  0.92808486  0.57776485  1
  O2-  O167  1  0.68122265  0.92864005  0.90801446  1
  O2-  O168  1  0.42927157  0.32013166  0.09576510  1
  O2-  O169  1  0.43210734  0.31915605  0.43423756  1
  O2-  O170  1  0.42965634  0.31671544  0.75516111  1
  O2-  O171  1  0.43132674  0.82373871  0.10098111  1
  O2-  O172  1  0.42503155  0.82441801  0.42683527  1
  O2-  O173  1  0.42753213  0.82557390  0.75498284  1
  O2-  O174  1  0.93170173  0.32453049  0.08971801  1
  O2-  O175  1  0.92816199  0.32159953  0.42354740  1
  O2-  O176  1  0.92689674  0.31987853  0.75732528  1
  O2-  O177  1  0.92972126  0.81876914  0.09820587  1
  O2-  O178  1  0.93369364  0.82020805  0.43079456  1
  O2-  O179  1  0.93106051  0.82231803  0.76371565  1
  O2-  O180  1  0.32071019  0.07308323  0.23379765  1
  O2-  O181  1  0.32053390  0.07687231  0.57852905  1
  O2-  O182  1  0.31664454  0.06879187  0.89903236  1
  O2-  O183  1  0.32123299  0.57049404  0.23328099  1
  O2-  O184  1  0.32027003  0.56634580  0.56770517  1
  O2-  O185  1  0.31924525  0.56830265  0.90183373  1
  O2-  O186  1  0.82616229  0.06909988  0.24425118  1
  O2-  O187  1  0.81890668  0.07097253  0.57479149  1
  O2-  O188  1  0.82287761  0.06756968  0.89965732  1
  O2-  O189  1  0.81902962  0.57311762  0.23609408  1
  O2-  O190  1  0.82337203  0.57085065  0.57741362  1
  O2-  O191  1  0.81981380  0.57064908  0.89862979  1
  O2-  O192  1  0.03958852  0.08600899  0.26288557  1
  O2-  O193  1  0.03838782  0.09158183  0.60125068  1
  O2-  O194  1  0.03655825  0.08420060  0.92803619  1
  O2-  O195  1  0.05726162  0.58012803  0.27391701  1
  O2-  O196  1  0.05446059  0.58137088  0.60522244  1
  O2-  O197  1  0.04935969  0.58031922  0.93924867  1
  O2-  O198  1  0.54730440  0.07983549  0.27684220  1
  O2-  O199  1  0.54981022  0.08346275  0.60469206  1
  O2-  O200  1  0.54616428  0.08034641  0.93112967  1
  O2-  O201  1  0.53882977  0.58467981  0.26535797  1
  O2-  O202  1  0.53553800  0.58051899  0.59938884  1
  O2-  O203  1  0.54509309  0.57939761  0.93148083  1
  O2-  O204  1  0.16521519  0.21367107  0.26462580  1
  O2-  O205  1  0.16327736  0.20710444  0.60372585  1
  O2-  O206  1  0.16313403  0.21103723  0.92512528  1
  O2-  O207  1  0.16763251  0.70728562  0.26981411  1
  O2-  O208  1  0.16797254  0.70652040  0.60661623  1
  O2-  O209  1  0.16544219  0.70168405  0.93828684  1
  O2-  O210  1  0.66988705  0.19509705  0.27710359  1
  O2-  O211  1  0.66488803  0.20776834  0.60263676  1
  O2-  O212  1  0.67343190  0.20525315  0.93457538  1
  O2-  O213  1  0.66385080  0.71432116  0.26772785  1
  O2-  O214  1  0.66332187  0.71051004  0.59553620  1
  O2-  O215  1  0.66494281  0.71200435  0.92710396  1
  O2-  O216  1  0.08465438  0.44980686  0.06450380  1
  O2-  O217  1  0.08405969  0.44700367  0.39571091  1
  O2-  O218  1  0.08016252  0.44662828  0.72922131  1
  O2-  O219  1  0.08455095  0.96099133  0.06440450  1
  O2-  O220  1  0.08366224  0.96205068  0.39640868  1
  O2-  O221  1  0.08364928  0.96832167  0.73508184  1
  O2-  O222  1  0.58284947  0.45035924  0.05999599  1
  O2-  O223  1  0.58255434  0.46079337  0.40212983  1
  O2-  O224  1  0.58481281  0.45931529  0.73790823  1
  O2-  O225  1  0.58399267  0.95124864  0.05912622  1
  O2-  O226  1  0.58574828  0.95834468  0.40883177  1
  O2-  O227  1  0.58615012  0.95281120  0.72918831  1
  O2-  O228  1  0.20345889  0.33184807  0.05865844  1
  O2-  O229  1  0.20923946  0.33626836  0.39746157  1
  O2-  O230  1  0.20467785  0.33303380  0.73046686  1
  O2-  O231  1  0.19207553  0.83249155  0.06382840  1
  O2-  O232  1  0.19737113  0.83679309  0.39799748  1
  O2-  O233  1  0.20267582  0.83537248  0.73775215  1
  O2-  O234  1  0.70483809  0.33491492  0.06535076  1
  O2-  O235  1  0.70442113  0.32856855  0.40204289  1
  O2-  O236  1  0.71210682  0.33187245  0.73769500  1
  O2-  O237  1  0.70843011  0.83629709  0.05951401  1
  O2-  O238  1  0.71451286  0.83599299  0.40272611  1
  O2-  O239  1  0.70913079  0.83509531  0.72854619  1
  O2-  O240  1  0.46428288  0.41461224  0.26511123  1
  O2-  O241  1  0.46244780  0.40924050  0.60459948  1
  O2-  O242  1  0.45844346  0.41713935  0.92725582  1
  O2-  O243  1  0.45505320  0.91903564  0.27843032  1
  O2-  O244  1  0.45155191  0.91891808  0.60445890  1
  O2-  O245  1  0.45542668  0.91736255  0.92940976  1
  O2-  O246  1  0.95113666  0.41937809  0.27334582  1
  O2-  O247  1  0.95055570  0.41540856  0.60530798  1
  O2-  O248  1  0.95628749  0.41655108  0.93618955  1
  O2-  O249  1  0.96224597  0.91366598  0.26252070  1
  O2-  O250  1  0.96446464  0.91679340  0.59647548  1
  O2-  O251  1  0.96303976  0.91390817  0.93011438  1
  O2-  O252  1  0.33584643  0.29071456  0.26635359  1
  O2-  O253  1  0.33757698  0.29355556  0.60281920  1
  O2-  O254  1  0.33169067  0.29109958  0.92696320  1
  O2-  O255  1  0.32956965  0.80582997  0.27650550  1
  O2-  O256  1  0.32924731  0.80196048  0.60746584  1
  O2-  O257  1  0.32357408  0.79957012  0.93912033  1
  O2-  O258  1  0.83224743  0.30006409  0.27204991  1
  O2-  O259  1  0.83735573  0.28898021  0.60385694  1
  O2-  O260  1  0.83368890  0.30073957  0.93990458  1
  O2-  O261  1  0.83309553  0.79005122  0.26430491  1
  O2-  O262  1  0.83390251  0.79206609  0.59615492  1
  O2-  O263  1  0.83441142  0.78944018  0.92873002  1
  O2-  O264  1  0.41871286  0.04177354  0.06512757  1
  O2-  O265  1  0.41518018  0.04548862  0.40637713  1
  O2-  O266  1  0.41916295  0.05346246  0.72719317  1
  O2-  O267  1  0.41894871  0.53815533  0.06614642  1
  O2-  O268  1  0.41533295  0.53546506  0.40029174  1
  O2-  O269  1  0.41366664  0.53208302  0.73542869  1
  O2-  O270  1  0.91770729  0.03639131  0.06669131  1
  O2-  O271  1  0.91742924  0.04063144  0.39619275  1
  O2-  O272  1  0.91223978  0.04158574  0.72554641  1
  O2-  O273  1  0.91655187  0.54370513  0.06712785  1
  O2-  O274  1  0.92337162  0.55072765  0.40153314  1
  O2-  O275  1  0.91815815  0.55116482  0.72732483  1
  O2-  O276  1  0.28590109  0.16663163  0.06286324  1
  O2-  O277  1  0.28548802  0.16812840  0.40167671  1
  O2-  O278  1  0.29345063  0.16721724  0.72994907  1
  O2-  O279  1  0.29008192  0.66651324  0.06995393  1
  O2-  O280  1  0.29240054  0.66918246  0.40172214  1
  O2-  O281  1  0.29387036  0.66663548  0.73531970  1
  O2-  O282  1  0.79874823  0.16895753  0.06841214  1
  O2-  O283  1  0.80576068  0.16628929  0.39520601  1
  O2-  O284  1  0.79357435  0.16119620  0.72851873  1
  O2-  O285  1  0.78759079  0.66940154  0.06411071  1
  O2-  O286  1  0.79088407  0.67045573  0.40240277  1
  O2-  O287  1  0.79337381  0.66723699  0.72558438  1
