# generated using pymatgen
data_Ca2Al2SiO7
_symmetry_space_group_name_H-M   'P 1'
_cell_length_a   15.46541123
_cell_length_b   15.46403652
_cell_length_c   15.28848095
_cell_angle_alpha   90.00393528
_cell_angle_beta   89.98783848
_cell_angle_gamma   90.00680958
_symmetry_Int_Tables_number   1
_chemical_formula_structural   Ca2Al2SiO7
_chemical_formula_sum   'Ca48 Al48 Si24 O168'
_cell_volume   3656.35758118
_cell_formula_units_Z   24
loop_
 _symmetry_equiv_pos_site_id
 _symmetry_equiv_pos_as_xyz
  1  'x, y, z'
loop_
 _atom_type_symbol
 _atom_type_oxidation_number
  Ca2+  2.0
  Al0+  0.0
  Si0+  0.0
  O2-  -2.0
loop_
 _atom_site_type_symbol
 _atom_site_label
 _atom_site_symmetry_multiplicity
 _atom_site_fract_x
 _atom_site_fract_y
 _atom_site_fract_z
 _atom_site_occupancy
  Ca2+  Ca0  1  0.15737829  0.08039836  0.17323451  1
  Ca2+  Ca1  1  0.16553664  0.07909793  0.50702677  1
  Ca2+  Ca2  1  0.16297797  0.08594577  0.83079538  1
  Ca2+  Ca3  1  0.17497435  0.57961484  0.17633552  1
  Ca2+  Ca4  1  0.17427683  0.58307736  0.50236684  1
  Ca2+  Ca5  1  0.16796957  0.58216853  0.83498478  1
  Ca2+  Ca6  1  0.67148297  0.07560076  0.17092556  1
  Ca2+  Ca7  1  0.67882371  0.08291682  0.50873333  1
  Ca2+  Ca8  1  0.67239182  0.07207530  0.83307708  1
  Ca2+  Ca9  1  0.67562060  0.58095561  0.16951868  1
  Ca2+  Ca10  1  0.67361259  0.57780414  0.50379329  1
  Ca2+  Ca11  1  0.67748527  0.57455039  0.83420447  1
  Ca2+  Ca12  1  0.07787438  0.32191290  0.16477773  1
  Ca2+  Ca13  1  0.07056552  0.32056059  0.49689639  1
  Ca2+  Ca14  1  0.07500057  0.32322713  0.82525042  1
  Ca2+  Ca15  1  0.07666238  0.83331866  0.16241249  1
  Ca2+  Ca16  1  0.08028027  0.84164807  0.50033911  1
  Ca2+  Ca17  1  0.07088059  0.83235324  0.82544833  1
  Ca2+  Ca18  1  0.57340516  0.34225693  0.16344980  1
  Ca2+  Ca19  1  0.58148253  0.33577713  0.49570982  1
  Ca2+  Ca20  1  0.58110959  0.34367390  0.83142122  1
  Ca2+  Ca21  1  0.59107226  0.82562577  0.16238270  1
  Ca2+  Ca22  1  0.58245086  0.83192767  0.49813799  1
  Ca2+  Ca23  1  0.58463708  0.83774102  0.82278913  1
  Ca2+  Ca24  1  0.33711389  0.41699452  0.17382816  1
  Ca2+  Ca25  1  0.33792623  0.41971234  0.49949888  1
  Ca2+  Ca26  1  0.33204318  0.41390101  0.83880405  1
  Ca2+  Ca27  1  0.32128643  0.92041294  0.17575703  1
  Ca2+  Ca28  1  0.32200190  0.91950972  0.51110665  1
  Ca2+  Ca29  1  0.33074092  0.92168816  0.82935176  1
  Ca2+  Ca30  1  0.83598525  0.42595944  0.17475522  1
  Ca2+  Ca31  1  0.83836056  0.42318845  0.50964825  1
  Ca2+  Ca32  1  0.82974248  0.42195438  0.83811560  1
  Ca2+  Ca33  1  0.83281991  0.91979958  0.16881536  1
  Ca2+  Ca34  1  0.83261042  0.92854332  0.50899369  1
  Ca2+  Ca35  1  0.83156378  0.91428866  0.83410024  1
  Ca2+  Ca36  1  0.41535271  0.17997214  0.16131673  1
  Ca2+  Ca37  1  0.41737320  0.16839757  0.49701148  1
  Ca2+  Ca38  1  0.41844949  0.16798272  0.82787683  1
  Ca2+  Ca39  1  0.42343265  0.66243765  0.16737500  1
  Ca2+  Ca40  1  0.42406160  0.67124844  0.49190330  1
  Ca2+  Ca41  1  0.42298090  0.67682679  0.82359982  1
  Ca2+  Ca42  1  0.92346746  0.16340820  0.16750849  1
  Ca2+  Ca43  1  0.91724364  0.16856098  0.49265697  1
  Ca2+  Ca44  1  0.92470470  0.16678747  0.82165783  1
  Ca2+  Ca45  1  0.90802994  0.67107717  0.16094850  1
  Ca2+  Ca46  1  0.90581560  0.67212767  0.49930005  1
  Ca2+  Ca47  1  0.90427895  0.67359209  0.82968281  1
  Al0+  Al48  1  0.00050836  -0.00206977  -0.00840276  1
  Al0+  Al49  1  -0.00215099  -0.00144023  0.33694431  1
  Al0+  Al50  1  0.00200490  -0.00316716  0.66682807  1
  Al0+  Al51  1  0.00361512  0.49931277  0.00530199  1
  Al0+  Al52  1  0.00150837  0.50065713  0.33532247  1
  Al0+  Al53  1  0.00353033  0.50072268  0.66818081  1
  Al0+  Al54  1  0.49883741  0.00139142  0.00727382  1
  Al0+  Al55  1  0.49720622  -0.00128005  0.33091680  1
  Al0+  Al56  1  0.49775307  0.00193263  0.66683915  1
  Al0+  Al57  1  0.50057194  0.50237024  -0.00336624  1
  Al0+  Al58  1  0.50097377  0.50241201  0.32962937  1
  Al0+  Al59  1  0.50103746  0.50225577  0.66904033  1
  Al0+  Al60  1  0.25119816  0.25050007  -0.00747116  1
  Al0+  Al61  1  0.24950121  0.24942106  0.32627996  1
  Al0+  Al62  1  0.24994442  0.25153732  0.66532123  1
  Al0+  Al63  1  0.25016950  0.75109692  0.00058628  1
  Al0+  Al64  1  0.24946234  0.74979242  0.34060537  1
  Al0+  Al65  1  0.25153953  0.75179163  0.66725151  1
  Al0+  Al66  1  0.74782253  0.24872459  0.00509567  1
  Al0+  Al67  1  0.74890313  0.25007929  0.33026189  1
  Al0+  Al68  1  0.74716565  0.25109724  0.67242199  1
  Al0+  Al69  1  0.74887347  0.74952449  0.00195340  1
  Al0+  Al70  1  0.74827990  0.74792493  0.33197268  1
  Al0+  Al71  1  0.74979758  0.74740405  0.66612396  1
  Al0+  Al72  1  0.67689507  0.42762204  0.01778706  1
  Al0+  Al73  1  0.82263151  0.57077088  0.34868473  1
  Al0+  Al74  1  0.67812202  0.92972267  0.01444259  1
  Al0+  Al75  1  0.92824005  0.81790236  0.65118562  1
  Al0+  Al76  1  0.06824454  0.17694418  0.31857811  1
  Al0+  Al77  1  0.67710363  0.42805116  0.68089949  1
  Al0+  Al78  1  0.82330876  0.07182358  0.68165651  1
  Al0+  Al79  1  0.43277446  0.32122755  0.98397429  1
  Al0+  Al80  1  0.67934784  0.92932273  0.67766659  1
  Al0+  Al81  1  0.82420262  0.56986151  0.68153957  1
  Al0+  Al82  1  0.57048178  0.68179987  0.31786983  1
  Al0+  Al83  1  0.17868439  0.92774626  0.68529013  1
  Al0+  Al84  1  0.92907137  0.81691853  0.98685151  1
  Al0+  Al85  1  0.82171960  0.56882343  0.01650401  1
  Al0+  Al86  1  0.92647997  0.32378558  0.31778016  1
  Al0+  Al87  1  0.32248917  0.56881043  0.34715994  1
  Al0+  Al88  1  0.43137289  0.31940514  0.32121083  1
  Al0+  Al89  1  0.17858633  0.93010929  0.34680595  1
  Al0+  Al90  1  0.42971464  0.82331259  0.65242137  1
  Al0+  Al91  1  0.92573536  0.32164269  0.65456129  1
  Al0+  Al92  1  0.06904142  0.17947257  0.98439886  1
  Al0+  Al93  1  0.07060495  0.17841610  0.65026116  1
  Al0+  Al94  1  0.81789567  0.07034419  0.34526389  1
  Al0+  Al95  1  0.31988568  0.07390303  0.68172475  1
  Si0+  Si96  1  0.92962889  0.81848835  0.31905265  1
  Si0+  Si97  1  0.18198821  0.42728263  0.01552695  1
  Si0+  Si98  1  0.07576732  0.67642809  0.98531687  1
  Si0+  Si99  1  0.32026777  0.57273616  0.01399780  1
  Si0+  Si100  1  0.18160014  0.42999855  0.68196253  1
  Si0+  Si101  1  0.67609874  0.92657558  0.34872082  1
  Si0+  Si102  1  0.42501927  0.82167544  0.31535441  1
  Si0+  Si103  1  0.17873228  0.42571467  0.35099349  1
  Si0+  Si104  1  0.42920944  0.32384546  0.65170918  1
  Si0+  Si105  1  0.07437896  0.67882271  0.31985440  1
  Si0+  Si106  1  0.32233289  0.07397082  0.34784561  1
  Si0+  Si107  1  0.32215834  0.57162342  0.68228990  1
  Si0+  Si108  1  0.57219646  0.17429144  0.98300723  1
  Si0+  Si109  1  0.56941020  0.68204934  0.98253707  1
  Si0+  Si110  1  0.17904952  0.92981871  0.01473096  1
  Si0+  Si111  1  0.07515134  0.67733949  0.64909918  1
  Si0+  Si112  1  0.31998137  0.07264541  0.01662825  1
  Si0+  Si113  1  0.57322579  0.17451257  0.31591529  1
  Si0+  Si114  1  0.82514801  0.07050931  0.01597601  1
  Si0+  Si115  1  0.67810089  0.42917950  0.34821351  1
  Si0+  Si116  1  0.57054353  0.67789185  0.64859505  1
  Si0+  Si117  1  0.42655514  0.82310437  0.98629887  1
  Si0+  Si118  1  0.92690885  0.32414884  0.98560101  1
  Si0+  Si119  1  0.56966199  0.17916424  0.65300082  1
  O2-  O120  1  0.24789109  0.00229018  0.05840206  1
  O2-  O121  1  0.25461353  0.00459160  0.39087459  1
  O2-  O122  1  0.24725681  0.00392885  0.73428202  1
  O2-  O123  1  0.25075000  0.50104350  0.05716728  1
  O2-  O124  1  0.24878203  0.49386738  0.39502728  1
  O2-  O125  1  0.25189785  0.50136376  0.72618191  1
  O2-  O126  1  0.75310940  0.00463737  0.06010567  1
  O2-  O127  1  0.73887279  0.00009587  0.39174686  1
  O2-  O128  1  0.75421692  -0.00387615  0.73080550  1
  O2-  O129  1  0.75459448  0.49303039  0.06811923  1
  O2-  O130  1  0.75329770  0.48994098  0.39276018  1
  O2-  O131  1  0.75569175  0.49353984  0.72933136  1
  O2-  O132  1  -0.00293768  0.24970614  0.26813119  1
  O2-  O133  1  -0.00938570  0.24342523  0.60316778  1
  O2-  O134  1  -0.00951576  0.25137933  0.94067057  1
  O2-  O135  1  -0.00016825  0.74583798  0.27708829  1
  O2-  O136  1  0.00394629  0.74304971  0.60483478  1
  O2-  O137  1  0.00182516  0.73880808  0.94195398  1
  O2-  O138  1  0.50376480  0.24333690  0.27266108  1
  O2-  O139  1  0.50066731  0.25328143  0.61104835  1
  O2-  O140  1  0.50967794  0.24874053  0.93790186  1
  O2-  O141  1  0.49726828  0.75815717  0.26916025  1
  O2-  O142  1  0.50520795  0.75017397  0.60517018  1
  O2-  O143  1  0.50053242  0.75639797  0.94238868  1
  O2-  O144  1  0.06946648  0.17894773  0.09761369  1
  O2-  O145  1  0.06811825  0.17687904  0.43129135  1
  O2-  O146  1  0.07284135  0.18499763  0.76407590  1
  O2-  O147  1  0.08303009  0.68052976  0.09075074  1
  O2-  O148  1  0.07816819  0.68021830  0.42429516  1
  O2-  O149  1  0.07857440  0.67815176  0.75497423  1
  O2-  O150  1  0.56576532  0.16975017  0.08845013  1
  O2-  O151  1  0.57239176  0.17371283  0.42151253  1
  O2-  O152  1  0.56655669  0.17647518  0.75789695  1
  O2-  O153  1  0.56748708  0.68149916  0.08784706  1
  O2-  O154  1  0.56866507  0.68286379  0.43068691  1
  O2-  O155  1  0.56651703  0.67587455  0.75445501  1
  O2-  O156  1  0.18031640  0.42806102  0.24483818  1
  O2-  O157  1  0.18467050  0.43124729  0.57719765  1
  O2-  O158  1  0.18327490  0.42898560  0.91023818  1
  O2-  O159  1  0.17884956  0.92937419  0.23252127  1
  O2-  O160  1  0.18254222  0.92577796  0.57173632  1
  O2-  O161  1  0.18199219  0.92685626  0.91069593  1
  O2-  O162  1  0.67530583  0.43381746  0.24284465  1
  O2-  O163  1  0.66807553  0.43313964  0.56762582  1
  O2-  O164  1  0.67510746  0.43361330  0.90478988  1
  O2-  O165  1  0.67915422  0.92602148  0.24269904  1
  O2-  O166  1  0.67864909  0.93303257  0.56395305  1
  O2-  O167  1  0.67576245  0.93025298  0.90198258  1
  O2-  O168  1  0.43021337  0.32069555  0.09711445  1
  O2-  O169  1  0.43324408  0.31984229  0.43452699  1
  O2-  O170  1  0.42931895  0.32534946  0.75682435  1
  O2-  O171  1  0.42259319  0.81889788  0.09127733  1
  O2-  O172  1  0.42536218  0.82063531  0.42052056  1
  O2-  O173  1  0.43076181  0.81963935  0.76636239  1
  O2-  O174  1  0.93240694  0.32636523  0.09096579  1
  O2-  O175  1  0.92818533  0.32418711  0.43098616  1
  O2-  O176  1  0.93131398  0.32325523  0.76857203  1
  O2-  O177  1  0.93264727  0.81873247  0.10072714  1
  O2-  O178  1  0.92929556  0.81867669  0.42370638  1
  O2-  O179  1  0.92759038  0.81481877  0.76443445  1
  O2-  O180  1  0.32291425  0.07245238  0.24178441  1
  O2-  O181  1  0.32026037  0.07422963  0.56794186  1
  O2-  O182  1  0.32237054  0.07144718  0.91210569  1
  O2-  O183  1  0.32008052  0.56828034  0.23341077  1
  O2-  O184  1  0.32317040  0.56918552  0.57739962  1
  O2-  O185  1  0.31800990  0.57433961  0.90876163  1
  O2-  O186  1  0.81932715  0.06485632  0.23171898  1
  O2-  O187  1  0.81920079  0.07241847  0.56781332  1
  O2-  O188  1  0.82603292  0.06852160  0.91089776  1
  O2-  O189  1  0.81993281  0.57413073  0.23571312  1
  O2-  O190  1  0.82049857  0.57018331  0.56784190  1
  O2-  O191  1  0.81979287  0.56973390  0.90344994  1
  O2-  O192  1  0.03611266  0.07868491  0.26524814  1
  O2-  O193  1  0.05341841  0.07595786  0.60368805  1
  O2-  O194  1  0.04299225  0.08230245  0.92999482  1
  O2-  O195  1  0.05244993  0.58541361  0.27300663  1
  O2-  O196  1  0.05536867  0.58213884  0.60423423  1
  O2-  O197  1  0.05792685  0.57965568  0.94268926  1
  O2-  O198  1  0.54768237  0.08051204  0.26892333  1
  O2-  O199  1  0.53823847  0.09058664  0.60172010  1
  O2-  O200  1  0.53847312  0.08307504  0.93609756  1
  O2-  O201  1  0.53574003  0.58758345  0.26167803  1
  O2-  O202  1  0.53775408  0.58686719  0.60111306  1
  O2-  O203  1  0.53693482  0.59276850  0.93370120  1
  O2-  O204  1  0.16693985  0.20379471  0.26402630  1
  O2-  O205  1  0.16728767  0.21509234  0.59780728  1
  O2-  O206  1  0.16464782  0.21339303  0.93067487  1
  O2-  O207  1  0.16488564  0.70978970  0.27027628  1
  O2-  O208  1  0.16834197  0.70481281  0.60277012  1
  O2-  O209  1  0.16708881  0.70684784  0.93569517  1
  O2-  O210  1  0.66571673  0.19867355  0.26771544  1
  O2-  O211  1  0.66156837  0.20521829  0.60540337  1
  O2-  O212  1  0.66940475  0.19147400  0.94164266  1
  O2-  O213  1  0.66619694  0.71261065  0.26095420  1
  O2-  O214  1  0.66458582  0.69949428  0.60332024  1
  O2-  O215  1  0.66123139  0.70878395  0.93632250  1
  O2-  O216  1  0.09089990  0.45193234  0.06552284  1
  O2-  O217  1  0.08697391  0.45394619  0.39801966  1
  O2-  O218  1  0.09156853  0.45808390  0.73247141  1
  O2-  O219  1  0.08620650  0.95655151  0.06051113  1
  O2-  O220  1  0.08276544  0.95941550  0.40124641  1
  O2-  O221  1  0.07946260  0.95074586  0.73730607  1
  O2-  O222  1  0.57926978  0.46506287  0.06860808  1
  O2-  O223  1  0.58735738  0.46263092  0.39519716  1
  O2-  O224  1  0.58145388  0.46502981  0.73711891  1
  O2-  O225  1  0.58168390  0.95864753  0.07181905  1
  O2-  O226  1  0.57863300  0.94511165  0.38971510  1
  O2-  O227  1  0.58212054  0.96116205  0.73100896  1
  O2-  O228  1  0.21448187  0.33675136  0.06202463  1
  O2-  O229  1  0.20598689  0.33200176  0.39474147  1
  O2-  O230  1  0.21205119  0.34014461  0.73106092  1
  O2-  O231  1  0.20887605  0.83841933  0.06358767  1
  O2-  O232  1  0.20896876  0.83472897  0.40224636  1
  O2-  O233  1  0.21245428  0.83038060  0.73851125  1
  O2-  O234  1  0.69124000  0.32453135  0.06696193  1
  O2-  O235  1  0.69276992  0.33168646  0.38949915  1
  O2-  O236  1  0.69329720  0.32836454  0.73523559  1
  O2-  O237  1  0.71002068  0.83376450  0.06878379  1
  O2-  O238  1  0.70513216  0.83451120  0.39414706  1
  O2-  O239  1  0.70175157  0.82892003  0.72844764  1
  O2-  O240  1  0.46251129  0.41558323  0.26594614  1
  O2-  O241  1  0.45683580  0.41637578  0.60524751  1
  O2-  O242  1  0.45846909  0.41983278  0.93027424  1
  O2-  O243  1  0.44381310  0.91745464  0.26982711  1
  O2-  O244  1  0.45696418  0.92018024  0.59784776  1
  O2-  O245  1  0.45071071  0.91749820  0.94361387  1
  O2-  O246  1  0.95965388  0.42202155  0.26558931  1
  O2-  O247  1  0.96307212  0.41834148  0.60247518  1
  O2-  O248  1  0.95874924  0.41648385  0.93968861  1
  O2-  O249  1  0.95997002  0.90890176  0.27079222  1
  O2-  O250  1  0.95962207  0.91449946  0.59784251  1
  O2-  O251  1  0.96239303  0.91083791  0.93053585  1
  O2-  O252  1  0.33479885  0.29241446  0.26415095  1
  O2-  O253  1  0.33799603  0.29706345  0.60360978  1
  O2-  O254  1  0.33722848  0.28891838  0.92879574  1
  O2-  O255  1  0.33251550  0.79046105  0.26969508  1
  O2-  O256  1  0.33434196  0.78860028  0.59891123  1
  O2-  O257  1  0.33659628  0.79149613  0.93695525  1
  O2-  O258  1  0.82711435  0.29882506  0.26473857  1
  O2-  O259  1  0.82300961  0.30413418  0.60650414  1
  O2-  O260  1  0.82943228  0.30476509  0.94575609  1
  O2-  O261  1  0.83778629  0.79113791  0.27122892  1
  O2-  O262  1  0.83174466  0.78708445  0.59621343  1
  O2-  O263  1  0.83164196  0.78777313  0.93392148  1
  O2-  O264  1  0.40992427  0.04503383  0.06774191  1
  O2-  O265  1  0.41700544  0.05034932  0.39334198  1
  O2-  O266  1  0.41688886  0.04286956  0.73622244  1
  O2-  O267  1  0.41240995  0.54527021  0.05956994  1
  O2-  O268  1  0.41863998  0.53796117  0.40119788  1
  O2-  O269  1  0.41277863  0.54403242  0.73158788  1
  O2-  O270  1  0.91740425  0.03820945  0.06171880  1
  O2-  O271  1  0.91144321  0.03478090  0.40059667  1
  O2-  O272  1  0.92200539  0.04450547  0.73222332  1
  O2-  O273  1  0.92397744  0.54889470  0.06755550  1
  O2-  O274  1  0.92229183  0.54900441  0.40041466  1
  O2-  O275  1  0.92520498  0.54976241  0.73314207  1
  O2-  O276  1  0.29172899  0.16566374  0.06129996  1
  O2-  O277  1  0.29820510  0.16827087  0.39223063  1
  O2-  O278  1  0.29484976  0.17378873  0.73442756  1
  O2-  O279  1  0.29217896  0.66389491  0.06323225  1
  O2-  O280  1  0.29081966  0.66404203  0.40249860  1
  O2-  O281  1  0.29423415  0.66280597  0.73028433  1
  O2-  O282  1  0.80409343  0.16530138  0.06177841  1
  O2-  O283  1  0.79115487  0.16891846  0.39748792  1
  O2-  O284  1  0.79234469  0.16844708  0.73601363  1
  O2-  O285  1  0.78698543  0.66595098  0.06883205  1
  O2-  O286  1  0.78504484  0.66609104  0.40106891  1
  O2-  O287  1  0.78819837  0.66556119  0.73478529  1
