# generated using pymatgen
data_Ca2Al2SiO7
_symmetry_space_group_name_H-M   'P 1'
_cell_length_a   15.45694233
_cell_length_b   15.45628258
_cell_length_c   15.28236902
_cell_angle_alpha   90.00788413
_cell_angle_beta   89.98575553
_cell_angle_gamma   90.00022197
_symmetry_Int_Tables_number   1
_chemical_formula_structural   Ca2Al2SiO7
_chemical_formula_sum   'Ca48 Al48 Si24 O168'
_cell_volume   3651.06277710
_cell_formula_units_Z   24
loop_
 _symmetry_equiv_pos_site_id
 _symmetry_equiv_pos_as_xyz
  1  'x, y, z'
loop_
 _atom_type_symbol
 _atom_type_oxidation_number
  Ca2+  2.0
  Al0+  0.0
  Si0+  0.0
  O2-  -2.0
loop_
 _atom_site_type_symbol
 _atom_site_label
 _atom_site_symmetry_multiplicity
 _atom_site_fract_x
 _atom_site_fract_y
 _atom_site_fract_z
 _atom_site_occupancy
  Ca2+  Ca0  1  0.17367893  0.07355768  0.17900320  1
  Ca2+  Ca1  1  0.17114241  0.08106826  0.49711177  1
  Ca2+  Ca2  1  0.16821117  0.08166115  0.83699447  1
  Ca2+  Ca3  1  0.16872578  0.59017523  0.16786307  1
  Ca2+  Ca4  1  0.17365651  0.58707193  0.50158617  1
  Ca2+  Ca5  1  0.17629257  0.58824039  0.83937570  1
  Ca2+  Ca6  1  0.66314555  0.07670498  0.16430566  1
  Ca2+  Ca7  1  0.66252856  0.06912832  0.50136305  1
  Ca2+  Ca8  1  0.66810618  0.07567323  0.84368820  1
  Ca2+  Ca9  1  0.67842403  0.58496426  0.17103751  1
  Ca2+  Ca10  1  0.67825460  0.58981860  0.50262406  1
  Ca2+  Ca11  1  0.68054338  0.57455656  0.84158148  1
  Ca2+  Ca12  1  0.07069075  0.33382643  0.16316994  1
  Ca2+  Ca13  1  0.07285930  0.33736007  0.49504556  1
  Ca2+  Ca14  1  0.07147486  0.33362662  0.83125278  1
  Ca2+  Ca15  1  0.08955936  0.82287555  0.16320281  1
  Ca2+  Ca16  1  0.07711668  0.82814707  0.49305116  1
  Ca2+  Ca17  1  0.07273371  0.82674590  0.83040375  1
  Ca2+  Ca18  1  0.58295149  0.32897109  0.15959977  1
  Ca2+  Ca19  1  0.57032020  0.33615744  0.49413683  1
  Ca2+  Ca20  1  0.58902682  0.32876886  0.83257133  1
  Ca2+  Ca21  1  0.57830967  0.83719051  0.16544409  1
  Ca2+  Ca22  1  0.58389402  0.82890427  0.48987119  1
  Ca2+  Ca23  1  0.58181555  0.83884146  0.83228742  1
  Ca2+  Ca24  1  0.33523317  0.42238168  0.17155345  1
  Ca2+  Ca25  1  0.33649038  0.42006111  0.50938955  1
  Ca2+  Ca26  1  0.33841150  0.42828555  0.83622865  1
  Ca2+  Ca27  1  0.33487142  0.91734433  0.17673342  1
  Ca2+  Ca28  1  0.33110902  0.91476437  0.49542521  1
  Ca2+  Ca29  1  0.33244529  0.91446710  0.84130162  1
  Ca2+  Ca30  1  0.83250318  0.42014811  0.16809091  1
  Ca2+  Ca31  1  0.84069808  0.42670734  0.50260522  1
  Ca2+  Ca32  1  0.83587798  0.42111356  0.84259073  1
  Ca2+  Ca33  1  0.82169737  0.91922791  0.17204187  1
  Ca2+  Ca34  1  0.82086605  0.90798559  0.50728679  1
  Ca2+  Ca35  1  0.82289914  0.91803259  0.84042494  1
  Ca2+  Ca36  1  0.41904594  0.16870012  0.16337843  1
  Ca2+  Ca37  1  0.41250720  0.17631241  0.49309663  1
  Ca2+  Ca38  1  0.42661915  0.17345345  0.82944987  1
  Ca2+  Ca39  1  0.42098378  0.67760186  0.16138421  1
  Ca2+  Ca40  1  0.42714789  0.66865201  0.48892178  1
  Ca2+  Ca41  1  0.41521638  0.66762133  0.83245284  1
  Ca2+  Ca42  1  0.90509514  0.17639856  0.16052347  1
  Ca2+  Ca43  1  0.91271417  0.18057740  0.49563534  1
  Ca2+  Ca44  1  0.90498160  0.17759465  0.83306671  1
  Ca2+  Ca45  1  0.92610463  0.65745345  0.16280048  1
  Ca2+  Ca46  1  0.91622222  0.66736413  0.49326155  1
  Ca2+  Ca47  1  0.91714573  0.66325206  0.82926323  1
  Al0+  Al48  1  0.00039600  -0.00038221  0.00417080  1
  Al0+  Al49  1  -0.00043594  0.00124604  0.33945635  1
  Al0+  Al50  1  -0.00026772  -0.00104629  0.66227821  1
  Al0+  Al51  1  0.00333425  0.49940533  -0.00678250  1
  Al0+  Al52  1  0.00037357  0.50045958  0.32976209  1
  Al0+  Al53  1  0.00363710  0.49905849  0.66623360  1
  Al0+  Al54  1  0.49826203  0.00154234  -0.00615403  1
  Al0+  Al55  1  0.49976117  0.00195143  0.34041920  1
  Al0+  Al56  1  0.49835187  -0.00042436  0.66973671  1
  Al0+  Al57  1  0.49922514  0.50291856  0.00817055  1
  Al0+  Al58  1  0.50206499  0.49984149  0.32420279  1
  Al0+  Al59  1  0.50140326  0.50056979  0.66798601  1
  Al0+  Al60  1  0.24849091  0.25126036  -0.00161120  1
  Al0+  Al61  1  0.24798048  0.25079307  0.33254229  1
  Al0+  Al62  1  0.25016387  0.24906310  0.66563146  1
  Al0+  Al63  1  0.25022024  0.74982121  -0.00561972  1
  Al0+  Al64  1  0.24959744  0.75009325  0.33262561  1
  Al0+  Al65  1  0.24973622  0.75113440  0.67062135  1
  Al0+  Al66  1  0.74785902  0.24943840  -0.00252585  1
  Al0+  Al67  1  0.74706431  0.25126648  0.33179246  1
  Al0+  Al68  1  0.74948618  0.24777945  0.65677798  1
  Al0+  Al69  1  0.74894252  0.74929325  0.00823865  1
  Al0+  Al70  1  0.75175699  0.74933480  0.33645069  1
  Al0+  Al71  1  0.74954139  0.74913636  0.67415846  1
  Al0+  Al72  1  0.92739259  0.81880442  0.65446970  1
  Al0+  Al73  1  0.82154853  0.07104626  0.01395188  1
  Al0+  Al74  1  0.32112340  0.07270652  0.34894266  1
  Al0+  Al75  1  0.06988686  0.68097447  0.32054684  1
  Al0+  Al76  1  0.06988660  0.68000806  0.98370355  1
  Al0+  Al77  1  0.92865791  0.32029137  0.31821559  1
  Al0+  Al78  1  0.92986526  0.31837226  0.98622269  1
  Al0+  Al79  1  0.82471158  0.57027842  0.01569887  1
  Al0+  Al80  1  0.67579465  0.92900770  0.01630077  1
  Al0+  Al81  1  0.82174632  0.56768922  0.34761907  1
  Al0+  Al82  1  0.31983519  0.57261923  0.01613849  1
  Al0+  Al83  1  0.17784102  0.92570645  0.34979782  1
  Al0+  Al84  1  0.43144968  0.81990834  0.98512823  1
  Al0+  Al85  1  0.56844092  0.18107506  0.98579676  1
  Al0+  Al86  1  0.42615563  0.32168059  0.31821787  1
  Al0+  Al87  1  0.67860222  0.92914982  0.68245795  1
  Al0+  Al88  1  0.67882748  0.42775498  0.01479034  1
  Al0+  Al89  1  0.57567000  0.67871733  0.31689142  1
  Al0+  Al90  1  0.43063150  0.82112395  0.32086356  1
  Al0+  Al91  1  0.43150130  0.32111128  0.65517883  1
  Al0+  Al92  1  0.92953936  0.32133846  0.65138708  1
  Al0+  Al93  1  0.68083047  0.93007040  0.34816132  1
  Al0+  Al94  1  0.82281116  0.56866631  0.68026121  1
  Al0+  Al95  1  0.32215554  0.57107063  0.67891452  1
  Si0+  Si96  1  0.17790502  0.92912205  0.68379951  1
  Si0+  Si97  1  0.17932835  0.42577016  0.68383833  1
  Si0+  Si98  1  0.07404473  0.17509107  0.98410400  1
  Si0+  Si99  1  0.42530002  0.32519065  0.98359944  1
  Si0+  Si100  1  0.67646460  0.42680386  0.35107080  1
  Si0+  Si101  1  0.82272194  0.07281416  0.68105190  1
  Si0+  Si102  1  0.17965237  0.92918111  0.01314904  1
  Si0+  Si103  1  0.57406889  0.67660477  0.98235024  1
  Si0+  Si104  1  0.07375599  0.67923307  0.64957810  1
  Si0+  Si105  1  0.92601886  0.82358092  0.98627693  1
  Si0+  Si106  1  0.07370856  0.17633223  0.64815578  1
  Si0+  Si107  1  0.32241577  0.56999962  0.34681236  1
  Si0+  Si108  1  0.31949639  0.07179629  0.68416421  1
  Si0+  Si109  1  0.57087183  0.17500162  0.64717721  1
  Si0+  Si110  1  0.31955454  0.07226788  0.01218245  1
  Si0+  Si111  1  0.17906792  0.43022024  0.34746710  1
  Si0+  Si112  1  0.07080637  0.17716361  0.31661061  1
  Si0+  Si113  1  0.92718897  0.82446049  0.31749540  1
  Si0+  Si114  1  0.82169787  0.07537606  0.35206132  1
  Si0+  Si115  1  0.42682163  0.82209555  0.65128514  1
  Si0+  Si116  1  0.56977545  0.68039999  0.65470594  1
  Si0+  Si117  1  0.56997943  0.17837135  0.31703087  1
  Si0+  Si118  1  0.17920467  0.42745409  0.01699154  1
  Si0+  Si119  1  0.67844173  0.42640174  0.67980846  1
  O2-  O120  1  0.24648612  0.00419330  0.05425597  1
  O2-  O121  1  0.24992927  -0.00102840  0.39897800  1
  O2-  O122  1  0.24905663  0.00010044  0.72678305  1
  O2-  O123  1  0.24908479  0.49403123  0.06243872  1
  O2-  O124  1  0.25462545  0.49633272  0.39038139  1
  O2-  O125  1  0.24831981  0.49518586  0.72613979  1
  O2-  O126  1  0.75225758  -0.00277611  0.06482748  1
  O2-  O127  1  0.75804203  0.00226132  0.39642867  1
  O2-  O128  1  0.75392939  0.00497587  0.72580537  1
  O2-  O129  1  0.75036617  0.50013757  0.06487024  1
  O2-  O130  1  0.74506945  0.49519005  0.39573137  1
  O2-  O131  1  0.75343435  0.48767797  0.72423268  1
  O2-  O132  1  -0.00199054  0.24021389  0.27174257  1
  O2-  O133  1  0.00408036  0.24503269  0.60565770  1
  O2-  O134  1  0.00233520  0.24021270  0.93982969  1
  O2-  O135  1  -0.00123822  0.75909812  0.27330751  1
  O2-  O136  1  0.00065509  0.74301836  0.60612979  1
  O2-  O137  1  -0.01006673  0.75083590  0.94014859  1
  O2-  O138  1  0.50068952  0.24669418  0.27310190  1
  O2-  O139  1  0.50460755  0.24691150  0.60478660  1
  O2-  O140  1  0.49665301  0.25949896  0.93929811  1
  O2-  O141  1  0.50303447  0.75136797  0.26890268  1
  O2-  O142  1  0.49824267  0.75111691  0.61126756  1
  O2-  O143  1  0.50756004  0.74731421  0.93668530  1
  O2-  O144  1  0.07983374  0.17674690  0.08900739  1
  O2-  O145  1  0.07227429  0.18051639  0.42247053  1
  O2-  O146  1  0.07632685  0.17582656  0.75375455  1
  O2-  O147  1  0.07239967  0.68258102  0.09669520  1
  O2-  O148  1  0.06959115  0.67968958  0.43398643  1
  O2-  O149  1  0.07605842  0.68249790  0.75505243  1
  O2-  O150  1  0.56347306  0.17888207  0.09869909  1
  O2-  O151  1  0.56998844  0.18029944  0.42298815  1
  O2-  O152  1  0.57022219  0.17423326  0.75276905  1
  O2-  O153  1  0.57148026  0.67692648  0.08750367  1
  O2-  O154  1  0.57356132  0.67861833  0.43187361  1
  O2-  O155  1  0.56780101  0.68009940  0.75955966  1
  O2-  O156  1  0.17870816  0.43114478  0.24250476  1
  O2-  O157  1  0.17953439  0.42547146  0.57789457  1
  O2-  O158  1  0.18088159  0.42591154  0.91128155  1
  O2-  O159  1  0.17973050  0.92692420  0.23577736  1
  O2-  O160  1  0.17970898  0.92787698  0.57924665  1
  O2-  O161  1  0.18003304  0.93081561  0.90740426  1
  O2-  O162  1  0.67841779  0.42425734  0.24597696  1
  O2-  O163  1  0.67444510  0.43083286  0.57441953  1
  O2-  O164  1  0.68122477  0.42818545  0.90023513  1
  O2-  O165  1  0.67942934  0.93306819  0.23567819  1
  O2-  O166  1  0.67767505  0.92872134  0.56929842  1
  O2-  O167  1  0.67628719  0.93195943  0.90232314  1
  O2-  O168  1  0.42156864  0.32003793  0.08888814  1
  O2-  O169  1  0.42692706  0.32265137  0.43198730  1
  O2-  O170  1  0.43320574  0.31958954  0.76806251  1
  O2-  O171  1  0.42912112  0.82133483  0.09763762  1
  O2-  O172  1  0.43074391  0.81691744  0.43521489  1
  O2-  O173  1  0.42563650  0.82233197  0.75645583  1
  O2-  O174  1  0.93231884  0.31812140  0.09918634  1
  O2-  O175  1  0.93272665  0.32137062  0.43168108  1
  O2-  O176  1  0.92990955  0.31983553  0.76428366  1
  O2-  O177  1  0.93118617  0.82736897  0.09143642  1
  O2-  O178  1  0.92666762  0.82066477  0.42357426  1
  O2-  O179  1  0.92999496  0.81957820  0.76759341  1
  O2-  O180  1  0.31904962  0.07308990  0.23485396  1
  O2-  O181  1  0.31864767  0.07308907  0.57959297  1
  O2-  O182  1  0.31730726  0.07165630  0.90654867  1
  O2-  O183  1  0.31881390  0.57036913  0.24202180  1
  O2-  O184  1  0.32166582  0.57088372  0.56541348  1
  O2-  O185  1  0.31841193  0.57181075  0.90243982  1
  O2-  O186  1  0.82014427  0.07606495  0.24673128  1
  O2-  O187  1  0.82140067  0.07295289  0.57542950  1
  O2-  O188  1  0.82045635  0.07007717  0.89980663  1
  O2-  O189  1  0.82450270  0.56468352  0.23524257  1
  O2-  O190  1  0.82119714  0.57021858  0.56705340  1
  O2-  O191  1  0.82433033  0.56778884  0.90146182  1
  O2-  O192  1  0.05170329  0.08049836  0.27412387  1
  O2-  O193  1  0.04985553  0.08274012  0.60115995  1
  O2-  O194  1  0.05291518  0.07976170  0.93878130  1
  O2-  O195  1  0.03845442  0.58577704  0.26482858  1
  O2-  O196  1  0.05633208  0.58277075  0.60675425  1
  O2-  O197  1  0.04674316  0.58256477  0.92784461  1
  O2-  O198  1  0.54356807  0.08497192  0.27243459  1
  O2-  O199  1  0.53866065  0.08289325  0.60156926  1
  O2-  O200  1  0.53290717  0.08804867  0.92724424  1
  O2-  O201  1  0.54898253  0.58114277  0.26310682  1
  O2-  O202  1  0.54273591  0.58909108  0.60574623  1
  O2-  O203  1  0.54451377  0.58329184  0.93701341  1
  O2-  O204  1  0.16229879  0.20675324  0.26888453  1
  O2-  O205  1  0.16688545  0.20294465  0.60136311  1
  O2-  O206  1  0.16571387  0.20466083  0.93357212  1
  O2-  O207  1  0.16670200  0.70968313  0.26591758  1
  O2-  O208  1  0.16582752  0.71115585  0.60307317  1
  O2-  O209  1  0.16346192  0.71713471  0.92737094  1
  O2-  O210  1  0.66291732  0.20412147  0.27003340  1
  O2-  O211  1  0.66490446  0.19468019  0.59972821  1
  O2-  O212  1  0.66428256  0.20927976  0.92876968  1
  O2-  O213  1  0.67403230  0.70765419  0.26569623  1
  O2-  O214  1  0.66140158  0.70963350  0.60829457  1
  O2-  O215  1  0.66973781  0.69912287  0.93862342  1
  O2-  O216  1  0.08660733  0.45583677  0.06208996  1
  O2-  O217  1  0.08993497  0.46347800  0.39666975  1
  O2-  O218  1  0.08660549  0.45184171  0.73101469  1
  O2-  O219  1  0.08777470  0.95155850  0.06236088  1
  O2-  O220  1  0.07941742  0.95426294  0.40447268  1
  O2-  O221  1  0.08566635  0.95782860  0.73045099  1
  O2-  O222  1  0.57943034  0.45147466  0.06749193  1
  O2-  O223  1  0.58154387  0.45337185  0.39474608  1
  O2-  O224  1  0.58821261  0.45686162  0.72979707  1
  O2-  O225  1  0.57803071  0.96508880  0.06595273  1
  O2-  O226  1  0.58556919  0.96202481  0.40466458  1
  O2-  O227  1  0.58087718  0.95987429  0.73514688  1
  O2-  O228  1  0.20170377  0.33268679  0.06346656  1
  O2-  O229  1  0.20087315  0.33702965  0.39498293  1
  O2-  O230  1  0.20350774  0.33176311  0.73010280  1
  O2-  O231  1  0.21256475  0.83910085  0.05879817  1
  O2-  O232  1  0.20834033  0.82844895  0.40500697  1
  O2-  O233  1  0.20653504  0.83849396  0.73321586  1
  O2-  O234  1  0.70600616  0.32926589  0.06690396  1
  O2-  O235  1  0.69978951  0.33277814  0.39823488  1
  O2-  O236  1  0.69756340  0.32841363  0.71966797  1
  O2-  O237  1  0.69761531  0.82956648  0.06868942  1
  O2-  O238  1  0.71112968  0.83336062  0.40292923  1
  O2-  O239  1  0.70920821  0.83402613  0.73859360  1
  O2-  O240  1  0.45649683  0.41667221  0.26229923  1
  O2-  O241  1  0.46158040  0.41794174  0.60016606  1
  O2-  O242  1  0.44796280  0.42137752  0.94251058  1
  O2-  O243  1  0.45570459  0.92226956  0.27250364  1
  O2-  O244  1  0.45280323  0.91516588  0.60591683  1
  O2-  O245  1  0.45803241  0.91671851  0.92826884  1
  O2-  O246  1  0.96669421  0.41348731  0.26411434  1
  O2-  O247  1  0.96477098  0.41704428  0.59722588  1
  O2-  O248  1  0.96575587  0.41205811  0.92969515  1
  O2-  O249  1  0.94788125  0.92115809  0.27581199  1
  O2-  O250  1  0.95801916  0.91506604  0.59905875  1
  O2-  O251  1  0.95695204  0.91554735  0.93796252  1
  O2-  O252  1  0.32888234  0.29257593  0.26482703  1
  O2-  O253  1  0.33370443  0.29105371  0.60234214  1
  O2-  O254  1  0.33274224  0.29693607  0.93548330  1
  O2-  O255  1  0.33238055  0.79276176  0.26842785  1
  O2-  O256  1  0.33407081  0.79503505  0.60567865  1
  O2-  O257  1  0.33603395  0.78715054  0.92860631  1
  O2-  O258  1  0.82990651  0.29310715  0.26721654  1
  O2-  O259  1  0.83325787  0.29240055  0.59462589  1
  O2-  O260  1  0.83352042  0.28906073  0.93121067  1
  O2-  O261  1  0.83505360  0.79677089  0.27160737  1
  O2-  O262  1  0.83006135  0.78740039  0.60215967  1
  O2-  O263  1  0.82980128  0.80242657  0.94388483  1
  O2-  O264  1  0.40996121  0.04219311  0.05854816  1
  O2-  O265  1  0.41830389  0.04816051  0.40563267  1
  O2-  O266  1  0.41100421  0.04372185  0.73175893  1
  O2-  O267  1  0.41644772  0.54786079  0.07162762  1
  O2-  O268  1  0.41635213  0.54398942  0.39101282  1
  O2-  O269  1  0.41801610  0.54000462  0.73478923  1
  O2-  O270  1  0.92202964  0.04969930  0.06726987  1
  O2-  O271  1  0.91762172  0.05788561  0.39680925  1
  O2-  O272  1  0.91782324  0.04963223  0.72503547  1
  O2-  O273  1  0.92440220  0.53954626  0.06405005  1
  O2-  O274  1  0.91816647  0.53447226  0.40180853  1
  O2-  O275  1  0.92240425  0.54325648  0.73100700  1
  O2-  O276  1  0.29479583  0.16538327  0.05867700  1
  O2-  O277  1  0.28726783  0.17037576  0.40272728  1
  O2-  O278  1  0.29090576  0.16314986  0.73282533  1
  O2-  O279  1  0.28322353  0.66849937  0.06737004  1
  O2-  O280  1  0.29206621  0.66035706  0.39526487  1
  O2-  O281  1  0.29015807  0.66714817  0.73427014  1
  O2-  O282  1  0.78863489  0.16778082  0.06599218  1
  O2-  O283  1  0.79033433  0.16758727  0.39883676  1
  O2-  O284  1  0.79591412  0.16758092  0.72499940  1
  O2-  O285  1  0.80056745  0.66933108  0.06884760  1
  O2-  O286  1  0.79328694  0.66514893  0.40180169  1
  O2-  O287  1  0.78752353  0.66206952  0.73685773  1
