# generated using pymatgen
data_Ca2Al2SiO7
_symmetry_space_group_name_H-M   'P 1'
_cell_length_a   15.45651665
_cell_length_b   15.45583942
_cell_length_c   15.28222688
_cell_angle_alpha   89.99885262
_cell_angle_beta   90.01011026
_cell_angle_gamma   90.00040005
_symmetry_Int_Tables_number   1
_chemical_formula_structural   Ca2Al2SiO7
_chemical_formula_sum   'Ca48 Al48 Si24 O168'
_cell_volume   3650.82368060
_cell_formula_units_Z   24
loop_
 _symmetry_equiv_pos_site_id
 _symmetry_equiv_pos_as_xyz
  1  'x, y, z'
loop_
 _atom_type_symbol
 _atom_type_oxidation_number
  Ca2+  2.0
  Al0+  0.0
  Si0+  0.0
  O2-  -2.0
loop_
 _atom_site_type_symbol
 _atom_site_label
 _atom_site_symmetry_multiplicity
 _atom_site_fract_x
 _atom_site_fract_y
 _atom_site_fract_z
 _atom_site_occupancy
  Ca2+  Ca0  1  0.16510167  0.08349546  0.17114177  1
  Ca2+  Ca1  1  0.17347937  0.08653598  0.50446688  1
  Ca2+  Ca2  1  0.16102432  0.08015138  0.83595730  1
  Ca2+  Ca3  1  0.16072791  0.56918266  0.17316271  1
  Ca2+  Ca4  1  0.16703900  0.57923591  0.50509057  1
  Ca2+  Ca5  1  0.17402920  0.57639587  0.83922140  1
  Ca2+  Ca6  1  0.66840578  0.07631669  0.16929036  1
  Ca2+  Ca7  1  0.66579806  0.07727040  0.51224004  1
  Ca2+  Ca8  1  0.66162710  0.07412311  0.83579788  1
  Ca2+  Ca9  1  0.66990232  0.59317760  0.16675111  1
  Ca2+  Ca10  1  0.67107489  0.57786554  0.50900857  1
  Ca2+  Ca11  1  0.67728366  0.58089800  0.83700265  1
  Ca2+  Ca12  1  0.09667841  0.32392856  0.16240750  1
  Ca2+  Ca13  1  0.08506862  0.32692369  0.49714083  1
  Ca2+  Ca14  1  0.08351673  0.32445952  0.82823832  1
  Ca2+  Ca15  1  0.07329218  0.83484097  0.15979724  1
  Ca2+  Ca16  1  0.08015421  0.82802559  0.49241376  1
  Ca2+  Ca17  1  0.07941414  0.84093076  0.82935541  1
  Ca2+  Ca18  1  0.56711299  0.33442983  0.16023485  1
  Ca2+  Ca19  1  0.57951795  0.33048828  0.49811005  1
  Ca2+  Ca20  1  0.57970809  0.33044353  0.82482957  1
  Ca2+  Ca21  1  0.58558311  0.82433751  0.16017910  1
  Ca2+  Ca22  1  0.58329600  0.82806029  0.49531504  1
  Ca2+  Ca23  1  0.59017285  0.83089465  0.83139694  1
  Ca2+  Ca24  1  0.32645672  0.40866464  0.17069909  1
  Ca2+  Ca25  1  0.33075126  0.41888723  0.49936509  1
  Ca2+  Ca26  1  0.33211325  0.41768450  0.83778084  1
  Ca2+  Ca27  1  0.32615763  0.92486487  0.17181069  1
  Ca2+  Ca28  1  0.32675795  0.92805867  0.51078104  1
  Ca2+  Ca29  1  0.32011650  0.92424464  0.83527482  1
  Ca2+  Ca30  1  0.83490636  0.42620839  0.16963277  1
  Ca2+  Ca31  1  0.82983562  0.42291150  0.51396006  1
  Ca2+  Ca32  1  0.83580573  0.42306017  0.83507424  1
  Ca2+  Ca33  1  0.83327565  0.90724627  0.16458156  1
  Ca2+  Ca34  1  0.82954453  0.91466627  0.50403510  1
  Ca2+  Ca35  1  0.82376458  0.91290498  0.84011102  1
  Ca2+  Ca36  1  0.40494931  0.17690696  0.16642425  1
  Ca2+  Ca37  1  0.41614027  0.16538014  0.49696792  1
  Ca2+  Ca38  1  0.41786638  0.17047934  0.82753207  1
  Ca2+  Ca39  1  0.43131881  0.66195985  0.16133875  1
  Ca2+  Ca40  1  0.42103372  0.66468770  0.49559470  1
  Ca2+  Ca41  1  0.42115085  0.66458353  0.82858783  1
  Ca2+  Ca42  1  0.93098222  0.16690446  0.16051483  1
  Ca2+  Ca43  1  0.92790779  0.17123551  0.49855982  1
  Ca2+  Ca44  1  0.92812810  0.17098720  0.82411859  1
  Ca2+  Ca45  1  0.91971981  0.67446773  0.16342107  1
  Ca2+  Ca46  1  0.92032079  0.67107123  0.49347220  1
  Ca2+  Ca47  1  0.91133438  0.66699869  0.83369978  1
  Al0+  Al48  1  -0.00074269  -0.00036473  -0.00498205  1
  Al0+  Al49  1  -0.00233060  0.00115100  0.32692452  1
  Al0+  Al50  1  -0.00121180  -0.00015445  0.66197399  1
  Al0+  Al51  1  0.00020359  0.50058611  0.00974511  1
  Al0+  Al52  1  -0.00126603  0.50000696  0.33706026  1
  Al0+  Al53  1  0.00040998  0.50166385  0.66781896  1
  Al0+  Al54  1  0.49932297  -0.00059205  0.00751671  1
  Al0+  Al55  1  0.50067936  -0.00058266  0.33669760  1
  Al0+  Al56  1  0.49807348  -0.00038646  0.67110819  1
  Al0+  Al57  1  0.50141088  0.50011293  -0.01049991  1
  Al0+  Al58  1  0.50003697  0.49865624  0.32502558  1
  Al0+  Al59  1  0.50099548  0.50013860  0.67238227  1
  Al0+  Al60  1  0.25094121  0.25104713  -0.00808023  1
  Al0+  Al61  1  0.25012393  0.25037617  0.33676362  1
  Al0+  Al62  1  0.25183351  0.25102098  0.66524572  1
  Al0+  Al63  1  0.25109411  0.75045590  0.00671545  1
  Al0+  Al64  1  0.25077145  0.74854061  0.32796344  1
  Al0+  Al65  1  0.25031077  0.75079583  0.67368164  1
  Al0+  Al66  1  0.74959462  0.24996647  0.00259238  1
  Al0+  Al67  1  0.75000876  0.24896550  0.33335768  1
  Al0+  Al68  1  0.74889031  0.24972637  0.66235885  1
  Al0+  Al69  1  0.75050953  0.74936180  -0.00022708  1
  Al0+  Al70  1  0.74989697  0.74968565  0.32853249  1
  Al0+  Al71  1  0.75021795  0.74909165  0.67152850  1
  Al0+  Al72  1  0.43138166  0.31797320  0.32091518  1
  Al0+  Al73  1  0.57057748  0.68182314  0.98189377  1
  Al0+  Al74  1  0.06968892  0.18061833  0.98516589  1
  Al0+  Al75  1  0.67897491  0.42621487  0.68127069  1
  Al0+  Al76  1  0.56861200  0.68003077  0.32130554  1
  Al0+  Al77  1  0.17650704  0.92924632  0.01541820  1
  Al0+  Al78  1  0.93017903  0.82049323  0.31791031  1
  Al0+  Al79  1  0.92913860  0.32376155  0.65245409  1
  Al0+  Al80  1  0.67944548  0.92931302  0.67927999  1
  Al0+  Al81  1  0.43012495  0.31906433  0.98368468  1
  Al0+  Al82  1  0.07240569  0.17819777  0.64876510  1
  Al0+  Al83  1  0.17651015  0.92963276  0.67976493  1
  Al0+  Al84  1  0.32065439  0.07338752  0.68309350  1
  Al0+  Al85  1  0.18224241  0.42965117  0.01275257  1
  Al0+  Al86  1  0.07373853  0.67578103  0.31866602  1
  Al0+  Al87  1  0.67929977  0.92967377  0.01587727  1
  Al0+  Al88  1  0.93154623  0.81833400  0.98297011  1
  Al0+  Al89  1  0.07005894  0.18276124  0.31928401  1
  Al0+  Al90  1  0.56923973  0.17720534  0.65413021  1
  Al0+  Al91  1  0.31932835  0.06975567  0.34740585  1
  Al0+  Al92  1  0.32151413  0.57179976  0.67906530  1
  Al0+  Al93  1  0.82279816  0.57105070  0.68165077  1
  Al0+  Al94  1  0.17924320  0.43003355  0.34888159  1
  Al0+  Al95  1  0.81951261  0.56962609  0.01723735  1
  Si0+  Si96  1  0.92725543  0.81930880  0.65219838  1
  Si0+  Si97  1  0.82176447  0.07265560  0.34909074  1
  Si0+  Si98  1  0.07369692  0.67570251  0.98384510  1
  Si0+  Si99  1  0.82206822  0.07220840  0.68145282  1
  Si0+  Si100  1  0.42602426  0.82430270  0.98325342  1
  Si0+  Si101  1  0.32034802  0.07232506  0.01706421  1
  Si0+  Si102  1  0.67606523  0.42654998  0.01780982  1
  Si0+  Si103  1  0.32542142  0.57217683  0.01759441  1
  Si0+  Si104  1  0.17845685  0.42889639  0.68299234  1
  Si0+  Si105  1  0.07367642  0.68007909  0.65463691  1
  Si0+  Si106  1  0.42755044  0.82001563  0.65332067  1
  Si0+  Si107  1  0.68121740  0.92853945  0.34886048  1
  Si0+  Si108  1  0.92488991  0.32297635  0.31648462  1
  Si0+  Si109  1  0.81821018  0.57113690  0.34930349  1
  Si0+  Si110  1  0.57412750  0.17591853  0.98540118  1
  Si0+  Si111  1  0.32506153  0.57200444  0.34674343  1
  Si0+  Si112  1  0.57112576  0.68009701  0.65216661  1
  Si0+  Si113  1  0.42928189  0.32462122  0.64801232  1
  Si0+  Si114  1  0.67712289  0.42828508  0.34621661  1
  Si0+  Si115  1  0.82247825  0.07294833  0.01638591  1
  Si0+  Si116  1  0.92576765  0.32450251  0.98610251  1
  Si0+  Si117  1  0.17532919  0.92675326  0.34765917  1
  Si0+  Si118  1  0.42766157  0.82541553  0.31734149  1
  Si0+  Si119  1  0.57450467  0.17474011  0.31632333  1
  O2-  O120  1  0.25218410  0.00319863  0.06156808  1
  O2-  O121  1  0.24677178  -0.00818165  0.39277449  1
  O2-  O122  1  0.24280945  0.00661773  0.73079258  1
  O2-  O123  1  0.25505216  0.50569108  0.06180989  1
  O2-  O124  1  0.25035550  0.51060429  0.39214872  1
  O2-  O125  1  0.24878159  0.49610524  0.72647047  1
  O2-  O126  1  0.75228389  0.00618749  0.06232410  1
  O2-  O127  1  0.74934782  0.00215216  0.39108455  1
  O2-  O128  1  0.75215236  0.00538715  0.72663404  1
  O2-  O129  1  0.74527705  0.49364307  0.06403342  1
  O2-  O130  1  0.75034778  0.49639845  0.38989930  1
  O2-  O131  1  0.75405049  0.49527839  0.73043196  1
  O2-  O132  1  -0.00430398  0.25748353  0.27122172  1
  O2-  O133  1  0.00155954  0.25297997  0.60084315  1
  O2-  O134  1  -0.00707041  0.25494614  0.94174462  1
  O2-  O135  1  0.00641574  0.75228010  0.26888076  1
  O2-  O136  1  0.00115136  0.75016897  0.61217480  1
  O2-  O137  1  0.00948331  0.74677305  0.93633811  1
  O2-  O138  1  0.50532606  0.24265403  0.27259364  1
  O2-  O139  1  0.49619486  0.25302676  0.60560120  1
  O2-  O140  1  0.50779410  0.24590824  0.94047203  1
  O2-  O141  1  0.49253746  0.75294989  0.27354402  1
  O2-  O142  1  0.49911466  0.74965342  0.60937253  1
  O2-  O143  1  0.49372900  0.75558689  0.93678913  1
  O2-  O144  1  0.07089681  0.18185895  0.09864601  1
  O2-  O145  1  0.06881201  0.18264259  0.43185513  1
  O2-  O146  1  0.06945097  0.17845714  0.76239187  1
  O2-  O147  1  0.06988615  0.67542351  0.08927986  1
  O2-  O148  1  0.07088271  0.67669471  0.43319573  1
  O2-  O149  1  0.07489328  0.68001228  0.75947760  1
  O2-  O150  1  0.57490578  0.17693696  0.09126888  1
  O2-  O151  1  0.57578053  0.17437028  0.42178767  1
  O2-  O152  1  0.56665234  0.17632878  0.76726551  1
  O2-  O153  1  0.56971124  0.68292294  0.09556764  1
  O2-  O154  1  0.56928552  0.68100099  0.43489173  1
  O2-  O155  1  0.57137228  0.68238091  0.75683741  1
  O2-  O156  1  0.18291241  0.42733445  0.23581411  1
  O2-  O157  1  0.17832404  0.43118287  0.57717675  1
  O2-  O158  1  0.18331719  0.43126411  0.89961109  1
  O2-  O159  1  0.17601039  0.93029846  0.24201380  1
  O2-  O160  1  0.18007516  0.92388294  0.56602022  1
  O2-  O161  1  0.17702763  0.93118213  0.90259188  1
  O2-  O162  1  0.67806170  0.42915093  0.24121506  1
  O2-  O163  1  0.67620642  0.43178433  0.56673130  1
  O2-  O164  1  0.67777152  0.42583220  0.91263225  1
  O2-  O165  1  0.68164393  0.92857959  0.24391218  1
  O2-  O166  1  0.68180695  0.92658521  0.56550035  1
  O2-  O167  1  0.68025939  0.93116119  0.90281946  1
  O2-  O168  1  0.42868960  0.31701058  0.09723307  1
  O2-  O169  1  0.43469972  0.32051265  0.43364455  1
  O2-  O170  1  0.43037484  0.32529014  0.75355389  1
  O2-  O171  1  0.42840126  0.82351053  0.08919712  1
  O2-  O172  1  0.43056710  0.82674175  0.42322444  1
  O2-  O173  1  0.42760332  0.81794400  0.75811869  1
  O2-  O174  1  0.92434761  0.32221918  0.09193071  1
  O2-  O175  1  0.92212421  0.32058935  0.42170402  1
  O2-  O176  1  0.93237246  0.32303510  0.76640725  1
  O2-  O177  1  0.93142992  0.81673869  0.09590282  1
  O2-  O178  1  0.92649518  0.81787424  0.43210591  1
  O2-  O179  1  0.92536272  0.81885180  0.75696771  1
  O2-  O180  1  0.31774005  0.06944651  0.23408598  1
  O2-  O181  1  0.32204239  0.06907043  0.56918593  1
  O2-  O182  1  0.32185929  0.07093384  0.91185515  1
  O2-  O183  1  0.32958067  0.56740435  0.24165084  1
  O2-  O184  1  0.32087562  0.57278184  0.56557335  1
  O2-  O185  1  0.32393898  0.57161996  0.91171195  1
  O2-  O186  1  0.81989640  0.07500240  0.24416482  1
  O2-  O187  1  0.82128455  0.06779013  0.57532147  1
  O2-  O188  1  0.82107221  0.07317441  0.91098668  1
  O2-  O189  1  0.81649751  0.57205249  0.24426182  1
  O2-  O190  1  0.81859247  0.57507726  0.56744831  1
  O2-  O191  1  0.81936148  0.56801443  0.90448143  1
  O2-  O192  1  0.03826762  0.08674958  0.26450227  1
  O2-  O193  1  0.04141006  0.08040511  0.59462572  1
  O2-  O194  1  0.03778687  0.08511649  0.93071143  1
  O2-  O195  1  0.03919043  0.57861998  0.26661593  1
  O2-  O196  1  0.04710512  0.58845268  0.60629632  1
  O2-  O197  1  0.04391388  0.58247229  0.93914582  1
  O2-  O198  1  0.55002912  0.08024635  0.27152786  1
  O2-  O199  1  0.53774871  0.08007617  0.59952779  1
  O2-  O200  1  0.54631990  0.08162843  0.94217248  1
  O2-  O201  1  0.54046258  0.58484821  0.26316696  1
  O2-  O202  1  0.54348772  0.58740317  0.60643732  1
  O2-  O203  1  0.54276342  0.58522358  0.92695198  1
  O2-  O204  1  0.16666199  0.21413197  0.26654480  1
  O2-  O205  1  0.17203642  0.20686792  0.59821236  1
  O2-  O206  1  0.16428964  0.21271780  0.92938366  1
  O2-  O207  1  0.17499816  0.69284793  0.26651622  1
  O2-  O208  1  0.16485217  0.70895413  0.60613793  1
  O2-  O209  1  0.17089204  0.69650880  0.94325385  1
  O2-  O210  1  0.66811603  0.20005121  0.26983027  1
  O2-  O211  1  0.66629902  0.20310697  0.59793472  1
  O2-  O212  1  0.66903855  0.19775388  0.94002954  1
  O2-  O213  1  0.66297662  0.71400394  0.26540320  1
  O2-  O214  1  0.66253098  0.71017712  0.60474127  1
  O2-  O215  1  0.66629245  0.71528270  0.92930781  1
  O2-  O216  1  0.08593498  0.45644703  0.06981535  1
  O2-  O217  1  0.08099710  0.45657140  0.40265585  1
  O2-  O218  1  0.08623627  0.45628392  0.72972797  1
  O2-  O219  1  0.07956984  0.96178290  0.06747760  1
  O2-  O220  1  0.08110137  0.95363144  0.39161490  1
  O2-  O221  1  0.07576345  0.95356318  0.72991464  1
  O2-  O222  1  0.58187239  0.45579262  0.06076022  1
  O2-  O223  1  0.58616575  0.45947748  0.39285453  1
  O2-  O224  1  0.58297732  0.45765246  0.73634681  1
  O2-  O225  1  0.58260046  0.95718431  0.07267720  1
  O2-  O226  1  0.58836587  0.95260592  0.39629881  1
  O2-  O227  1  0.58298949  0.95681409  0.73397039  1
  O2-  O228  1  0.21735755  0.33303145  0.06469187  1
  O2-  O229  1  0.21583795  0.33670607  0.40471471  1
  O2-  O230  1  0.20370424  0.33508883  0.72760620  1
  O2-  O231  1  0.20506237  0.83206079  0.07049203  1
  O2-  O232  1  0.19706999  0.83002131  0.38969681  1
  O2-  O233  1  0.20904836  0.83445532  0.73682716  1
  O2-  O234  1  0.69735188  0.33181592  0.06468474  1
  O2-  O235  1  0.70055234  0.33442600  0.39241680  1
  O2-  O236  1  0.70138662  0.32575111  0.73215905  1
  O2-  O237  1  0.71391896  0.83420248  0.06900657  1
  O2-  O238  1  0.71186653  0.83711562  0.39598546  1
  O2-  O239  1  0.71246995  0.83472760  0.73492589  1
  O2-  O240  1  0.46212998  0.41229524  0.26222801  1
  O2-  O241  1  0.45812441  0.41797596  0.60240053  1
  O2-  O242  1  0.45847785  0.41529677  0.92823086  1
  O2-  O243  1  0.45826882  0.91674678  0.26919294  1
  O2-  O244  1  0.45614578  0.91129808  0.60574320  1
  O2-  O245  1  0.45242275  0.91882470  0.93995412  1
  O2-  O246  1  0.94716720  0.41849050  0.27408317  1
  O2-  O247  1  0.95597608  0.42340916  0.59932371  1
  O2-  O248  1  0.95331067  0.41861285  0.94315559  1
  O2-  O249  1  0.95151888  0.91981236  0.26363053  1
  O2-  O250  1  0.95083290  0.91131197  0.60314157  1
  O2-  O251  1  0.95743853  0.91603499  0.92917915  1
  O2-  O252  1  0.33522691  0.28527348  0.26766271  1
  O2-  O253  1  0.33478164  0.30215947  0.60275496  1
  O2-  O254  1  0.33652548  0.28708145  0.92581845  1
  O2-  O255  1  0.33270595  0.80615683  0.27179181  1
  O2-  O256  1  0.33649248  0.79059970  0.60493628  1
  O2-  O257  1  0.33122596  0.79948979  0.93907386  1
  O2-  O258  1  0.83174501  0.29619516  0.26892924  1
  O2-  O259  1  0.83039194  0.29712372  0.59877013  1
  O2-  O260  1  0.83087287  0.30149583  0.94095277  1
  O2-  O261  1  0.83366848  0.78718861  0.26370965  1
  O2-  O262  1  0.83658820  0.78778290  0.60358994  1
  O2-  O263  1  0.83529637  0.78470209  0.93069323  1
  O2-  O264  1  0.41354768  0.04885953  0.06597914  1
  O2-  O265  1  0.41814547  0.04213253  0.40034873  1
  O2-  O266  1  0.41557831  0.03860650  0.73830176  1
  O2-  O267  1  0.41991414  0.54333822  0.05984215  1
  O2-  O268  1  0.41643814  0.53925815  0.39467569  1
  O2-  O269  1  0.41731648  0.54321046  0.73509547  1
  O2-  O270  1  0.91472820  0.04341652  0.06248233  1
  O2-  O271  1  0.91298457  0.04251415  0.39620069  1
  O2-  O272  1  0.91495101  0.04490956  0.72698061  1
  O2-  O273  1  0.91520869  0.54082897  0.07461531  1
  O2-  O274  1  0.91057304  0.54696736  0.39701267  1
  O2-  O275  1  0.92227205  0.54809943  0.73500013  1
  O2-  O276  1  0.29138587  0.16599520  0.06036954  1
  O2-  O277  1  0.28746638  0.16470257  0.40277006  1
  O2-  O278  1  0.30040646  0.17477932  0.73260978  1
  O2-  O279  1  0.30621152  0.66693860  0.06379335  1
  O2-  O280  1  0.30874916  0.66949859  0.38938474  1
  O2-  O281  1  0.29110904  0.66608348  0.73725752  1
  O2-  O282  1  0.79967678  0.16693943  0.06465092  1
  O2-  O283  1  0.79532899  0.16456694  0.39768530  1
  O2-  O284  1  0.79963530  0.16660945  0.72552758  1
  O2-  O285  1  0.78482755  0.66517306  0.07037010  1
  O2-  O286  1  0.78622618  0.66221023  0.39587976  1
  O2-  O287  1  0.78886179  0.66636575  0.73695810  1
