# generated using pymatgen
data_Ca2Al2SiO7
_symmetry_space_group_name_H-M   'P 1'
_cell_length_a   15.46098281
_cell_length_b   15.46002521
_cell_length_c   15.28634166
_cell_angle_alpha   90.00855014
_cell_angle_beta   89.99542539
_cell_angle_gamma   90.01996482
_symmetry_Int_Tables_number   1
_chemical_formula_structural   Ca2Al2SiO7
_chemical_formula_sum   'Ca48 Al48 Si24 O168'
_cell_volume   3653.85092545
_cell_formula_units_Z   24
loop_
 _symmetry_equiv_pos_site_id
 _symmetry_equiv_pos_as_xyz
  1  'x, y, z'
loop_
 _atom_type_symbol
 _atom_type_oxidation_number
  Ca2+  2.0
  Al0+  0.0
  Si0+  0.0
  O2-  -2.0
loop_
 _atom_site_type_symbol
 _atom_site_label
 _atom_site_symmetry_multiplicity
 _atom_site_fract_x
 _atom_site_fract_y
 _atom_site_fract_z
 _atom_site_occupancy
  Ca2+  Ca0  1  0.17559328  0.07300167  0.17293565  1
  Ca2+  Ca1  1  0.16795799  0.07886627  0.50663929  1
  Ca2+  Ca2  1  0.16365365  0.07415166  0.83933867  1
  Ca2+  Ca3  1  0.16836460  0.58089563  0.16821160  1
  Ca2+  Ca4  1  0.17303406  0.58019813  0.51356597  1
  Ca2+  Ca5  1  0.16320442  0.58289216  0.82765685  1
  Ca2+  Ca6  1  0.66403537  0.07818182  0.16091669  1
  Ca2+  Ca7  1  0.66164540  0.07862636  0.50324857  1
  Ca2+  Ca8  1  0.67010596  0.08534339  0.84308145  1
  Ca2+  Ca9  1  0.67847666  0.58115713  0.16838021  1
  Ca2+  Ca10  1  0.67633822  0.57562310  0.50942753  1
  Ca2+  Ca11  1  0.67964763  0.57021193  0.83732591  1
  Ca2+  Ca12  1  0.07558645  0.32883802  0.15778073  1
  Ca2+  Ca13  1  0.08369473  0.33530839  0.50245273  1
  Ca2+  Ca14  1  0.07182460  0.32889646  0.82328897  1
  Ca2+  Ca15  1  0.08935608  0.83314284  0.16249965  1
  Ca2+  Ca16  1  0.08209314  0.83378307  0.50308701  1
  Ca2+  Ca17  1  0.07874656  0.83290173  0.82079222  1
  Ca2+  Ca18  1  0.57815226  0.32893484  0.15699751  1
  Ca2+  Ca19  1  0.58106095  0.33086106  0.49873098  1
  Ca2+  Ca20  1  0.59302332  0.32472008  0.82841948  1
  Ca2+  Ca21  1  0.58098690  0.84103731  0.15737108  1
  Ca2+  Ca22  1  0.58384403  0.83139295  0.49352764  1
  Ca2+  Ca23  1  0.57576449  0.84143017  0.83229756  1
  Ca2+  Ca24  1  0.33473173  0.41401901  0.17226457  1
  Ca2+  Ca25  1  0.33035371  0.41946185  0.51080945  1
  Ca2+  Ca26  1  0.32820546  0.42028413  0.83051760  1
  Ca2+  Ca27  1  0.33107777  0.92655034  0.16674293  1
  Ca2+  Ca28  1  0.32150971  0.92149482  0.50350224  1
  Ca2+  Ca29  1  0.32188810  0.92016238  0.84166919  1
  Ca2+  Ca30  1  0.83178052  0.42205154  0.16454758  1
  Ca2+  Ca31  1  0.83264278  0.42558339  0.51215125  1
  Ca2+  Ca32  1  0.83277666  0.41714265  0.84041006  1
  Ca2+  Ca33  1  0.82274525  0.92197889  0.16849538  1
  Ca2+  Ca34  1  0.82979565  0.91460512  0.50452417  1
  Ca2+  Ca35  1  0.83171417  0.92415904  0.84121615  1
  Ca2+  Ca36  1  0.41715619  0.16391787  0.16068619  1
  Ca2+  Ca37  1  0.41901013  0.17036106  0.49496125  1
  Ca2+  Ca38  1  0.42889225  0.15843121  0.83150469  1
  Ca2+  Ca39  1  0.42232240  0.67723077  0.15623218  1
  Ca2+  Ca40  1  0.41629140  0.66442918  0.49748631  1
  Ca2+  Ca41  1  0.41515866  0.67202644  0.82867268  1
  Ca2+  Ca42  1  0.91341917  0.17130688  0.15645908  1
  Ca2+  Ca43  1  0.92420510  0.17173375  0.50481379  1
  Ca2+  Ca44  1  0.91519987  0.17478442  0.82539799  1
  Ca2+  Ca45  1  0.91436603  0.66383419  0.16238997  1
  Ca2+  Ca46  1  0.91598450  0.66515628  0.50195162  1
  Ca2+  Ca47  1  0.91674319  0.67143660  0.82382616  1
  Al0+  Al48  1  -0.00020722  -0.00197997  0.00912527  1
  Al0+  Al49  1  -0.00149987  -0.00138432  0.33464613  1
  Al0+  Al50  1  -0.00223972  0.00047019  0.66120553  1
  Al0+  Al51  1  0.00095424  0.49963758  -0.00028803  1
  Al0+  Al52  1  0.00094963  0.50129308  0.33466822  1
  Al0+  Al53  1  0.00213195  0.50253649  0.66585739  1
  Al0+  Al54  1  0.49756761  0.00050571  -0.00302374  1
  Al0+  Al55  1  0.49953730  0.00012216  0.34027443  1
  Al0+  Al56  1  0.49817740  -0.00017052  0.65986731  1
  Al0+  Al57  1  0.49967249  0.50049750  0.00160515  1
  Al0+  Al58  1  0.50181283  0.50003721  0.32709396  1
  Al0+  Al59  1  0.50153398  0.50085839  0.67517208  1
  Al0+  Al60  1  0.24959443  0.25046132  0.00155002  1
  Al0+  Al61  1  0.25008528  0.24967772  0.33171217  1
  Al0+  Al62  1  0.25295833  0.24988255  0.66921901  1
  Al0+  Al63  1  0.25107618  0.74845433  -0.00101219  1
  Al0+  Al64  1  0.24969270  0.74948178  0.33420298  1
  Al0+  Al65  1  0.24932507  0.75300909  0.66902077  1
  Al0+  Al66  1  0.74836751  0.25155511  0.00188662  1
  Al0+  Al67  1  0.74991503  0.24972034  0.33160170  1
  Al0+  Al68  1  0.74948097  0.24731928  0.65653472  1
  Al0+  Al69  1  0.75078785  0.74763903  0.00481030  1
  Al0+  Al70  1  0.75177332  0.74962884  0.33956974  1
  Al0+  Al71  1  0.74654156  0.74961495  0.66708775  1
  Al0+  Al72  1  0.17722899  0.93297968  0.68043863  1
  Al0+  Al73  1  0.82357802  0.56996754  0.01560391  1
  Al0+  Al74  1  0.17861169  0.42675450  0.68219635  1
  Al0+  Al75  1  0.56773333  0.18133092  0.98699545  1
  Al0+  Al76  1  0.68102796  0.42563190  0.68085867  1
  Al0+  Al77  1  0.57112571  0.17791536  0.65105278  1
  Al0+  Al78  1  0.82225130  0.57230490  0.68239670  1
  Al0+  Al79  1  0.07382316  0.17864549  0.65328769  1
  Al0+  Al80  1  0.43045517  0.82054436  0.98554149  1
  Al0+  Al81  1  0.92952364  0.32256199  0.65105993  1
  Al0+  Al82  1  0.68014140  0.93082665  0.34760671  1
  Al0+  Al83  1  0.82181608  0.56886001  0.34966800  1
  Al0+  Al84  1  0.67752633  0.42769268  0.01665519  1
  Al0+  Al85  1  0.32011013  0.07275732  0.35081405  1
  Al0+  Al86  1  0.32230027  0.57326001  0.68187206  1
  Al0+  Al87  1  0.17787253  0.92699343  0.35123567  1
  Al0+  Al88  1  0.07177943  0.68076537  0.65134975  1
  Al0+  Al89  1  0.92988193  0.31947291  0.98766141  1
  Al0+  Al90  1  0.32015111  0.07179052  0.01339289  1
  Al0+  Al91  1  0.92526659  0.82161203  0.65185119  1
  Al0+  Al92  1  0.17767086  0.92585770  0.01498276  1
  Al0+  Al93  1  0.82163752  0.07305876  0.01314980  1
  Al0+  Al94  1  0.42919676  0.32078584  0.32021221  1
  Al0+  Al95  1  0.67825027  0.92901005  0.01104910  1
  Si0+  Si96  1  0.81867979  0.06884642  0.67862254  1
  Si0+  Si97  1  0.32368589  0.07202803  0.68383143  1
  Si0+  Si98  1  0.42957380  0.81994515  0.31879734  1
  Si0+  Si99  1  0.56885570  0.67853829  0.65198517  1
  Si0+  Si100  1  0.57403193  0.67670237  0.98210720  1
  Si0+  Si101  1  0.07124508  0.67902339  0.31705429  1
  Si0+  Si102  1  0.67700719  0.42801277  0.34959745  1
  Si0+  Si103  1  0.18026714  0.42981812  0.34600413  1
  Si0+  Si104  1  0.43027303  0.32390702  0.65255872  1
  Si0+  Si105  1  0.42845101  0.82079667  0.64882890  1
  Si0+  Si106  1  0.93066817  0.32269699  0.31751657  1
  Si0+  Si107  1  0.42470775  0.32534448  0.98095953  1
  Si0+  Si108  1  0.07036144  0.17806655  0.31728268  1
  Si0+  Si109  1  0.07219171  0.17586291  0.98628027  1
  Si0+  Si110  1  0.32270370  0.57029556  0.34477501  1
  Si0+  Si111  1  0.92826074  0.82078176  0.98816728  1
  Si0+  Si112  1  0.17972232  0.43003040  0.01545081  1
  Si0+  Si113  1  0.67576926  0.92855297  0.68076583  1
  Si0+  Si114  1  0.92765330  0.82030986  0.31644861  1
  Si0+  Si115  1  0.32128318  0.57103667  0.01643767  1
  Si0+  Si116  1  0.57160413  0.17619020  0.31440031  1
  Si0+  Si117  1  0.57316362  0.67984415  0.31788728  1
  Si0+  Si118  1  0.07150716  0.67888065  0.98526436  1
  Si0+  Si119  1  0.82286221  0.07451101  0.35209543  1
  O2-  O120  1  0.24696902  0.00099901  0.06350266  1
  O2-  O121  1  0.24669800  0.00217524  0.40051959  1
  O2-  O122  1  0.24895978  0.01004762  0.72703632  1
  O2-  O123  1  0.25388682  0.49711653  0.05964987  1
  O2-  O124  1  0.25592423  0.49621170  0.38682003  1
  O2-  O125  1  0.24901071  0.50180342  0.73092939  1
  O2-  O126  1  0.75103581  -0.00090006  0.06267196  1
  O2-  O127  1  0.75243768  0.00703858  0.39566113  1
  O2-  O128  1  0.74809669  -0.00222089  0.72174410  1
  O2-  O129  1  0.74939456  0.50032187  0.06603161  1
  O2-  O130  1  0.74858571  0.49245474  0.39462564  1
  O2-  O131  1  0.75819257  0.49239374  0.73053174  1
  O2-  O132  1  -0.00238333  0.24771341  0.27481363  1
  O2-  O133  1  0.00723276  0.25546450  0.60146300  1
  O2-  O134  1  0.00037919  0.24058789  0.94201245  1
  O2-  O135  1  0.00141215  0.75116379  0.27455182  1
  O2-  O136  1  -0.00377568  0.74869939  0.60041421  1
  O2-  O137  1  0.00204998  0.75254520  0.94621590  1
  O2-  O138  1  0.50324343  0.24620922  0.27203381  1
  O2-  O139  1  0.49774158  0.25505662  0.60674981  1
  O2-  O140  1  0.49425539  0.25717444  0.93861478  1
  O2-  O141  1  0.50306564  0.75176523  0.27544850  1
  O2-  O142  1  0.49764143  0.74796278  0.60633956  1
  O2-  O143  1  0.50745898  0.74788107  0.93808000  1
  O2-  O144  1  0.07319380  0.18065815  0.09243422  1
  O2-  O145  1  0.07079409  0.18025619  0.42206872  1
  O2-  O146  1  0.06812807  0.17587053  0.76683332  1
  O2-  O147  1  0.07227191  0.67722454  0.09118335  1
  O2-  O148  1  0.07311536  0.67657335  0.42115745  1
  O2-  O149  1  0.07345763  0.68567402  0.76522011  1
  O2-  O150  1  0.56520864  0.18097588  0.10030227  1
  O2-  O151  1  0.57139058  0.17715676  0.42006478  1
  O2-  O152  1  0.57007966  0.17385480  0.76380065  1
  O2-  O153  1  0.57057751  0.67663738  0.08840098  1
  O2-  O154  1  0.56978021  0.67867706  0.42317141  1
  O2-  O155  1  0.56805309  0.68189885  0.75662900  1
  O2-  O156  1  0.17874964  0.43295073  0.24037980  1
  O2-  O157  1  0.18377976  0.42732205  0.56766403  1
  O2-  O158  1  0.17910237  0.43183209  0.91116225  1
  O2-  O159  1  0.18191086  0.92532761  0.23782030  1
  O2-  O160  1  0.18081272  0.93265813  0.56746621  1
  O2-  O161  1  0.17680989  0.92576048  0.90155650  1
  O2-  O162  1  0.67589107  0.43057376  0.24430819  1
  O2-  O163  1  0.67773421  0.42988377  0.56656669  1
  O2-  O164  1  0.67959912  0.42786070  0.90357586  1
  O2-  O165  1  0.68035130  0.93007810  0.23486529  1
  O2-  O166  1  0.67569077  0.92935932  0.57530724  1
  O2-  O167  1  0.68012483  0.93059604  0.89734178  1
  O2-  O168  1  0.42462515  0.32538515  0.08701190  1
  O2-  O169  1  0.43119692  0.32434776  0.43310303  1
  O2-  O170  1  0.43021808  0.32401897  0.75779836  1
  O2-  O171  1  0.43076980  0.81783202  0.09940471  1
  O2-  O172  1  0.42931662  0.81582009  0.42403315  1
  O2-  O173  1  0.43078561  0.82284450  0.75378132  1
  O2-  O174  1  0.93455889  0.32077988  0.10173075  1
  O2-  O175  1  0.93362013  0.32462382  0.42205793  1
  O2-  O176  1  0.92692319  0.31748197  0.76453848  1
  O2-  O177  1  0.92750161  0.81864285  0.09357739  1
  O2-  O178  1  0.92587371  0.81887015  0.42107369  1
  O2-  O179  1  0.92530194  0.82364794  0.76590582  1
  O2-  O180  1  0.31991729  0.07108532  0.23732554  1
  O2-  O181  1  0.32622553  0.06884451  0.57820091  1
  O2-  O182  1  0.31976017  0.06954141  0.90001174  1
  O2-  O183  1  0.31990041  0.57181852  0.23948542  1
  O2-  O184  1  0.32422609  0.57059558  0.56720315  1
  O2-  O185  1  0.32010236  0.57287543  0.91199756  1
  O2-  O186  1  0.82408442  0.07392609  0.24660499  1
  O2-  O187  1  0.81743378  0.06747980  0.57323433  1
  O2-  O188  1  0.82259419  0.07156871  0.89934839  1
  O2-  O189  1  0.82221648  0.56780845  0.23669290  1
  O2-  O190  1  0.81591261  0.57274797  0.56848152  1
  O2-  O191  1  0.82550205  0.57024358  0.90295434  1
  O2-  O192  1  0.04374209  0.08502009  0.27138888  1
  O2-  O193  1  0.03764008  0.08477342  0.59554687  1
  O2-  O194  1  0.05042082  0.07944741  0.94512921  1
  O2-  O195  1  0.04226853  0.58752748  0.26773665  1
  O2-  O196  1  0.05160837  0.58063274  0.59845171  1
  O2-  O197  1  0.04239655  0.58793975  0.93785054  1
  O2-  O198  1  0.54421110  0.08175096  0.27105041  1
  O2-  O199  1  0.53653055  0.08307767  0.59396489  1
  O2-  O200  1  0.53687314  0.08556288  0.93123971  1
  O2-  O201  1  0.54506973  0.58942877  0.26776606  1
  O2-  O202  1  0.54127897  0.58625173  0.60476477  1
  O2-  O203  1  0.54352155  0.58442490  0.93647783  1
  O2-  O204  1  0.16119593  0.20779555  0.26899827  1
  O2-  O205  1  0.17486901  0.20192866  0.60224145  1
  O2-  O206  1  0.16463510  0.20453703  0.93997805  1
  O2-  O207  1  0.16378781  0.70560877  0.26828102  1
  O2-  O208  1  0.17012522  0.71233834  0.59796724  1
  O2-  O209  1  0.16428678  0.70252092  0.93874205  1
  O2-  O210  1  0.66682928  0.19986472  0.26994782  1
  O2-  O211  1  0.66575243  0.20432199  0.59137692  1
  O2-  O212  1  0.66531622  0.21035183  0.93428695  1
  O2-  O213  1  0.66580061  0.70786412  0.27283015  1
  O2-  O214  1  0.65893328  0.70798896  0.60196937  1
  O2-  O215  1  0.66925676  0.69869351  0.93882252  1
  O2-  O216  1  0.09073925  0.46271927  0.06570245  1
  O2-  O217  1  0.09095297  0.46212057  0.39431434  1
  O2-  O218  1  0.08038554  0.45460739  0.73440677  1
  O2-  O219  1  0.07998883  0.94949805  0.07144874  1
  O2-  O220  1  0.07688690  0.95150841  0.39955611  1
  O2-  O221  1  0.07845289  0.96047164  0.73146489  1
  O2-  O222  1  0.57801332  0.45599927  0.06873620  1
  O2-  O223  1  0.58425364  0.45837439  0.39513269  1
  O2-  O224  1  0.58544055  0.45774432  0.73623059  1
  O2-  O225  1  0.58080921  0.95984405  0.06397226  1
  O2-  O226  1  0.58351156  0.95723521  0.40385544  1
  O2-  O227  1  0.58348147  0.95855208  0.72546171  1
  O2-  O228  1  0.20340544  0.33751888  0.06391239  1
  O2-  O229  1  0.20308051  0.33683921  0.39171020  1
  O2-  O230  1  0.20896158  0.32963119  0.73711394  1
  O2-  O231  1  0.20978877  0.82780742  0.06753264  1
  O2-  O232  1  0.20986574  0.82861504  0.40280494  1
  O2-  O233  1  0.21113759  0.83793559  0.73403692  1
  O2-  O234  1  0.70612322  0.33128294  0.07231716  1
  O2-  O235  1  0.69820162  0.33182702  0.39192871  1
  O2-  O236  1  0.70437721  0.32349229  0.72715467  1
  O2-  O237  1  0.70325535  0.83037572  0.06522360  1
  O2-  O238  1  0.71129631  0.83478645  0.40279729  1
  O2-  O239  1  0.69801599  0.83587049  0.72736365  1
  O2-  O240  1  0.45833984  0.41764645  0.26310619  1
  O2-  O241  1  0.45633290  0.41821927  0.60717349  1
  O2-  O242  1  0.44787431  0.42057959  0.93740310  1
  O2-  O243  1  0.45645553  0.91339731  0.27484800  1
  O2-  O244  1  0.45916364  0.91014810  0.59826105  1
  O2-  O245  1  0.45917699  0.91574508  0.92887386  1
  O2-  O246  1  0.96381193  0.41291405  0.26930565  1
  O2-  O247  1  0.95443381  0.42227475  0.59969683  1
  O2-  O248  1  0.96618134  0.41443760  0.93427491  1
  O2-  O249  1  0.95170023  0.91376291  0.26998142  1
  O2-  O250  1  0.95406520  0.91826143  0.59547740  1
  O2-  O251  1  0.95323582  0.91446332  0.94284398  1
  O2-  O252  1  0.33125743  0.29376829  0.26516405  1
  O2-  O253  1  0.33661940  0.29927094  0.60587452  1
  O2-  O254  1  0.33008853  0.30067080  0.93659039  1
  O2-  O255  1  0.33907969  0.78803306  0.27107772  1
  O2-  O256  1  0.33680663  0.79382497  0.60170419  1
  O2-  O257  1  0.33494476  0.78509679  0.93172223  1
  O2-  O258  1  0.83642950  0.29851252  0.27229834  1
  O2-  O259  1  0.83513264  0.28770778  0.59320660  1
  O2-  O260  1  0.83198005  0.29345088  0.93617814  1
  O2-  O261  1  0.83654007  0.78870337  0.26938409  1
  O2-  O262  1  0.82552545  0.79419296  0.59917624  1
  O2-  O263  1  0.83684594  0.79214957  0.94047139  1
  O2-  O264  1  0.41642305  0.03897377  0.06732737  1
  O2-  O265  1  0.41777850  0.04385772  0.40409414  1
  O2-  O266  1  0.41479198  0.03637565  0.72914337  1
  O2-  O267  1  0.41375044  0.54754089  0.06462462  1
  O2-  O268  1  0.41667800  0.54705077  0.38981946  1
  O2-  O269  1  0.41884506  0.54552964  0.73830529  1
  O2-  O270  1  0.91846441  0.04628735  0.07052253  1
  O2-  O271  1  0.91542753  0.04641497  0.39813449  1
  O2-  O272  1  0.91007370  0.04211414  0.72604436  1
  O2-  O273  1  0.92135110  0.53897185  0.07013081  1
  O2-  O274  1  0.91958209  0.53955221  0.40186229  1
  O2-  O275  1  0.92473084  0.55645636  0.72889309  1
  O2-  O276  1  0.29533121  0.17144153  0.06690594  1
  O2-  O277  1  0.29253621  0.17235067  0.40211726  1
  O2-  O278  1  0.30924825  0.16801796  0.72748064  1
  O2-  O279  1  0.28975499  0.66063642  0.06625334  1
  O2-  O280  1  0.29235193  0.66019970  0.39363364  1
  O2-  O281  1  0.29460349  0.67169513  0.73420982  1
  O2-  O282  1  0.79098913  0.16901812  0.06872577  1
  O2-  O283  1  0.79928252  0.16941040  0.39669407  1
  O2-  O284  1  0.78983666  0.16073841  0.72371576  1
  O2-  O285  1  0.79528418  0.66753513  0.07122039  1
  O2-  O286  1  0.79053644  0.66486148  0.40299291  1
  O2-  O287  1  0.78522475  0.66846492  0.73512301  1
