# generated using pymatgen
data_Ca2Al2SiO7
_symmetry_space_group_name_H-M   'P 1'
_cell_length_a   15.47398537
_cell_length_b   15.47046420
_cell_length_c   15.29206627
_cell_angle_alpha   89.97799845
_cell_angle_beta   90.00258345
_cell_angle_gamma   89.97734396
_symmetry_Int_Tables_number   1
_chemical_formula_structural   Ca2Al2SiO7
_chemical_formula_sum   'Ca48 Al48 Si24 O168'
_cell_volume   3660.76315544
_cell_formula_units_Z   24
loop_
 _symmetry_equiv_pos_site_id
 _symmetry_equiv_pos_as_xyz
  1  'x, y, z'
loop_
 _atom_type_symbol
 _atom_type_oxidation_number
  Ca2+  2.0
  Al0+  0.0
  Si0+  0.0
  O2-  -2.0
loop_
 _atom_site_type_symbol
 _atom_site_label
 _atom_site_symmetry_multiplicity
 _atom_site_fract_x
 _atom_site_fract_y
 _atom_site_fract_z
 _atom_site_occupancy
  Ca2+  Ca0  1  0.16215929  0.07190292  0.17503737  1
  Ca2+  Ca1  1  0.17154402  0.08091875  0.50128387  1
  Ca2+  Ca2  1  0.16627165  0.08184249  0.83810851  1
  Ca2+  Ca3  1  0.16029151  0.57444109  0.17692236  1
  Ca2+  Ca4  1  0.16519611  0.58327586  0.50097373  1
  Ca2+  Ca5  1  0.15887715  0.57736366  0.83907075  1
  Ca2+  Ca6  1  0.68332453  0.08308902  0.17376048  1
  Ca2+  Ca7  1  0.67103532  0.08790947  0.50491493  1
  Ca2+  Ca8  1  0.67253707  0.08684043  0.83733642  1
  Ca2+  Ca9  1  0.67395226  0.58756732  0.17777420  1
  Ca2+  Ca10  1  0.67132277  0.59641255  0.50211100  1
  Ca2+  Ca11  1  0.66568259  0.58389094  0.83532717  1
  Ca2+  Ca12  1  0.09443753  0.32288023  0.16477138  1
  Ca2+  Ca13  1  0.08766795  0.32178799  0.49616521  1
  Ca2+  Ca14  1  0.08377188  0.32190074  0.82741742  1
  Ca2+  Ca15  1  0.08884509  0.82530458  0.16087107  1
  Ca2+  Ca16  1  0.09077065  0.82336627  0.49312266  1
  Ca2+  Ca17  1  0.08499473  0.82759718  0.83545214  1
  Ca2+  Ca18  1  0.57982889  0.33352345  0.16544943  1
  Ca2+  Ca19  1  0.57641148  0.32897045  0.50280630  1
  Ca2+  Ca20  1  0.57431156  0.32626362  0.82257937  1
  Ca2+  Ca21  1  0.57684861  0.83272678  0.17107435  1
  Ca2+  Ca22  1  0.57066603  0.82862707  0.49604320  1
  Ca2+  Ca23  1  0.57623918  0.82919675  0.82270048  1
  Ca2+  Ca24  1  0.31935540  0.42415561  0.17427631  1
  Ca2+  Ca25  1  0.33031587  0.42050859  0.49966744  1
  Ca2+  Ca26  1  0.32794359  0.41675127  0.83729179  1
  Ca2+  Ca27  1  0.32150874  0.91894452  0.17639305  1
  Ca2+  Ca28  1  0.33521772  0.92064277  0.50149666  1
  Ca2+  Ca29  1  0.33028056  0.92106791  0.83348503  1
  Ca2+  Ca30  1  0.83128874  0.42458614  0.17600191  1
  Ca2+  Ca31  1  0.83690534  0.42036164  0.50343659  1
  Ca2+  Ca32  1  0.83621897  0.41321407  0.83313686  1
  Ca2+  Ca33  1  0.84370042  0.92512347  0.16946564  1
  Ca2+  Ca34  1  0.83437748  0.92285240  0.50080933  1
  Ca2+  Ca35  1  0.83460942  0.92133824  0.84281915  1
  Ca2+  Ca36  1  0.41140660  0.16441152  0.16732430  1
  Ca2+  Ca37  1  0.40945205  0.16673467  0.49666755  1
  Ca2+  Ca38  1  0.41874488  0.17184566  0.81798162  1
  Ca2+  Ca39  1  0.40986701  0.66972255  0.17160474  1
  Ca2+  Ca40  1  0.41969966  0.67621152  0.48839913  1
  Ca2+  Ca41  1  0.42209573  0.67506790  0.82084931  1
  Ca2+  Ca42  1  0.92770651  0.15895070  0.16331908  1
  Ca2+  Ca43  1  0.92723256  0.16884334  0.49407086  1
  Ca2+  Ca44  1  0.92838504  0.16713920  0.82930557  1
  Ca2+  Ca45  1  0.92595789  0.67091730  0.16397664  1
  Ca2+  Ca46  1  0.92741133  0.66433639  0.49351408  1
  Ca2+  Ca47  1  0.92808384  0.67166950  0.83141337  1
  Al0+  Al48  1  0.00101479  -0.00008336  -0.00113165  1
  Al0+  Al49  1  -0.00005739  0.00066484  0.34106712  1
  Al0+  Al50  1  0.00034539  -0.00032921  0.66629218  1
  Al0+  Al51  1  -0.00173427  0.49861521  0.00255372  1
  Al0+  Al52  1  -0.00392473  0.49815128  0.33873312  1
  Al0+  Al53  1  -0.00120971  0.50165413  0.66342478  1
  Al0+  Al54  1  0.50273329  -0.00036965  -0.00010177  1
  Al0+  Al55  1  0.50104505  0.00003861  0.32940048  1
  Al0+  Al56  1  0.50179946  -0.00050696  0.66567346  1
  Al0+  Al57  1  0.50000543  0.49905950  0.00003121  1
  Al0+  Al58  1  0.49982491  0.49770058  0.33148346  1
  Al0+  Al59  1  0.50270617  0.49869385  0.66187578  1
  Al0+  Al60  1  0.25128183  0.25227327  -0.00143600  1
  Al0+  Al61  1  0.24928266  0.24985424  0.33349548  1
  Al0+  Al62  1  0.24978519  0.25096956  0.66402194  1
  Al0+  Al63  1  0.25299931  0.75034945  -0.00310757  1
  Al0+  Al64  1  0.25006448  0.74851164  0.33021173  1
  Al0+  Al65  1  0.24985255  0.75065505  0.66204944  1
  Al0+  Al66  1  0.74941147  0.25026173  0.00579401  1
  Al0+  Al67  1  0.74984115  0.25077189  0.33724965  1
  Al0+  Al68  1  0.74945523  0.25313873  0.66273314  1
  Al0+  Al69  1  0.74844007  0.75051814  -0.00280658  1
  Al0+  Al70  1  0.74924619  0.75084344  0.33470556  1
  Al0+  Al71  1  0.75168258  0.75183003  0.66823367  1
  Al0+  Al72  1  0.57089957  0.17827946  0.65237096  1
  Al0+  Al73  1  0.07259350  0.67630024  0.98615614  1
  Al0+  Al74  1  0.42842669  0.82134219  0.65136536  1
  Al0+  Al75  1  0.92859750  0.82138900  0.98613804  1
  Al0+  Al76  1  0.07070943  0.17946320  0.31814628  1
  Al0+  Al77  1  0.07197254  0.17699600  0.65066532  1
  Al0+  Al78  1  0.81822497  0.57165384  0.34815598  1
  Al0+  Al79  1  0.06978253  0.68056124  0.65283732  1
  Al0+  Al80  1  0.07166065  0.17975950  0.98751414  1
  Al0+  Al81  1  0.82143651  0.07146555  0.34984451  1
  Al0+  Al82  1  0.42688079  0.32145743  0.65021039  1
  Al0+  Al83  1  0.17802665  0.42949191  0.01205885  1
  Al0+  Al84  1  0.06988119  0.67764511  0.31994605  1
  Al0+  Al85  1  0.32192768  0.07018913  0.34656169  1
  Al0+  Al86  1  0.18130507  0.92927612  0.01176513  1
  Al0+  Al87  1  0.42802792  0.82227016  0.31476079  1
  Al0+  Al88  1  0.32011092  0.07073093  0.68022093  1
  Al0+  Al89  1  0.92937051  0.32140528  0.65230652  1
  Al0+  Al90  1  0.57306438  0.67859006  0.65259805  1
  Al0+  Al91  1  0.17659839  0.42836704  0.35069683  1
  Al0+  Al92  1  0.17814849  0.92684850  0.34879562  1
  Al0+  Al93  1  0.32062285  0.57021185  0.34814866  1
  Al0+  Al94  1  0.57138936  0.67799147  0.31691730  1
  Al0+  Al95  1  0.82043810  0.06999472  0.01287078  1
  Si0+  Si96  1  0.81896217  0.57222276  0.01421589  1
  Si0+  Si97  1  0.17693062  0.92591198  0.68540430  1
  Si0+  Si98  1  0.17811061  0.43149679  0.68203655  1
  Si0+  Si99  1  0.67913867  0.42875420  0.68381970  1
  Si0+  Si100  1  0.32459640  0.07292302  0.01386906  1
  Si0+  Si101  1  0.82101414  0.07351151  0.68274173  1
  Si0+  Si102  1  0.67802859  0.92934783  0.35122862  1
  Si0+  Si103  1  0.57025215  0.67794119  0.98504411  1
  Si0+  Si104  1  0.92596038  0.32037863  0.31560352  1
  Si0+  Si105  1  0.32262857  0.57141058  0.68010083  1
  Si0+  Si106  1  0.82134226  0.57201829  0.68481472  1
  Si0+  Si107  1  0.57311436  0.17940181  0.31623076  1
  Si0+  Si108  1  0.32433914  0.57131740  0.01395829  1
  Si0+  Si109  1  0.67634840  0.42689163  0.35243687  1
  Si0+  Si110  1  0.92796544  0.82251356  0.31919212  1
  Si0+  Si111  1  0.57269901  0.17968975  0.98714758  1
  Si0+  Si112  1  0.42848155  0.31993807  0.31528588  1
  Si0+  Si113  1  0.67647641  0.92596301  0.01799768  1
  Si0+  Si114  1  0.42991048  0.82268372  0.98337141  1
  Si0+  Si115  1  0.68114275  0.92969663  0.68275191  1
  Si0+  Si116  1  0.92461673  0.32192490  0.98625526  1
  Si0+  Si117  1  0.92742459  0.82320790  0.65023543  1
  Si0+  Si118  1  0.43078140  0.32032988  0.98541991  1
  Si0+  Si119  1  0.67762752  0.42980371  0.01503703  1
  O2-  O120  1  0.25548841  0.00526607  0.05725011  1
  O2-  O121  1  0.25219756  -0.00265331  0.39744729  1
  O2-  O122  1  0.24396384  -0.00224488  0.72812618  1
  O2-  O123  1  0.24842781  0.50971413  0.05601797  1
  O2-  O124  1  0.24609700  0.50275891  0.40070557  1
  O2-  O125  1  0.25072043  0.50188174  0.72448762  1
  O2-  O126  1  0.74788678  -0.00734683  0.06027170  1
  O2-  O127  1  0.74583046  -0.00195100  0.39669966  1
  O2-  O128  1  0.75113410  0.00160657  0.72587568  1
  O2-  O129  1  0.74817331  0.50069196  0.05664106  1
  O2-  O130  1  0.74085313  0.49963136  0.39558050  1
  O2-  O131  1  0.74896744  0.50139999  0.72678323  1
  O2-  O132  1  -0.00456154  0.25379714  0.27030957  1
  O2-  O133  1  -0.00079390  0.24881300  0.60171213  1
  O2-  O134  1  -0.00405892  0.25554610  0.94340395  1
  O2-  O135  1  -0.00230075  0.75542888  0.27451842  1
  O2-  O136  1  -0.00150964  0.75806161  0.60630615  1
  O2-  O137  1  0.00147734  0.74988140  0.93648043  1
  O2-  O138  1  0.49964371  0.24781872  0.27331272  1
  O2-  O139  1  0.49362767  0.24366482  0.60129989  1
  O2-  O140  1  0.49783225  0.24538304  0.94383295  1
  O2-  O141  1  0.49783895  0.74687673  0.26479026  1
  O2-  O142  1  0.49647824  0.74468190  0.60346050  1
  O2-  O143  1  0.50028647  0.74957888  0.94278323  1
  O2-  O144  1  0.07150079  0.17968861  0.10027658  1
  O2-  O145  1  0.06960831  0.17997334  0.43077642  1
  O2-  O146  1  0.07052687  0.17761124  0.76509410  1
  O2-  O147  1  0.06908031  0.67445362  0.09920803  1
  O2-  O148  1  0.06689646  0.67831667  0.43306953  1
  O2-  O149  1  0.06757384  0.67799325  0.76613744  1
  O2-  O150  1  0.57407161  0.18266237  0.09212874  1
  O2-  O151  1  0.57525247  0.18152487  0.42078544  1
  O2-  O152  1  0.57230215  0.18251791  0.76699306  1
  O2-  O153  1  0.57138231  0.67577338  0.08932616  1
  O2-  O154  1  0.57185947  0.68222929  0.42991399  1
  O2-  O155  1  0.57199421  0.68059456  0.76742692  1
  O2-  O156  1  0.17988562  0.42764962  0.23648418  1
  O2-  O157  1  0.17723079  0.43323038  0.57760609  1
  O2-  O158  1  0.18157330  0.42753010  0.89843580  1
  O2-  O159  1  0.17715510  0.92877401  0.23458694  1
  O2-  O160  1  0.17598003  0.92388577  0.58053560  1
  O2-  O161  1  0.18442978  0.92918905  0.89851015  1
  O2-  O162  1  0.67916137  0.42435281  0.24592638  1
  O2-  O163  1  0.67947399  0.42611820  0.57954658  1
  O2-  O164  1  0.67529119  0.42984784  0.91012300  1
  O2-  O165  1  0.67888799  0.93131018  0.24524033  1
  O2-  O166  1  0.68436657  0.92801853  0.57817888  1
  O2-  O167  1  0.67317680  0.92762569  0.91230384  1
  O2-  O168  1  0.43341639  0.32201613  0.09030555  1
  O2-  O169  1  0.42975481  0.32038973  0.41989760  1
  O2-  O170  1  0.43012389  0.32274133  0.76491622  1
  O2-  O171  1  0.43054780  0.82452760  0.08771793  1
  O2-  O172  1  0.43205920  0.82414997  0.42777936  1
  O2-  O173  1  0.43117933  0.81999620  0.76621253  1
  O2-  O174  1  0.91949873  0.32213194  0.09122083  1
  O2-  O175  1  0.92369290  0.31744027  0.42086525  1
  O2-  O176  1  0.93090105  0.32016320  0.76688295  1
  O2-  O177  1  0.92642641  0.81870607  0.09933705  1
  O2-  O178  1  0.92624648  0.82012525  0.42494209  1
  O2-  O179  1  0.92497300  0.82152650  0.75591867  1
  O2-  O180  1  0.32043643  0.06983327  0.23217227  1
  O2-  O181  1  0.32025905  0.06886642  0.56801117  1
  O2-  O182  1  0.32747370  0.07226475  0.90828410  1
  O2-  O183  1  0.32055418  0.56579900  0.23388294  1
  O2-  O184  1  0.32212587  0.56990468  0.57578593  1
  O2-  O185  1  0.33150706  0.56679228  0.90828573  1
  O2-  O186  1  0.82051697  0.07064516  0.23639144  1
  O2-  O187  1  0.81944213  0.07188548  0.57793643  1
  O2-  O188  1  0.81586660  0.07226714  0.89953334  1
  O2-  O189  1  0.81730877  0.56928748  0.23423854  1
  O2-  O190  1  0.82026509  0.57264643  0.58021689  1
  O2-  O191  1  0.81691880  0.57147965  0.90894866  1
  O2-  O192  1  0.03634700  0.08165001  0.26817104  1
  O2-  O193  1  0.04443913  0.07798715  0.59987633  1
  O2-  O194  1  0.03994813  0.08476918  0.93202383  1
  O2-  O195  1  0.03380547  0.58075538  0.26920381  1
  O2-  O196  1  0.03480418  0.58644587  0.59851373  1
  O2-  O197  1  0.03971837  0.57829985  0.93338189  1
  O2-  O198  1  0.54971943  0.08749521  0.26752218  1
  O2-  O199  1  0.55379295  0.07762727  0.60248636  1
  O2-  O200  1  0.55208742  0.08547422  0.94122617  1
  O2-  O201  1  0.54916096  0.57655809  0.26623000  1
  O2-  O202  1  0.55560768  0.57785844  0.60299912  1
  O2-  O203  1  0.54254798  0.58554167  0.93735978  1
  O2-  O204  1  0.16721102  0.21074147  0.26389967  1
  O2-  O205  1  0.16878365  0.20762497  0.59864150  1
  O2-  O206  1  0.16829059  0.21158385  0.93296806  1
  O2-  O207  1  0.16702202  0.70259160  0.26549088  1
  O2-  O208  1  0.16709932  0.70615150  0.59970859  1
  O2-  O209  1  0.17238931  0.70191842  0.93360891  1
  O2-  O210  1  0.66361629  0.21252738  0.26816855  1
  O2-  O211  1  0.66592227  0.21371674  0.59809077  1
  O2-  O212  1  0.66254757  0.21257685  0.93900004  1
  O2-  O213  1  0.66939915  0.71083206  0.26400294  1
  O2-  O214  1  0.67061910  0.71211689  0.60240690  1
  O2-  O215  1  0.66168257  0.70416938  0.93605741  1
  O2-  O216  1  0.07968703  0.45248914  0.06623871  1
  O2-  O217  1  0.07697173  0.45085005  0.40200153  1
  O2-  O218  1  0.08667718  0.46206361  0.72941888  1
  O2-  O219  1  0.08430707  0.95801173  0.06462922  1
  O2-  O220  1  0.08147535  0.95495359  0.40431465  1
  O2-  O221  1  0.08201083  0.94999724  0.73095374  1
  O2-  O222  1  0.58616073  0.45725316  0.06391977  1
  O2-  O223  1  0.58091934  0.44601952  0.39516618  1
  O2-  O224  1  0.58710612  0.45560342  0.73294989  1
  O2-  O225  1  0.58454140  0.95493275  0.06606770  1
  O2-  O226  1  0.58492334  0.95648913  0.39580238  1
  O2-  O227  1  0.58952717  0.95554362  0.73180438  1
  O2-  O228  1  0.21592388  0.33533622  0.06719164  1
  O2-  O229  1  0.21112715  0.33175102  0.40213250  1
  O2-  O230  1  0.20547007  0.33908093  0.72875396  1
  O2-  O231  1  0.21274298  0.83183535  0.06450559  1
  O2-  O232  1  0.20554575  0.82765641  0.39858185  1
  O2-  O233  1  0.20588813  0.83276614  0.73203659  1
  O2-  O234  1  0.70435568  0.33897456  0.06501482  1
  O2-  O235  1  0.70587591  0.33559807  0.40026142  1
  O2-  O236  1  0.70902165  0.33802299  0.73392746  1
  O2-  O237  1  0.69846507  0.83091621  0.06223164  1
  O2-  O238  1  0.70401479  0.83649088  0.39747319  1
  O2-  O239  1  0.71041196  0.83887698  0.73326600  1
  O2-  O240  1  0.45887362  0.40971529  0.26515788  1
  O2-  O241  1  0.46250543  0.41638230  0.59619840  1
  O2-  O242  1  0.46316646  0.41049611  0.93667559  1
  O2-  O243  1  0.46180122  0.91908820  0.25973968  1
  O2-  O244  1  0.46274748  0.91703510  0.59932465  1
  O2-  O245  1  0.46061825  0.91408927  0.93558017  1
  O2-  O246  1  0.94836384  0.41551739  0.27206585  1
  O2-  O247  1  0.95507676  0.42011502  0.60036254  1
  O2-  O248  1  0.94654736  0.41635393  0.94049156  1
  O2-  O249  1  0.95209609  0.91734925  0.27606539  1
  O2-  O250  1  0.94785682  0.91816544  0.60593768  1
  O2-  O251  1  0.95590168  0.91912995  0.93176238  1
  O2-  O252  1  0.33781489  0.29125629  0.26656422  1
  O2-  O253  1  0.32799261  0.29981170  0.59821576  1
  O2-  O254  1  0.33902960  0.29675201  0.93667228  1
  O2-  O255  1  0.33046934  0.79289754  0.26088932  1
  O2-  O256  1  0.32981041  0.79791971  0.59944059  1
  O2-  O257  1  0.33941403  0.79618270  0.93354833  1
  O2-  O258  1  0.83155137  0.29517639  0.26972887  1
  O2-  O259  1  0.83030056  0.29827477  0.59995607  1
  O2-  O260  1  0.83122486  0.29465617  0.93889778  1
  O2-  O261  1  0.83471168  0.79702851  0.27266228  1
  O2-  O262  1  0.83516404  0.79535798  0.60377863  1
  O2-  O263  1  0.82927431  0.79360680  0.93196975  1
  O2-  O264  1  0.41907189  0.04821507  0.05968846  1
  O2-  O265  1  0.42322348  0.04694778  0.39579983  1
  O2-  O266  1  0.41861739  0.04054381  0.73375805  1
  O2-  O267  1  0.41453096  0.53821601  0.06351992  1
  O2-  O268  1  0.41925204  0.53841489  0.39893394  1
  O2-  O269  1  0.41526450  0.54258824  0.72688507  1
  O2-  O270  1  0.91689313  0.04006654  0.06644641  1
  O2-  O271  1  0.91501978  0.03979520  0.40725287  1
  O2-  O272  1  0.91345370  0.04591391  0.72945279  1
  O2-  O273  1  0.90988308  0.54473194  0.06246278  1
  O2-  O274  1  0.91166547  0.53770432  0.40520274  1
  O2-  O275  1  0.91205246  0.54122379  0.73312870  1
  O2-  O276  1  0.30199055  0.16790325  0.05774218  1
  O2-  O277  1  0.29399594  0.16862205  0.39772607  1
  O2-  O278  1  0.29259947  0.16982901  0.73328429  1
  O2-  O279  1  0.30768807  0.66793023  0.05555115  1
  O2-  O280  1  0.29797663  0.67026248  0.39777011  1
  O2-  O281  1  0.29673146  0.66444213  0.72685730  1
  O2-  O282  1  0.78624323  0.16478318  0.06935100  1
  O2-  O283  1  0.78844582  0.16758524  0.40274437  1
  O2-  O284  1  0.79075884  0.16546905  0.72844924  1
  O2-  O285  1  0.78895627  0.66336998  0.06116249  1
  O2-  O286  1  0.78948092  0.66862557  0.40267430  1
  O2-  O287  1  0.79369141  0.66396691  0.73291668  1
