# generated using pymatgen
data_Ca2Al2SiO7
_symmetry_space_group_name_H-M   'P 1'
_cell_length_a   15.46643298
_cell_length_b   15.46622188
_cell_length_c   15.28908111
_cell_angle_alpha   89.99761799
_cell_angle_beta   89.98459980
_cell_angle_gamma   90.03696372
_symmetry_Int_Tables_number   1
_chemical_formula_structural   Ca2Al2SiO7
_chemical_formula_sum   'Ca48 Al48 Si24 O168'
_cell_volume   3657.25867089
_cell_formula_units_Z   24
loop_
 _symmetry_equiv_pos_site_id
 _symmetry_equiv_pos_as_xyz
  1  'x, y, z'
loop_
 _atom_type_symbol
 _atom_type_oxidation_number
  Ca2+  2.0
  Al0+  0.0
  Si0+  0.0
  O2-  -2.0
loop_
 _atom_site_type_symbol
 _atom_site_label
 _atom_site_symmetry_multiplicity
 _atom_site_fract_x
 _atom_site_fract_y
 _atom_site_fract_z
 _atom_site_occupancy
  Ca2+  Ca0  1  0.17517095  0.07755106  0.16783693  1
  Ca2+  Ca1  1  0.17733052  0.07960245  0.50351847  1
  Ca2+  Ca2  1  0.17840499  0.08014591  0.83924086  1
  Ca2+  Ca3  1  0.17237612  0.58294243  0.16945520  1
  Ca2+  Ca4  1  0.17099978  0.58707529  0.50696310  1
  Ca2+  Ca5  1  0.17386619  0.57782049  0.83248604  1
  Ca2+  Ca6  1  0.67577748  0.07329336  0.17116048  1
  Ca2+  Ca7  1  0.67027919  0.07152954  0.50088740  1
  Ca2+  Ca8  1  0.66979925  0.07231329  0.83693460  1
  Ca2+  Ca9  1  0.67239647  0.58235845  0.17444045  1
  Ca2+  Ca10  1  0.68076583  0.58386590  0.50709497  1
  Ca2+  Ca11  1  0.66866982  0.57816716  0.82939235  1
  Ca2+  Ca12  1  0.08459181  0.33248686  0.16160209  1
  Ca2+  Ca13  1  0.08175953  0.33733597  0.50222065  1
  Ca2+  Ca14  1  0.08394111  0.33728687  0.82425902  1
  Ca2+  Ca15  1  0.08209955  0.83238735  0.16521156  1
  Ca2+  Ca16  1  0.07851881  0.81774412  0.49105144  1
  Ca2+  Ca17  1  0.08763037  0.82722760  0.82652244  1
  Ca2+  Ca18  1  0.58085166  0.32867485  0.16076481  1
  Ca2+  Ca19  1  0.57884885  0.33796225  0.50065920  1
  Ca2+  Ca20  1  0.57630413  0.33001712  0.82048301  1
  Ca2+  Ca21  1  0.58032766  0.84165387  0.16752986  1
  Ca2+  Ca22  1  0.57676204  0.84036493  0.49721205  1
  Ca2+  Ca23  1  0.57964161  0.83689228  0.82694362  1
  Ca2+  Ca24  1  0.32859963  0.42851206  0.17013438  1
  Ca2+  Ca25  1  0.32904365  0.43064240  0.51100967  1
  Ca2+  Ca26  1  0.32562033  0.42242413  0.83654192  1
  Ca2+  Ca27  1  0.33125349  0.92236878  0.17186828  1
  Ca2+  Ca28  1  0.34567876  0.92429856  0.50467087  1
  Ca2+  Ca29  1  0.33187610  0.92406321  0.83623959  1
  Ca2+  Ca30  1  0.83141036  0.42332135  0.17375225  1
  Ca2+  Ca31  1  0.83223041  0.42588725  0.50988221  1
  Ca2+  Ca32  1  0.83733764  0.41962519  0.82701826  1
  Ca2+  Ca33  1  0.82475118  0.91884570  0.17779365  1
  Ca2+  Ca34  1  0.82337299  0.90680194  0.50179939  1
  Ca2+  Ca35  1  0.82127664  0.91860040  0.84192820  1
  Ca2+  Ca36  1  0.41315021  0.16187102  0.16326086  1
  Ca2+  Ca37  1  0.41095710  0.17064529  0.49793552  1
  Ca2+  Ca38  1  0.41161280  0.16986279  0.82321903  1
  Ca2+  Ca39  1  0.41029530  0.67020006  0.16512246  1
  Ca2+  Ca40  1  0.41034372  0.67765889  0.49404535  1
  Ca2+  Ca41  1  0.41161197  0.67194228  0.82376099  1
  Ca2+  Ca42  1  0.91211348  0.16283977  0.16141478  1
  Ca2+  Ca43  1  0.91051619  0.17389256  0.49573175  1
  Ca2+  Ca44  1  0.91763325  0.17113096  0.82659654  1
  Ca2+  Ca45  1  0.91820225  0.67018699  0.16991221  1
  Ca2+  Ca46  1  0.92529491  0.66124186  0.49302785  1
  Ca2+  Ca47  1  0.92593779  0.66471919  0.82232150  1
  Al0+  Al48  1  0.00060868  0.00183304  0.00199872  1
  Al0+  Al49  1  0.00042919  0.00251073  0.33361882  1
  Al0+  Al50  1  0.00039419  -0.00024880  0.66406491  1
  Al0+  Al51  1  -0.00012558  0.50025590  0.00246117  1
  Al0+  Al52  1  -0.00083812  0.49752162  0.32990971  1
  Al0+  Al53  1  0.00097735  0.49907449  0.66492813  1
  Al0+  Al54  1  0.50238651  0.00011758  0.00417292  1
  Al0+  Al55  1  0.50116674  0.00154875  0.33484768  1
  Al0+  Al56  1  0.50206128  0.00102650  0.67155235  1
  Al0+  Al57  1  0.50099776  0.50039578  0.00174693  1
  Al0+  Al58  1  0.49627746  0.49988264  0.33496649  1
  Al0+  Al59  1  0.50248087  0.50130831  0.66766748  1
  Al0+  Al60  1  0.24846679  0.25157366  0.00517912  1
  Al0+  Al61  1  0.24865172  0.24993376  0.33460342  1
  Al0+  Al62  1  0.25083746  0.25029108  0.66702739  1
  Al0+  Al63  1  0.24955208  0.75024957  0.00363084  1
  Al0+  Al64  1  0.24943316  0.74994762  0.32630421  1
  Al0+  Al65  1  0.25007609  0.75227569  0.66032692  1
  Al0+  Al66  1  0.74865662  0.25111415  -0.00082618  1
  Al0+  Al67  1  0.74736964  0.24793185  0.33372132  1
  Al0+  Al68  1  0.75009999  0.24910263  0.66411480  1
  Al0+  Al69  1  0.74863515  0.74871343  0.00169086  1
  Al0+  Al70  1  0.74941404  0.74742188  0.33788505  1
  Al0+  Al71  1  0.74948529  0.74981829  0.67737741  1
  Al0+  Al72  1  0.17811787  0.92758257  0.01413944  1
  Al0+  Al73  1  0.68045974  0.92821483  0.35042668  1
  Al0+  Al74  1  0.82370967  0.07250495  0.35023370  1
  Al0+  Al75  1  0.67881399  0.42664271  0.68100124  1
  Al0+  Al76  1  0.43151871  0.82128350  0.65470581  1
  Al0+  Al77  1  0.92996415  0.31850472  0.65230591  1
  Al0+  Al78  1  0.68047822  0.92962861  0.68218960  1
  Al0+  Al79  1  0.92751542  0.82119559  0.31915536  1
  Al0+  Al80  1  0.07021525  0.68014315  0.65411642  1
  Al0+  Al81  1  0.68017508  0.92662356  0.01752492  1
  Al0+  Al82  1  0.42825785  0.32262556  0.65305128  1
  Al0+  Al83  1  0.32309849  0.57122276  0.01492057  1
  Al0+  Al84  1  0.43099047  0.82251506  0.31803168  1
  Al0+  Al85  1  0.32220245  0.57566497  0.67930896  1
  Al0+  Al86  1  0.82265824  0.57024851  0.68288403  1
  Al0+  Al87  1  0.17724987  0.42996524  0.01592677  1
  Al0+  Al88  1  0.82057589  0.56844671  0.34620079  1
  Al0+  Al89  1  0.82047053  0.07290011  0.01255713  1
  Al0+  Al90  1  0.32037512  0.06983241  0.34835856  1
  Al0+  Al91  1  0.32023596  0.07012238  0.67909554  1
  Al0+  Al92  1  0.07096130  0.67654433  0.31449275  1
  Al0+  Al93  1  0.32172573  0.07129873  0.01431457  1
  Al0+  Al94  1  0.31925463  0.57258454  0.34858929  1
  Al0+  Al95  1  0.18008667  0.42980915  0.67960984  1
  Si0+  Si96  1  0.67587356  0.42640055  0.34823418  1
  Si0+  Si97  1  0.07283107  0.17977920  0.31652457  1
  Si0+  Si98  1  0.57275296  0.67683331  0.98406200  1
  Si0+  Si99  1  0.42893923  0.32107074  0.98586391  1
  Si0+  Si100  1  0.82133872  0.56987940  0.01529105  1
  Si0+  Si101  1  0.42993278  0.82053858  0.98551498  1
  Si0+  Si102  1  0.56982529  0.18058697  0.31652904  1
  Si0+  Si103  1  0.92554329  0.82275908  0.65331471  1
  Si0+  Si104  1  0.17747983  0.92740865  0.35040542  1
  Si0+  Si105  1  0.67871192  0.42930977  0.01453806  1
  Si0+  Si106  1  0.57091167  0.17980247  0.98429151  1
  Si0+  Si107  1  0.92772513  0.82145615  0.98544719  1
  Si0+  Si108  1  0.42714773  0.32148008  0.31678947  1
  Si0+  Si109  1  0.57459415  0.67791250  0.65078537  1
  Si0+  Si110  1  0.82410579  0.07245240  0.68236178  1
  Si0+  Si111  1  0.17790940  0.42768427  0.35035718  1
  Si0+  Si112  1  0.07377927  0.17584320  0.64878655  1
  Si0+  Si113  1  0.57056061  0.67577507  0.31774705  1
  Si0+  Si114  1  0.57142501  0.17813633  0.64859477  1
  Si0+  Si115  1  0.17612482  0.92818514  0.68012340  1
  Si0+  Si116  1  0.07173607  0.17959217  0.98436832  1
  Si0+  Si117  1  0.92822533  0.32204532  0.98465843  1
  Si0+  Si118  1  0.06989538  0.67919838  0.98357053  1
  Si0+  Si119  1  0.92726081  0.31825367  0.31676109  1
  O2-  O120  1  0.25194471  -0.00236228  0.06438217  1
  O2-  O121  1  0.24977109  -0.00808819  0.39548396  1
  O2-  O122  1  0.24328802  -0.00205502  0.72477604  1
  O2-  O123  1  0.24971631  0.50092524  0.06550061  1
  O2-  O124  1  0.24211439  0.50020295  0.39352275  1
  O2-  O125  1  0.25434719  0.49969023  0.72903806  1
  O2-  O126  1  0.75535865  -0.00353463  0.06464445  1
  O2-  O127  1  0.75808711  -0.00504087  0.39965244  1
  O2-  O128  1  0.75935191  0.00090245  0.72701009  1
  O2-  O129  1  0.74925397  0.49978518  0.05745949  1
  O2-  O130  1  0.74431845  0.49490392  0.39126415  1
  O2-  O131  1  0.75046709  0.49794131  0.73285283  1
  O2-  O132  1  -0.00278211  0.24673501  0.27388765  1
  O2-  O133  1  0.00297284  0.24259206  0.60448716  1
  O2-  O134  1  -0.00087662  0.25026282  0.94354856  1
  O2-  O135  1  0.00014644  0.75125470  0.26577649  1
  O2-  O136  1  -0.00613101  0.75429706  0.60942089  1
  O2-  O137  1  0.00029334  0.75240817  0.94169345  1
  O2-  O138  1  0.49861644  0.25148695  0.27320687  1
  O2-  O139  1  0.50413762  0.24892339  0.60493407  1
  O2-  O140  1  0.49583050  0.24660209  0.94263361  1
  O2-  O141  1  0.50378012  0.74520279  0.27124314  1
  O2-  O142  1  0.50319916  0.74373011  0.60720700  1
  O2-  O143  1  0.50029565  0.74782963  0.94393166  1
  O2-  O144  1  0.07222224  0.18099614  0.08952811  1
  O2-  O145  1  0.07693686  0.18355356  0.42121448  1
  O2-  O146  1  0.07259255  0.17468201  0.75457593  1
  O2-  O147  1  0.06699731  0.67703342  0.08823567  1
  O2-  O148  1  0.06925011  0.67526919  0.42805323  1
  O2-  O149  1  0.07047300  0.68213099  0.76805978  1
  O2-  O150  1  0.57324196  0.18391303  0.08949048  1
  O2-  O151  1  0.57085432  0.18234307  0.42130513  1
  O2-  O152  1  0.57020930  0.17828841  0.75470052  1
  O2-  O153  1  0.57543910  0.67360761  0.08890045  1
  O2-  O154  1  0.56912436  0.67315974  0.42284253  1
  O2-  O155  1  0.57539896  0.68001392  0.75690561  1
  O2-  O156  1  0.18026658  0.42516912  0.24458617  1
  O2-  O157  1  0.18002500  0.43060550  0.56606491  1
  O2-  O158  1  0.17656764  0.43037229  0.90289210  1
  O2-  O159  1  0.17791297  0.93137137  0.24462205  1
  O2-  O160  1  0.17421465  0.92966924  0.57490024  1
  O2-  O161  1  0.17982796  0.92823225  0.90010490  1
  O2-  O162  1  0.67750222  0.42587830  0.24167312  1
  O2-  O163  1  0.68089393  0.42814297  0.56732675  1
  O2-  O164  1  0.67763633  0.42866749  0.91024443  1
  O2-  O165  1  0.67920859  0.93210948  0.23698495  1
  O2-  O166  1  0.67979517  0.93055079  0.56963537  1
  O2-  O167  1  0.67921573  0.92850516  0.90385053  1
  O2-  O168  1  0.43324371  0.32198902  0.09130878  1
  O2-  O169  1  0.42821136  0.32120476  0.42158427  1
  O2-  O170  1  0.42863472  0.31903489  0.76679586  1
  O2-  O171  1  0.43146832  0.82063101  0.09056049  1
  O2-  O172  1  0.43364904  0.82378376  0.43101378  1
  O2-  O173  1  0.43210924  0.82223518  0.76839746  1
  O2-  O174  1  0.92649985  0.32248600  0.08996745  1
  O2-  O175  1  0.92732145  0.31864466  0.42147828  1
  O2-  O176  1  0.93091975  0.31635456  0.76600868  1
  O2-  O177  1  0.92659159  0.81807674  0.09011756  1
  O2-  O178  1  0.92917351  0.81778590  0.43280333  1
  O2-  O179  1  0.92800233  0.82347890  0.75943771  1
  O2-  O180  1  0.31764617  0.07099246  0.23537822  1
  O2-  O181  1  0.32009815  0.06922626  0.56602064  1
  O2-  O182  1  0.32053510  0.07182899  0.90070705  1
  O2-  O183  1  0.32174348  0.56768812  0.23549904  1
  O2-  O184  1  0.31842290  0.57604687  0.56584019  1
  O2-  O185  1  0.32374379  0.57027030  0.90168161  1
  O2-  O186  1  0.81798288  0.07634073  0.23684586  1
  O2-  O187  1  0.82254955  0.07346513  0.57721908  1
  O2-  O188  1  0.81736939  0.07397700  0.89885945  1
  O2-  O189  1  0.81810041  0.56555196  0.23216355  1
  O2-  O190  1  0.82207899  0.56927184  0.56947225  1
  O2-  O191  1  0.82302451  0.56835648  0.91071172  1
  O2-  O192  1  0.04998312  0.08702779  0.26899022  1
  O2-  O193  1  0.05112293  0.08162418  0.60178947  1
  O2-  O194  1  0.04636311  0.08754039  0.93549567  1
  O2-  O195  1  0.03949122  0.57816221  0.26140167  1
  O2-  O196  1  0.03973918  0.58425262  0.59979964  1
  O2-  O197  1  0.03811585  0.58774219  0.93707433  1
  O2-  O198  1  0.54085675  0.08990428  0.26841049  1
  O2-  O199  1  0.54219548  0.08588116  0.60295282  1
  O2-  O200  1  0.54776513  0.08589931  0.93896889  1
  O2-  O201  1  0.54428399  0.58201797  0.26971147  1
  O2-  O202  1  0.55687311  0.58280597  0.60550514  1
  O2-  O203  1  0.54657134  0.58424152  0.93641167  1
  O2-  O204  1  0.16222508  0.21315151  0.26629144  1
  O2-  O205  1  0.16593858  0.20430995  0.60184810  1
  O2-  O206  1  0.16337006  0.20944515  0.93701478  1
  O2-  O207  1  0.16871945  0.70450380  0.26020666  1
  O2-  O208  1  0.16410514  0.71331472  0.59673680  1
  O2-  O209  1  0.16302756  0.70588556  0.93804812  1
  O2-  O210  1  0.66065942  0.20988059  0.26634361  1
  O2-  O211  1  0.66519351  0.20132878  0.60210161  1
  O2-  O212  1  0.66043899  0.21250867  0.93481365  1
  O2-  O213  1  0.66526548  0.69910898  0.27265809  1
  O2-  O214  1  0.66841572  0.70727643  0.60684167  1
  O2-  O215  1  0.66432378  0.70482409  0.93534871  1
  O2-  O216  1  0.07883361  0.45776595  0.07001331  1
  O2-  O217  1  0.08162765  0.44758461  0.39199206  1
  O2-  O218  1  0.08262856  0.45851321  0.73311571  1
  O2-  O219  1  0.08073341  0.95742602  0.06761238  1
  O2-  O220  1  0.08570591  0.95691917  0.39691160  1
  O2-  O221  1  0.08178171  0.95042828  0.72745105  1
  O2-  O222  1  0.58805201  0.45625096  0.06456847  1
  O2-  O223  1  0.58172425  0.45029637  0.39255614  1
  O2-  O224  1  0.58154414  0.45531958  0.73611495  1
  O2-  O225  1  0.58350947  0.95875339  0.07022222  1
  O2-  O226  1  0.58470210  0.96530361  0.40254233  1
  O2-  O227  1  0.58725405  0.96621391  0.73887690  1
  O2-  O228  1  0.20436133  0.33222302  0.07028711  1
  O2-  O229  1  0.20670193  0.33575826  0.39706487  1
  O2-  O230  1  0.20553630  0.33066427  0.73248856  1
  O2-  O231  1  0.20357937  0.82990147  0.06849427  1
  O2-  O232  1  0.19875392  0.83145451  0.39123567  1
  O2-  O233  1  0.20504125  0.83625082  0.72650086  1
  O2-  O234  1  0.70705828  0.33825833  0.06321079  1
  O2-  O235  1  0.70065656  0.33317443  0.39348788  1
  O2-  O236  1  0.70638552  0.32751141  0.73335488  1
  O2-  O237  1  0.70468113  0.82683703  0.06904976  1
  O2-  O238  1  0.70196349  0.82807557  0.40213902  1
  O2-  O239  1  0.70663046  0.83397951  0.73996543  1
  O2-  O240  1  0.45524558  0.41312418  0.26838740  1
  O2-  O241  1  0.45966412  0.41953231  0.59921960  1
  O2-  O242  1  0.46083238  0.41186851  0.93912342  1
  O2-  O243  1  0.46402172  0.91917007  0.26417874  1
  O2-  O244  1  0.46716482  0.91744658  0.60225082  1
  O2-  O245  1  0.45950078  0.91295064  0.93946109  1
  O2-  O246  1  0.95560106  0.40877805  0.26674909  1
  O2-  O247  1  0.96163673  0.41419486  0.59754621  1
  O2-  O248  1  0.95680551  0.41408931  0.93787755  1
  O2-  O249  1  0.95318345  0.92225858  0.26861734  1
  O2-  O250  1  0.94755103  0.91686883  0.60635547  1
  O2-  O251  1  0.95216117  0.91517178  0.93982078  1
  O2-  O252  1  0.33558539  0.29184998  0.26977023  1
  O2-  O253  1  0.33289294  0.29008340  0.59774892  1
  O2-  O254  1  0.33501008  0.29655726  0.94156391  1
  O2-  O255  1  0.33395604  0.79463870  0.26347161  1
  O2-  O256  1  0.33474260  0.79652663  0.59838197  1
  O2-  O257  1  0.33689141  0.79460322  0.93923637  1
  O2-  O258  1  0.83401382  0.29254934  0.26959466  1
  O2-  O259  1  0.83305863  0.28959936  0.59717959  1
  O2-  O260  1  0.83596401  0.29523164  0.93718116  1
  O2-  O261  1  0.82883104  0.78930912  0.26706374  1
  O2-  O262  1  0.83105184  0.79610989  0.61075698  1
  O2-  O263  1  0.83592851  0.79119600  0.93832240  1
  O2-  O264  1  0.42077139  0.04625462  0.06633407  1
  O2-  O265  1  0.41818320  0.04392745  0.40065438  1
  O2-  O266  1  0.41560179  0.03975169  0.73467048  1
  O2-  O267  1  0.42122366  0.54173088  0.06879668  1
  O2-  O268  1  0.41534159  0.53966966  0.40210042  1
  O2-  O269  1  0.42306732  0.55390640  0.72859881  1
  O2-  O270  1  0.92144649  0.05382532  0.06222087  1
  O2-  O271  1  0.92597198  0.05705722  0.39895926  1
  O2-  O272  1  0.91991802  0.05185901  0.72664436  1
  O2-  O273  1  0.91118364  0.54018385  0.06451441  1
  O2-  O274  1  0.91643475  0.53396714  0.39817391  1
  O2-  O275  1  0.91927799  0.53763820  0.73615425  1
  O2-  O276  1  0.29229829  0.16884649  0.06786998  1
  O2-  O277  1  0.28647756  0.16647736  0.40057125  1
  O2-  O278  1  0.29021779  0.16632211  0.73329184  1
  O2-  O279  1  0.29497151  0.66921130  0.06713531  1
  O2-  O280  1  0.29167758  0.67168784  0.39755181  1
  O2-  O281  1  0.28923271  0.67299977  0.73207488  1
  O2-  O282  1  0.78798397  0.17045356  0.06606101  1
  O2-  O283  1  0.78681056  0.16890267  0.40293583  1
  O2-  O284  1  0.79548759  0.16473596  0.72877246  1
  O2-  O285  1  0.79275773  0.66109925  0.06231112  1
  O2-  O286  1  0.79194770  0.66346928  0.40217305  1
  O2-  O287  1  0.79503249  0.66686148  0.73953221  1
