# generated using pymatgen
data_Ca2Al2SiO7
_symmetry_space_group_name_H-M   'P 1'
_cell_length_a   15.45820892
_cell_length_b   15.45811409
_cell_length_c   15.28363379
_cell_angle_alpha   90.00121921
_cell_angle_beta   90.00826917
_cell_angle_gamma   89.98918703
_symmetry_Int_Tables_number   1
_chemical_formula_structural   Ca2Al2SiO7
_chemical_formula_sum   'Ca48 Al48 Si24 O168'
_cell_volume   3652.09689455
_cell_formula_units_Z   24
loop_
 _symmetry_equiv_pos_site_id
 _symmetry_equiv_pos_as_xyz
  1  'x, y, z'
loop_
 _atom_type_symbol
 _atom_type_oxidation_number
  Ca2+  2.0
  Al0+  0.0
  Si0+  0.0
  O2-  -2.0
loop_
 _atom_site_type_symbol
 _atom_site_label
 _atom_site_symmetry_multiplicity
 _atom_site_fract_x
 _atom_site_fract_y
 _atom_site_fract_z
 _atom_site_occupancy
  Ca2+  Ca0  1  0.16420281  0.06870562  0.17119762  1
  Ca2+  Ca1  1  0.16457657  0.07619613  0.50262485  1
  Ca2+  Ca2  1  0.17103054  0.07422296  0.84213198  1
  Ca2+  Ca3  1  0.16881586  0.57730223  0.17413528  1
  Ca2+  Ca4  1  0.17087665  0.58005759  0.50101824  1
  Ca2+  Ca5  1  0.16310203  0.58329282  0.83891677  1
  Ca2+  Ca6  1  0.66523470  0.08135698  0.16974183  1
  Ca2+  Ca7  1  0.66435404  0.08302523  0.50589595  1
  Ca2+  Ca8  1  0.67532898  0.08949754  0.83726780  1
  Ca2+  Ca9  1  0.67364053  0.58714250  0.17449405  1
  Ca2+  Ca10  1  0.67679014  0.57920766  0.51148886  1
  Ca2+  Ca11  1  0.66084071  0.58335881  0.83334273  1
  Ca2+  Ca12  1  0.07974804  0.34330999  0.16604675  1
  Ca2+  Ca13  1  0.07671747  0.33523681  0.49043387  1
  Ca2+  Ca14  1  0.08356251  0.33398857  0.83099093  1
  Ca2+  Ca15  1  0.08081811  0.82965384  0.15609958  1
  Ca2+  Ca16  1  0.07697704  0.82912109  0.49968150  1
  Ca2+  Ca17  1  0.07832638  0.82716143  0.82922073  1
  Ca2+  Ca18  1  0.57971483  0.32354591  0.16348483  1
  Ca2+  Ca19  1  0.58455991  0.32609495  0.49512492  1
  Ca2+  Ca20  1  0.58278001  0.32569468  0.82307919  1
  Ca2+  Ca21  1  0.58514523  0.82869339  0.16243995  1
  Ca2+  Ca22  1  0.58305730  0.83271084  0.49843021  1
  Ca2+  Ca23  1  0.58011927  0.82217603  0.82587443  1
  Ca2+  Ca24  1  0.32431697  0.42087886  0.17619271  1
  Ca2+  Ca25  1  0.33771707  0.41496074  0.50115566  1
  Ca2+  Ca26  1  0.32942956  0.41515561  0.83789005  1
  Ca2+  Ca27  1  0.32007656  0.91182335  0.17285290  1
  Ca2+  Ca28  1  0.32934189  0.91216268  0.50369448  1
  Ca2+  Ca29  1  0.33065778  0.91201149  0.83668809  1
  Ca2+  Ca30  1  0.83449889  0.42534158  0.17572412  1
  Ca2+  Ca31  1  0.83184068  0.42481668  0.50648785  1
  Ca2+  Ca32  1  0.82583508  0.42404701  0.83055767  1
  Ca2+  Ca33  1  0.82959835  0.92032564  0.17013710  1
  Ca2+  Ca34  1  0.82710815  0.92220403  0.50733314  1
  Ca2+  Ca35  1  0.84320186  0.92461481  0.83647659  1
  Ca2+  Ca36  1  0.42602025  0.16783118  0.16559720  1
  Ca2+  Ca37  1  0.42673394  0.17866373  0.49396822  1
  Ca2+  Ca38  1  0.42956434  0.17029000  0.82388473  1
  Ca2+  Ca39  1  0.42073682  0.66220001  0.16417546  1
  Ca2+  Ca40  1  0.42089767  0.66554983  0.50059734  1
  Ca2+  Ca41  1  0.42547661  0.67081984  0.82638788  1
  Ca2+  Ca42  1  0.91291405  0.17331441  0.16408915  1
  Ca2+  Ca43  1  0.91200832  0.17305683  0.49654519  1
  Ca2+  Ca44  1  0.91401452  0.16268292  0.82895306  1
  Ca2+  Ca45  1  0.92138423  0.67328373  0.15721925  1
  Ca2+  Ca46  1  0.91752272  0.66107721  0.49867215  1
  Ca2+  Ca47  1  0.92532879  0.67660191  0.82529784  1
  Al0+  Al48  1  0.00009942  0.00346212  0.00684396  1
  Al0+  Al49  1  -0.00152022  -0.00024207  0.33786411  1
  Al0+  Al50  1  0.00020873  -0.00206989  0.66687036  1
  Al0+  Al51  1  -0.00152709  0.50033820  -0.00118915  1
  Al0+  Al52  1  0.00153582  0.50071365  0.33571596  1
  Al0+  Al53  1  0.00002748  0.49953972  0.66861198  1
  Al0+  Al54  1  0.50193330  0.00171242  -0.00430546  1
  Al0+  Al55  1  0.49888724  -0.00217735  0.33180373  1
  Al0+  Al56  1  0.49894013  0.00019862  0.66125055  1
  Al0+  Al57  1  0.49940520  0.49844965  -0.00213451  1
  Al0+  Al58  1  0.50025953  0.49938611  0.33161287  1
  Al0+  Al59  1  0.49770632  0.50036480  0.66565842  1
  Al0+  Al60  1  0.24865378  0.25101489  0.00634161  1
  Al0+  Al61  1  0.24927588  0.24745034  0.33125085  1
  Al0+  Al62  1  0.25065839  0.24747313  0.66463335  1
  Al0+  Al63  1  0.25084643  0.74866943  0.00144674  1
  Al0+  Al64  1  0.24959543  0.74854253  0.34156628  1
  Al0+  Al65  1  0.24808888  0.74724348  0.66095232  1
  Al0+  Al66  1  0.75013326  0.25138834  0.00117500  1
  Al0+  Al67  1  0.75198219  0.25037895  0.32258208  1
  Al0+  Al68  1  0.75113756  0.25029267  0.67104481  1
  Al0+  Al69  1  0.75005894  0.75213138  -0.00879216  1
  Al0+  Al70  1  0.75090202  0.75270624  0.34122064  1
  Al0+  Al71  1  0.75169301  0.75220775  0.66500910  1
  Al0+  Al72  1  0.18126863  0.92855231  0.01248102  1
  Al0+  Al73  1  0.82008345  0.06975276  0.67972009  1
  Al0+  Al74  1  0.32345755  0.56984751  0.35030950  1
  Al0+  Al75  1  0.06949255  0.67622935  0.64853384  1
  Al0+  Al76  1  0.82091583  0.57184682  0.34540090  1
  Al0+  Al77  1  0.82056726  0.07250620  0.01621763  1
  Al0+  Al78  1  0.17689283  0.92840012  0.34995439  1
  Al0+  Al79  1  0.57418439  0.18080927  0.65115774  1
  Al0+  Al80  1  0.17715376  0.42966340  0.01383125  1
  Al0+  Al81  1  0.17941273  0.42725481  0.34963771  1
  Al0+  Al82  1  0.92992264  0.82498096  0.98610651  1
  Al0+  Al83  1  0.93164875  0.32219574  0.31969639  1
  Al0+  Al84  1  0.57222320  0.67849293  0.64976505  1
  Al0+  Al85  1  0.57138672  0.17691237  0.31592974  1
  Al0+  Al86  1  0.82278064  0.57387161  0.68482302  1
  Al0+  Al87  1  0.57126257  0.67816696  0.98818600  1
  Al0+  Al88  1  0.67745938  0.43061915  0.68102417  1
  Al0+  Al89  1  0.42740593  0.32303522  0.31507181  1
  Al0+  Al90  1  0.67798601  0.93034915  0.34655492  1
  Al0+  Al91  1  0.42640964  0.32095747  0.65246688  1
  Al0+  Al92  1  0.07181305  0.67783424  0.98683985  1
  Al0+  Al93  1  0.92968002  0.82332736  0.64929953  1
  Al0+  Al94  1  0.57178209  0.17971853  0.98372626  1
  Al0+  Al95  1  0.42829049  0.82086896  0.65092717  1
  Si0+  Si96  1  0.32432964  0.07233792  0.01659657  1
  Si0+  Si97  1  0.67945403  0.42701662  0.34610154  1
  Si0+  Si98  1  0.07127075  0.18016963  0.98666305  1
  Si0+  Si99  1  0.42654865  0.32024889  0.98373920  1
  Si0+  Si100  1  0.18019968  0.92816963  0.68244568  1
  Si0+  Si101  1  0.42738827  0.82229968  0.98646630  1
  Si0+  Si102  1  0.42714706  0.81903834  0.31769958  1
  Si0+  Si103  1  0.32359874  0.57068118  0.01547280  1
  Si0+  Si104  1  0.07098170  0.68096818  0.31835334  1
  Si0+  Si105  1  0.32194794  0.06989414  0.35046779  1
  Si0+  Si106  1  0.32065645  0.07106835  0.68121044  1
  Si0+  Si107  1  0.81852119  0.57220863  0.01321060  1
  Si0+  Si108  1  0.57308334  0.68063980  0.32024953  1
  Si0+  Si109  1  0.17932233  0.42621222  0.68157179  1
  Si0+  Si110  1  0.31927984  0.57130684  0.68340013  1
  Si0+  Si111  1  0.92810436  0.82182134  0.31852810  1
  Si0+  Si112  1  0.67484549  0.92853913  0.68461500  1
  Si0+  Si113  1  0.92894116  0.32211149  0.98332860  1
  Si0+  Si114  1  0.07203014  0.17736141  0.65380186  1
  Si0+  Si115  1  0.07128275  0.17474107  0.31595958  1
  Si0+  Si116  1  0.67749742  0.92743280  0.01452224  1
  Si0+  Si117  1  0.82019126  0.07371381  0.34940677  1
  Si0+  Si118  1  0.67807944  0.42966226  0.01617831  1
  Si0+  Si119  1  0.93093515  0.31950730  0.65447410  1
  O2-  O120  1  0.25844508  0.00062457  0.06056646  1
  O2-  O121  1  0.25091557  0.00404128  0.39619568  1
  O2-  O122  1  0.25338754  -0.00308838  0.72501238  1
  O2-  O123  1  0.25145106  0.50528313  0.05870120  1
  O2-  O124  1  0.25554066  0.49371388  0.40078771  1
  O2-  O125  1  0.24969204  0.49760115  0.72425908  1
  O2-  O126  1  0.74587045  -0.00376646  0.05966906  1
  O2-  O127  1  0.74810830  0.00927123  0.39312071  1
  O2-  O128  1  0.74484468  -0.00359101  0.72833785  1
  O2-  O129  1  0.74543891  0.50447531  0.05806699  1
  O2-  O130  1  0.74684824  0.49617875  0.39072192  1
  O2-  O131  1  0.74436266  0.50717349  0.73348620  1
  O2-  O132  1  0.00710313  0.24792935  0.27195186  1
  O2-  O133  1  0.00192330  0.24874327  0.61179635  1
  O2-  O134  1  0.00095618  0.25091548  0.94234727  1
  O2-  O135  1  0.00030774  0.75232326  0.27564581  1
  O2-  O136  1  -0.00519564  0.74548176  0.59816781  1
  O2-  O137  1  0.00259621  0.75267160  0.93771778  1
  O2-  O138  1  0.49974333  0.25023572  0.26637394  1
  O2-  O139  1  0.50369469  0.25481094  0.60276856  1
  O2-  O140  1  0.49462877  0.25221275  0.93837456  1
  O2-  O141  1  0.49924821  0.74850292  0.27616793  1
  O2-  O142  1  0.50275179  0.75271790  0.59904776  1
  O2-  O143  1  0.49658629  0.75389801  0.94361353  1
  O2-  O144  1  0.07057249  0.17964830  0.09135207  1
  O2-  O145  1  0.06779388  0.17220269  0.42198254  1
  O2-  O146  1  0.07381944  0.17821380  0.75916223  1
  O2-  O147  1  0.06947189  0.67772279  0.10100060  1
  O2-  O148  1  0.06970551  0.68103647  0.42307752  1
  O2-  O149  1  0.07232839  0.67843864  0.76228911  1
  O2-  O150  1  0.57049725  0.18015195  0.09658145  1
  O2-  O151  1  0.57230435  0.17841974  0.42912558  1
  O2-  O152  1  0.57266547  0.18153324  0.76506731  1
  O2-  O153  1  0.57183124  0.67919686  0.10202655  1
  O2-  O154  1  0.57395985  0.68279956  0.42453269  1
  O2-  O155  1  0.56643725  0.67915959  0.76386886  1
  O2-  O156  1  0.17693446  0.43434781  0.23602494  1
  O2-  O157  1  0.17863965  0.42409022  0.57709814  1
  O2-  O158  1  0.17960375  0.42693047  0.90027030  1
  O2-  O159  1  0.17748251  0.92769443  0.23644471  1
  O2-  O160  1  0.17935609  0.93192359  0.57733842  1
  O2-  O161  1  0.18314842  0.93092042  0.89915260  1
  O2-  O162  1  0.68164383  0.43019194  0.23978904  1
  O2-  O163  1  0.68322326  0.42734875  0.56731256  1
  O2-  O164  1  0.67904657  0.42870270  0.91142277  1
  O2-  O165  1  0.68161278  0.92608665  0.23310214  1
  O2-  O166  1  0.67456914  0.93200739  0.57873601  1
  O2-  O167  1  0.67504756  0.92774022  0.90952707  1
  O2-  O168  1  0.42832805  0.32009171  0.08895522  1
  O2-  O169  1  0.43031357  0.32126876  0.42829404  1
  O2-  O170  1  0.42099839  0.31482341  0.76630780  1
  O2-  O171  1  0.42639231  0.82191157  0.09229079  1
  O2-  O172  1  0.42731292  0.81970498  0.42221320  1
  O2-  O173  1  0.42652018  0.81839304  0.76519773  1
  O2-  O174  1  0.92960596  0.32357981  0.08831671  1
  O2-  O175  1  0.93093870  0.31989525  0.43309476  1
  O2-  O176  1  0.93329284  0.31889702  0.75986804  1
  O2-  O177  1  0.92882684  0.82174737  0.10059950  1
  O2-  O178  1  0.92908279  0.82191672  0.42306643  1
  O2-  O179  1  0.93828354  0.82880806  0.76258540  1
  O2-  O180  1  0.32140266  0.06513524  0.24450843  1
  O2-  O181  1  0.31553496  0.07304457  0.57658131  1
  O2-  O182  1  0.32144952  0.07337612  0.91067291  1
  O2-  O183  1  0.32005988  0.57361897  0.23612743  1
  O2-  O184  1  0.31838791  0.57240367  0.57874670  1
  O2-  O185  1  0.32558778  0.56915944  0.90991082  1
  O2-  O186  1  0.82257306  0.07079676  0.24383315  1
  O2-  O187  1  0.82133291  0.07079111  0.56671827  1
  O2-  O188  1  0.82108132  0.07322770  0.90318605  1
  O2-  O189  1  0.81930932  0.57380231  0.23129081  1
  O2-  O190  1  0.82492045  0.56597132  0.57116880  1
  O2-  O191  1  0.81897180  0.56864199  0.90889117  1
  O2-  O192  1  0.03937899  0.08276898  0.26879621  1
  O2-  O193  1  0.04362360  0.08663756  0.60551716  1
  O2-  O194  1  0.04350415  0.08892068  0.93849569  1
  O2-  O195  1  0.04296940  0.58915476  0.27171026  1
  O2-  O196  1  0.04386616  0.57591898  0.59776780  1
  O2-  O197  1  0.04103736  0.58066274  0.93264150  1
  O2-  O198  1  0.53981710  0.07834238  0.26306552  1
  O2-  O199  1  0.54379189  0.08303739  0.59965379  1
  O2-  O200  1  0.54468138  0.08230699  0.92919043  1
  O2-  O201  1  0.54970632  0.58782589  0.27252419  1
  O2-  O202  1  0.54168689  0.58063115  0.59810127  1
  O2-  O203  1  0.54002880  0.58178756  0.93383456  1
  O2-  O204  1  0.16683465  0.19162924  0.27136371  1
  O2-  O205  1  0.16270771  0.20364902  0.60415654  1
  O2-  O206  1  0.16393611  0.20717505  0.93937008  1
  O2-  O207  1  0.16365808  0.70939266  0.27314850  1
  O2-  O208  1  0.16616351  0.70700054  0.59462910  1
  O2-  O209  1  0.17215724  0.70222303  0.93567558  1
  O2-  O210  1  0.66949521  0.20403254  0.26109543  1
  O2-  O211  1  0.67353163  0.20808843  0.59979309  1
  O2-  O212  1  0.66814956  0.21463736  0.93230558  1
  O2-  O213  1  0.66389230  0.71359944  0.27272799  1
  O2-  O214  1  0.67251978  0.70260469  0.60029358  1
  O2-  O215  1  0.66560773  0.70773651  0.93049552  1
  O2-  O216  1  0.07947467  0.45946723  0.06685008  1
  O2-  O217  1  0.08311820  0.46066977  0.40375296  1
  O2-  O218  1  0.08771606  0.45299068  0.73004309  1
  O2-  O219  1  0.08731512  0.96368254  0.06895409  1
  O2-  O220  1  0.08114504  0.96093850  0.40479507  1
  O2-  O221  1  0.09052749  0.96064962  0.73048246  1
  O2-  O222  1  0.58439403  0.45328020  0.06204910  1
  O2-  O223  1  0.58536069  0.44956000  0.39045536  1
  O2-  O224  1  0.57678648  0.45340232  0.73349418  1
  O2-  O225  1  0.58337348  0.95297677  0.06126379  1
  O2-  O226  1  0.57934108  0.95492613  0.39906176  1
  O2-  O227  1  0.58007779  0.95318072  0.72942840  1
  O2-  O228  1  0.20519867  0.33317591  0.07010586  1
  O2-  O229  1  0.19679944  0.32379561  0.39655224  1
  O2-  O230  1  0.20698924  0.33364075  0.72931525  1
  O2-  O231  1  0.20983353  0.83154001  0.06807554  1
  O2-  O232  1  0.20916291  0.83377280  0.40498060  1
  O2-  O233  1  0.20689167  0.83494012  0.72695874  1
  O2-  O234  1  0.71074083  0.34021849  0.06478196  1
  O2-  O235  1  0.70729869  0.33288327  0.38898518  1
  O2-  O236  1  0.71318442  0.33516488  0.73693220  1
  O2-  O237  1  0.70374965  0.83338017  0.06055659  1
  O2-  O238  1  0.71251397  0.83773957  0.40502453  1
  O2-  O239  1  0.69829535  0.83385566  0.72857279  1
  O2-  O240  1  0.45518653  0.42205943  0.26159922  1
  O2-  O241  1  0.44520317  0.42205394  0.60394792  1
  O2-  O242  1  0.45129338  0.41395622  0.93756623  1
  O2-  O243  1  0.45322127  0.91026745  0.26865683  1
  O2-  O244  1  0.45046739  0.92045731  0.59757508  1
  O2-  O245  1  0.45029756  0.91611032  0.93962522  1
  O2-  O246  1  0.96331688  0.41885504  0.26456301  1
  O2-  O247  1  0.95937065  0.41027560  0.60661746  1
  O2-  O248  1  0.95704175  0.41274617  0.93428117  1
  O2-  O249  1  0.95470830  0.91491936  0.27280088  1
  O2-  O250  1  0.96565970  0.91906638  0.59396818  1
  O2-  O251  1  0.95989529  0.92448966  0.93677502  1
  O2-  O252  1  0.32766637  0.29399402  0.26387197  1
  O2-  O253  1  0.33061866  0.28613702  0.59684489  1
  O2-  O254  1  0.33135321  0.29542385  0.94027553  1
  O2-  O255  1  0.33492268  0.78904401  0.27154330  1
  O2-  O256  1  0.33102645  0.79019168  0.59760252  1
  O2-  O257  1  0.33491018  0.79602524  0.93863383  1
  O2-  O258  1  0.83726564  0.29303488  0.26003843  1
  O2-  O259  1  0.84024180  0.29065121  0.60705191  1
  O2-  O260  1  0.83758836  0.29311439  0.93664495  1
  O2-  O261  1  0.83626146  0.79252243  0.27194663  1
  O2-  O262  1  0.82784136  0.80620998  0.60084301  1
  O2-  O263  1  0.83246503  0.79916012  0.93117674  1
  O2-  O264  1  0.41930935  0.04929354  0.06067883  1
  O2-  O265  1  0.41395892  0.04100927  0.39678363  1
  O2-  O266  1  0.41360545  0.04571028  0.72766829  1
  O2-  O267  1  0.41563151  0.54147259  0.06401248  1
  O2-  O268  1  0.42418846  0.54637567  0.40089559  1
  O2-  O269  1  0.41116589  0.54635256  0.73184562  1
  O2-  O270  1  0.91710801  0.04591943  0.07251543  1
  O2-  O271  1  0.91226373  0.04593905  0.39730959  1
  O2-  O272  1  0.91802236  0.03900778  0.73384080  1
  O2-  O273  1  0.90927251  0.54109505  0.06121599  1
  O2-  O274  1  0.91650309  0.54031789  0.39919171  1
  O2-  O275  1  0.91895679  0.53688691  0.73854188  1
  O2-  O276  1  0.29549768  0.16394818  0.06454265  1
  O2-  O277  1  0.29888134  0.16454439  0.39465658  1
  O2-  O278  1  0.28830576  0.16033100  0.73185638  1
  O2-  O279  1  0.30341371  0.66558457  0.06130183  1
  O2-  O280  1  0.29121172  0.66579763  0.40549107  1
  O2-  O281  1  0.28798829  0.66235780  0.73103717  1
  O2-  O282  1  0.78918779  0.16961467  0.06970674  1
  O2-  O283  1  0.79903436  0.17009090  0.39122125  1
  O2-  O284  1  0.79348118  0.16641101  0.73620740  1
  O2-  O285  1  0.79321535  0.66607295  0.05822551  1
  O2-  O286  1  0.79072915  0.66649371  0.40185758  1
  O2-  O287  1  0.80311525  0.67615052  0.73261359  1
