# generated using pymatgen
data_Ca2Al2SiO7
_symmetry_space_group_name_H-M   'P 1'
_cell_length_a   15.46261136
_cell_length_b   15.46316250
_cell_length_c   15.28664048
_cell_angle_alpha   89.98390730
_cell_angle_beta   89.99291300
_cell_angle_gamma   89.99478298
_symmetry_Int_Tables_number   1
_chemical_formula_structural   Ca2Al2SiO7
_chemical_formula_sum   'Ca48 Al48 Si24 O168'
_cell_volume   3655.04888481
_cell_formula_units_Z   24
loop_
 _symmetry_equiv_pos_site_id
 _symmetry_equiv_pos_as_xyz
  1  'x, y, z'
loop_
 _atom_type_symbol
 _atom_type_oxidation_number
  Ca2+  2.0
  Al0+  0.0
  Si0+  0.0
  O2-  -2.0
loop_
 _atom_site_type_symbol
 _atom_site_label
 _atom_site_symmetry_multiplicity
 _atom_site_fract_x
 _atom_site_fract_y
 _atom_site_fract_z
 _atom_site_occupancy
  Ca2+  Ca0  1  0.17643835  0.08007902  0.17855366  1
  Ca2+  Ca1  1  0.16851034  0.08020350  0.50944460  1
  Ca2+  Ca2  1  0.17313730  0.08173129  0.83532492  1
  Ca2+  Ca3  1  0.17067128  0.58853976  0.16444600  1
  Ca2+  Ca4  1  0.16904380  0.58152140  0.51196031  1
  Ca2+  Ca5  1  0.17481809  0.59347911  0.83550972  1
  Ca2+  Ca6  1  0.67736880  0.07797334  0.17376801  1
  Ca2+  Ca7  1  0.67037763  0.08339832  0.50137671  1
  Ca2+  Ca8  1  0.66902035  0.08456144  0.83799293  1
  Ca2+  Ca9  1  0.66452050  0.57756922  0.17300089  1
  Ca2+  Ca10  1  0.67151188  0.57689826  0.50975011  1
  Ca2+  Ca11  1  0.66820624  0.58966722  0.83363170  1
  Ca2+  Ca12  1  0.07194110  0.32494409  0.16352671  1
  Ca2+  Ca13  1  0.07537122  0.32263077  0.49531519  1
  Ca2+  Ca14  1  0.07304072  0.32708069  0.82518458  1
  Ca2+  Ca15  1  0.08766312  0.83159073  0.16548041  1
  Ca2+  Ca16  1  0.09705348  0.82992289  0.50101668  1
  Ca2+  Ca17  1  0.08932778  0.82576068  0.82815418  1
  Ca2+  Ca18  1  0.58522675  0.33356519  0.16645553  1
  Ca2+  Ca19  1  0.58431950  0.32961732  0.49905543  1
  Ca2+  Ca20  1  0.57976404  0.32451232  0.82695644  1
  Ca2+  Ca21  1  0.57887372  0.83273039  0.15776243  1
  Ca2+  Ca22  1  0.57956980  0.83255350  0.49852561  1
  Ca2+  Ca23  1  0.56970591  0.82650431  0.82580354  1
  Ca2+  Ca24  1  0.33350400  0.42633698  0.16854607  1
  Ca2+  Ca25  1  0.33071167  0.42405573  0.50808877  1
  Ca2+  Ca26  1  0.33438154  0.43074478  0.83713130  1
  Ca2+  Ca27  1  0.33173821  0.92335001  0.17050501  1
  Ca2+  Ca28  1  0.32390494  0.92472378  0.50649962  1
  Ca2+  Ca29  1  0.33501409  0.91944179  0.83320970  1
  Ca2+  Ca30  1  0.83141907  0.41274538  0.17217272  1
  Ca2+  Ca31  1  0.83438715  0.41400198  0.50403432  1
  Ca2+  Ca32  1  0.83925322  0.41774089  0.83307192  1
  Ca2+  Ca33  1  0.82970533  0.92722607  0.17550810  1
  Ca2+  Ca34  1  0.82926234  0.91988789  0.50074002  1
  Ca2+  Ca35  1  0.83167289  0.92511021  0.83906744  1
  Ca2+  Ca36  1  0.41489879  0.16128268  0.16274975  1
  Ca2+  Ca37  1  0.41953953  0.15416739  0.49926574  1
  Ca2+  Ca38  1  0.41914219  0.16012678  0.82506179  1
  Ca2+  Ca39  1  0.42356527  0.67572262  0.15207744  1
  Ca2+  Ca40  1  0.41251236  0.67418467  0.50235543  1
  Ca2+  Ca41  1  0.41762854  0.67432423  0.82560783  1
  Ca2+  Ca42  1  0.91009939  0.17141044  0.16381160  1
  Ca2+  Ca43  1  0.92596665  0.17003339  0.49225213  1
  Ca2+  Ca44  1  0.91684678  0.17579040  0.82510999  1
  Ca2+  Ca45  1  0.92360666  0.67115107  0.15878274  1
  Ca2+  Ca46  1  0.91947807  0.66433598  0.50209345  1
  Ca2+  Ca47  1  0.92798296  0.66336006  0.82499590  1
  Al0+  Al48  1  0.00096648  0.00142380  0.00529371  1
  Al0+  Al49  1  0.00189499  -0.00377435  0.33621794  1
  Al0+  Al50  1  -0.00114255  -0.00072511  0.66988565  1
  Al0+  Al51  1  -0.00080742  0.49874737  -0.00582821  1
  Al0+  Al52  1  0.00201392  0.49927911  0.32731339  1
  Al0+  Al53  1  -0.00226301  0.50078107  0.66251644  1
  Al0+  Al54  1  0.49972949  -0.00042234  0.00036672  1
  Al0+  Al55  1  0.49977273  -0.00144022  0.33668048  1
  Al0+  Al56  1  0.49992131  -0.00130811  0.66102559  1
  Al0+  Al57  1  0.50070562  0.49884335  0.00124997  1
  Al0+  Al58  1  0.50217690  0.49993541  0.33765140  1
  Al0+  Al59  1  0.50103373  0.49855938  0.66856900  1
  Al0+  Al60  1  0.24850878  0.25162506  0.00453762  1
  Al0+  Al61  1  0.25157677  0.25364705  0.33180825  1
  Al0+  Al62  1  0.24906150  0.25066971  0.66852527  1
  Al0+  Al63  1  0.25103336  0.75087032  -0.00156541  1
  Al0+  Al64  1  0.25378507  0.75223818  0.33297840  1
  Al0+  Al65  1  0.24987516  0.75065731  0.66511866  1
  Al0+  Al66  1  0.74927556  0.25128669  -0.00023404  1
  Al0+  Al67  1  0.74819955  0.25093354  0.33751180  1
  Al0+  Al68  1  0.74687739  0.25092387  0.66001390  1
  Al0+  Al69  1  0.75106839  0.74947396  -0.00211849  1
  Al0+  Al70  1  0.75183243  0.74823077  0.33495624  1
  Al0+  Al71  1  0.74977501  0.74823519  0.66879456  1
  Al0+  Al72  1  0.32087947  0.57150214  0.01397340  1
  Al0+  Al73  1  0.17707757  0.92925579  0.68464021  1
  Al0+  Al74  1  0.06994413  0.68178145  0.65254892  1
  Al0+  Al75  1  0.92747331  0.31805713  0.98457441  1
  Al0+  Al76  1  0.43013094  0.82242042  0.98423812  1
  Al0+  Al77  1  0.42834528  0.82037511  0.64763941  1
  Al0+  Al78  1  0.67896547  0.92639265  0.34828739  1
  Al0+  Al79  1  0.07311427  0.17557172  0.31745501  1
  Al0+  Al80  1  0.32128385  0.07202340  0.01434442  1
  Al0+  Al81  1  0.57318864  0.67559695  0.98516440  1
  Al0+  Al82  1  0.06924552  0.68095837  0.98665803  1
  Al0+  Al83  1  0.92847170  0.32100874  0.64964652  1
  Al0+  Al84  1  0.82049145  0.07250825  0.01193392  1
  Al0+  Al85  1  0.92820663  0.31910662  0.31617526  1
  Al0+  Al86  1  0.32154576  0.07169624  0.68262261  1
  Al0+  Al87  1  0.32060734  0.56985269  0.67997127  1
  Al0+  Al88  1  0.57228617  0.67746212  0.64971838  1
  Al0+  Al89  1  0.56883790  0.17820809  0.65251013  1
  Al0+  Al90  1  0.17976247  0.92767034  0.34830211  1
  Al0+  Al91  1  0.82052027  0.57021141  0.68136532  1
  Al0+  Al92  1  0.32030319  0.07435323  0.34871217  1
  Al0+  Al93  1  0.67926363  0.43018026  0.34825848  1
  Al0+  Al94  1  0.82151363  0.07133060  0.35001797  1
  Al0+  Al95  1  0.07175734  0.17688932  0.65337693  1
  Si0+  Si96  1  0.92696402  0.81916123  0.31839599  1
  Si0+  Si97  1  0.07390384  0.17726664  0.98404281  1
  Si0+  Si98  1  0.57199899  0.67765018  0.31925328  1
  Si0+  Si99  1  0.67967311  0.42931193  0.01460370  1
  Si0+  Si100  1  0.42967765  0.32550403  0.31754206  1
  Si0+  Si101  1  0.17583539  0.42824412  0.68322812  1
  Si0+  Si102  1  0.17863343  0.43127332  0.34726445  1
  Si0+  Si103  1  0.82294154  0.57086829  0.01426314  1
  Si0+  Si104  1  0.17589896  0.42906503  0.01786678  1
  Si0+  Si105  1  0.43127729  0.81979404  0.31610778  1
  Si0+  Si106  1  0.81861828  0.07201097  0.68095146  1
  Si0+  Si107  1  0.67917215  0.92793340  0.01423292  1
  Si0+  Si108  1  0.67836244  0.42651239  0.68616868  1
  Si0+  Si109  1  0.92749423  0.82514734  0.98454552  1
  Si0+  Si110  1  0.92574430  0.82327769  0.65077980  1
  Si0+  Si111  1  0.67867937  0.92798947  0.68225960  1
  Si0+  Si112  1  0.56849880  0.17883196  0.31741666  1
  Si0+  Si113  1  0.56871774  0.18104631  0.98837653  1
  Si0+  Si114  1  0.42629448  0.32207131  0.98701099  1
  Si0+  Si115  1  0.42704744  0.32257527  0.65163899  1
  Si0+  Si116  1  0.07362373  0.67938915  0.31812128  1
  Si0+  Si117  1  0.17829606  0.92775564  0.01772470  1
  Si0+  Si118  1  0.32124052  0.57092209  0.34743835  1
  Si0+  Si119  1  0.82513498  0.57122903  0.34819452  1
  O2-  O120  1  0.24506685  -0.00095640  0.06055366  1
  O2-  O121  1  0.24222390  0.00846031  0.39687153  1
  O2-  O122  1  0.24848618  0.00207377  0.73422528  1
  O2-  O123  1  0.24521246  0.49805521  0.06229919  1
  O2-  O124  1  0.24873646  0.50257678  0.39052177  1
  O2-  O125  1  0.24560949  0.49579060  0.72776889  1
  O2-  O126  1  0.75084830  -0.00692215  0.05861800  1
  O2-  O127  1  0.74944108  -0.00111033  0.39986420  1
  O2-  O128  1  0.74865985  0.00031816  0.72455272  1
  O2-  O129  1  0.74759972  0.50416706  0.05613357  1
  O2-  O130  1  0.75793578  0.50133884  0.39201952  1
  O2-  O131  1  0.74569633  0.49627486  0.73018439  1
  O2-  O132  1  -0.00368571  0.24295539  0.26614873  1
  O2-  O133  1  -0.00044809  0.24764539  0.60208838  1
  O2-  O134  1  0.00147823  0.24210661  0.94004245  1
  O2-  O135  1  0.00122441  0.74990100  0.27741869  1
  O2-  O136  1  -0.00304205  0.75765896  0.60526474  1
  O2-  O137  1  -0.00472235  0.75637246  0.94000991  1
  O2-  O138  1  0.49590349  0.24922095  0.27539080  1
  O2-  O139  1  0.49007876  0.24931342  0.60655373  1
  O2-  O140  1  0.49258509  0.24633282  0.94583061  1
  O2-  O141  1  0.50505117  0.75088114  0.27473905  1
  O2-  O142  1  0.50050190  0.74767704  0.59735370  1
  O2-  O143  1  0.50037264  0.74712256  0.93666418  1
  O2-  O144  1  0.07533143  0.17988073  0.08938714  1
  O2-  O145  1  0.07369462  0.18094721  0.43053574  1
  O2-  O146  1  0.06909730  0.17868069  0.76756613  1
  O2-  O147  1  0.06766970  0.68179106  0.10070498  1
  O2-  O148  1  0.07446822  0.67730710  0.42274294  1
  O2-  O149  1  0.06883184  0.68159748  0.76557471  1
  O2-  O150  1  0.57028159  0.18334580  0.09355736  1
  O2-  O151  1  0.56777206  0.17975831  0.42223669  1
  O2-  O152  1  0.57166339  0.18065833  0.76653332  1
  O2-  O153  1  0.57224320  0.67603746  0.09979111  1
  O2-  O154  1  0.56931791  0.67610112  0.42355942  1
  O2-  O155  1  0.57139729  0.68092865  0.76316309  1
  O2-  O156  1  0.17963978  0.43399842  0.24208689  1
  O2-  O157  1  0.17811951  0.43047856  0.57704669  1
  O2-  O158  1  0.17759448  0.42752446  0.91263398  1
  O2-  O159  1  0.18674486  0.92105713  0.23464545  1
  O2-  O160  1  0.17919140  0.92953662  0.57126321  1
  O2-  O161  1  0.17648795  0.92763217  0.91272076  1
  O2-  O162  1  0.67591177  0.43348003  0.23448330  1
  O2-  O163  1  0.67815823  0.42671317  0.58063329  1
  O2-  O164  1  0.67966396  0.42471663  0.91016431  1
  O2-  O165  1  0.68041395  0.92716245  0.23398100  1
  O2-  O166  1  0.68098516  0.92770156  0.57738995  1
  O2-  O167  1  0.67880524  0.93085359  0.90864076  1
  O2-  O168  1  0.42972833  0.32473244  0.09228136  1
  O2-  O169  1  0.43232934  0.33236764  0.42201302  1
  O2-  O170  1  0.43111302  0.32465997  0.75761687  1
  O2-  O171  1  0.43333341  0.82266365  0.09875667  1
  O2-  O172  1  0.42868288  0.81657363  0.42041469  1
  O2-  O173  1  0.43039119  0.82063462  0.76122895  1
  O2-  O174  1  0.92552428  0.31802651  0.09744166  1
  O2-  O175  1  0.93224782  0.32324408  0.42880050  1
  O2-  O176  1  0.92843856  0.31875819  0.76379256  1
  O2-  O177  1  0.92614509  0.82254609  0.09046375  1
  O2-  O178  1  0.92051145  0.81532380  0.42269421  1
  O2-  O179  1  0.92418788  0.82197893  0.75662681  1
  O2-  O180  1  0.32290104  0.06967873  0.23454518  1
  O2-  O181  1  0.32099794  0.07052276  0.56944233  1
  O2-  O182  1  0.32267510  0.07312189  0.90208988  1
  O2-  O183  1  0.32127648  0.56994009  0.24213905  1
  O2-  O184  1  0.31839653  0.56713998  0.56604375  1
  O2-  O185  1  0.32085284  0.56939261  0.90143694  1
  O2-  O186  1  0.81698890  0.07046936  0.23579658  1
  O2-  O187  1  0.81746230  0.07054217  0.57635716  1
  O2-  O188  1  0.81594179  0.07276235  0.89852908  1
  O2-  O189  1  0.82353539  0.57320015  0.24201340  1
  O2-  O190  1  0.82013930  0.56906438  0.56806222  1
  O2-  O191  1  0.82452819  0.56899483  0.90970250  1
  O2-  O192  1  0.05304090  0.07296214  0.26915086  1
  O2-  O193  1  0.04281723  0.07803750  0.60249809  1
  O2-  O194  1  0.05259593  0.08139203  0.94165608  1
  O2-  O195  1  0.04743979  0.58840063  0.26803241  1
  O2-  O196  1  0.03763004  0.58619047  0.59741809  1
  O2-  O197  1  0.03843873  0.58502439  0.93255409  1
  O2-  O198  1  0.54237655  0.08619681  0.27007753  1
  O2-  O199  1  0.54385554  0.08195388  0.59621060  1
  O2-  O200  1  0.54681659  0.08798081  0.94144502  1
  O2-  O201  1  0.54040524  0.58669821  0.27136406  1
  O2-  O202  1  0.54708323  0.57640585  0.60103814  1
  O2-  O203  1  0.54775198  0.57573876  0.93452684  1
  O2-  O204  1  0.17063735  0.21132867  0.26457593  1
  O2-  O205  1  0.17055035  0.20578923  0.60148263  1
  O2-  O206  1  0.16617834  0.20792493  0.93773205  1
  O2-  O207  1  0.16522288  0.70966997  0.27047107  1
  O2-  O208  1  0.16622555  0.70929136  0.59697104  1
  O2-  O209  1  0.16633455  0.71009494  0.93423364  1
  O2-  O210  1  0.65963209  0.20956292  0.27041081  1
  O2-  O211  1  0.66186707  0.21342805  0.59493113  1
  O2-  O212  1  0.65737181  0.21485494  0.93876278  1
  O2-  O213  1  0.66630130  0.69974114  0.27341805  1
  O2-  O214  1  0.67153411  0.70590984  0.59858928  1
  O2-  O215  1  0.67302951  0.70157393  0.93397879  1
  O2-  O216  1  0.08261327  0.45743556  0.06347476  1
  O2-  O217  1  0.08715025  0.45988019  0.39437790  1
  O2-  O218  1  0.08256129  0.45568685  0.72752767  1
  O2-  O219  1  0.08375877  0.94920259  0.06505104  1
  O2-  O220  1  0.07717625  0.93822262  0.39735171  1
  O2-  O221  1  0.07690433  0.95292845  0.73789258  1
  O2-  O222  1  0.58745854  0.45314530  0.06410777  1
  O2-  O223  1  0.58478284  0.46371761  0.40503851  1
  O2-  O224  1  0.58427574  0.44928268  0.73256444  1
  O2-  O225  1  0.58764809  0.95728970  0.06227270  1
  O2-  O226  1  0.58108404  0.95416597  0.40070009  1
  O2-  O227  1  0.58706869  0.95719091  0.72816984  1
  O2-  O228  1  0.20226020  0.33689656  0.06679755  1
  O2-  O229  1  0.20787638  0.34080727  0.39521582  1
  O2-  O230  1  0.19939028  0.33495614  0.73042829  1
  O2-  O231  1  0.20632211  0.83504302  0.06442304  1
  O2-  O232  1  0.21780077  0.83197488  0.40243109  1
  O2-  O233  1  0.20786745  0.83042903  0.73496864  1
  O2-  O234  1  0.71082389  0.33963797  0.06493441  1
  O2-  O235  1  0.70341838  0.33293473  0.40247704  1
  O2-  O236  1  0.70534030  0.33267578  0.73182686  1
  O2-  O237  1  0.70121253  0.83276556  0.05955606  1
  O2-  O238  1  0.70809465  0.82791058  0.40084223  1
  O2-  O239  1  0.70737038  0.83741573  0.73104929  1
  O2-  O240  1  0.46458069  0.41483533  0.26753669  1
  O2-  O241  1  0.45827543  0.41326379  0.60270427  1
  O2-  O242  1  0.45976781  0.41079570  0.93744924  1
  O2-  O243  1  0.45813171  0.91243854  0.26978581  1
  O2-  O244  1  0.45897812  0.91712852  0.59388354  1
  O2-  O245  1  0.46163543  0.91981404  0.93069774  1
  O2-  O246  1  0.96014933  0.41746726  0.26188325  1
  O2-  O247  1  0.95649304  0.41881174  0.59663520  1
  O2-  O248  1  0.95894667  0.41414671  0.93080934  1
  O2-  O249  1  0.95226624  0.91114493  0.27036330  1
  O2-  O250  1  0.94668560  0.91804276  0.60626824  1
  O2-  O251  1  0.95197992  0.91979510  0.94005705  1
  O2-  O252  1  0.33659140  0.30564144  0.26944017  1
  O2-  O253  1  0.33110890  0.30546965  0.60792744  1
  O2-  O254  1  0.33241724  0.30107260  0.94167284  1
  O2-  O255  1  0.34143687  0.78800098  0.26646414  1
  O2-  O256  1  0.33126068  0.78901711  0.59455412  1
  O2-  O257  1  0.33141133  0.79585713  0.93337440  1
  O2-  O258  1  0.82632269  0.29491857  0.26691394  1
  O2-  O259  1  0.82941914  0.29473365  0.59840740  1
  O2-  O260  1  0.83066586  0.28802919  0.93028876  1
  O2-  O261  1  0.83742396  0.78810174  0.26642265  1
  O2-  O262  1  0.83399413  0.79347548  0.60370513  1
  O2-  O263  1  0.83367785  0.80166245  0.93817228  1
  O2-  O264  1  0.41875756  0.04122850  0.06827971  1
  O2-  O265  1  0.41697849  0.03986746  0.40014243  1
  O2-  O266  1  0.42183556  0.04143226  0.73204836  1
  O2-  O267  1  0.41681553  0.53718494  0.06894067  1
  O2-  O268  1  0.41159194  0.54068833  0.39515920  1
  O2-  O269  1  0.41677566  0.53751569  0.73407160  1
  O2-  O270  1  0.91812806  0.04760748  0.06687483  1
  O2-  O271  1  0.92008595  0.04215724  0.40038631  1
  O2-  O272  1  0.90963922  0.04572056  0.73027062  1
  O2-  O273  1  0.91308274  0.53936513  0.06310618  1
  O2-  O274  1  0.92024252  0.54737137  0.39164139  1
  O2-  O275  1  0.91724698  0.53841335  0.73502904  1
  O2-  O276  1  0.29463894  0.17046335  0.06819806  1
  O2-  O277  1  0.30483314  0.17785546  0.39585008  1
  O2-  O278  1  0.29872735  0.17284541  0.73403612  1
  O2-  O279  1  0.29029765  0.66801851  0.06870737  1
  O2-  O280  1  0.29466845  0.66304673  0.39316998  1
  O2-  O281  1  0.28878672  0.66592484  0.73234323  1
  O2-  O282  1  0.78231246  0.16623022  0.06701252  1
  O2-  O283  1  0.79070437  0.16858766  0.40235685  1
  O2-  O284  1  0.78676053  0.16372341  0.72638868  1
  O2-  O285  1  0.80080118  0.66508510  0.06095220  1
  O2-  O286  1  0.79911312  0.66347157  0.39562462  1
  O2-  O287  1  0.79201279  0.66707712  0.73696879  1
