# generated using pymatgen
data_Ca2Al2SiO7
_symmetry_space_group_name_H-M   'P 1'
_cell_length_a   15.45509435
_cell_length_b   15.45613935
_cell_length_c   15.28230224
_cell_angle_alpha   89.99886002
_cell_angle_beta   90.00242083
_cell_angle_gamma   89.99247704
_symmetry_Int_Tables_number   1
_chemical_formula_structural   Ca2Al2SiO7
_chemical_formula_sum   'Ca48 Al48 Si24 O168'
_cell_volume   3650.57659830
_cell_formula_units_Z   24
loop_
 _symmetry_equiv_pos_site_id
 _symmetry_equiv_pos_as_xyz
  1  'x, y, z'
loop_
 _atom_type_symbol
 _atom_type_oxidation_number
  Ca2+  2.0
  Al0+  0.0
  Si0+  0.0
  O2-  -2.0
loop_
 _atom_site_type_symbol
 _atom_site_label
 _atom_site_symmetry_multiplicity
 _atom_site_fract_x
 _atom_site_fract_y
 _atom_site_fract_z
 _atom_site_occupancy
  Ca2+  Ca0  1  0.16616040  0.08440114  0.17151969  1
  Ca2+  Ca1  1  0.17233619  0.09021576  0.50887085  1
  Ca2+  Ca2  1  0.17390467  0.09489623  0.83161493  1
  Ca2+  Ca3  1  0.16912137  0.57871005  0.17145276  1
  Ca2+  Ca4  1  0.17848537  0.57531317  0.50553725  1
  Ca2+  Ca5  1  0.16644085  0.57164844  0.84091864  1
  Ca2+  Ca6  1  0.66843292  0.07582627  0.17124294  1
  Ca2+  Ca7  1  0.66132893  0.08254759  0.50590892  1
  Ca2+  Ca8  1  0.67667473  0.08575989  0.84066282  1
  Ca2+  Ca9  1  0.67037234  0.57967705  0.17376294  1
  Ca2+  Ca10  1  0.66442133  0.58303888  0.50303049  1
  Ca2+  Ca11  1  0.65919457  0.57162037  0.83449350  1
  Ca2+  Ca12  1  0.07777645  0.33178032  0.15974922  1
  Ca2+  Ca13  1  0.08995297  0.32290632  0.49926452  1
  Ca2+  Ca14  1  0.07743290  0.33533564  0.82939046  1
  Ca2+  Ca15  1  0.07487063  0.82306161  0.15482340  1
  Ca2+  Ca16  1  0.07928559  0.83366877  0.49524109  1
  Ca2+  Ca17  1  0.07875838  0.82960985  0.83472777  1
  Ca2+  Ca18  1  0.57445438  0.33774511  0.16137958  1
  Ca2+  Ca19  1  0.57819178  0.32580748  0.49657154  1
  Ca2+  Ca20  1  0.57528360  0.33590764  0.82351890  1
  Ca2+  Ca21  1  0.58784544  0.83276848  0.16823599  1
  Ca2+  Ca22  1  0.58076572  0.82586599  0.48977973  1
  Ca2+  Ca23  1  0.59244367  0.82674995  0.83024706  1
  Ca2+  Ca24  1  0.33218308  0.41582697  0.16953395  1
  Ca2+  Ca25  1  0.33647325  0.41334671  0.50410646  1
  Ca2+  Ca26  1  0.32380701  0.40451686  0.83674843  1
  Ca2+  Ca27  1  0.33310513  0.91555325  0.17494285  1
  Ca2+  Ca28  1  0.33613917  0.92278687  0.50299412  1
  Ca2+  Ca29  1  0.33688391  0.92794333  0.83531530  1
  Ca2+  Ca30  1  0.83028483  0.41829373  0.16791415  1
  Ca2+  Ca31  1  0.82564276  0.42292539  0.50467334  1
  Ca2+  Ca32  1  0.81846485  0.40833918  0.84013192  1
  Ca2+  Ca33  1  0.82522201  0.91557994  0.16763321  1
  Ca2+  Ca34  1  0.82429177  0.92356313  0.50371219  1
  Ca2+  Ca35  1  0.83091338  0.92861518  0.84200786  1
  Ca2+  Ca36  1  0.42444219  0.17699966  0.16616813  1
  Ca2+  Ca37  1  0.42272283  0.17479517  0.49641691  1
  Ca2+  Ca38  1  0.42372591  0.17527556  0.82404924  1
  Ca2+  Ca39  1  0.41815739  0.66703022  0.16957112  1
  Ca2+  Ca40  1  0.42760640  0.66735307  0.49091613  1
  Ca2+  Ca41  1  0.42377178  0.67014737  0.82717520  1
  Ca2+  Ca42  1  0.92138738  0.16769525  0.16026758  1
  Ca2+  Ca43  1  0.92661539  0.16134764  0.49876854  1
  Ca2+  Ca44  1  0.91510792  0.16786504  0.82860423  1
  Ca2+  Ca45  1  0.91774205  0.66844550  0.15750694  1
  Ca2+  Ca46  1  0.91495383  0.66520537  0.49387795  1
  Ca2+  Ca47  1  0.91726555  0.67106507  0.83571506  1
  Al0+  Al48  1  0.00262391  -0.00099614  -0.00068812  1
  Al0+  Al49  1  -0.00048430  -0.00081480  0.32872687  1
  Al0+  Al50  1  -0.00150674  -0.00089562  0.66662249  1
  Al0+  Al51  1  0.00095588  0.49670975  -0.00453070  1
  Al0+  Al52  1  -0.00028239  0.49835340  0.34017949  1
  Al0+  Al53  1  0.00036236  0.50208408  0.66904460  1
  Al0+  Al54  1  0.50047833  0.00031507  0.00407740  1
  Al0+  Al55  1  0.49887747  0.00015699  0.33097714  1
  Al0+  Al56  1  0.49862539  -0.00098887  0.67087007  1
  Al0+  Al57  1  0.49780814  0.50071607  -0.00039547  1
  Al0+  Al58  1  0.49916459  0.50088692  0.32980639  1
  Al0+  Al59  1  0.49995934  0.50333044  0.66210066  1
  Al0+  Al60  1  0.25139966  0.25129587  0.00382478  1
  Al0+  Al61  1  0.24909123  0.24795877  0.32448433  1
  Al0+  Al62  1  0.24904194  0.25021524  0.66834908  1
  Al0+  Al63  1  0.25207035  0.75019139  -0.00602030  1
  Al0+  Al64  1  0.24947875  0.74806803  0.33634835  1
  Al0+  Al65  1  0.24819681  0.74974144  0.66725742  1
  Al0+  Al66  1  0.75086573  0.24890856  0.00817956  1
  Al0+  Al67  1  0.75251366  0.24924875  0.33165513  1
  Al0+  Al68  1  0.74979748  0.25141484  0.66907960  1
  Al0+  Al69  1  0.75032132  0.75070194  -0.00286588  1
  Al0+  Al70  1  0.74978031  0.75093588  0.33864108  1
  Al0+  Al71  1  0.75187288  0.75080728  0.66276921  1
  Al0+  Al72  1  0.57424280  0.17748770  0.31738980  1
  Al0+  Al73  1  0.67902463  0.92782532  0.01568532  1
  Al0+  Al74  1  0.67604068  0.42912952  0.01411988  1
  Al0+  Al75  1  0.42808420  0.32092403  0.65193179  1
  Al0+  Al76  1  0.18039614  0.42921691  0.68063717  1
  Al0+  Al77  1  0.92776196  0.82136847  0.98383957  1
  Al0+  Al78  1  0.07302310  0.67676708  0.98441472  1
  Al0+  Al79  1  0.57100755  0.68140176  0.65254408  1
  Al0+  Al80  1  0.06970030  0.17856992  0.31882364  1
  Al0+  Al81  1  0.32066715  0.07017541  0.67970563  1
  Al0+  Al82  1  0.43028709  0.32142695  0.98434711  1
  Al0+  Al83  1  0.57317258  0.67973551  0.31615776  1
  Al0+  Al84  1  0.82433403  0.07170115  0.01760810  1
  Al0+  Al85  1  0.67905325  0.43179495  0.67808390  1
  Al0+  Al86  1  0.67848189  0.93201091  0.34923621  1
  Al0+  Al87  1  0.42765038  0.82049677  0.31909299  1
  Al0+  Al88  1  0.17868553  0.42916907  0.01526713  1
  Al0+  Al89  1  0.82100623  0.57063682  0.34592567  1
  Al0+  Al90  1  0.82075037  0.07099194  0.67902719  1
  Al0+  Al91  1  0.32091436  0.57059592  0.34739257  1
  Al0+  Al92  1  0.42973410  0.32147661  0.31650621  1
  Al0+  Al93  1  0.57363629  0.17782301  0.65448432  1
  Al0+  Al94  1  0.92754475  0.31886047  0.98656384  1
  Al0+  Al95  1  0.06816305  0.18065723  0.65526088  1
  Si0+  Si96  1  0.32145962  0.57473341  0.01641144  1
  Si0+  Si97  1  0.82303485  0.57458497  0.68542150  1
  Si0+  Si98  1  0.57050775  0.67974700  0.98531059  1
  Si0+  Si99  1  0.17610783  0.92635235  0.68418272  1
  Si0+  Si100  1  0.42528693  0.82283949  0.65119648  1
  Si0+  Si101  1  0.92613753  0.32496368  0.64976044  1
  Si0+  Si102  1  0.67710235  0.42693665  0.34927224  1
  Si0+  Si103  1  0.17713204  0.92802066  0.34690979  1
  Si0+  Si104  1  0.32222372  0.57361993  0.68424424  1
  Si0+  Si105  1  0.92941615  0.81984140  0.31892279  1
  Si0+  Si106  1  0.31839184  0.07077026  0.34707938  1
  Si0+  Si107  1  0.32055720  0.07110279  0.01761052  1
  Si0+  Si108  1  0.92894700  0.32429130  0.31796455  1
  Si0+  Si109  1  0.18159510  0.92695263  0.01476095  1
  Si0+  Si110  1  0.07033394  0.67749292  0.32149603  1
  Si0+  Si111  1  0.82084359  0.57049360  0.01319907  1
  Si0+  Si112  1  0.93099402  0.82047007  0.64898668  1
  Si0+  Si113  1  0.57116321  0.17726967  0.98465370  1
  Si0+  Si114  1  0.07151590  0.67762434  0.64905037  1
  Si0+  Si115  1  0.82455944  0.07229526  0.35080772  1
  Si0+  Si116  1  0.42860481  0.82379922  0.98384534  1
  Si0+  Si117  1  0.17868116  0.42603375  0.35041517  1
  Si0+  Si118  1  0.07309730  0.17773684  0.98300109  1
  Si0+  Si119  1  0.67812087  0.92729755  0.68245222  1
  O2-  O120  1  0.25017846  -0.00133094  0.05920569  1
  O2-  O121  1  0.24746673  -0.00107034  0.38950222  1
  O2-  O122  1  0.24609077  -0.00575175  0.72748806  1
  O2-  O123  1  0.25116700  0.50709146  0.05970493  1
  O2-  O124  1  0.25003384  0.49205725  0.39422356  1
  O2-  O125  1  0.25551390  0.50349272  0.72847806  1
  O2-  O126  1  0.75174791  -0.00089133  0.06570116  1
  O2-  O127  1  0.74981445  0.01058154  0.39558535  1
  O2-  O128  1  0.74115289  0.00116579  0.72563822  1
  O2-  O129  1  0.75266306  0.50292485  0.05935835  1
  O2-  O130  1  0.74533740  0.49712797  0.39263758  1
  O2-  O131  1  0.75494316  0.50502894  0.72779338  1
  O2-  O132  1  -0.00493016  0.25312970  0.27377499  1
  O2-  O133  1  -0.00528024  0.25551754  0.60596659  1
  O2-  O134  1  0.00057947  0.24219469  0.93963478  1
  O2-  O135  1  -0.00173799  0.74617245  0.27762350  1
  O2-  O136  1  0.00094866  0.74850455  0.60569447  1
  O2-  O137  1  0.00018150  0.74869897  0.93447436  1
  O2-  O138  1  0.50704761  0.25426634  0.26733459  1
  O2-  O139  1  0.50146549  0.24930007  0.60391566  1
  O2-  O140  1  0.50762975  0.24948289  0.93860492  1
  O2-  O141  1  0.50013027  0.75097789  0.26604151  1
  O2-  O142  1  0.49563633  0.75631384  0.60771693  1
  O2-  O143  1  0.50137239  0.75378548  0.94357202  1
  O2-  O144  1  0.07342036  0.17869190  0.08888497  1
  O2-  O145  1  0.07084824  0.17754692  0.43207727  1
  O2-  O146  1  0.06752749  0.18124054  0.76805350  1
  O2-  O147  1  0.07298588  0.67941813  0.09883127  1
  O2-  O148  1  0.06932673  0.68061323  0.42690445  1
  O2-  O149  1  0.07180148  0.67873120  0.75365464  1
  O2-  O150  1  0.56576560  0.17540449  0.08999131  1
  O2-  O151  1  0.57064319  0.17742311  0.43110083  1
  O2-  O152  1  0.57319724  0.17865966  0.76823898  1
  O2-  O153  1  0.57052419  0.67900546  0.08986144  1
  O2-  O154  1  0.57249448  0.68222071  0.42983958  1
  O2-  O155  1  0.57003800  0.68257704  0.76647894  1
  O2-  O156  1  0.17501014  0.42937594  0.24498497  1
  O2-  O157  1  0.18052232  0.43105904  0.56728426  1
  O2-  O158  1  0.18068234  0.42788828  0.90212898  1
  O2-  O159  1  0.17666894  0.92761546  0.24175773  1
  O2-  O160  1  0.17563226  0.92489358  0.57822797  1
  O2-  O161  1  0.18410808  0.92576705  0.90969656  1
  O2-  O162  1  0.67949785  0.42844333  0.24348689  1
  O2-  O163  1  0.68124982  0.43362494  0.56502656  1
  O2-  O164  1  0.67452098  0.43154732  0.90083282  1
  O2-  O165  1  0.68323307  0.92957685  0.23659255  1
  O2-  O166  1  0.68061569  0.92509940  0.57690065  1
  O2-  O167  1  0.67881214  0.92856354  0.90170863  1
  O2-  O168  1  0.42961541  0.32023686  0.09722237  1
  O2-  O169  1  0.42688037  0.31770325  0.42989086  1
  O2-  O170  1  0.42829286  0.31863246  0.76568802  1
  O2-  O171  1  0.42378405  0.82302461  0.08831556  1
  O2-  O172  1  0.42700184  0.81992565  0.43280601  1
  O2-  O173  1  0.42385752  0.82150120  0.75719020  1
  O2-  O174  1  0.93153569  0.32092971  0.09988687  1
  O2-  O175  1  0.93039688  0.32600487  0.42358732  1
  O2-  O176  1  0.92659928  0.32450969  0.75528779  1
  O2-  O177  1  0.92941582  0.81770073  0.09798672  1
  O2-  O178  1  0.93338353  0.82182707  0.42445622  1
  O2-  O179  1  0.93164318  0.81970805  0.75358591  1
  O2-  O180  1  0.31522454  0.06937118  0.24170317  1
  O2-  O181  1  0.31822438  0.06857484  0.56639044  1
  O2-  O182  1  0.31994694  0.07028806  0.91230998  1
  O2-  O183  1  0.31437385  0.57436950  0.23447350  1
  O2-  O184  1  0.31891607  0.57651782  0.57872815  1
  O2-  O185  1  0.32216047  0.57721418  0.91082404  1
  O2-  O186  1  0.82943252  0.06707801  0.24590158  1
  O2-  O187  1  0.82575808  0.06527195  0.56608039  1
  O2-  O188  1  0.82303481  0.07110637  0.90357923  1
  O2-  O189  1  0.82431251  0.56942912  0.23281051  1
  O2-  O190  1  0.82392440  0.57477746  0.57956339  1
  O2-  O191  1  0.81787127  0.57136887  0.90760349  1
  O2-  O192  1  0.04032130  0.08163349  0.26337948  1
  O2-  O193  1  0.03991856  0.08250828  0.60134187  1
  O2-  O194  1  0.05589051  0.08167481  0.93899478  1
  O2-  O195  1  0.04462039  0.58414413  0.27686768  1
  O2-  O196  1  0.04345492  0.58630391  0.60083607  1
  O2-  O197  1  0.04461738  0.57953466  0.93049870  1
  O2-  O198  1  0.53969154  0.08172405  0.26357794  1
  O2-  O199  1  0.54470233  0.07758857  0.60486386  1
  O2-  O200  1  0.54139380  0.08461701  0.93809500  1
  O2-  O201  1  0.54609914  0.58126437  0.26406055  1
  O2-  O202  1  0.53988102  0.58701704  0.59577384  1
  O2-  O203  1  0.53805311  0.59017572  0.93621315  1
  O2-  O204  1  0.16441351  0.20707220  0.26090267  1
  O2-  O205  1  0.16432848  0.21161669  0.60062518  1
  O2-  O206  1  0.16601641  0.20831968  0.93887748  1
  O2-  O207  1  0.16065885  0.70715687  0.27365418  1
  O2-  O208  1  0.16363435  0.70618807  0.60169970  1
  O2-  O209  1  0.17007499  0.70825433  0.92926176  1
  O2-  O210  1  0.67622200  0.19720072  0.26792917  1
  O2-  O211  1  0.67201156  0.20503041  0.60066764  1
  O2-  O212  1  0.66810308  0.19761244  0.94554656  1
  O2-  O213  1  0.67235597  0.71005944  0.26568767  1
  O2-  O214  1  0.66852914  0.71028486  0.59906408  1
  O2-  O215  1  0.66190783  0.70564400  0.93616815  1
  O2-  O216  1  0.08104027  0.45832702  0.06837024  1
  O2-  O217  1  0.08687911  0.45302433  0.39960137  1
  O2-  O218  1  0.08335070  0.46182512  0.73376266  1
  O2-  O219  1  0.08918784  0.95177947  0.06231077  1
  O2-  O220  1  0.08490793  0.95562214  0.39438692  1
  O2-  O221  1  0.08318294  0.95254190  0.73023597  1
  O2-  O222  1  0.58072092  0.46394250  0.06805173  1
  O2-  O223  1  0.58306182  0.45176078  0.39340892  1
  O2-  O224  1  0.58272799  0.46600545  0.73172407  1
  O2-  O225  1  0.57987335  0.95462750  0.06886932  1
  O2-  O226  1  0.57935375  0.95794365  0.40108998  1
  O2-  O227  1  0.58202999  0.94241378  0.72697447  1
  O2-  O228  1  0.21159463  0.33390534  0.07108077  1
  O2-  O229  1  0.20384735  0.33033906  0.39209868  1
  O2-  O230  1  0.20864000  0.33317269  0.73619448  1
  O2-  O231  1  0.21086272  0.83519319  0.06196559  1
  O2-  O232  1  0.20322229  0.83683975  0.39684285  1
  O2-  O233  1  0.20023662  0.83213665  0.73058091  1
  O2-  O234  1  0.70510236  0.33350295  0.06957950  1
  O2-  O235  1  0.70474636  0.33334396  0.39491010  1
  O2-  O236  1  0.70800875  0.33568750  0.73397414  1
  O2-  O237  1  0.70805689  0.82853268  0.06742625  1
  O2-  O238  1  0.71371173  0.83717288  0.40464480  1
  O2-  O239  1  0.71205083  0.83583066  0.72889694  1
  O2-  O240  1  0.45197296  0.42136779  0.26414731  1
  O2-  O241  1  0.45390105  0.42043105  0.60080022  1
  O2-  O242  1  0.45581019  0.42006719  0.93176481  1
  O2-  O243  1  0.45185148  0.91929568  0.26608492  1
  O2-  O244  1  0.44801102  0.91740130  0.60685192  1
  O2-  O245  1  0.45541655  0.91645169  0.93713987  1
  O2-  O246  1  0.95837530  0.41679937  0.27101013  1
  O2-  O247  1  0.95221570  0.41957018  0.60525102  1
  O2-  O248  1  0.95835577  0.41375770  0.92980217  1
  O2-  O249  1  0.95958471  0.90936292  0.26920103  1
  O2-  O250  1  0.96130078  0.91048628  0.59957983  1
  O2-  O251  1  0.96102258  0.91854531  0.93080556  1
  O2-  O252  1  0.33330839  0.28801522  0.26173925  1
  O2-  O253  1  0.33022131  0.29055082  0.59971986  1
  O2-  O254  1  0.33353828  0.28571557  0.93365984  1
  O2-  O255  1  0.32799909  0.79098456  0.26702200  1
  O2-  O256  1  0.33087335  0.79806859  0.60552950  1
  O2-  O257  1  0.33892030  0.79562343  0.93223924  1
  O2-  O258  1  0.83470642  0.30289877  0.27205657  1
  O2-  O259  1  0.83308107  0.30020672  0.60331540  1
  O2-  O260  1  0.82927143  0.28943396  0.93460168  1
  O2-  O261  1  0.83754786  0.79259351  0.27375461  1
  O2-  O262  1  0.83967750  0.79314308  0.60011889  1
  O2-  O263  1  0.83057079  0.79253117  0.92826620  1
  O2-  O264  1  0.41165826  0.04253727  0.06505924  1
  O2-  O265  1  0.40985849  0.04361062  0.39435525  1
  O2-  O266  1  0.41544250  0.03893413  0.73866975  1
  O2-  O267  1  0.41375183  0.54724727  0.06334704  1
  O2-  O268  1  0.41951209  0.54463075  0.39952846  1
  O2-  O269  1  0.41724990  0.55249324  0.72793737  1
  O2-  O270  1  0.92454259  0.04294324  0.06787692  1
  O2-  O271  1  0.91611944  0.03775407  0.39782870  1
  O2-  O272  1  0.91517914  0.03445587  0.73446436  1
  O2-  O273  1  0.91515314  0.54508891  0.05739594  1
  O2-  O274  1  0.91649059  0.53982896  0.40484559  1
  O2-  O275  1  0.91756780  0.55232323  0.73053831  1
  O2-  O276  1  0.29037584  0.16105741  0.06639544  1
  O2-  O277  1  0.28706000  0.16194561  0.39328885  1
  O2-  O278  1  0.28670745  0.16451519  0.73576767  1
  O2-  O279  1  0.29725702  0.66939350  0.06175644  1
  O2-  O280  1  0.28567422  0.66494917  0.40483453  1
  O2-  O281  1  0.29420606  0.66702750  0.73112437  1
  O2-  O282  1  0.79780393  0.16873959  0.07347603  1
  O2-  O283  1  0.80932771  0.16941245  0.39340647  1
  O2-  O284  1  0.79670108  0.16917002  0.73259109  1
  O2-  O285  1  0.79600963  0.66451748  0.05884330  1
  O2-  O286  1  0.79360695  0.66696066  0.40264843  1
  O2-  O287  1  0.79701415  0.66900011  0.72971218  1
