# generated using pymatgen
data_Ca2Al2SiO7
_symmetry_space_group_name_H-M   'P 1'
_cell_length_a   15.46025096
_cell_length_b   15.46172992
_cell_length_c   15.28587167
_cell_angle_alpha   89.98743727
_cell_angle_beta   90.00320612
_cell_angle_gamma   90.01479768
_symmetry_Int_Tables_number   1
_chemical_formula_structural   Ca2Al2SiO7
_chemical_formula_sum   'Ca48 Al48 Si24 O168'
_cell_volume   3653.96855713
_cell_formula_units_Z   24
loop_
 _symmetry_equiv_pos_site_id
 _symmetry_equiv_pos_as_xyz
  1  'x, y, z'
loop_
 _atom_type_symbol
 _atom_type_oxidation_number
  Ca2+  2.0
  Al0+  0.0
  Si0+  0.0
  O2-  -2.0
loop_
 _atom_site_type_symbol
 _atom_site_label
 _atom_site_symmetry_multiplicity
 _atom_site_fract_x
 _atom_site_fract_y
 _atom_site_fract_z
 _atom_site_occupancy
  Ca2+  Ca0  1  0.17555458  0.08901423  0.16949879  1
  Ca2+  Ca1  1  0.16944403  0.07848529  0.49990737  1
  Ca2+  Ca2  1  0.16949004  0.07464106  0.84445555  1
  Ca2+  Ca3  1  0.16326525  0.57731836  0.16979012  1
  Ca2+  Ca4  1  0.17299003  0.58962088  0.50474730  1
  Ca2+  Ca5  1  0.17729999  0.57578669  0.83995979  1
  Ca2+  Ca6  1  0.67582487  0.08565103  0.17571455  1
  Ca2+  Ca7  1  0.67033472  0.07559629  0.49602143  1
  Ca2+  Ca8  1  0.67149923  0.08686319  0.84355193  1
  Ca2+  Ca9  1  0.67145531  0.57489349  0.17390952  1
  Ca2+  Ca10  1  0.67194614  0.59169968  0.50132821  1
  Ca2+  Ca11  1  0.67450343  0.58272827  0.83980461  1
  Ca2+  Ca12  1  0.08272052  0.32271223  0.15889925  1
  Ca2+  Ca13  1  0.07950962  0.32687766  0.49067741  1
  Ca2+  Ca14  1  0.08983604  0.32835273  0.83636845  1
  Ca2+  Ca15  1  0.07877393  0.83157728  0.16542239  1
  Ca2+  Ca16  1  0.07910311  0.82800745  0.48941384  1
  Ca2+  Ca17  1  0.08426144  0.83873701  0.83082210  1
  Ca2+  Ca18  1  0.58151113  0.33233594  0.15620987  1
  Ca2+  Ca19  1  0.57717704  0.33869938  0.49641892  1
  Ca2+  Ca20  1  0.57785966  0.33286613  0.83437864  1
  Ca2+  Ca21  1  0.58536955  0.83459457  0.16919300  1
  Ca2+  Ca22  1  0.58140134  0.82346090  0.48752556  1
  Ca2+  Ca23  1  0.58083858  0.82609144  0.82693594  1
  Ca2+  Ca24  1  0.32713882  0.40667131  0.16574018  1
  Ca2+  Ca25  1  0.33399647  0.42324160  0.50628882  1
  Ca2+  Ca26  1  0.33769645  0.41618242  0.83728297  1
  Ca2+  Ca27  1  0.33400984  0.92828179  0.17311981  1
  Ca2+  Ca28  1  0.33160518  0.91787508  0.50142377  1
  Ca2+  Ca29  1  0.31984936  0.92001722  0.84268510  1
  Ca2+  Ca30  1  0.82026326  0.42074391  0.17354196  1
  Ca2+  Ca31  1  0.82717164  0.42915869  0.50069421  1
  Ca2+  Ca32  1  0.82625059  0.42791045  0.84384768  1
  Ca2+  Ca33  1  0.83059906  0.92537843  0.17406707  1
  Ca2+  Ca34  1  0.83335695  0.91273922  0.49411550  1
  Ca2+  Ca35  1  0.82909266  0.92284312  0.84061703  1
  Ca2+  Ca36  1  0.42153702  0.16680307  0.15570780  1
  Ca2+  Ca37  1  0.41231841  0.17296645  0.49455784  1
  Ca2+  Ca38  1  0.41326323  0.17620727  0.83750719  1
  Ca2+  Ca39  1  0.42188422  0.67399443  0.16823591  1
  Ca2+  Ca40  1  0.42571714  0.66914131  0.49172859  1
  Ca2+  Ca41  1  0.42430145  0.66175484  0.82399330  1
  Ca2+  Ca42  1  0.92528915  0.15531065  0.16048387  1
  Ca2+  Ca43  1  0.92371349  0.16514829  0.48911963  1
  Ca2+  Ca44  1  0.92044326  0.16396169  0.83533019  1
  Ca2+  Ca45  1  0.91120800  0.66684054  0.16756962  1
  Ca2+  Ca46  1  0.91888604  0.66899454  0.48718198  1
  Ca2+  Ca47  1  0.91459314  0.66313746  0.82976425  1
  Al0+  Al48  1  -0.00190925  -0.00298503  0.00036555  1
  Al0+  Al49  1  0.00289888  -0.00098321  0.32878549  1
  Al0+  Al50  1  -0.00010218  -0.00046154  0.66882600  1
  Al0+  Al51  1  0.00288247  0.50157452  0.00509302  1
  Al0+  Al52  1  -0.00174239  0.49675670  0.33325842  1
  Al0+  Al53  1  -0.00027294  0.49893267  0.66952218  1
  Al0+  Al54  1  0.49835983  -0.00169369  -0.00505245  1
  Al0+  Al55  1  0.49944813  0.00316051  0.34051880  1
  Al0+  Al56  1  0.50067096  0.00139612  0.66778297  1
  Al0+  Al57  1  0.50093250  0.50239014  -0.00081694  1
  Al0+  Al58  1  0.49637072  0.50029884  0.33073100  1
  Al0+  Al59  1  0.50067869  0.49842849  0.66186073  1
  Al0+  Al60  1  0.24994572  0.24967760  -0.00251901  1
  Al0+  Al61  1  0.24871470  0.24969562  0.33574359  1
  Al0+  Al62  1  0.25021983  0.24854455  0.66094540  1
  Al0+  Al63  1  0.24788327  0.74910634  0.00269808  1
  Al0+  Al64  1  0.25045458  0.74962296  0.32418820  1
  Al0+  Al65  1  0.24973722  0.75007788  0.67623963  1
  Al0+  Al66  1  0.75187611  0.25142662  0.00228708  1
  Al0+  Al67  1  0.74877972  0.25166941  0.34527219  1
  Al0+  Al68  1  0.75087270  0.25004300  0.66511723  1
  Al0+  Al69  1  0.75127408  0.75174659  0.00111004  1
  Al0+  Al70  1  0.75016174  0.74989525  0.33030944  1
  Al0+  Al71  1  0.75084640  0.75113034  0.66747930  1
  Al0+  Al72  1  0.67808291  0.42990859  0.01369605  1
  Al0+  Al73  1  0.32091599  0.07262042  0.34876821  1
  Al0+  Al74  1  0.43004671  0.31833899  0.65096173  1
  Al0+  Al75  1  0.42935070  0.82480801  0.31868073  1
  Al0+  Al76  1  0.18202149  0.42884048  0.01320955  1
  Al0+  Al77  1  0.67383506  0.42928632  0.35107010  1
  Al0+  Al78  1  0.07060628  0.17990713  0.31935231  1
  Al0+  Al79  1  0.82199196  0.57355735  0.01640672  1
  Al0+  Al80  1  0.42932854  0.32211506  0.98558993  1
  Al0+  Al81  1  0.06935473  0.17791263  0.98491548  1
  Al0+  Al82  1  0.32025201  0.06974132  0.01407063  1
  Al0+  Al83  1  0.57121240  0.68078343  0.65335933  1
  Al0+  Al84  1  0.57131046  0.67795738  0.31585739  1
  Al0+  Al85  1  0.57430904  0.17730885  0.98706887  1
  Al0+  Al86  1  0.82095461  0.57187067  0.68087435  1
  Al0+  Al87  1  0.07181584  0.67544971  0.31785403  1
  Al0+  Al88  1  0.81891385  0.07146940  0.01151968  1
  Al0+  Al89  1  0.17935898  0.93045419  0.67933131  1
  Al0+  Al90  1  0.82502756  0.07083730  0.34918769  1
  Al0+  Al91  1  0.32203045  0.56927855  0.67852439  1
  Al0+  Al92  1  0.17664854  0.92701828  0.01865362  1
  Al0+  Al93  1  0.82027645  0.57038345  0.34897886  1
  Al0+  Al94  1  0.92877766  0.82063105  0.31660064  1
  Al0+  Al95  1  0.67857768  0.92947422  0.34773435  1
  Si0+  Si96  1  0.67636650  0.92815642  0.01357671  1
  Si0+  Si97  1  0.57577599  0.17625128  0.64709419  1
  Si0+  Si98  1  0.06857800  0.17805023  0.65127122  1
  Si0+  Si99  1  0.18045478  0.92623486  0.34873519  1
  Si0+  Si100  1  0.42777915  0.32103133  0.31839014  1
  Si0+  Si101  1  0.07165982  0.67834946  0.65558485  1
  Si0+  Si102  1  0.92945110  0.81862043  0.98196739  1
  Si0+  Si103  1  0.42607978  0.82253945  0.65253807  1
  Si0+  Si104  1  0.42592708  0.82069121  0.98298547  1
  Si0+  Si105  1  0.57091551  0.18133156  0.32213844  1
  Si0+  Si106  1  0.17901489  0.42818520  0.34852317  1
  Si0+  Si107  1  0.57095841  0.68205650  0.98428314  1
  Si0+  Si108  1  0.67847545  0.42685531  0.68431747  1
  Si0+  Si109  1  0.93037065  0.82139320  0.65263268  1
  Si0+  Si110  1  0.92950122  0.32462366  0.98350448  1
  Si0+  Si111  1  0.82098155  0.07128581  0.68187080  1
  Si0+  Si112  1  0.32282062  0.07412448  0.68448179  1
  Si0+  Si113  1  0.07227702  0.67686649  0.98162719  1
  Si0+  Si114  1  0.32412097  0.57306509  0.01827419  1
  Si0+  Si115  1  0.67919649  0.92916580  0.68164622  1
  Si0+  Si116  1  0.92572337  0.32010242  0.31729469  1
  Si0+  Si117  1  0.17775581  0.42592714  0.68175106  1
  Si0+  Si118  1  0.92822452  0.32218200  0.65167309  1
  Si0+  Si119  1  0.31822748  0.57215275  0.34667959  1
  O2-  O120  1  0.24888680  -0.00095209  0.06699957  1
  O2-  O121  1  0.24928167  -0.00585155  0.39436112  1
  O2-  O122  1  0.25641282  0.00247916  0.72646483  1
  O2-  O123  1  0.25822612  0.50124190  0.06142364  1
  O2-  O124  1  0.24431103  0.50442032  0.39023450  1
  O2-  O125  1  0.24787256  0.49359984  0.72488374  1
  O2-  O126  1  0.73623467  0.00490825  0.05556048  1
  O2-  O127  1  0.75461550  -0.00283792  0.39954881  1
  O2-  O128  1  0.74611909  0.00416169  0.72376278  1
  O2-  O129  1  0.75142639  0.49984858  0.06391244  1
  O2-  O130  1  0.74380571  0.50385313  0.40065378  1
  O2-  O131  1  0.74628313  0.49712894  0.72736695  1
  O2-  O132  1  -0.00994246  0.24795062  0.27250766  1
  O2-  O133  1  -0.00041544  0.25109325  0.60943218  1
  O2-  O134  1  -0.00432853  0.25387099  0.93699510  1
  O2-  O135  1  -0.00164260  0.74549004  0.26718063  1
  O2-  O136  1  -0.00006821  0.74794987  0.61254788  1
  O2-  O137  1  0.00056024  0.74750934  0.93911659  1
  O2-  O138  1  0.50276227  0.25399883  0.27858954  1
  O2-  O139  1  0.50444455  0.24298404  0.60396641  1
  O2-  O140  1  0.50268982  0.25013897  0.93659276  1
  O2-  O141  1  0.50345872  0.75531339  0.26751425  1
  O2-  O142  1  0.49515884  0.75511455  0.60785339  1
  O2-  O143  1  0.49746550  0.75001328  0.94046289  1
  O2-  O144  1  0.06884029  0.17983723  0.09752587  1
  O2-  O145  1  0.07164200  0.18352017  0.43354993  1
  O2-  O146  1  0.06760801  0.17731345  0.75626336  1
  O2-  O147  1  0.07356237  0.67643600  0.08609122  1
  O2-  O148  1  0.07440606  0.67860059  0.43272802  1
  O2-  O149  1  0.07050337  0.67840794  0.76061740  1
  O2-  O150  1  0.57367135  0.17714070  0.10075074  1
  O2-  O151  1  0.56789045  0.18188812  0.42758056  1
  O2-  O152  1  0.57958126  0.17660215  0.75231926  1
  O2-  O153  1  0.57075008  0.68369922  0.08872082  1
  O2-  O154  1  0.56715743  0.67798361  0.42995358  1
  O2-  O155  1  0.57128388  0.68336932  0.76717737  1
  O2-  O156  1  0.18267415  0.42513178  0.24374248  1
  O2-  O157  1  0.17608037  0.42689847  0.57601075  1
  O2-  O158  1  0.18191560  0.43181061  0.89958590  1
  O2-  O159  1  0.18151176  0.92705389  0.24379493  1
  O2-  O160  1  0.17703473  0.93143147  0.56641301  1
  O2-  O161  1  0.17855793  0.92854681  0.90410415  1
  O2-  O162  1  0.67474598  0.42708048  0.23783198  1
  O2-  O163  1  0.68058941  0.42585241  0.57908667  1
  O2-  O164  1  0.67813773  0.43330915  0.89947879  1
  O2-  O165  1  0.67645254  0.93601792  0.23419822  1
  O2-  O166  1  0.68068462  0.92770915  0.57724365  1
  O2-  O167  1  0.68126130  0.92379752  0.90716786  1
  O2-  O168  1  0.42909787  0.32015197  0.09926037  1
  O2-  O169  1  0.42585810  0.32030765  0.42387943  1
  O2-  O170  1  0.42927753  0.31754633  0.76350578  1
  O2-  O171  1  0.42695296  0.82118934  0.08755301  1
  O2-  O172  1  0.42691771  0.82007004  0.43298873  1
  O2-  O173  1  0.42824272  0.82121524  0.75841682  1
  O2-  O174  1  0.93167424  0.32490805  0.08870152  1
  O2-  O175  1  0.93135272  0.32110536  0.42367812  1
  O2-  O176  1  0.92749048  0.32142837  0.75657811  1
  O2-  O177  1  0.92786800  0.81858380  0.08615367  1
  O2-  O178  1  0.93340968  0.82070617  0.43147491  1
  O2-  O179  1  0.93046190  0.82372738  0.75788770  1
  O2-  O180  1  0.32050696  0.07639004  0.23639843  1
  O2-  O181  1  0.32064403  0.07515881  0.57880521  1
  O2-  O182  1  0.31838734  0.06748415  0.89990654  1
  O2-  O183  1  0.31924352  0.56976624  0.24184053  1
  O2-  O184  1  0.31830662  0.57101238  0.56529744  1
  O2-  O185  1  0.32265903  0.57439671  0.91209051  1
  O2-  O186  1  0.82199756  0.07166505  0.23589165  1
  O2-  O187  1  0.82423684  0.06954397  0.57739070  1
  O2-  O188  1  0.82034414  0.06688518  0.89733772  1
  O2-  O189  1  0.82141097  0.56480361  0.23605171  1
  O2-  O190  1  0.82351335  0.57230840  0.56862771  1
  O2-  O191  1  0.81872055  0.57383601  0.90185817  1
  O2-  O192  1  0.04872969  0.08197280  0.26604890  1
  O2-  O193  1  0.03678245  0.08742437  0.60356722  1
  O2-  O194  1  0.03531938  0.08142724  0.93102267  1
  O2-  O195  1  0.04613037  0.57504931  0.26759084  1
  O2-  O196  1  0.04786581  0.58504275  0.60888100  1
  O2-  O197  1  0.04588228  0.58473021  0.93344845  1
  O2-  O198  1  0.54238058  0.09018533  0.27581476  1
  O2-  O199  1  0.55164097  0.08095502  0.60297894  1
  O2-  O200  1  0.54698704  0.07866466  0.93122281  1
  O2-  O201  1  0.53463456  0.58206551  0.26246074  1
  O2-  O202  1  0.54327891  0.58378830  0.60013459  1
  O2-  O203  1  0.54527968  0.59010346  0.93601600  1
  O2-  O204  1  0.16497540  0.21855756  0.26634064  1
  O2-  O205  1  0.16099051  0.20272203  0.60358489  1
  O2-  O206  1  0.16492927  0.20990915  0.92948539  1
  O2-  O207  1  0.16894639  0.70234002  0.26215062  1
  O2-  O208  1  0.16385025  0.70790352  0.60961833  1
  O2-  O209  1  0.16459165  0.70510884  0.93401887  1
  O2-  O210  1  0.66514246  0.20643332  0.27875554  1
  O2-  O211  1  0.66921537  0.20248917  0.60032632  1
  O2-  O212  1  0.67327076  0.20570844  0.93297901  1
  O2-  O213  1  0.67060317  0.70117659  0.26446494  1
  O2-  O214  1  0.66736990  0.71498015  0.60032172  1
  O2-  O215  1  0.66218028  0.71369016  0.93652458  1
  O2-  O216  1  0.08712381  0.46038486  0.06900468  1
  O2-  O217  1  0.08529448  0.44879547  0.39500922  1
  O2-  O218  1  0.08519397  0.45129321  0.72973230  1
  O2-  O219  1  0.07712678  0.95265478  0.06725710  1
  O2-  O220  1  0.08732138  0.95301986  0.39472418  1
  O2-  O221  1  0.08351560  0.96345518  0.73511193  1
  O2-  O222  1  0.58005184  0.45925726  0.06620503  1
  O2-  O223  1  0.57299308  0.45541182  0.40073626  1
  O2-  O224  1  0.58378208  0.45093551  0.72717811  1
  O2-  O225  1  0.57928582  0.94223603  0.05425843  1
  O2-  O226  1  0.58345221  0.96190043  0.40578382  1
  O2-  O227  1  0.58538429  0.95187690  0.72875234  1
  O2-  O228  1  0.21074691  0.33231782  0.06739551  1
  O2-  O229  1  0.21257339  0.34010057  0.39995070  1
  O2-  O230  1  0.20306927  0.33110662  0.72532425  1
  O2-  O231  1  0.20269735  0.82724467  0.06834570  1
  O2-  O232  1  0.20598095  0.83166117  0.39367324  1
  O2-  O233  1  0.20612615  0.83461520  0.73757014  1
  O2-  O234  1  0.70500796  0.33161799  0.06647430  1
  O2-  O235  1  0.70327925  0.33326417  0.40892705  1
  O2-  O236  1  0.70628945  0.33308479  0.72974243  1
  O2-  O237  1  0.71078720  0.83914174  0.06222906  1
  O2-  O238  1  0.70389528  0.82956561  0.39881158  1
  O2-  O239  1  0.71157396  0.84021818  0.73203999  1
  O2-  O240  1  0.44839901  0.41366415  0.27062626  1
  O2-  O241  1  0.45960649  0.41468854  0.59530712  1
  O2-  O242  1  0.45610079  0.42213683  0.93268501  1
  O2-  O243  1  0.45654645  0.92519496  0.26951381  1
  O2-  O244  1  0.44918024  0.91808552  0.60884722  1
  O2-  O245  1  0.45186990  0.91126870  0.93190209  1
  O2-  O246  1  0.95485480  0.41125638  0.26964718  1
  O2-  O247  1  0.95776454  0.41340442  0.60345998  1
  O2-  O248  1  0.95914677  0.41763549  0.93712697  1
  O2-  O249  1  0.95987018  0.91765605  0.26270749  1
  O2-  O250  1  0.95998390  0.91256821  0.60473063  1
  O2-  O251  1  0.95759075  0.90955109  0.93206366  1
  O2-  O252  1  0.33706633  0.28857821  0.27250373  1
  O2-  O253  1  0.33261283  0.28963506  0.59493426  1
  O2-  O254  1  0.33205474  0.29255019  0.93015292  1
  O2-  O255  1  0.33384847  0.79358226  0.26223386  1
  O2-  O256  1  0.33149058  0.79649829  0.60913049  1
  O2-  O257  1  0.33360805  0.79120717  0.93671364  1
  O2-  O258  1  0.82905822  0.29899815  0.27720401  1
  O2-  O259  1  0.83694832  0.29453350  0.60321651  1
  O2-  O260  1  0.83565389  0.30075618  0.93698138  1
  O2-  O261  1  0.82943034  0.79837009  0.26399115  1
  O2-  O262  1  0.83827865  0.79538434  0.60591742  1
  O2-  O263  1  0.83733041  0.79130345  0.93266514  1
  O2-  O264  1  0.42002197  0.04087276  0.06423992  1
  O2-  O265  1  0.41641073  0.04648655  0.40666680  1
  O2-  O266  1  0.41873733  0.05364701  0.72804720  1
  O2-  O267  1  0.41879919  0.55272095  0.06244931  1
  O2-  O268  1  0.40802914  0.54072384  0.39545096  1
  O2-  O269  1  0.41875639  0.53786196  0.73200481  1
  O2-  O270  1  0.91183449  0.03233305  0.06495097  1
  O2-  O271  1  0.92489128  0.04275957  0.40040207  1
  O2-  O272  1  0.91087530  0.03931608  0.73080295  1
  O2-  O273  1  0.92237934  0.55100061  0.06526333  1
  O2-  O274  1  0.91836829  0.53744961  0.40267000  1
  O2-  O275  1  0.91794915  0.54070222  0.73516442  1
  O2-  O276  1  0.29314982  0.16875393  0.06461250  1
  O2-  O277  1  0.28347518  0.16668123  0.40531383  1
  O2-  O278  1  0.29245692  0.16673418  0.72937426  1
  O2-  O279  1  0.29388931  0.66459134  0.06465299  1
  O2-  O280  1  0.29286964  0.66497940  0.39342663  1
  O2-  O281  1  0.29189473  0.66389785  0.73703973  1
  O2-  O282  1  0.80069183  0.17017975  0.06485175  1
  O2-  O283  1  0.79562245  0.16757934  0.40554334  1
  O2-  O284  1  0.79692556  0.16481335  0.72802815  1
  O2-  O285  1  0.79128385  0.67153623  0.06739974  1
  O2-  O286  1  0.79811728  0.67146109  0.39858279  1
  O2-  O287  1  0.79123900  0.66920686  0.73494966  1
