# generated using pymatgen
data_Ca2Al2SiO7
_symmetry_space_group_name_H-M   'P 1'
_cell_length_a   15.46301988
_cell_length_b   15.46222166
_cell_length_c   15.28704945
_cell_angle_alpha   90.00167625
_cell_angle_beta   90.00994007
_cell_angle_gamma   90.00073342
_symmetry_Int_Tables_number   1
_chemical_formula_structural   Ca2Al2SiO7
_chemical_formula_sum   'Ca48 Al48 Si24 O168'
_cell_volume   3655.02096884
_cell_formula_units_Z   24
loop_
 _symmetry_equiv_pos_site_id
 _symmetry_equiv_pos_as_xyz
  1  'x, y, z'
loop_
 _atom_type_symbol
 _atom_type_oxidation_number
  Ca2+  2.0
  Al0+  0.0
  Si0+  0.0
  O2-  -2.0
loop_
 _atom_site_type_symbol
 _atom_site_label
 _atom_site_symmetry_multiplicity
 _atom_site_fract_x
 _atom_site_fract_y
 _atom_site_fract_z
 _atom_site_occupancy
  Ca2+  Ca0  1  0.16740340  0.07297343  0.17645070  1
  Ca2+  Ca1  1  0.16733035  0.07738879  0.50429915  1
  Ca2+  Ca2  1  0.16509308  0.07518999  0.83167181  1
  Ca2+  Ca3  1  0.16854830  0.57922725  0.17814207  1
  Ca2+  Ca4  1  0.17883056  0.58396745  0.50483274  1
  Ca2+  Ca5  1  0.17215493  0.59406073  0.83408743  1
  Ca2+  Ca6  1  0.66932853  0.07670977  0.16970405  1
  Ca2+  Ca7  1  0.66875479  0.07575295  0.50587830  1
  Ca2+  Ca8  1  0.66523936  0.06718172  0.83753842  1
  Ca2+  Ca9  1  0.67241296  0.58201779  0.17597361  1
  Ca2+  Ca10  1  0.67052879  0.58287751  0.49960362  1
  Ca2+  Ca11  1  0.66422104  0.58855000  0.83745353  1
  Ca2+  Ca12  1  0.08852855  0.33017099  0.17112859  1
  Ca2+  Ca13  1  0.08811074  0.32095874  0.48980661  1
  Ca2+  Ca14  1  0.08292919  0.32479665  0.82384851  1
  Ca2+  Ca15  1  0.07577088  0.83542740  0.16081907  1
  Ca2+  Ca16  1  0.08684735  0.83254450  0.49326087  1
  Ca2+  Ca17  1  0.08740191  0.83052465  0.82992540  1
  Ca2+  Ca18  1  0.57916212  0.33789748  0.16988024  1
  Ca2+  Ca19  1  0.57215536  0.33582966  0.49303141  1
  Ca2+  Ca20  1  0.57466191  0.32873059  0.82387803  1
  Ca2+  Ca21  1  0.57535502  0.82965924  0.16101181  1
  Ca2+  Ca22  1  0.57684304  0.83117961  0.49525464  1
  Ca2+  Ca23  1  0.58945889  0.82582598  0.82797174  1
  Ca2+  Ca24  1  0.32893586  0.42504028  0.18023122  1
  Ca2+  Ca25  1  0.33569661  0.42172622  0.50053393  1
  Ca2+  Ca26  1  0.33712710  0.42180051  0.82957031  1
  Ca2+  Ca27  1  0.32107331  0.91657052  0.17831509  1
  Ca2+  Ca28  1  0.32624747  0.92518621  0.50328771  1
  Ca2+  Ca29  1  0.32044745  0.91730811  0.83421484  1
  Ca2+  Ca30  1  0.82858910  0.42468255  0.18302142  1
  Ca2+  Ca31  1  0.83361597  0.41698204  0.49676927  1
  Ca2+  Ca32  1  0.83191587  0.42065239  0.83790426  1
  Ca2+  Ca33  1  0.83004570  0.90341734  0.16912023  1
  Ca2+  Ca34  1  0.82921735  0.91173515  0.50314292  1
  Ca2+  Ca35  1  0.82449892  0.90730305  0.83692723  1
  Ca2+  Ca36  1  0.40727577  0.17126920  0.17237553  1
  Ca2+  Ca37  1  0.40637657  0.17361029  0.49376915  1
  Ca2+  Ca38  1  0.40943119  0.17315184  0.82413378  1
  Ca2+  Ca39  1  0.41664042  0.67020904  0.16720033  1
  Ca2+  Ca40  1  0.41714039  0.66716756  0.49532553  1
  Ca2+  Ca41  1  0.42776985  0.66624631  0.82408879  1
  Ca2+  Ca42  1  0.92105511  0.17150246  0.17113462  1
  Ca2+  Ca43  1  0.93018757  0.16865547  0.49066942  1
  Ca2+  Ca44  1  0.92249476  0.16746856  0.82686971  1
  Ca2+  Ca45  1  0.92125629  0.67276996  0.16352967  1
  Ca2+  Ca46  1  0.92297738  0.67124605  0.49372541  1
  Ca2+  Ca47  1  0.93118672  0.67261746  0.83156091  1
  Al0+  Al48  1  -0.00201220  0.00305921  -0.00076104  1
  Al0+  Al49  1  -0.00221119  -0.00123121  0.32740380  1
  Al0+  Al50  1  -0.00190254  0.00095289  0.66695865  1
  Al0+  Al51  1  0.00024976  0.49998652  -0.00351697  1
  Al0+  Al52  1  -0.00085538  0.49911509  0.33925207  1
  Al0+  Al53  1  -0.00071626  0.50219161  0.66416557  1
  Al0+  Al54  1  0.50076141  0.00244267  0.00496092  1
  Al0+  Al55  1  0.49926033  -0.00136727  0.33078138  1
  Al0+  Al56  1  0.50072410  0.00018270  0.67658890  1
  Al0+  Al57  1  0.49912184  0.49944529  -0.00333909  1
  Al0+  Al58  1  0.50219377  0.49829745  0.33481766  1
  Al0+  Al59  1  0.50101904  0.49976192  0.66297602  1
  Al0+  Al60  1  0.24957440  0.25210322  -0.00169133  1
  Al0+  Al61  1  0.25174041  0.24979192  0.32724700  1
  Al0+  Al62  1  0.24817782  0.25140830  0.66242609  1
  Al0+  Al63  1  0.25173725  0.75164275  0.00241343  1
  Al0+  Al64  1  0.25141436  0.74985678  0.33586228  1
  Al0+  Al65  1  0.25220716  0.74937844  0.67122974  1
  Al0+  Al66  1  0.74816791  0.24959253  -0.00145506  1
  Al0+  Al67  1  0.74990408  0.24813183  0.33402426  1
  Al0+  Al68  1  0.74808231  0.25081179  0.66847094  1
  Al0+  Al69  1  0.75003483  0.74894623  -0.00179720  1
  Al0+  Al70  1  0.75106261  0.74763928  0.33478822  1
  Al0+  Al71  1  0.75102867  0.74719838  0.66648670  1
  Al0+  Al72  1  0.42993876  0.31913644  0.65172249  1
  Al0+  Al73  1  0.17720459  0.92856162  0.68198717  1
  Al0+  Al74  1  0.32260575  0.56969527  0.68198505  1
  Al0+  Al75  1  0.82176810  0.57260771  0.34998848  1
  Al0+  Al76  1  0.43055320  0.32112259  0.31813708  1
  Al0+  Al77  1  0.92801472  0.32202917  0.31914438  1
  Al0+  Al78  1  0.32200249  0.57201648  0.34804360  1
  Al0+  Al79  1  0.17842541  0.42783231  0.34812967  1
  Al0+  Al80  1  0.06835385  0.17906630  0.65277717  1
  Al0+  Al81  1  0.92916002  0.82254104  0.98373189  1
  Al0+  Al82  1  0.67941629  0.42647450  0.34933241  1
  Al0+  Al83  1  0.31993452  0.07426077  0.68175441  1
  Al0+  Al84  1  0.68070898  0.92728089  0.01629639  1
  Al0+  Al85  1  0.68015045  0.92759628  0.67935909  1
  Al0+  Al86  1  0.42832905  0.82158944  0.32075145  1
  Al0+  Al87  1  0.07335045  0.67813115  0.98633906  1
  Al0+  Al88  1  0.92854484  0.81965627  0.32056874  1
  Al0+  Al89  1  0.17867384  0.92992426  0.01516484  1
  Al0+  Al90  1  0.56793240  0.68007862  0.98782132  1
  Al0+  Al91  1  0.07416746  0.68046678  0.65112065  1
  Al0+  Al92  1  0.32203696  0.06986994  0.34683772  1
  Al0+  Al93  1  0.57260770  0.67965070  0.65055878  1
  Al0+  Al94  1  0.07248192  0.17874276  0.31560740  1
  Al0+  Al95  1  0.17538752  0.92915126  0.34757925  1
  Si0+  Si96  1  0.92493817  0.32356346  0.65078370  1
  Si0+  Si97  1  0.92683064  0.32147598  0.98498227  1
  Si0+  Si98  1  0.67782233  0.42817520  0.01357985  1
  Si0+  Si99  1  0.57295229  0.17864043  0.98372340  1
  Si0+  Si100  1  0.82077385  0.07518252  0.01804072  1
  Si0+  Si101  1  0.67922684  0.42938809  0.68363222  1
  Si0+  Si102  1  0.17871841  0.42849172  0.01287887  1
  Si0+  Si103  1  0.42810275  0.82554298  0.98288506  1
  Si0+  Si104  1  0.32256523  0.56942556  0.01356018  1
  Si0+  Si105  1  0.07332321  0.67798014  0.31965298  1
  Si0+  Si106  1  0.82210697  0.57019872  0.68533925  1
  Si0+  Si107  1  0.07086682  0.18130659  0.98381517  1
  Si0+  Si108  1  0.17683170  0.42989427  0.68341104  1
  Si0+  Si109  1  0.82093875  0.07364937  0.68300738  1
  Si0+  Si110  1  0.67882983  0.92780888  0.34687846  1
  Si0+  Si111  1  0.42927982  0.82340831  0.65201859  1
  Si0+  Si112  1  0.57317427  0.17547507  0.31581521  1
  Si0+  Si113  1  0.42980557  0.31966931  0.98391106  1
  Si0+  Si114  1  0.92885676  0.82056503  0.65059924  1
  Si0+  Si115  1  0.32092828  0.07558188  0.01754908  1
  Si0+  Si116  1  0.82019660  0.07030689  0.34749176  1
  Si0+  Si117  1  0.57168370  0.67871366  0.31737198  1
  Si0+  Si118  1  0.57269466  0.17575132  0.65134499  1
  Si0+  Si119  1  0.82124777  0.56838341  0.01378044  1
  O2-  O120  1  0.25577464  0.00337141  0.06016331  1
  O2-  O121  1  0.24711188  0.00164811  0.39668191  1
  O2-  O122  1  0.24909481  0.00144992  0.73219304  1
  O2-  O123  1  0.24491721  0.50459594  0.05346848  1
  O2-  O124  1  0.24911900  0.50085244  0.39793741  1
  O2-  O125  1  0.24414814  0.49885350  0.73029222  1
  O2-  O126  1  0.75709365  0.00137203  0.06203814  1
  O2-  O127  1  0.75002125  -0.00173386  0.38925728  1
  O2-  O128  1  0.75331099  0.00397050  0.72711131  1
  O2-  O129  1  0.74974769  0.49749433  0.05555793  1
  O2-  O130  1  0.75218942  0.49745561  0.39943422  1
  O2-  O131  1  0.75166532  0.49791933  0.72799906  1
  O2-  O132  1  0.00256150  0.25440608  0.26634590  1
  O2-  O133  1  -0.00689325  0.25441199  0.60847357  1
  O2-  O134  1  -0.00179248  0.25156456  0.94198144  1
  O2-  O135  1  0.00578764  0.74739155  0.27462747  1
  O2-  O136  1  0.00320428  0.75911065  0.60587717  1
  O2-  O137  1  0.00634413  0.75503652  0.93529869  1
  O2-  O138  1  0.50503316  0.24529581  0.27165919  1
  O2-  O139  1  0.50139193  0.24032884  0.60660157  1
  O2-  O140  1  0.49850225  0.24632195  0.94180367  1
  O2-  O141  1  0.50159137  0.74544100  0.27310681  1
  O2-  O142  1  0.49836431  0.75536199  0.60671199  1
  O2-  O143  1  0.49703924  0.75701651  0.93828982  1
  O2-  O144  1  0.07254907  0.18362668  0.08816838  1
  O2-  O145  1  0.06934178  0.17718046  0.42902820  1
  O2-  O146  1  0.06581252  0.18158667  0.76701821  1
  O2-  O147  1  0.06927151  0.67083222  0.09930419  1
  O2-  O148  1  0.07252571  0.68029249  0.42522519  1
  O2-  O149  1  0.07079699  0.67926479  0.76441305  1
  O2-  O150  1  0.57753803  0.18083136  0.08823724  1
  O2-  O151  1  0.57488236  0.17287366  0.42116228  1
  O2-  O152  1  0.57569743  0.18021672  0.75734468  1
  O2-  O153  1  0.56553195  0.67718915  0.10052327  1
  O2-  O154  1  0.57339414  0.68183408  0.42286235  1
  O2-  O155  1  0.57231868  0.68022536  0.76430680  1
  O2-  O156  1  0.18058800  0.43147252  0.23311720  1
  O2-  O157  1  0.17759099  0.43043973  0.57860202  1
  O2-  O158  1  0.18088176  0.42266007  0.90799851  1
  O2-  O159  1  0.17576950  0.92961579  0.23353046  1
  O2-  O160  1  0.17667413  0.92941041  0.56919251  1
  O2-  O161  1  0.17970244  0.93204239  0.90213534  1
  O2-  O162  1  0.67930407  0.42981233  0.23458899  1
  O2-  O163  1  0.68065604  0.42777295  0.57947750  1
  O2-  O164  1  0.67870839  0.42763447  0.90813436  1
  O2-  O165  1  0.67982179  0.92826168  0.24167177  1
  O2-  O166  1  0.68176161  0.92918446  0.56595179  1
  O2-  O167  1  0.68168655  0.92864823  0.90308855  1
  O2-  O168  1  0.43074568  0.32157856  0.08843814  1
  O2-  O169  1  0.43274182  0.32094111  0.43076945  1
  O2-  O170  1  0.43346368  0.31949488  0.76607337  1
  O2-  O171  1  0.42887917  0.82299874  0.08851916  1
  O2-  O172  1  0.43300050  0.82437239  0.43360455  1
  O2-  O173  1  0.43097843  0.82105643  0.75809897  1
  O2-  O174  1  0.92465932  0.32212526  0.08908710  1
  O2-  O175  1  0.92514710  0.31467400  0.43237431  1
  O2-  O176  1  0.92470763  0.32258034  0.75751764  1
  O2-  O177  1  0.92825136  0.81677116  0.09710742  1
  O2-  O178  1  0.92482048  0.81878193  0.43353027  1
  O2-  O179  1  0.92619372  0.81674389  0.75616772  1
  O2-  O180  1  0.32152907  0.06635547  0.23257535  1
  O2-  O181  1  0.31971939  0.07360206  0.56898626  1
  O2-  O182  1  0.31844246  0.08000915  0.91213466  1
  O2-  O183  1  0.32112529  0.57080616  0.23325406  1
  O2-  O184  1  0.32409074  0.56798469  0.56985724  1
  O2-  O185  1  0.32651341  0.56521860  0.90857440  1
  O2-  O186  1  0.81758060  0.07238595  0.24234763  1
  O2-  O187  1  0.81913017  0.07517676  0.57757582  1
  O2-  O188  1  0.81625450  0.08115567  0.91256529  1
  O2-  O189  1  0.81779935  0.57425107  0.23549480  1
  O2-  O190  1  0.82179097  0.57034380  0.58096778  1
  O2-  O191  1  0.82128613  0.56487518  0.90835189  1
  O2-  O192  1  0.03644821  0.08328380  0.26111501  1
  O2-  O193  1  0.03648931  0.08307536  0.59872377  1
  O2-  O194  1  0.04259221  0.09038857  0.93564424  1
  O2-  O195  1  0.04658074  0.58388858  0.27553940  1
  O2-  O196  1  0.03933999  0.58455956  0.59868457  1
  O2-  O197  1  0.04141900  0.58091760  0.92996920  1
  O2-  O198  1  0.54634931  0.08335813  0.26670847  1
  O2-  O199  1  0.55303534  0.07943217  0.60961161  1
  O2-  O200  1  0.54802157  0.08514841  0.93818651  1
  O2-  O201  1  0.54934418  0.58419464  0.27242900  1
  O2-  O202  1  0.54249155  0.58318819  0.59805905  1
  O2-  O203  1  0.53672209  0.58354632  0.93149317  1
  O2-  O204  1  0.16982228  0.20589401  0.26003236  1
  O2-  O205  1  0.16347390  0.21089323  0.59877850  1
  O2-  O206  1  0.16149804  0.21278925  0.93543913  1
  O2-  O207  1  0.16737933  0.70008750  0.27351108  1
  O2-  O208  1  0.17325275  0.70621990  0.60089926  1
  O2-  O209  1  0.17407710  0.70344406  0.93598827  1
  O2-  O210  1  0.66618003  0.20120608  0.26832569  1
  O2-  O211  1  0.66568703  0.20404349  0.60483079  1
  O2-  O212  1  0.66228965  0.20982195  0.93261352  1
  O2-  O213  1  0.66417821  0.70703334  0.27057909  1
  O2-  O214  1  0.66970190  0.70894942  0.59757534  1
  O2-  O215  1  0.66555614  0.70715598  0.93400697  1
  O2-  O216  1  0.08452530  0.45079265  0.05784465  1
  O2-  O217  1  0.07887633  0.44779380  0.40064928  1
  O2-  O218  1  0.08154458  0.45274203  0.72885229  1
  O2-  O219  1  0.08054037  0.96220292  0.06534461  1
  O2-  O220  1  0.07555888  0.95600863  0.39786029  1
  O2-  O221  1  0.07787174  0.95759636  0.73454553  1
  O2-  O222  1  0.58584939  0.45708336  0.05975273  1
  O2-  O223  1  0.58280556  0.45676921  0.40296125  1
  O2-  O224  1  0.58852864  0.45936838  0.73165557  1
  O2-  O225  1  0.58418834  0.96057447  0.06987279  1
  O2-  O226  1  0.58806532  0.95719439  0.39405893  1
  O2-  O227  1  0.58553639  0.95608954  0.73876879  1
  O2-  O228  1  0.21132516  0.33907862  0.06247214  1
  O2-  O229  1  0.20939847  0.32918327  0.39676827  1
  O2-  O230  1  0.20448291  0.33678674  0.72991138  1
  O2-  O231  1  0.20763608  0.83236627  0.06889545  1
  O2-  O232  1  0.20482233  0.83115561  0.39880070  1
  O2-  O233  1  0.20875493  0.83163648  0.73687166  1
  O2-  O234  1  0.70345228  0.33555750  0.05977739  1
  O2-  O235  1  0.70476016  0.32696222  0.40137853  1
  O2-  O236  1  0.70441481  0.33660081  0.73298340  1
  O2-  O237  1  0.71015298  0.82984337  0.06931377  1
  O2-  O238  1  0.70675536  0.83674456  0.39452867  1
  O2-  O239  1  0.71427745  0.83157075  0.73359918  1
  O2-  O240  1  0.46464085  0.41682191  0.26242507  1
  O2-  O241  1  0.46657375  0.41317155  0.59843165  1
  O2-  O242  1  0.46087289  0.40963088  0.93440354  1
  O2-  O243  1  0.46178820  0.91551150  0.26265986  1
  O2-  O244  1  0.45621218  0.91798716  0.60925687  1
  O2-  O245  1  0.45265478  0.92080599  0.94011968  1
  O2-  O246  1  0.95067382  0.42312550  0.26867675  1
  O2-  O247  1  0.94848702  0.41756219  0.60649920  1
  O2-  O248  1  0.95413342  0.41237412  0.93512494  1
  O2-  O249  1  0.95226623  0.91615810  0.26334473  1
  O2-  O250  1  0.94395142  0.91771638  0.60876765  1
  O2-  O251  1  0.94719949  0.92517625  0.93453390  1
  O2-  O252  1  0.33584458  0.29190782  0.25940303  1
  O2-  O253  1  0.33204509  0.29467239  0.59930072  1
  O2-  O254  1  0.33741283  0.29370887  0.93597906  1
  O2-  O255  1  0.33246157  0.78992976  0.26518042  1
  O2-  O256  1  0.33618930  0.79693305  0.60740678  1
  O2-  O257  1  0.33471700  0.79933250  0.93759627  1
  O2-  O258  1  0.83037823  0.28922549  0.26489598  1
  O2-  O259  1  0.83025774  0.29914065  0.60698897  1
  O2-  O260  1  0.83506882  0.29307549  0.93588889  1
  O2-  O261  1  0.83261293  0.78536304  0.26574437  1
  O2-  O262  1  0.83814611  0.78749559  0.60331916  1
  O2-  O263  1  0.83269276  0.78753413  0.93047898  1
  O2-  O264  1  0.41716229  0.05719555  0.06073314  1
  O2-  O265  1  0.42077198  0.04138817  0.39918084  1
  O2-  O266  1  0.41931377  0.05032648  0.73682915  1
  O2-  O267  1  0.41128264  0.53379048  0.06249027  1
  O2-  O268  1  0.42061910  0.54323601  0.39847085  1
  O2-  O269  1  0.41871111  0.53376678  0.73590950  1
  O2-  O270  1  0.91657371  0.05729790  0.06125884  1
  O2-  O271  1  0.91134211  0.04159323  0.39420099  1
  O2-  O272  1  0.91388129  0.04947208  0.73052994  1
  O2-  O273  1  0.91275007  0.53940169  0.06078258  1
  O2-  O274  1  0.91952284  0.54743861  0.40443926  1
  O2-  O275  1  0.91370082  0.54178753  0.73390175  1
  O2-  O276  1  0.29130627  0.16874778  0.06359968  1
  O2-  O277  1  0.29877460  0.17105634  0.39335571  1
  O2-  O278  1  0.28877045  0.17284702  0.73467091  1
  O2-  O279  1  0.30352335  0.66395390  0.05849084  1
  O2-  O280  1  0.29633378  0.66980679  0.40246915  1
  O2-  O281  1  0.29610589  0.66645787  0.73791844  1
  O2-  O282  1  0.78812890  0.16653195  0.06615102  1
  O2-  O283  1  0.79178064  0.16011018  0.39757043  1
  O2-  O284  1  0.79524316  0.16724645  0.73106386  1
  O2-  O285  1  0.79290086  0.65984055  0.05984220  1
  O2-  O286  1  0.78805397  0.66822467  0.40606869  1
  O2-  O287  1  0.79164451  0.66061052  0.73350862  1
