# generated using pymatgen
data_Ca2Al2SiO7
_symmetry_space_group_name_H-M   'P 1'
_cell_length_a   15.45488247
_cell_length_b   15.45415390
_cell_length_c   15.28100603
_cell_angle_alpha   89.98886520
_cell_angle_beta   89.99662424
_cell_angle_gamma   90.01009052
_symmetry_Int_Tables_number   1
_chemical_formula_structural   Ca2Al2SiO7
_chemical_formula_sum   'Ca48 Al48 Si24 O168'
_cell_volume   3649.74793122
_cell_formula_units_Z   24
loop_
 _symmetry_equiv_pos_site_id
 _symmetry_equiv_pos_as_xyz
  1  'x, y, z'
loop_
 _atom_type_symbol
 _atom_type_oxidation_number
  Ca2+  2.0
  Al0+  0.0
  Si0+  0.0
  O2-  -2.0
loop_
 _atom_site_type_symbol
 _atom_site_label
 _atom_site_symmetry_multiplicity
 _atom_site_fract_x
 _atom_site_fract_y
 _atom_site_fract_z
 _atom_site_occupancy
  Ca2+  Ca0  1  0.16221223  0.08281263  0.17379004  1
  Ca2+  Ca1  1  0.17688118  0.09172254  0.50074315  1
  Ca2+  Ca2  1  0.16618030  0.07991071  0.83809067  1
  Ca2+  Ca3  1  0.16713763  0.57809255  0.17526486  1
  Ca2+  Ca4  1  0.16456740  0.58030312  0.50094664  1
  Ca2+  Ca5  1  0.17959307  0.58929032  0.83893064  1
  Ca2+  Ca6  1  0.67853240  0.08336244  0.17283220  1
  Ca2+  Ca7  1  0.67092404  0.07843336  0.50349889  1
  Ca2+  Ca8  1  0.67342077  0.06975148  0.84033734  1
  Ca2+  Ca9  1  0.67868337  0.58477672  0.17236230  1
  Ca2+  Ca10  1  0.67223181  0.58489236  0.50731239  1
  Ca2+  Ca11  1  0.67721262  0.58251398  0.83203262  1
  Ca2+  Ca12  1  0.08214498  0.32338046  0.16143322  1
  Ca2+  Ca13  1  0.07928668  0.33268766  0.49410035  1
  Ca2+  Ca14  1  0.07048345  0.32985633  0.83214447  1
  Ca2+  Ca15  1  0.07855023  0.83390628  0.16535639  1
  Ca2+  Ca16  1  0.07078149  0.82511829  0.49227851  1
  Ca2+  Ca17  1  0.07663566  0.83519860  0.82863154  1
  Ca2+  Ca18  1  0.58573979  0.32579702  0.16660399  1
  Ca2+  Ca19  1  0.58273339  0.33079668  0.49532643  1
  Ca2+  Ca20  1  0.58627860  0.33354525  0.82674500  1
  Ca2+  Ca21  1  0.58606362  0.83015033  0.16571049  1
  Ca2+  Ca22  1  0.58991696  0.82226292  0.49737900  1
  Ca2+  Ca23  1  0.59032566  0.82893746  0.82521790  1
  Ca2+  Ca24  1  0.32576591  0.41962403  0.17151084  1
  Ca2+  Ca25  1  0.32363589  0.41925286  0.50352614  1
  Ca2+  Ca26  1  0.33486082  0.43010726  0.83564342  1
  Ca2+  Ca27  1  0.32285279  0.92106639  0.17075008  1
  Ca2+  Ca28  1  0.33472273  0.92756129  0.50300712  1
  Ca2+  Ca29  1  0.32615145  0.92130500  0.83832173  1
  Ca2+  Ca30  1  0.84525279  0.42712601  0.16931785  1
  Ca2+  Ca31  1  0.83073216  0.42856797  0.50838926  1
  Ca2+  Ca32  1  0.83674597  0.42071324  0.83450798  1
  Ca2+  Ca33  1  0.83491310  0.92675787  0.17031842  1
  Ca2+  Ca34  1  0.83532368  0.91718577  0.50245288  1
  Ca2+  Ca35  1  0.82452225  0.91425365  0.83869386  1
  Ca2+  Ca36  1  0.42068240  0.16101280  0.16853118  1
  Ca2+  Ca37  1  0.42175131  0.16086144  0.49105153  1
  Ca2+  Ca38  1  0.41660814  0.16684797  0.82711337  1
  Ca2+  Ca39  1  0.42354183  0.66218136  0.16174250  1
  Ca2+  Ca40  1  0.42899056  0.65891864  0.49772308  1
  Ca2+  Ca41  1  0.42086261  0.66555529  0.82407543  1
  Ca2+  Ca42  1  0.92272988  0.16664124  0.15717489  1
  Ca2+  Ca43  1  0.91780451  0.17418094  0.49108771  1
  Ca2+  Ca44  1  0.91471578  0.17252181  0.83202704  1
  Ca2+  Ca45  1  0.91650159  0.66706191  0.16747740  1
  Ca2+  Ca46  1  0.90855736  0.67616088  0.49266207  1
  Ca2+  Ca47  1  0.91046177  0.66995690  0.82541279  1
  Al0+  Al48  1  0.00054685  -0.00190266  0.00073724  1
  Al0+  Al49  1  -0.00104644  0.00008649  0.33275613  1
  Al0+  Al50  1  0.00210653  0.00072332  0.66040878  1
  Al0+  Al51  1  0.00224308  0.49958502  -0.00176862  1
  Al0+  Al52  1  0.00009780  0.50206785  0.34045507  1
  Al0+  Al53  1  0.00070361  0.49830749  0.66686546  1
  Al0+  Al54  1  0.49822335  -0.00225902  0.00175642  1
  Al0+  Al55  1  0.49971276  -0.00056510  0.33109262  1
  Al0+  Al56  1  0.49972823  -0.00037756  0.67531628  1
  Al0+  Al57  1  0.50188753  0.49991248  0.00357468  1
  Al0+  Al58  1  0.49954390  0.49956593  0.32628809  1
  Al0+  Al59  1  0.49937446  0.49840773  0.66834600  1
  Al0+  Al60  1  0.25165412  0.25090951  -0.00712892  1
  Al0+  Al61  1  0.24895407  0.25194576  0.33756458  1
  Al0+  Al62  1  0.25097233  0.25081045  0.67285067  1
  Al0+  Al63  1  0.25241220  0.75198697  0.00852868  1
  Al0+  Al64  1  0.25029222  0.75025079  0.33264549  1
  Al0+  Al65  1  0.24982909  0.75185450  0.66767471  1
  Al0+  Al66  1  0.74881429  0.24982606  -0.00234883  1
  Al0+  Al67  1  0.74866838  0.25043123  0.33228603  1
  Al0+  Al68  1  0.75018930  0.25009922  0.66432224  1
  Al0+  Al69  1  0.74919979  0.74743318  0.00734483  1
  Al0+  Al70  1  0.74850194  0.75111699  0.32626159  1
  Al0+  Al71  1  0.74962309  0.75015843  0.66520352  1
  Al0+  Al72  1  0.82140532  0.57130531  0.68066970  1
  Al0+  Al73  1  0.92865473  0.82010313  0.65439486  1
  Al0+  Al74  1  0.67692659  0.92691067  0.01746277  1
  Al0+  Al75  1  0.17915949  0.43043605  0.34688407  1
  Al0+  Al76  1  0.82252230  0.07253809  0.34799660  1
  Al0+  Al77  1  0.07106189  0.18156205  0.32180955  1
  Al0+  Al78  1  0.56861813  0.67937690  0.65460567  1
  Al0+  Al79  1  0.92789438  0.32087619  0.65006971  1
  Al0+  Al80  1  0.31957542  0.57085483  0.67783386  1
  Al0+  Al81  1  0.57143929  0.17788674  0.32016764  1
  Al0+  Al82  1  0.17877179  0.93058323  0.01402744  1
  Al0+  Al83  1  0.81984227  0.07131737  0.01342593  1
  Al0+  Al84  1  0.92812448  0.32244006  0.98465240  1
  Al0+  Al85  1  0.81889205  0.57145235  0.34793846  1
  Al0+  Al86  1  0.31949551  0.06944176  0.34551654  1
  Al0+  Al87  1  0.32107706  0.07118273  0.68164891  1
  Al0+  Al88  1  0.07152342  0.67770264  0.31831125  1
  Al0+  Al89  1  0.82266248  0.56873422  0.01429237  1
  Al0+  Al90  1  0.32270769  0.57130653  0.01527541  1
  Al0+  Al91  1  0.56950512  0.67833639  0.31731202  1
  Al0+  Al92  1  0.92801254  0.82155269  0.31490552  1
  Al0+  Al93  1  0.07189574  0.17575138  0.98323352  1
  Al0+  Al94  1  0.67857574  0.42697648  0.68025258  1
  Al0+  Al95  1  0.68166451  0.92945637  0.67818687  1
  Si0+  Si96  1  0.17707756  0.92885716  0.68181496  1
  Si0+  Si97  1  0.07528654  0.67779716  0.65223573  1
  Si0+  Si98  1  0.92867657  0.81789757  0.98520318  1
  Si0+  Si99  1  0.57093985  0.67923794  0.98339582  1
  Si0+  Si100  1  0.07387368  0.67932353  0.98598383  1
  Si0+  Si101  1  0.67824904  0.92968727  0.35006542  1
  Si0+  Si102  1  0.56975876  0.17728303  0.98351359  1
  Si0+  Si103  1  0.07361072  0.17955371  0.64858040  1
  Si0+  Si104  1  0.32424407  0.57308859  0.34954566  1
  Si0+  Si105  1  0.18010671  0.42857767  0.01515313  1
  Si0+  Si106  1  0.67560111  0.42793855  0.34852937  1
  Si0+  Si107  1  0.32135640  0.07473087  0.01687440  1
  Si0+  Si108  1  0.42861285  0.32054016  0.65177510  1
  Si0+  Si109  1  0.42748260  0.82328271  0.31578756  1
  Si0+  Si110  1  0.42724785  0.32110622  0.31640270  1
  Si0+  Si111  1  0.42786732  0.82012030  0.98415308  1
  Si0+  Si112  1  0.43052547  0.32235572  0.98337130  1
  Si0+  Si113  1  0.17728647  0.42711033  0.68689448  1
  Si0+  Si114  1  0.56920159  0.17698659  0.65327071  1
  Si0+  Si115  1  0.17639342  0.92613000  0.35248390  1
  Si0+  Si116  1  0.82463906  0.07285144  0.68115002  1
  Si0+  Si117  1  0.67747228  0.42690822  0.01806672  1
  Si0+  Si118  1  0.92734844  0.32285731  0.31833822  1
  Si0+  Si119  1  0.42598312  0.82388527  0.65095649  1
  O2-  O120  1  0.24817219  0.01091726  0.06006212  1
  O2-  O121  1  0.24481787  -0.00371630  0.39521908  1
  O2-  O122  1  0.24550120  -0.00256854  0.72700355  1
  O2-  O123  1  0.24745816  0.49754229  0.06102208  1
  O2-  O124  1  0.25224604  0.50790448  0.39309250  1
  O2-  O125  1  0.24223146  0.50101824  0.72852455  1
  O2-  O126  1  0.74707738  0.00109117  0.06559532  1
  O2-  O127  1  0.74760291  -0.00243969  0.39437985  1
  O2-  O128  1  0.75831612  0.00189733  0.72527376  1
  O2-  O129  1  0.75123762  0.49048097  0.06097930  1
  O2-  O130  1  0.74303873  0.49704852  0.39294313  1
  O2-  O131  1  0.75241091  0.49633452  0.73109370  1
  O2-  O132  1  -0.00723748  0.25143433  0.27379825  1
  O2-  O133  1  0.00292282  0.24580683  0.60425321  1
  O2-  O134  1  -0.00259816  0.24656724  0.93514660  1
  O2-  O135  1  0.00145346  0.74982820  0.26568737  1
  O2-  O136  1  0.00190974  0.74245529  0.60998378  1
  O2-  O137  1  -0.00031414  0.74645766  0.94233460  1
  O2-  O138  1  0.49671330  0.25283785  0.27260144  1
  O2-  O139  1  0.49860020  0.24835831  0.61001038  1
  O2-  O140  1  0.49960867  0.24933001  0.94061179  1
  O2-  O141  1  0.49174208  0.75050206  0.27105972  1
  O2-  O142  1  0.49283459  0.75350758  0.60700623  1
  O2-  O143  1  0.50084922  0.75142735  0.94093412  1
  O2-  O144  1  0.07426226  0.17900783  0.09688756  1
  O2-  O145  1  0.07325652  0.18594940  0.43493770  1
  O2-  O146  1  0.07364545  0.17922847  0.75411947  1
  O2-  O147  1  0.07393067  0.67960060  0.09062882  1
  O2-  O148  1  0.07197760  0.67962295  0.43212931  1
  O2-  O149  1  0.08002959  0.68201332  0.75824336  1
  O2-  O150  1  0.56818327  0.17835158  0.08860189  1
  O2-  O151  1  0.56890695  0.17763155  0.43364617  1
  O2-  O152  1  0.56674622  0.17752607  0.75866788  1
  O2-  O153  1  0.56853121  0.67926141  0.08850251  1
  O2-  O154  1  0.56868448  0.67797138  0.43064447  1
  O2-  O155  1  0.56790319  0.68088292  0.76802127  1
  O2-  O156  1  0.18280785  0.42881277  0.23360963  1
  O2-  O157  1  0.18019335  0.42405512  0.58124217  1
  O2-  O158  1  0.18253008  0.43112049  0.90950423  1
  O2-  O159  1  0.17854155  0.92647416  0.24665573  1
  O2-  O160  1  0.17825099  0.92843238  0.57664564  1
  O2-  O161  1  0.18212522  0.92792977  0.90057111  1
  O2-  O162  1  0.67520810  0.42809121  0.24276160  1
  O2-  O163  1  0.67648077  0.42754292  0.56676524  1
  O2-  O164  1  0.67218967  0.42977471  0.91273515  1
  O2-  O165  1  0.67717792  0.93241780  0.24455340  1
  O2-  O166  1  0.67939588  0.93164795  0.56537538  1
  O2-  O167  1  0.67869279  0.92630415  0.90336138  1
  O2-  O168  1  0.42988846  0.32218660  0.08830811  1
  O2-  O169  1  0.42820816  0.32246239  0.42218205  1
  O2-  O170  1  0.42924788  0.32019188  0.75723752  1
  O2-  O171  1  0.42706029  0.81891346  0.08905089  1
  O2-  O172  1  0.42965719  0.82588735  0.42146685  1
  O2-  O173  1  0.42520719  0.82297631  0.75684115  1
  O2-  O174  1  0.93278303  0.32444288  0.09828251  1
  O2-  O175  1  0.92853749  0.32131513  0.42409313  1
  O2-  O176  1  0.92900983  0.31911402  0.76303870  1
  O2-  O177  1  0.93022592  0.81765179  0.08973887  1
  O2-  O178  1  0.92791134  0.81996711  0.42893599  1
  O2-  O179  1  0.92999704  0.82033452  0.76824146  1
  O2-  O180  1  0.31907702  0.06790740  0.23246476  1
  O2-  O181  1  0.32231023  0.07119142  0.56855852  1
  O2-  O182  1  0.32368729  0.07168466  0.91107096  1
  O2-  O183  1  0.32543920  0.56949097  0.24382586  1
  O2-  O184  1  0.31998312  0.56667893  0.56500670  1
  O2-  O185  1  0.32293033  0.57134187  0.90178036  1
  O2-  O186  1  0.82138012  0.07364286  0.23512908  1
  O2-  O187  1  0.82199692  0.07337983  0.57547380  1
  O2-  O188  1  0.81736663  0.06912648  0.89929391  1
  O2-  O189  1  0.81967757  0.56836255  0.23451776  1
  O2-  O190  1  0.81725531  0.57286383  0.56731374  1
  O2-  O191  1  0.81961491  0.57261644  0.90154262  1
  O2-  O192  1  0.04600809  0.08284529  0.27053857  1
  O2-  O193  1  0.05442186  0.08484271  0.60230231  1
  O2-  O194  1  0.04542461  0.07623957  0.93061789  1
  O2-  O195  1  0.04261872  0.57850421  0.26698318  1
  O2-  O196  1  0.05646379  0.58143111  0.61025342  1
  O2-  O197  1  0.05224753  0.58637978  0.93823760  1
  O2-  O198  1  0.53842843  0.08309527  0.26406871  1
  O2-  O199  1  0.53861756  0.08547137  0.60694959  1
  O2-  O200  1  0.53998514  0.08512903  0.93705990  1
  O2-  O201  1  0.54049554  0.58200952  0.26057763  1
  O2-  O202  1  0.53662838  0.58265080  0.60087181  1
  O2-  O203  1  0.54185677  0.58668692  0.93829358  1
  O2-  O204  1  0.16700623  0.21496767  0.26756358  1
  O2-  O205  1  0.16778801  0.20975633  0.60533621  1
  O2-  O206  1  0.17058837  0.20550400  0.92926853  1
  O2-  O207  1  0.17242625  0.70219071  0.26706178  1
  O2-  O208  1  0.16660002  0.70712991  0.60268372  1
  O2-  O209  1  0.16562510  0.71233055  0.94048632  1
  O2-  O210  1  0.66627131  0.21088365  0.26332447  1
  O2-  O211  1  0.66130151  0.20230982  0.60584043  1
  O2-  O212  1  0.66108318  0.20363490  0.93488459  1
  O2-  O213  1  0.66310482  0.71232079  0.26058608  1
  O2-  O214  1  0.66343747  0.71263543  0.59941825  1
  O2-  O215  1  0.66375935  0.70706500  0.93808121  1
  O2-  O216  1  0.08691480  0.45285517  0.06121985  1
  O2-  O217  1  0.08466129  0.46009415  0.40522026  1
  O2-  O218  1  0.08267756  0.44832726  0.73136063  1
  O2-  O219  1  0.08159255  0.95487226  0.06849332  1
  O2-  O220  1  0.08261802  0.95061861  0.39711900  1
  O2-  O221  1  0.08377320  0.95581509  0.72863210  1
  O2-  O222  1  0.58655418  0.45687606  0.06746363  1
  O2-  O223  1  0.58024659  0.45195428  0.39211929  1
  O2-  O224  1  0.58045778  0.45482781  0.73455245  1
  O2-  O225  1  0.57654019  0.95232136  0.06761864  1
  O2-  O226  1  0.58461630  0.95546727  0.39565824  1
  O2-  O227  1  0.58636225  0.95971839  0.73591188  1
  O2-  O228  1  0.20913356  0.33472752  0.05909187  1
  O2-  O229  1  0.21427902  0.33737127  0.40529422  1
  O2-  O230  1  0.20895246  0.33680687  0.73576907  1
  O2-  O231  1  0.21565373  0.83819254  0.07217945  1
  O2-  O232  1  0.20412769  0.83299658  0.39874555  1
  O2-  O233  1  0.20221426  0.83594523  0.72996701  1
  O2-  O234  1  0.69622163  0.33075615  0.06092830  1
  O2-  O235  1  0.69893837  0.33395192  0.39430127  1
  O2-  O236  1  0.70432587  0.32736912  0.73317618  1
  O2-  O237  1  0.70537966  0.82948952  0.07058362  1
  O2-  O238  1  0.70388290  0.83509854  0.39326288  1
  O2-  O239  1  0.71156606  0.83377177  0.73380725  1
  O2-  O240  1  0.45181639  0.41346486  0.26681541  1
  O2-  O241  1  0.45644557  0.41102083  0.60250144  1
  O2-  O242  1  0.46170851  0.41393521  0.93635001  1
  O2-  O243  1  0.45705317  0.91406666  0.26597720  1
  O2-  O244  1  0.45452168  0.91783624  0.60707806  1
  O2-  O245  1  0.45134578  0.91373051  0.93709003  1
  O2-  O246  1  0.95774786  0.41591644  0.27510533  1
  O2-  O247  1  0.95924369  0.41830764  0.59719199  1
  O2-  O248  1  0.96182252  0.41929889  0.92923400  1
  O2-  O249  1  0.95789371  0.92001693  0.26306550  1
  O2-  O250  1  0.95977272  0.91614821  0.59858614  1
  O2-  O251  1  0.95649538  0.90928666  0.93739985  1
  O2-  O252  1  0.33484244  0.29303139  0.27000715  1
  O2-  O253  1  0.33568780  0.29346340  0.60621573  1
  O2-  O254  1  0.33929820  0.29806141  0.93269109  1
  O2-  O255  1  0.33224046  0.80234916  0.27114310  1
  O2-  O256  1  0.33180776  0.80208363  0.60438437  1
  O2-  O257  1  0.33658688  0.79006809  0.93641244  1
  O2-  O258  1  0.83234673  0.30293121  0.27329938  1
  O2-  O259  1  0.83102828  0.29112707  0.59551805  1
  O2-  O260  1  0.82757096  0.29824059  0.93267439  1
  O2-  O261  1  0.83039361  0.79421359  0.26099866  1
  O2-  O262  1  0.83308681  0.79060221  0.59851846  1
  O2-  O263  1  0.83573276  0.78821934  0.94032154  1
  O2-  O264  1  0.41308840  0.04395742  0.06345565  1
  O2-  O265  1  0.41629948  0.03710366  0.39938555  1
  O2-  O266  1  0.41543416  0.04024056  0.73985910  1
  O2-  O267  1  0.41818236  0.53754042  0.06942688  1
  O2-  O268  1  0.41688962  0.54187707  0.39461991  1
  O2-  O269  1  0.41353405  0.53576052  0.73433724  1
  O2-  O270  1  0.91823251  0.04214737  0.06463928  1
  O2-  O271  1  0.91885869  0.04264174  0.40286859  1
  O2-  O272  1  0.92034973  0.05078156  0.72368345  1
  O2-  O273  1  0.92142375  0.54150037  0.06636557  1
  O2-  O274  1  0.91467526  0.54308007  0.40358823  1
  O2-  O275  1  0.92201882  0.54728830  0.73161583  1
  O2-  O276  1  0.30308784  0.17143528  0.05869018  1
  O2-  O277  1  0.29154561  0.16637803  0.40043777  1
  O2-  O278  1  0.29262334  0.16779165  0.73718387  1
  O2-  O279  1  0.29459318  0.66709935  0.07047024  1
  O2-  O280  1  0.30516341  0.66879208  0.39339708  1
  O2-  O281  1  0.29381133  0.66944266  0.73199023  1
  O2-  O282  1  0.79212983  0.17060939  0.06521322  1
  O2-  O283  1  0.78961563  0.16944861  0.40097548  1
  O2-  O284  1  0.79538340  0.16488214  0.72745593  1
  O2-  O285  1  0.78783324  0.66224399  0.07088318  1
  O2-  O286  1  0.78543147  0.66944782  0.39695299  1
  O2-  O287  1  0.78844175  0.66795764  0.73429731  1
