# generated using pymatgen
data_Ca2Al2SiO7
_symmetry_space_group_name_H-M   'P 1'
_cell_length_a   15.46697768
_cell_length_b   15.46855451
_cell_length_c   15.29100307
_cell_angle_alpha   89.99717828
_cell_angle_beta   90.00649386
_cell_angle_gamma   90.01330014
_symmetry_Int_Tables_number   1
_chemical_formula_structural   Ca2Al2SiO7
_chemical_formula_sum   'Ca48 Al48 Si24 O168'
_cell_volume   3658.39968725
_cell_formula_units_Z   24
loop_
 _symmetry_equiv_pos_site_id
 _symmetry_equiv_pos_as_xyz
  1  'x, y, z'
loop_
 _atom_type_symbol
 _atom_type_oxidation_number
  Ca2+  2.0
  Al0+  0.0
  Si0+  0.0
  O2-  -2.0
loop_
 _atom_site_type_symbol
 _atom_site_label
 _atom_site_symmetry_multiplicity
 _atom_site_fract_x
 _atom_site_fract_y
 _atom_site_fract_z
 _atom_site_occupancy
  Ca2+  Ca0  1  0.17035334  0.08837514  0.17108374  1
  Ca2+  Ca1  1  0.17560334  0.08379240  0.50502930  1
  Ca2+  Ca2  1  0.17488303  0.07682563  0.84497829  1
  Ca2+  Ca3  1  0.17412556  0.57301805  0.17086723  1
  Ca2+  Ca4  1  0.16356406  0.58078451  0.50268020  1
  Ca2+  Ca5  1  0.17030151  0.58181668  0.84278770  1
  Ca2+  Ca6  1  0.67447863  0.08123539  0.17538861  1
  Ca2+  Ca7  1  0.67430872  0.08261954  0.49755755  1
  Ca2+  Ca8  1  0.66852529  0.08380833  0.84075666  1
  Ca2+  Ca9  1  0.66288370  0.57512690  0.17223716  1
  Ca2+  Ca10  1  0.66497223  0.58081093  0.49557095  1
  Ca2+  Ca11  1  0.66798079  0.57712384  0.84453147  1
  Ca2+  Ca12  1  0.08267281  0.32660594  0.16103493  1
  Ca2+  Ca13  1  0.07294727  0.32974748  0.48669970  1
  Ca2+  Ca14  1  0.07660623  0.33787249  0.83075272  1
  Ca2+  Ca15  1  0.07736986  0.83798101  0.15741669  1
  Ca2+  Ca16  1  0.09401151  0.82809791  0.50057906  1
  Ca2+  Ca17  1  0.08926569  0.83323031  0.83119833  1
  Ca2+  Ca18  1  0.58464449  0.33167259  0.15847636  1
  Ca2+  Ca19  1  0.58003979  0.33420037  0.49261872  1
  Ca2+  Ca20  1  0.58351956  0.32930927  0.83730196  1
  Ca2+  Ca21  1  0.58636511  0.82159943  0.16131524  1
  Ca2+  Ca22  1  0.57670968  0.83165344  0.49037285  1
  Ca2+  Ca23  1  0.57338082  0.82586240  0.82942026  1
  Ca2+  Ca24  1  0.32227702  0.42173305  0.16940340  1
  Ca2+  Ca25  1  0.32486759  0.42124990  0.49527844  1
  Ca2+  Ca26  1  0.32453446  0.42530479  0.84642817  1
  Ca2+  Ca27  1  0.32955774  0.92824652  0.16643650  1
  Ca2+  Ca28  1  0.33268128  0.92694545  0.50869021  1
  Ca2+  Ca29  1  0.32503898  0.91981661  0.83561057  1
  Ca2+  Ca30  1  0.82352265  0.40180043  0.16929791  1
  Ca2+  Ca31  1  0.82991059  0.40574584  0.50114476  1
  Ca2+  Ca32  1  0.83267633  0.41244568  0.84055487  1
  Ca2+  Ca33  1  0.82975406  0.92215325  0.17545800  1
  Ca2+  Ca34  1  0.82823013  0.91908579  0.49651121  1
  Ca2+  Ca35  1  0.83368054  0.91586221  0.84116555  1
  Ca2+  Ca36  1  0.42232002  0.16036812  0.15955487  1
  Ca2+  Ca37  1  0.41297987  0.16314382  0.49453538  1
  Ca2+  Ca38  1  0.42048974  0.15390794  0.83407265  1
  Ca2+  Ca39  1  0.42419655  0.65470750  0.16305296  1
  Ca2+  Ca40  1  0.41712399  0.67420421  0.49036690  1
  Ca2+  Ca41  1  0.41597446  0.66907462  0.83038411  1
  Ca2+  Ca42  1  0.92695741  0.17178844  0.16320788  1
  Ca2+  Ca43  1  0.92267211  0.17266706  0.48939431  1
  Ca2+  Ca44  1  0.92741928  0.17652928  0.83545068  1
  Ca2+  Ca45  1  0.91502262  0.67644954  0.16132660  1
  Ca2+  Ca46  1  0.92365472  0.66788454  0.49893992  1
  Ca2+  Ca47  1  0.92410228  0.67445490  0.83137762  1
  Al0+  Al48  1  -0.00151761  0.00198820  -0.00666666  1
  Al0+  Al49  1  0.00020559  0.00044508  0.33590695  1
  Al0+  Al50  1  -0.00223974  0.00024264  0.66918635  1
  Al0+  Al51  1  -0.00161779  0.50334070  0.00159770  1
  Al0+  Al52  1  -0.00381380  0.50156889  0.33049697  1
  Al0+  Al53  1  -0.00294884  0.50174972  0.65922227  1
  Al0+  Al54  1  0.50069238  -0.00309489  -0.00235301  1
  Al0+  Al55  1  0.49785813  -0.00147545  0.33903885  1
  Al0+  Al56  1  0.50261321  -0.00187348  0.66471010  1
  Al0+  Al57  1  0.50304970  0.49804400  0.00027851  1
  Al0+  Al58  1  0.50047670  0.50031566  0.33872748  1
  Al0+  Al59  1  0.50103649  0.49688188  0.66652800  1
  Al0+  Al60  1  0.25267900  0.25036346  0.00274854  1
  Al0+  Al61  1  0.24966476  0.25210588  0.33873424  1
  Al0+  Al62  1  0.25241340  0.25151509  0.67140345  1
  Al0+  Al63  1  0.25160827  0.75276079  0.00982144  1
  Al0+  Al64  1  0.25169387  0.75139235  0.33129240  1
  Al0+  Al65  1  0.25187006  0.75079009  0.66064268  1
  Al0+  Al66  1  0.74993264  0.24884345  -0.00506700  1
  Al0+  Al67  1  0.74855830  0.24868521  0.34009418  1
  Al0+  Al68  1  0.74845457  0.24879600  0.66498285  1
  Al0+  Al69  1  0.74934926  0.74851131  -0.00990127  1
  Al0+  Al70  1  0.74789689  0.74795728  0.33491824  1
  Al0+  Al71  1  0.75119004  0.74748743  0.66709052  1
  Al0+  Al72  1  0.32303688  0.07246551  0.68366414  1
  Al0+  Al73  1  0.07027995  0.68210426  0.65413526  1
  Al0+  Al74  1  0.56952204  0.67638756  0.98531548  1
  Al0+  Al75  1  0.82202677  0.07073112  0.34840504  1
  Al0+  Al76  1  0.67855098  0.92645096  0.34690301  1
  Al0+  Al77  1  0.93002839  0.32257120  0.98570299  1
  Al0+  Al78  1  0.17565278  0.43073888  0.34917523  1
  Al0+  Al79  1  0.17617041  0.93109434  0.01624162  1
  Al0+  Al80  1  0.68055806  0.42888593  0.34751986  1
  Al0+  Al81  1  0.17483078  0.42861306  0.01375379  1
  Al0+  Al82  1  0.07551662  0.18004631  0.98407499  1
  Al0+  Al83  1  0.32321151  0.07077149  0.01548442  1
  Al0+  Al84  1  0.57035694  0.17702404  0.98815616  1
  Al0+  Al85  1  0.92970830  0.31944633  0.65176113  1
  Al0+  Al86  1  0.32264804  0.57232419  0.01361909  1
  Al0+  Al87  1  0.56890470  0.67967967  0.31904023  1
  Al0+  Al88  1  0.92905275  0.82254722  0.98757236  1
  Al0+  Al89  1  0.31977277  0.07140319  0.34702258  1
  Al0+  Al90  1  0.32096046  0.57141327  0.34946248  1
  Al0+  Al91  1  0.07294194  0.17908976  0.31963725  1
  Al0+  Al92  1  0.68300001  0.42829625  0.01249760  1
  Al0+  Al93  1  0.92556101  0.32167915  0.31712138  1
  Al0+  Al94  1  0.17889150  0.92781453  0.68108438  1
  Al0+  Al95  1  0.43171836  0.81912540  0.65171022  1
  Si0+  Si96  1  0.92931080  0.81973605  0.32083174  1
  Si0+  Si97  1  0.82157105  0.57048970  0.68299270  1
  Si0+  Si98  1  0.68094282  0.92696153  0.68298532  1
  Si0+  Si99  1  0.92455996  0.82393016  0.64796419  1
  Si0+  Si100  1  0.42831896  0.32327625  0.65075850  1
  Si0+  Si101  1  0.42813428  0.82166806  0.98310442  1
  Si0+  Si102  1  0.07272893  0.67905272  0.31645111  1
  Si0+  Si103  1  0.17677347  0.43169065  0.67995808  1
  Si0+  Si104  1  0.82091863  0.57506199  0.01627476  1
  Si0+  Si105  1  0.56870953  0.17776667  0.32064372  1
  Si0+  Si106  1  0.17627299  0.92784965  0.34970646  1
  Si0+  Si107  1  0.67991389  0.92637156  0.01199665  1
  Si0+  Si108  1  0.81884514  0.07220140  0.68430782  1
  Si0+  Si109  1  0.81911188  0.07054443  0.01284437  1
  Si0+  Si110  1  0.07379166  0.68101097  0.98704646  1
  Si0+  Si111  1  0.42711685  0.82416016  0.31297658  1
  Si0+  Si112  1  0.57329861  0.67489627  0.64877121  1
  Si0+  Si113  1  0.82134584  0.57500023  0.35109377  1
  Si0+  Si114  1  0.42987462  0.32148042  0.31955587  1
  Si0+  Si115  1  0.07391108  0.17827634  0.65154600  1
  Si0+  Si116  1  0.42956793  0.32193371  0.98412628  1
  Si0+  Si117  1  0.67934867  0.42779810  0.68348911  1
  Si0+  Si118  1  0.56964046  0.17943895  0.65020364  1
  Si0+  Si119  1  0.32142701  0.57024457  0.67950533  1
  O2-  O120  1  0.24491180  0.00620482  0.06603299  1
  O2-  O121  1  0.24407585  -0.00242142  0.39287651  1
  O2-  O122  1  0.24630188  0.00418007  0.73107286  1
  O2-  O123  1  0.24819202  0.50135052  0.06067297  1
  O2-  O124  1  0.24365287  0.50613789  0.40110291  1
  O2-  O125  1  0.24961518  0.50075728  0.72256389  1
  O2-  O126  1  0.75012882  -0.00279978  0.05465360  1
  O2-  O127  1  0.74945981  -0.00132922  0.39848554  1
  O2-  O128  1  0.75283175  -0.00386515  0.72685548  1
  O2-  O129  1  0.75784515  0.50173721  0.06047269  1
  O2-  O130  1  0.75856037  0.50010851  0.39463585  1
  O2-  O131  1  0.74958276  0.49991367  0.72440405  1
  O2-  O132  1  0.00199292  0.25293315  0.27037011  1
  O2-  O133  1  0.00641177  0.24717027  0.60583115  1
  O2-  O134  1  0.00860590  0.25809552  0.93495244  1
  O2-  O135  1  0.00262914  0.75228995  0.27665171  1
  O2-  O136  1  -0.00123817  0.76024714  0.60575090  1
  O2-  O137  1  0.00706103  0.75099824  0.94151034  1
  O2-  O138  1  0.49794741  0.24762329  0.27730211  1
  O2-  O139  1  0.49494834  0.24712320  0.60936877  1
  O2-  O140  1  0.49275436  0.24778694  0.93932963  1
  O2-  O141  1  0.49433395  0.75326821  0.27018480  1
  O2-  O142  1  0.50599275  0.74392727  0.60444978  1
  O2-  O143  1  0.49200516  0.74779387  0.93912410  1
  O2-  O144  1  0.07078048  0.17737269  0.09722152  1
  O2-  O145  1  0.07208890  0.17893599  0.43390904  1
  O2-  O146  1  0.07229527  0.18075071  0.75676254  1
  O2-  O147  1  0.07014890  0.68194820  0.09256536  1
  O2-  O148  1  0.07197939  0.68017360  0.42195229  1
  O2-  O149  1  0.06793262  0.67985209  0.76707691  1
  O2-  O150  1  0.57271961  0.17718948  0.10119043  1
  O2-  O151  1  0.56776715  0.17955098  0.42629242  1
  O2-  O152  1  0.57260723  0.18064029  0.75525949  1
  O2-  O153  1  0.57216430  0.67833462  0.09811329  1
  O2-  O154  1  0.56820105  0.68136847  0.43256323  1
  O2-  O155  1  0.57259397  0.67435314  0.75435290  1
  O2-  O156  1  0.17877574  0.43072248  0.23621128  1
  O2-  O157  1  0.17733543  0.43287602  0.57518305  1
  O2-  O158  1  0.17610235  0.43361147  0.89885206  1
  O2-  O159  1  0.17467118  0.92764136  0.24448894  1
  O2-  O160  1  0.18248848  0.92802063  0.56738357  1
  O2-  O161  1  0.17937929  0.92846980  0.90275711  1
  O2-  O162  1  0.67894127  0.42825440  0.23478826  1
  O2-  O163  1  0.67839255  0.42731231  0.57851287  1
  O2-  O164  1  0.68334025  0.42938970  0.89873054  1
  O2-  O165  1  0.68167882  0.92660651  0.23297297  1
  O2-  O166  1  0.68179801  0.92762123  0.57820561  1
  O2-  O167  1  0.68136763  0.92788663  0.90635821  1
  O2-  O168  1  0.43403345  0.32431151  0.08958533  1
  O2-  O169  1  0.43251074  0.32066906  0.42542999  1
  O2-  O170  1  0.43157521  0.33083341  0.75504587  1
  O2-  O171  1  0.43319426  0.82668192  0.08806327  1
  O2-  O172  1  0.42877824  0.82374571  0.41893362  1
  O2-  O173  1  0.43328083  0.81572822  0.76489164  1
  O2-  O174  1  0.92472098  0.31561587  0.09812604  1
  O2-  O175  1  0.92641104  0.31747995  0.43135236  1
  O2-  O176  1  0.92947052  0.32038408  0.76465264  1
  O2-  O177  1  0.92499628  0.82039562  0.10101382  1
  O2-  O178  1  0.92904626  0.81713294  0.42603410  1
  O2-  O179  1  0.91839550  0.81956500  0.75300845  1
  O2-  O180  1  0.32476839  0.06935856  0.23472660  1
  O2-  O181  1  0.32290373  0.07173373  0.56996353  1
  O2-  O182  1  0.32638291  0.06364346  0.90222209  1
  O2-  O183  1  0.32170884  0.56636969  0.23643318  1
  O2-  O184  1  0.32208297  0.56785497  0.57484797  1
  O2-  O185  1  0.32073406  0.57180823  0.89870690  1
  O2-  O186  1  0.82006509  0.06891843  0.23453912  1
  O2-  O187  1  0.81582234  0.07325529  0.57953189  1
  O2-  O188  1  0.81600921  0.06995540  0.90718486  1
  O2-  O189  1  0.81780016  0.58359996  0.24631979  1
  O2-  O190  1  0.82112832  0.57276173  0.57813605  1
  O2-  O191  1  0.81852980  0.57695127  0.91026029  1
  O2-  O192  1  0.04368841  0.07974746  0.26851256  1
  O2-  O193  1  0.04701991  0.08389236  0.60754686  1
  O2-  O194  1  0.03829643  0.08565491  0.92763332  1
  O2-  O195  1  0.04272026  0.58882136  0.26851238  1
  O2-  O196  1  0.03411845  0.58882681  0.59594965  1
  O2-  O197  1  0.04694349  0.58851190  0.93927174  1
  O2-  O198  1  0.54224696  0.08501578  0.27492547  1
  O2-  O199  1  0.54762182  0.08626068  0.60324729  1
  O2-  O200  1  0.54357665  0.07980055  0.93142931  1
  O2-  O201  1  0.53835497  0.58152714  0.26796004  1
  O2-  O202  1  0.54799275  0.58040773  0.60427338  1
  O2-  O203  1  0.54273794  0.57929930  0.92996857  1
  O2-  O204  1  0.17222129  0.20793015  0.26885069  1
  O2-  O205  1  0.16953102  0.20248734  0.60872855  1
  O2-  O206  1  0.17709051  0.20021123  0.93430617  1
  O2-  O207  1  0.16518113  0.70476667  0.27007563  1
  O2-  O208  1  0.16636529  0.70884616  0.59679495  1
  O2-  O209  1  0.16868999  0.70538343  0.94295342  1
  O2-  O210  1  0.66118094  0.20533406  0.27588060  1
  O2-  O211  1  0.65925985  0.21212431  0.60123359  1
  O2-  O212  1  0.66357294  0.21144253  0.92902153  1
  O2-  O213  1  0.66619389  0.70992063  0.26597422  1
  O2-  O214  1  0.66819416  0.69964061  0.60504043  1
  O2-  O215  1  0.66323281  0.71024996  0.92675437  1
  O2-  O216  1  0.07707194  0.45709221  0.06743338  1
  O2-  O217  1  0.07514989  0.45765082  0.39923883  1
  O2-  O218  1  0.08474838  0.46250532  0.72479075  1
  O2-  O219  1  0.07428394  0.95531655  0.06380391  1
  O2-  O220  1  0.08258449  0.94869321  0.39746985  1
  O2-  O221  1  0.07567514  0.94612050  0.72924343  1
  O2-  O222  1  0.58670675  0.45777761  0.06601091  1
  O2-  O223  1  0.58652523  0.46315062  0.40510610  1
  O2-  O224  1  0.58708603  0.45473455  0.73068013  1
  O2-  O225  1  0.58823376  0.95185137  0.05859212  1
  O2-  O226  1  0.58145460  0.95518406  0.40151704  1
  O2-  O227  1  0.58996411  0.95673227  0.73007915  1
  O2-  O228  1  0.20470257  0.33106755  0.06608759  1
  O2-  O229  1  0.20924571  0.33543933  0.40555475  1
  O2-  O230  1  0.20330533  0.33986962  0.72731581  1
  O2-  O231  1  0.20499919  0.83444661  0.07224263  1
  O2-  O232  1  0.20386640  0.83406551  0.39427462  1
  O2-  O233  1  0.21237689  0.82959119  0.73254229  1
  O2-  O234  1  0.71183582  0.33039666  0.06499861  1
  O2-  O235  1  0.70627264  0.33259903  0.40532812  1
  O2-  O236  1  0.70767495  0.33557886  0.72975413  1
  O2-  O237  1  0.70924831  0.83426051  0.05704866  1
  O2-  O238  1  0.70926152  0.83007452  0.40296731  1
  O2-  O239  1  0.70653631  0.83362933  0.72933176  1
  O2-  O240  1  0.46241635  0.41156097  0.27341909  1
  O2-  O241  1  0.46237951  0.41175731  0.59941319  1
  O2-  O242  1  0.46257648  0.41163217  0.93383355  1
  O2-  O243  1  0.45570763  0.91748507  0.26860228  1
  O2-  O244  1  0.46549118  0.91500191  0.59705293  1
  O2-  O245  1  0.46075390  0.91072343  0.93190218  1
  O2-  O246  1  0.94234335  0.42430911  0.26873967  1
  O2-  O247  1  0.95479283  0.41710476  0.59749367  1
  O2-  O248  1  0.94960137  0.42514533  0.93534293  1
  O2-  O249  1  0.95323126  0.91271068  0.27455535  1
  O2-  O250  1  0.94247499  0.92042354  0.60532631  1
  O2-  O251  1  0.95360915  0.91828222  0.92956973  1
  O2-  O252  1  0.33664016  0.29779219  0.27504881  1
  O2-  O253  1  0.33471933  0.30005392  0.60442528  1
  O2-  O254  1  0.33428169  0.30428374  0.93919723  1
  O2-  O255  1  0.33270012  0.80191261  0.26755638  1
  O2-  O256  1  0.33669796  0.78958321  0.59497403  1
  O2-  O257  1  0.33255588  0.79865456  0.94024998  1
  O2-  O258  1  0.82685191  0.28728694  0.26844668  1
  O2-  O259  1  0.83222148  0.28619952  0.60028556  1
  O2-  O260  1  0.83481738  0.28621423  0.92933484  1
  O2-  O261  1  0.83835142  0.78882424  0.27385951  1
  O2-  O262  1  0.83361009  0.79056194  0.59970202  1
  O2-  O263  1  0.83588145  0.78773018  0.92807436  1
  O2-  O264  1  0.42094785  0.03564982  0.06750855  1
  O2-  O265  1  0.41508139  0.03996383  0.40412572  1
  O2-  O266  1  0.42255178  0.03953298  0.73224832  1
  O2-  O267  1  0.42011453  0.53935121  0.06444698  1
  O2-  O268  1  0.41636219  0.53816043  0.40531662  1
  O2-  O269  1  0.41362631  0.54111612  0.72634373  1
  O2-  O270  1  0.91112937  0.04432573  0.05835006  1
  O2-  O271  1  0.91862623  0.04047740  0.40418251  1
  O2-  O272  1  0.91226536  0.04985535  0.73052427  1
  O2-  O273  1  0.91646336  0.55896290  0.06080154  1
  O2-  O274  1  0.91697499  0.55601839  0.39526430  1
  O2-  O275  1  0.91303889  0.54170532  0.73016354  1
  O2-  O276  1  0.30709814  0.17265993  0.06470263  1
  O2-  O277  1  0.29300365  0.16815227  0.40289707  1
  O2-  O278  1  0.30397549  0.17415496  0.73478558  1
  O2-  O279  1  0.30048033  0.67030641  0.06882660  1
  O2-  O280  1  0.29798112  0.67329016  0.39784395  1
  O2-  O281  1  0.29477842  0.66255398  0.72483576  1
  O2-  O282  1  0.78658600  0.15998723  0.06007502  1
  O2-  O283  1  0.78876697  0.16536679  0.40599551  1
  O2-  O284  1  0.78311804  0.16132360  0.73212232  1
  O2-  O285  1  0.78872893  0.66707936  0.06188594  1
  O2-  O286  1  0.78884645  0.66383078  0.40329836  1
  O2-  O287  1  0.79480378  0.66251721  0.73149670  1
