# generated using pymatgen
data_Ca2Al2SiO7
_symmetry_space_group_name_H-M   'P 1'
_cell_length_a   15.47582066
_cell_length_b   15.47166327
_cell_length_c   15.29621149
_cell_angle_alpha   89.99653465
_cell_angle_beta   90.00272651
_cell_angle_gamma   89.99893904
_symmetry_Int_Tables_number   1
_chemical_formula_structural   Ca2Al2SiO7
_chemical_formula_sum   'Ca48 Al48 Si24 O168'
_cell_volume   3662.47417832
_cell_formula_units_Z   24
loop_
 _symmetry_equiv_pos_site_id
 _symmetry_equiv_pos_as_xyz
  1  'x, y, z'
loop_
 _atom_type_symbol
 _atom_type_oxidation_number
  Ca2+  2.0
  Al0+  0.0
  Si0+  0.0
  O2-  -2.0
loop_
 _atom_site_type_symbol
 _atom_site_label
 _atom_site_symmetry_multiplicity
 _atom_site_fract_x
 _atom_site_fract_y
 _atom_site_fract_z
 _atom_site_occupancy
  Ca2+  Ca0  1  0.16419611  0.07972421  0.17303603  1
  Ca2+  Ca1  1  0.16199207  0.07094731  0.50821667  1
  Ca2+  Ca2  1  0.15661682  0.07902395  0.83554056  1
  Ca2+  Ca3  1  0.16321067  0.58835117  0.17161047  1
  Ca2+  Ca4  1  0.16144243  0.59136312  0.50370827  1
  Ca2+  Ca5  1  0.16317717  0.58767068  0.83715982  1
  Ca2+  Ca6  1  0.66432366  0.08284760  0.17021267  1
  Ca2+  Ca7  1  0.67799267  0.08230299  0.50442564  1
  Ca2+  Ca8  1  0.66992637  0.07475251  0.83393473  1
  Ca2+  Ca9  1  0.68135093  0.57693208  0.16816045  1
  Ca2+  Ca10  1  0.68298314  0.57673628  0.50868106  1
  Ca2+  Ca11  1  0.68179646  0.57582119  0.83847256  1
  Ca2+  Ca12  1  0.07496723  0.32778870  0.16272044  1
  Ca2+  Ca13  1  0.06939524  0.32670855  0.50147148  1
  Ca2+  Ca14  1  0.07556985  0.32097528  0.82687804  1
  Ca2+  Ca15  1  0.07641866  0.82849554  0.16786524  1
  Ca2+  Ca16  1  0.07179965  0.83157153  0.49949239  1
  Ca2+  Ca17  1  0.07472997  0.82404966  0.82333321  1
  Ca2+  Ca18  1  0.58390678  0.32295774  0.15690286  1
  Ca2+  Ca19  1  0.59360756  0.32717863  0.49524188  1
  Ca2+  Ca20  1  0.58959611  0.33620544  0.83136925  1
  Ca2+  Ca21  1  0.58448906  0.83534390  0.15941597  1
  Ca2+  Ca22  1  0.57700977  0.84592943  0.50096955  1
  Ca2+  Ca23  1  0.58057546  0.84258543  0.82525692  1
  Ca2+  Ca24  1  0.33245328  0.41264806  0.16647974  1
  Ca2+  Ca25  1  0.32727367  0.41826162  0.50553129  1
  Ca2+  Ca26  1  0.33170269  0.41465190  0.83992212  1
  Ca2+  Ca27  1  0.32236366  0.91870357  0.17435022  1
  Ca2+  Ca28  1  0.31973967  0.91008083  0.50627094  1
  Ca2+  Ca29  1  0.32707020  0.91336199  0.83129718  1
  Ca2+  Ca30  1  0.84019988  0.42588526  0.17080921  1
  Ca2+  Ca31  1  0.84071061  0.42431217  0.50701337  1
  Ca2+  Ca32  1  0.83347321  0.42328996  0.83271736  1
  Ca2+  Ca33  1  0.83137335  0.92395840  0.17328050  1
  Ca2+  Ca34  1  0.83917774  0.92544472  0.50882679  1
  Ca2+  Ca35  1  0.83142502  0.91827033  0.83426276  1
  Ca2+  Ca36  1  0.42926937  0.16983086  0.15809438  1
  Ca2+  Ca37  1  0.42691606  0.16629792  0.49528828  1
  Ca2+  Ca38  1  0.42479818  0.17020138  0.83448857  1
  Ca2+  Ca39  1  0.42034185  0.66907107  0.16293235  1
  Ca2+  Ca40  1  0.42041808  0.67224168  0.50153250  1
  Ca2+  Ca41  1  0.42364706  0.67355519  0.82519982  1
  Ca2+  Ca42  1  0.91416628  0.17113888  0.16567080  1
  Ca2+  Ca43  1  0.90330540  0.17559372  0.49714085  1
  Ca2+  Ca44  1  0.92217326  0.16698632  0.82286767  1
  Ca2+  Ca45  1  0.92170434  0.66451802  0.16383768  1
  Ca2+  Ca46  1  0.91611341  0.67551419  0.49344074  1
  Ca2+  Ca47  1  0.92122187  0.66503141  0.82483229  1
  Al0+  Al48  1  -0.00101565  -0.00275361  -0.00074645  1
  Al0+  Al49  1  -0.00070785  -0.00112084  0.33831504  1
  Al0+  Al50  1  0.00316860  -0.00422646  0.67143102  1
  Al0+  Al51  1  0.00375709  0.49922915  0.00048098  1
  Al0+  Al52  1  0.00150483  0.49883910  0.33082797  1
  Al0+  Al53  1  0.00425115  0.49523618  0.66575145  1
  Al0+  Al54  1  0.49777501  0.00256495  0.00000917  1
  Al0+  Al55  1  0.49750489  0.00172167  0.32735830  1
  Al0+  Al56  1  0.49746552  0.00216555  0.66362351  1
  Al0+  Al57  1  0.49910113  0.50239335  0.00160403  1
  Al0+  Al58  1  0.49803205  0.50100099  0.33370176  1
  Al0+  Al59  1  0.49841913  0.50098363  0.66800053  1
  Al0+  Al60  1  0.25069286  0.24958752  -0.00508919  1
  Al0+  Al61  1  0.25079796  0.25148724  0.33644842  1
  Al0+  Al62  1  0.25261331  0.25006845  0.66292941  1
  Al0+  Al63  1  0.24917516  0.75034110  -0.00123632  1
  Al0+  Al64  1  0.25135947  0.74968729  0.33389869  1
  Al0+  Al65  1  0.25279722  0.75136867  0.66472423  1
  Al0+  Al66  1  0.74974513  0.24941394  -0.00363594  1
  Al0+  Al67  1  0.74872882  0.24859055  0.32425316  1
  Al0+  Al68  1  0.74971697  0.24909191  0.67069608  1
  Al0+  Al69  1  0.74935657  0.75073557  0.00897584  1
  Al0+  Al70  1  0.74696221  0.74988289  0.33313025  1
  Al0+  Al71  1  0.74906421  0.74840265  0.66968370  1
  Al0+  Al72  1  0.67649652  0.92948891  0.67847113  1
  Al0+  Al73  1  0.82584479  0.57084172  0.68034571  1
  Al0+  Al74  1  0.92743578  0.31680365  0.65234188  1
  Al0+  Al75  1  0.67783320  0.42876455  0.67988856  1
  Al0+  Al76  1  0.17956431  0.92893141  0.34785003  1
  Al0+  Al77  1  0.43067919  0.32252666  0.98452469  1
  Al0+  Al78  1  0.07079124  0.67987487  0.98642567  1
  Al0+  Al79  1  0.07027714  0.68085344  0.31814642  1
  Al0+  Al80  1  0.06910568  0.17734657  0.98886360  1
  Al0+  Al81  1  0.92980840  0.31994507  0.31861643  1
  Al0+  Al82  1  0.56938656  0.18059697  0.31893316  1
  Al0+  Al83  1  0.57324834  0.17816151  0.98045526  1
  Al0+  Al84  1  0.43193353  0.82184802  0.65245809  1
  Al0+  Al85  1  0.82280279  0.06986310  0.68224188  1
  Al0+  Al86  1  0.67759270  0.42806371  0.01619349  1
  Al0+  Al87  1  0.92498861  0.82401157  0.31754726  1
  Al0+  Al88  1  0.92513448  0.81896643  0.65365908  1
  Al0+  Al89  1  0.82237653  0.57078995  0.34794713  1
  Al0+  Al90  1  0.81866387  0.07077744  0.34502518  1
  Al0+  Al91  1  0.07312635  0.17594574  0.65154749  1
  Al0+  Al92  1  0.67730351  0.93180849  0.01416802  1
  Al0+  Al93  1  0.82469790  0.56928724  0.01653358  1
  Al0+  Al94  1  0.18060442  0.92863668  0.68291151  1
  Al0+  Al95  1  0.07150482  0.67737655  0.65295145  1
  Si0+  Si96  1  0.92851531  0.32283577  0.98333965  1
  Si0+  Si97  1  0.17943467  0.42822447  0.34952485  1
  Si0+  Si98  1  0.18205021  0.42628628  0.68312643  1
  Si0+  Si99  1  0.57132426  0.68108146  0.98632911  1
  Si0+  Si100  1  0.31861891  0.07191897  0.01541324  1
  Si0+  Si101  1  0.42851298  0.82159954  0.98600505  1
  Si0+  Si102  1  0.56939233  0.18060148  0.65100958  1
  Si0+  Si103  1  0.17917281  0.92779998  0.01601523  1
  Si0+  Si104  1  0.67403788  0.92790320  0.34827848  1
  Si0+  Si105  1  0.57022151  0.67657308  0.31706912  1
  Si0+  Si106  1  0.67788429  0.42874291  0.34656266  1
  Si0+  Si107  1  0.07431953  0.17757601  0.31955617  1
  Si0+  Si108  1  0.18202175  0.42762379  0.01535725  1
  Si0+  Si109  1  0.57168627  0.67587125  0.65026878  1
  Si0+  Si110  1  0.42992119  0.81958841  0.31666673  1
  Si0+  Si111  1  0.82436897  0.07104944  0.01633145  1
  Si0+  Si112  1  0.32010112  0.57127296  0.68254822  1
  Si0+  Si113  1  0.42578080  0.32438064  0.31728923  1
  Si0+  Si114  1  0.92573251  0.82058840  0.98427890  1
  Si0+  Si115  1  0.32211092  0.07272932  0.34979831  1
  Si0+  Si116  1  0.32002647  0.57365673  0.01571933  1
  Si0+  Si117  1  0.42911373  0.32430484  0.64999756  1
  Si0+  Si118  1  0.32190226  0.07414037  0.68448780  1
  Si0+  Si119  1  0.32199319  0.57115230  0.34978761  1
  O2-  O120  1  0.24653670  0.00232084  0.05858035  1
  O2-  O121  1  0.25122567  0.00760345  0.39419331  1
  O2-  O122  1  0.25019394  0.00909692  0.72932278  1
  O2-  O123  1  0.25074225  0.50123067  0.05830140  1
  O2-  O124  1  0.24988659  0.50112216  0.39073698  1
  O2-  O125  1  0.24897673  0.50145420  0.72546708  1
  O2-  O126  1  0.75050219  0.00768133  0.06061906  1
  O2-  O127  1  0.74743953  -0.00841858  0.39066883  1
  O2-  O128  1  0.75275775  -0.00524573  0.73089192  1
  O2-  O129  1  0.75473471  0.49436749  0.06644227  1
  O2-  O130  1  0.74705910  0.49521088  0.39223650  1
  O2-  O131  1  0.75136579  0.49970037  0.72829200  1
  O2-  O132  1  0.00448612  0.24373790  0.27379658  1
  O2-  O133  1  -0.00530261  0.24021429  0.60115711  1
  O2-  O134  1  -0.00864249  0.24770882  0.94163781  1
  O2-  O135  1  -0.00459236  0.74949618  0.26761080  1
  O2-  O136  1  -0.00596769  0.74330082  0.60396872  1
  O2-  O137  1  -0.00856515  0.74870987  0.94121718  1
  O2-  O138  1  0.49455904  0.25641904  0.27425183  1
  O2-  O139  1  0.50329227  0.25696208  0.60867957  1
  O2-  O140  1  0.50678051  0.25687100  0.93200060  1
  O2-  O141  1  0.50358923  0.75228062  0.27403405  1
  O2-  O142  1  0.51048480  0.75148905  0.60493480  1
  O2-  O143  1  0.50376489  0.75564252  0.94381732  1
  O2-  O144  1  0.07031389  0.17918041  0.10245669  1
  O2-  O145  1  0.07874466  0.18140302  0.42422874  1
  O2-  O146  1  0.07462723  0.18234177  0.76538930  1
  O2-  O147  1  0.07552730  0.68393294  0.09909241  1
  O2-  O148  1  0.07261282  0.68268647  0.43090094  1
  O2-  O149  1  0.07327768  0.68040920  0.76681159  1
  O2-  O150  1  0.56671602  0.17502439  0.09411431  1
  O2-  O151  1  0.56784476  0.18117121  0.43231551  1
  O2-  O152  1  0.56566475  0.17826947  0.75548183  1
  O2-  O153  1  0.56667584  0.68220744  0.09183992  1
  O2-  O154  1  0.56585559  0.67258028  0.42160609  1
  O2-  O155  1  0.56472886  0.67230696  0.75569071  1
  O2-  O156  1  0.18303196  0.42482324  0.24431238  1
  O2-  O157  1  0.18610599  0.42387775  0.57799667  1
  O2-  O158  1  0.18404394  0.42768228  0.91048000  1
  O2-  O159  1  0.18334583  0.92965089  0.23376071  1
  O2-  O160  1  0.18491470  0.92653678  0.56992882  1
  O2-  O161  1  0.18277505  0.92591630  0.91149269  1
  O2-  O162  1  0.67569558  0.43244989  0.24140427  1
  O2-  O163  1  0.67470365  0.43086539  0.56585780  1
  O2-  O164  1  0.67585792  0.43504341  0.90324204  1
  O2-  O165  1  0.67018190  0.93136724  0.24259185  1
  O2-  O166  1  0.67107868  0.93753178  0.56520100  1
  O2-  O167  1  0.67588817  0.93130721  0.90171823  1
  O2-  O168  1  0.42717930  0.31791065  0.09829280  1
  O2-  O169  1  0.42421823  0.32541863  0.42286114  1
  O2-  O170  1  0.42632965  0.32447617  0.75453222  1
  O2-  O171  1  0.42600150  0.81851462  0.09150081  1
  O2-  O172  1  0.42997888  0.81874110  0.42144398  1
  O2-  O173  1  0.43079299  0.81905046  0.76594471  1
  O2-  O174  1  0.93299841  0.32429098  0.08932862  1
  O2-  O175  1  0.92979060  0.32043189  0.43106026  1
  O2-  O176  1  0.93144573  0.31861994  0.76599653  1
  O2-  O177  1  0.92896756  0.82440009  0.08973908  1
  O2-  O178  1  0.92615978  0.82435274  0.43056722  1
  O2-  O179  1  0.92794539  0.81911605  0.76762560  1
  O2-  O180  1  0.32240318  0.07098436  0.24389944  1
  O2-  O181  1  0.32386756  0.07353099  0.57875458  1
  O2-  O182  1  0.31965631  0.07057236  0.91072152  1
  O2-  O183  1  0.32445858  0.57165232  0.24461083  1
  O2-  O184  1  0.32198671  0.56932206  0.57714824  1
  O2-  O185  1  0.31900910  0.57680665  0.91092256  1
  O2-  O186  1  0.81619150  0.07218974  0.23166980  1
  O2-  O187  1  0.81751782  0.07312906  0.56851530  1
  O2-  O188  1  0.82871623  0.06613575  0.91144159  1
  O2-  O189  1  0.82186103  0.56905326  0.23493337  1
  O2-  O190  1  0.82432657  0.56933172  0.56651823  1
  O2-  O191  1  0.82470714  0.56971763  0.90341908  1
  O2-  O192  1  0.05169163  0.08277874  0.27612974  1
  O2-  O193  1  0.05589609  0.07308678  0.60689302  1
  O2-  O194  1  0.04304874  0.07910905  0.93584550  1
  O2-  O195  1  0.04790322  0.58025868  0.26661730  1
  O2-  O196  1  0.05590820  0.57482922  0.60439095  1
  O2-  O197  1  0.04918389  0.57985345  0.93554714  1
  O2-  O198  1  0.53514132  0.08554621  0.26237479  1
  O2-  O199  1  0.53430616  0.09275806  0.60078500  1
  O2-  O200  1  0.53370729  0.08246734  0.92837113  1
  O2-  O201  1  0.53504393  0.58773812  0.26757364  1
  O2-  O202  1  0.53490661  0.58698747  0.60070487  1
  O2-  O203  1  0.53775708  0.59203164  0.93854613  1
  O2-  O204  1  0.16796254  0.20568849  0.27254968  1
  O2-  O205  1  0.17009495  0.21040276  0.59825393  1
  O2-  O206  1  0.16421625  0.21017441  0.93424433  1
  O2-  O207  1  0.17051884  0.70965860  0.26640758  1
  O2-  O208  1  0.16960579  0.70948449  0.60132346  1
  O2-  O209  1  0.16690529  0.71330151  0.93221971  1
  O2-  O210  1  0.66289527  0.21005469  0.25987338  1
  O2-  O211  1  0.66209787  0.20533061  0.60495956  1
  O2-  O212  1  0.67409268  0.19734187  0.92967855  1
  O2-  O213  1  0.66190613  0.70080834  0.26889384  1
  O2-  O214  1  0.66752890  0.69214426  0.60766887  1
  O2-  O215  1  0.66473992  0.70548340  0.94231123  1
  O2-  O216  1  0.09066767  0.45332233  0.06396568  1
  O2-  O217  1  0.08846268  0.45549585  0.39676549  1
  O2-  O218  1  0.09022343  0.44880866  0.73151893  1
  O2-  O219  1  0.08621955  0.95264300  0.06212232  1
  O2-  O220  1  0.08312087  0.95551403  0.40237178  1
  O2-  O221  1  0.08485469  0.95252968  0.74072915  1
  O2-  O222  1  0.57957683  0.46101558  0.06922263  1
  O2-  O223  1  0.58316766  0.45352801  0.39224639  1
  O2-  O224  1  0.57858180  0.45751175  0.73216740  1
  O2-  O225  1  0.57862385  0.96015724  0.06771942  1
  O2-  O226  1  0.58066991  0.95879655  0.39281072  1
  O2-  O227  1  0.57892860  0.96405908  0.73168783  1
  O2-  O228  1  0.21363822  0.33716643  0.06377203  1
  O2-  O229  1  0.21016846  0.33845644  0.40006164  1
  O2-  O230  1  0.21678572  0.33691116  0.73118197  1
  O2-  O231  1  0.21380244  0.83850978  0.06460497  1
  O2-  O232  1  0.22013483  0.83516185  0.40014921  1
  O2-  O233  1  0.22166317  0.83471961  0.73647161  1
  O2-  O234  1  0.69821067  0.32504881  0.06303133  1
  O2-  O235  1  0.70200332  0.33347680  0.38809768  1
  O2-  O236  1  0.70240415  0.33042386  0.73321831  1
  O2-  O237  1  0.70468928  0.83532313  0.07069507  1
  O2-  O238  1  0.68866424  0.83125330  0.39101595  1
  O2-  O239  1  0.69153699  0.82706774  0.72779390  1
  O2-  O240  1  0.44844810  0.41893713  0.27145284  1
  O2-  O241  1  0.45111721  0.41765152  0.60258328  1
  O2-  O242  1  0.44859228  0.42534865  0.93595277  1
  O2-  O243  1  0.45242613  0.91249817  0.26849999  1
  O2-  O244  1  0.45724194  0.91900523  0.59615249  1
  O2-  O245  1  0.45061828  0.91477512  0.94020385  1
  O2-  O246  1  0.96602585  0.41373945  0.26293300  1
  O2-  O247  1  0.96460807  0.41230398  0.59879559  1
  O2-  O248  1  0.96307639  0.41290079  0.93658001  1
  O2-  O249  1  0.95787705  0.92187741  0.26462721  1
  O2-  O250  1  0.96008779  0.91610247  0.60248007  1
  O2-  O251  1  0.95570537  0.91213462  0.93688764  1
  O2-  O252  1  0.33216333  0.29848330  0.27101073  1
  O2-  O253  1  0.33994957  0.29292971  0.59933431  1
  O2-  O254  1  0.33434965  0.28896749  0.92971831  1
  O2-  O255  1  0.34068700  0.78653355  0.26750712  1
  O2-  O256  1  0.33924509  0.78362271  0.59627762  1
  O2-  O257  1  0.33910954  0.78847352  0.93758721  1
  O2-  O258  1  0.83489045  0.28967426  0.26155525  1
  O2-  O259  1  0.82727499  0.29351569  0.59979319  1
  O2-  O260  1  0.83283619  0.30575496  0.94017122  1
  O2-  O261  1  0.82372313  0.80056563  0.26734765  1
  O2-  O262  1  0.82458056  0.79855188  0.60128267  1
  O2-  O263  1  0.82993243  0.79876568  0.94236798  1
  O2-  O264  1  0.40884249  0.04172532  0.06470081  1
  O2-  O265  1  0.41483980  0.04331198  0.39545578  1
  O2-  O266  1  0.41311019  0.04300063  0.73153151  1
  O2-  O267  1  0.41150646  0.54846068  0.06512048  1
  O2-  O268  1  0.41248768  0.54231874  0.39991654  1
  O2-  O269  1  0.41084230  0.54274400  0.73148317  1
  O2-  O270  1  0.91549304  0.04002131  0.06596390  1
  O2-  O271  1  0.91650238  0.04737264  0.39917721  1
  O2-  O272  1  0.92172819  0.04414378  0.73451520  1
  O2-  O273  1  0.92428807  0.54108226  0.06896422  1
  O2-  O274  1  0.91971576  0.53897118  0.39873304  1
  O2-  O275  1  0.92373164  0.53873019  0.73270191  1
  O2-  O276  1  0.29130855  0.16378533  0.06297451  1
  O2-  O277  1  0.30302253  0.16828823  0.39490460  1
  O2-  O278  1  0.30152718  0.16961878  0.72888430  1
  O2-  O279  1  0.29037665  0.66450463  0.06545245  1
  O2-  O280  1  0.29604743  0.66302170  0.39747952  1
  O2-  O281  1  0.29468737  0.66316810  0.73008156  1
  O2-  O282  1  0.80526874  0.16804933  0.05711692  1
  O2-  O283  1  0.78193850  0.16689417  0.39702275  1
  O2-  O284  1  0.79191430  0.16668849  0.73626315  1
  O2-  O285  1  0.79283368  0.66652884  0.07058839  1
  O2-  O286  1  0.78799085  0.66751447  0.39959854  1
  O2-  O287  1  0.79771981  0.66863674  0.73435542  1
