# generated using pymatgen
data_Ca2Al2SiO7
_symmetry_space_group_name_H-M   'P 1'
_cell_length_a   15.46325904
_cell_length_b   15.46406721
_cell_length_c   15.28732479
_cell_angle_alpha   89.98619835
_cell_angle_beta   89.99023217
_cell_angle_gamma   89.99455729
_symmetry_Int_Tables_number   1
_chemical_formula_structural   Ca2Al2SiO7
_chemical_formula_sum   'Ca48 Al48 Si24 O168'
_cell_volume   3655.57948365
_cell_formula_units_Z   24
loop_
 _symmetry_equiv_pos_site_id
 _symmetry_equiv_pos_as_xyz
  1  'x, y, z'
loop_
 _atom_type_symbol
 _atom_type_oxidation_number
  Ca2+  2.0
  Al0+  0.0
  Si0+  0.0
  O2-  -2.0
loop_
 _atom_site_type_symbol
 _atom_site_label
 _atom_site_symmetry_multiplicity
 _atom_site_fract_x
 _atom_site_fract_y
 _atom_site_fract_z
 _atom_site_occupancy
  Ca2+  Ca0  1  0.15102011  0.07444020  0.16959274  1
  Ca2+  Ca1  1  0.15866821  0.07822919  0.49778409  1
  Ca2+  Ca2  1  0.16320707  0.07663278  0.84466042  1
  Ca2+  Ca3  1  0.17794538  0.58419561  0.16843375  1
  Ca2+  Ca4  1  0.17783961  0.58251991  0.50613841  1
  Ca2+  Ca5  1  0.17521299  0.58945478  0.84089174  1
  Ca2+  Ca6  1  0.67407212  0.09105387  0.16553214  1
  Ca2+  Ca7  1  0.67399404  0.08841691  0.50086938  1
  Ca2+  Ca8  1  0.66761086  0.07692121  0.84846583  1
  Ca2+  Ca9  1  0.67544955  0.58823301  0.17070894  1
  Ca2+  Ca10  1  0.67654646  0.58010605  0.50409795  1
  Ca2+  Ca11  1  0.67558774  0.57952752  0.84029878  1
  Ca2+  Ca12  1  0.07188133  0.32384962  0.16022920  1
  Ca2+  Ca13  1  0.07603575  0.32654691  0.48832111  1
  Ca2+  Ca14  1  0.07639962  0.33323829  0.83675288  1
  Ca2+  Ca15  1  0.08573426  0.83098495  0.15972703  1
  Ca2+  Ca16  1  0.08508543  0.82661521  0.49707932  1
  Ca2+  Ca17  1  0.08585942  0.82282615  0.83444864  1
  Ca2+  Ca18  1  0.57211341  0.33302464  0.15948335  1
  Ca2+  Ca19  1  0.57485160  0.34684493  0.49911861  1
  Ca2+  Ca20  1  0.57619807  0.33820224  0.83391297  1
  Ca2+  Ca21  1  0.58838226  0.82255504  0.16020982  1
  Ca2+  Ca22  1  0.57970828  0.82340903  0.49142813  1
  Ca2+  Ca23  1  0.59085057  0.82650837  0.83537461  1
  Ca2+  Ca24  1  0.34084188  0.42249855  0.16988383  1
  Ca2+  Ca25  1  0.34010407  0.42369025  0.50399499  1
  Ca2+  Ca26  1  0.33856677  0.42378719  0.83764732  1
  Ca2+  Ca27  1  0.32042397  0.91778717  0.16969391  1
  Ca2+  Ca28  1  0.32672273  0.91706186  0.50021191  1
  Ca2+  Ca29  1  0.32576962  0.91847959  0.84325761  1
  Ca2+  Ca30  1  0.84083871  0.42355147  0.17074025  1
  Ca2+  Ca31  1  0.83141049  0.42470369  0.50608237  1
  Ca2+  Ca32  1  0.83133771  0.42304561  0.83907503  1
  Ca2+  Ca33  1  0.82960109  0.92943976  0.16593287  1
  Ca2+  Ca34  1  0.83486429  0.92399434  0.49848846  1
  Ca2+  Ca35  1  0.82725049  0.92354017  0.84573387  1
  Ca2+  Ca36  1  0.41946640  0.17926213  0.15687762  1
  Ca2+  Ca37  1  0.41851325  0.18214785  0.49267735  1
  Ca2+  Ca38  1  0.41954292  0.17837795  0.83062576  1
  Ca2+  Ca39  1  0.42718161  0.65919051  0.16109921  1
  Ca2+  Ca40  1  0.42247126  0.65727609  0.49279529  1
  Ca2+  Ca41  1  0.41987487  0.65891409  0.83479525  1
  Ca2+  Ca42  1  0.91631714  0.17228855  0.16062015  1
  Ca2+  Ca43  1  0.91911958  0.17415981  0.48590510  1
  Ca2+  Ca44  1  0.91537480  0.16718207  0.83811391  1
  Ca2+  Ca45  1  0.92122032  0.66384066  0.15609487  1
  Ca2+  Ca46  1  0.92005176  0.65988072  0.49639980  1
  Ca2+  Ca47  1  0.92760339  0.65487562  0.83183478  1
  Al0+  Al48  1  -0.00246692  -0.00085310  0.00315899  1
  Al0+  Al49  1  -0.00166359  -0.00326953  0.34150869  1
  Al0+  Al50  1  -0.00040334  -0.00229745  0.66698342  1
  Al0+  Al51  1  0.00258094  0.49910069  -0.00398992  1
  Al0+  Al52  1  0.00297076  0.50005483  0.33416820  1
  Al0+  Al53  1  0.00325027  0.49839289  0.66302443  1
  Al0+  Al54  1  0.49677093  -0.00171954  0.00279880  1
  Al0+  Al55  1  0.49764638  -0.00133293  0.33426343  1
  Al0+  Al56  1  0.49995321  0.00064670  0.66466195  1
  Al0+  Al57  1  0.50191015  0.50266193  -0.00439606  1
  Al0+  Al58  1  0.50210173  0.50133296  0.32812080  1
  Al0+  Al59  1  0.50091336  0.50066475  0.67029693  1
  Al0+  Al60  1  0.24775601  0.25112561  -0.00874957  1
  Al0+  Al61  1  0.24946808  0.24854464  0.32452570  1
  Al0+  Al62  1  0.25112075  0.24950856  0.66076145  1
  Al0+  Al63  1  0.25094538  0.74969109  0.00545916  1
  Al0+  Al64  1  0.25070257  0.75072414  0.34261827  1
  Al0+  Al65  1  0.24966439  0.75075894  0.66580548  1
  Al0+  Al66  1  0.74748029  0.25154953  -0.00427897  1
  Al0+  Al67  1  0.74806393  0.25151652  0.33585771  1
  Al0+  Al68  1  0.75002599  0.24982146  0.67081909  1
  Al0+  Al69  1  0.75049937  0.75026915  0.00216861  1
  Al0+  Al70  1  0.75109661  0.74983387  0.33529140  1
  Al0+  Al71  1  0.75221004  0.75257496  0.66760370  1
  Al0+  Al72  1  0.43112421  0.32150832  0.65082839  1
  Al0+  Al73  1  0.31944538  0.57109687  0.68130808  1
  Al0+  Al74  1  0.56958910  0.17712542  0.98594881  1
  Al0+  Al75  1  0.82316180  0.56880236  0.01342965  1
  Al0+  Al76  1  0.82408621  0.57161690  0.34656708  1
  Al0+  Al77  1  0.43003161  0.32145420  0.31912282  1
  Al0+  Al78  1  0.81832683  0.07341187  0.01500196  1
  Al0+  Al79  1  0.06812647  0.17615617  0.98395936  1
  Al0+  Al80  1  0.92711346  0.32260540  0.98320640  1
  Al0+  Al81  1  0.42814323  0.32330591  0.98273145  1
  Al0+  Al82  1  0.07282690  0.67979988  0.98906393  1
  Al0+  Al83  1  0.17925075  0.93026753  0.01299183  1
  Al0+  Al84  1  0.67945586  0.42947229  0.68344177  1
  Al0+  Al85  1  0.81765812  0.07148455  0.34779300  1
  Al0+  Al86  1  0.17888150  0.92989968  0.34993701  1
  Al0+  Al87  1  0.57309759  0.68129916  0.98471415  1
  Al0+  Al88  1  0.32126225  0.56866694  0.01463501  1
  Al0+  Al89  1  0.82409209  0.57244740  0.68251240  1
  Al0+  Al90  1  0.07169000  0.67870472  0.65137268  1
  Al0+  Al91  1  0.57121232  0.68110171  0.32022350  1
  Al0+  Al92  1  0.06904718  0.17565567  0.31856568  1
  Al0+  Al93  1  0.92703481  0.32310550  0.31931223  1
  Al0+  Al94  1  0.32189218  0.56794103  0.34670225  1
  Al0+  Al95  1  0.67502951  0.92728314  0.01601053  1
  Si0+  Si96  1  0.67786178  0.42981002  0.01787426  1
  Si0+  Si97  1  0.92926756  0.81964841  0.31887086  1
  Si0+  Si98  1  0.57172518  0.68130506  0.65216793  1
  Si0+  Si99  1  0.32059429  0.07500834  0.01545863  1
  Si0+  Si100  1  0.67748072  0.93025695  0.68038282  1
  Si0+  Si101  1  0.82153927  0.07020296  0.68174846  1
  Si0+  Si102  1  0.92837552  0.82079183  0.98471441  1
  Si0+  Si103  1  0.17950780  0.93042567  0.68327359  1
  Si0+  Si104  1  0.07311944  0.67988309  0.31919800  1
  Si0+  Si105  1  0.92845048  0.31913711  0.65095716  1
  Si0+  Si106  1  0.07014900  0.17611026  0.65092414  1
  Si0+  Si107  1  0.67658732  0.92669317  0.35108052  1
  Si0+  Si108  1  0.17925482  0.42591639  0.34860191  1
  Si0+  Si109  1  0.57148279  0.17501100  0.31812480  1
  Si0+  Si110  1  0.92857103  0.82349567  0.64840144  1
  Si0+  Si111  1  0.32339651  0.07383834  0.35032369  1
  Si0+  Si112  1  0.67831401  0.42970290  0.34813871  1
  Si0+  Si113  1  0.42876143  0.82355291  0.65153070  1
  Si0+  Si114  1  0.17760056  0.42591666  0.01675620  1
  Si0+  Si115  1  0.57250655  0.17593864  0.64898813  1
  Si0+  Si116  1  0.42634713  0.82025875  0.98491081  1
  Si0+  Si117  1  0.42566763  0.82266522  0.31687955  1
  Si0+  Si118  1  0.17884777  0.42460627  0.68241320  1
  Si0+  Si119  1  0.32123129  0.07154654  0.68026620  1
  O2-  O120  1  0.24863773  0.00980901  0.05981204  1
  O2-  O121  1  0.25268968  0.00685048  0.39561576  1
  O2-  O122  1  0.24969886  0.00214113  0.72468473  1
  O2-  O123  1  0.24997553  0.49075505  0.06108916  1
  O2-  O124  1  0.24979062  0.49166170  0.39499970  1
  O2-  O125  1  0.24477256  0.49584743  0.72679610  1
  O2-  O126  1  0.74234200  0.00449851  0.06405731  1
  O2-  O127  1  0.74052364  -0.00062177  0.39654634  1
  O2-  O128  1  0.74766137  0.00176540  0.72233808  1
  O2-  O129  1  0.75032831  0.49389518  0.06255711  1
  O2-  O130  1  0.75194238  0.49380076  0.39185133  1
  O2-  O131  1  0.75228842  0.50099987  0.73290967  1
  O2-  O132  1  -0.00326048  0.24807071  0.27084195  1
  O2-  O133  1  -0.00071798  0.24724782  0.60903377  1
  O2-  O134  1  -0.00305072  0.24796599  0.93248802  1
  O2-  O135  1  -0.00175169  0.74653453  0.27705183  1
  O2-  O136  1  -0.00719104  0.74993824  0.60479221  1
  O2-  O137  1  -0.00467180  0.75067933  0.94022372  1
  O2-  O138  1  0.50106189  0.24211322  0.27536441  1
  O2-  O139  1  0.50745578  0.24769009  0.60430665  1
  O2-  O140  1  0.49850142  0.24867255  0.93389777  1
  O2-  O141  1  0.49665861  0.75652819  0.27392016  1
  O2-  O142  1  0.49884532  0.75115800  0.60996904  1
  O2-  O143  1  0.49914798  0.75738933  0.93832685  1
  O2-  O144  1  0.06567376  0.17548650  0.09700009  1
  O2-  O145  1  0.06715985  0.17790344  0.43341089  1
  O2-  O146  1  0.06940308  0.17264237  0.75534631  1
  O2-  O147  1  0.07324147  0.68256404  0.10242148  1
  O2-  O148  1  0.07308769  0.68196302  0.42462119  1
  O2-  O149  1  0.07440861  0.68348010  0.76417187  1
  O2-  O150  1  0.56725546  0.17989941  0.09988355  1
  O2-  O151  1  0.57027682  0.17388423  0.42422736  1
  O2-  O152  1  0.56846199  0.16903653  0.75344239  1
  O2-  O153  1  0.57256208  0.68085681  0.09774775  1
  O2-  O154  1  0.56988742  0.68192243  0.43431622  1
  O2-  O155  1  0.57274404  0.68452818  0.75688133  1
  O2-  O156  1  0.17768981  0.42950743  0.24353752  1
  O2-  O157  1  0.17989761  0.42379185  0.57653254  1
  O2-  O158  1  0.17642006  0.42828387  0.91084770  1
  O2-  O159  1  0.17976907  0.92758997  0.23730211  1
  O2-  O160  1  0.17949292  0.93124621  0.57816269  1
  O2-  O161  1  0.18237586  0.92909114  0.89917160  1
  O2-  O162  1  0.67612113  0.43110103  0.24301030  1
  O2-  O163  1  0.68024822  0.43203304  0.56919330  1
  O2-  O164  1  0.67710172  0.43360326  0.91219524  1
  O2-  O165  1  0.67900440  0.92458639  0.24650768  1
  O2-  O166  1  0.67696698  0.93024542  0.57519318  1
  O2-  O167  1  0.67966355  0.92720387  0.90133702  1
  O2-  O168  1  0.43062851  0.32316761  0.09645457  1
  O2-  O169  1  0.43303023  0.32270160  0.43267173  1
  O2-  O170  1  0.42935297  0.31867416  0.76297610  1
  O2-  O171  1  0.42363483  0.81663287  0.09024013  1
  O2-  O172  1  0.42692683  0.82296711  0.42326375  1
  O2-  O173  1  0.42879024  0.82784449  0.75604322  1
  O2-  O174  1  0.93038838  0.32426425  0.09647959  1
  O2-  O175  1  0.92900210  0.32154130  0.43391325  1
  O2-  O176  1  0.92911863  0.31803395  0.75551916  1
  O2-  O177  1  0.93000456  0.82081356  0.09056838  1
  O2-  O178  1  0.93018816  0.81989827  0.42449896  1
  O2-  O179  1  0.93091667  0.83143978  0.75302070  1
  O2-  O180  1  0.32744860  0.07076650  0.24551093  1
  O2-  O181  1  0.32067856  0.06927256  0.57523882  1
  O2-  O182  1  0.32078132  0.07087720  0.90913026  1
  O2-  O183  1  0.32100625  0.56890019  0.23406074  1
  O2-  O184  1  0.32056380  0.56983214  0.56788270  1
  O2-  O185  1  0.31870933  0.57009756  0.90129109  1
  O2-  O186  1  0.81762180  0.07032652  0.23576966  1
  O2-  O187  1  0.82206459  0.06896678  0.57651695  1
  O2-  O188  1  0.81970858  0.06774663  0.90063579  1
  O2-  O189  1  0.82342101  0.57422450  0.23390651  1
  O2-  O190  1  0.82167861  0.57123381  0.56846208  1
  O2-  O191  1  0.82235511  0.56811501  0.90037754  1
  O2-  O192  1  0.03900201  0.07551541  0.27190721  1
  O2-  O193  1  0.04139549  0.08396985  0.60355021  1
  O2-  O194  1  0.03850972  0.07739369  0.93076492  1
  O2-  O195  1  0.05112510  0.58656769  0.27367474  1
  O2-  O196  1  0.04766085  0.58029157  0.59686339  1
  O2-  O197  1  0.04632691  0.58372687  0.93278488  1
  O2-  O198  1  0.54921194  0.08004258  0.27364950  1
  O2-  O199  1  0.54459891  0.08375331  0.59926840  1
  O2-  O200  1  0.54179608  0.07687340  0.93470931  1
  O2-  O201  1  0.54043718  0.58671440  0.26394189  1
  O2-  O202  1  0.54356536  0.58939737  0.60622678  1
  O2-  O203  1  0.54041662  0.58704110  0.92853260  1
  O2-  O204  1  0.16813030  0.19795279  0.26554954  1
  O2-  O205  1  0.16223828  0.20215129  0.60305240  1
  O2-  O206  1  0.16658162  0.20205584  0.92913380  1
  O2-  O207  1  0.16440369  0.71314060  0.27470328  1
  O2-  O208  1  0.16662509  0.71565188  0.59615715  1
  O2-  O209  1  0.16761048  0.71616804  0.93460368  1
  O2-  O210  1  0.66457506  0.20238229  0.27375304  1
  O2-  O211  1  0.66850311  0.19945176  0.60622832  1
  O2-  O212  1  0.66751741  0.20251764  0.93131149  1
  O2-  O213  1  0.66818842  0.71271940  0.26770625  1
  O2-  O214  1  0.66338495  0.71130460  0.60453072  1
  O2-  O215  1  0.66918688  0.71328894  0.92977411  1
  O2-  O216  1  0.08635470  0.45619682  0.06394380  1
  O2-  O217  1  0.08764917  0.45433656  0.39818687  1
  O2-  O218  1  0.08431085  0.44765663  0.72686610  1
  O2-  O219  1  0.08175736  0.95596088  0.06699586  1
  O2-  O220  1  0.08342729  0.95791738  0.40844432  1
  O2-  O221  1  0.08713724  0.95743464  0.72949130  1
  O2-  O222  1  0.58603090  0.46109531  0.06369554  1
  O2-  O223  1  0.58793226  0.46364102  0.39635150  1
  O2-  O224  1  0.58232289  0.45953507  0.73669332  1
  O2-  O225  1  0.57383850  0.94612831  0.06688890  1
  O2-  O226  1  0.58032535  0.94655654  0.39557985  1
  O2-  O227  1  0.58507858  0.95616373  0.72747864  1
  O2-  O228  1  0.19845563  0.33000358  0.05975414  1
  O2-  O229  1  0.20108633  0.32991554  0.39195132  1
  O2-  O230  1  0.20571018  0.33086548  0.72752726  1
  O2-  O231  1  0.21483180  0.83691075  0.06966127  1
  O2-  O232  1  0.21331888  0.83609464  0.40866601  1
  O2-  O233  1  0.20941538  0.83924341  0.72953163  1
  O2-  O234  1  0.69644880  0.33374573  0.06019702  1
  O2-  O235  1  0.69532017  0.33484706  0.39569885  1
  O2-  O236  1  0.70469381  0.32955420  0.73512043  1
  O2-  O237  1  0.71024011  0.83198499  0.07015095  1
  O2-  O238  1  0.70816279  0.83616363  0.40089673  1
  O2-  O239  1  0.70616088  0.83916062  0.72831592  1
  O2-  O240  1  0.46552603  0.41516335  0.26380365  1
  O2-  O241  1  0.46311463  0.41930400  0.59862368  1
  O2-  O242  1  0.46178453  0.41972476  0.92934324  1
  O2-  O243  1  0.44650458  0.91767710  0.27183506  1
  O2-  O244  1  0.45788672  0.91401882  0.60070147  1
  O2-  O245  1  0.44416781  0.91616886  0.94021269  1
  O2-  O246  1  0.95943544  0.42072633  0.26716656  1
  O2-  O247  1  0.95677274  0.41039437  0.60278082  1
  O2-  O248  1  0.96226681  0.41782451  0.92712725  1
  O2-  O249  1  0.96015672  0.91050286  0.27311005  1
  O2-  O250  1  0.96052819  0.91452662  0.59832190  1
  O2-  O251  1  0.95587298  0.91296155  0.93710162  1
  O2-  O252  1  0.33307314  0.29538497  0.26442860  1
  O2-  O253  1  0.33502821  0.28885990  0.59524804  1
  O2-  O254  1  0.32920818  0.29897992  0.92910889  1
  O2-  O255  1  0.33189822  0.79482684  0.27368433  1
  O2-  O256  1  0.33653908  0.79726485  0.60411738  1
  O2-  O257  1  0.33552908  0.78927765  0.93588957  1
  O2-  O258  1  0.82668105  0.29818204  0.26999841  1
  O2-  O259  1  0.83586512  0.29141252  0.60470651  1
  O2-  O260  1  0.82821794  0.29792782  0.93019359  1
  O2-  O261  1  0.83665757  0.79570661  0.27272112  1
  O2-  O262  1  0.83305919  0.80371156  0.60274409  1
  O2-  O263  1  0.83480142  0.79772846  0.93837179  1
  O2-  O264  1  0.41169580  0.04669465  0.06433431  1
  O2-  O265  1  0.41559819  0.04605824  0.40028796  1
  O2-  O266  1  0.41285428  0.04232848  0.72714579  1
  O2-  O267  1  0.41990390  0.54050672  0.06554091  1
  O2-  O268  1  0.41967641  0.53745451  0.39918483  1
  O2-  O269  1  0.41641122  0.54205257  0.73416313  1
  O2-  O270  1  0.91415226  0.03907688  0.06875138  1
  O2-  O271  1  0.91121391  0.03539404  0.40541983  1
  O2-  O272  1  0.91241405  0.03860308  0.72866074  1
  O2-  O273  1  0.92150709  0.54034581  0.06521076  1
  O2-  O274  1  0.92179842  0.54359623  0.40083279  1
  O2-  O275  1  0.92438487  0.54287833  0.73036307  1
  O2-  O276  1  0.29893072  0.17090357  0.05712370  1
  O2-  O277  1  0.29841122  0.16862564  0.39457985  1
  O2-  O278  1  0.29424635  0.16395828  0.72594639  1
  O2-  O279  1  0.28791317  0.66349692  0.06976091  1
  O2-  O280  1  0.29157497  0.66388325  0.40282049  1
  O2-  O281  1  0.28955236  0.66919494  0.73310308  1
  O2-  O282  1  0.79249296  0.17331818  0.06568782  1
  O2-  O283  1  0.78809455  0.16814515  0.40448984  1
  O2-  O284  1  0.79851752  0.16268900  0.72854392  1
  O2-  O285  1  0.79298783  0.66599403  0.06563779  1
  O2-  O286  1  0.79115433  0.66727536  0.40243738  1
  O2-  O287  1  0.79878537  0.67335779  0.73181115  1
