# generated using pymatgen
data_Ca2Al2SiO7
_symmetry_space_group_name_H-M   'P 1'
_cell_length_a   15.46630660
_cell_length_b   15.46862372
_cell_length_c   15.28930437
_cell_angle_alpha   89.99081364
_cell_angle_beta   90.00760673
_cell_angle_gamma   90.00013348
_symmetry_Int_Tables_number   1
_chemical_formula_structural   Ca2Al2SiO7
_chemical_formula_sum   'Ca48 Al48 Si24 O168'
_cell_volume   3657.85097071
_cell_formula_units_Z   24
loop_
 _symmetry_equiv_pos_site_id
 _symmetry_equiv_pos_as_xyz
  1  'x, y, z'
loop_
 _atom_type_symbol
 _atom_type_oxidation_number
  Ca2+  2.0
  Al0+  0.0
  Si0+  0.0
  O2-  -2.0
loop_
 _atom_site_type_symbol
 _atom_site_label
 _atom_site_symmetry_multiplicity
 _atom_site_fract_x
 _atom_site_fract_y
 _atom_site_fract_z
 _atom_site_occupancy
  Ca2+  Ca0  1  0.17637924  0.08974416  0.16983893  1
  Ca2+  Ca1  1  0.17252478  0.08051630  0.50237283  1
  Ca2+  Ca2  1  0.17163805  0.06898428  0.84546160  1
  Ca2+  Ca3  1  0.15980250  0.57262445  0.16938676  1
  Ca2+  Ca4  1  0.16556601  0.57567348  0.50009617  1
  Ca2+  Ca5  1  0.16521852  0.57768134  0.84362153  1
  Ca2+  Ca6  1  0.66552716  0.07883584  0.16864920  1
  Ca2+  Ca7  1  0.66958961  0.08933926  0.50577520  1
  Ca2+  Ca8  1  0.67483943  0.08372975  0.84042110  1
  Ca2+  Ca9  1  0.67643835  0.58112622  0.17828827  1
  Ca2+  Ca10  1  0.67148899  0.58915434  0.50308229  1
  Ca2+  Ca11  1  0.67582024  0.59408122  0.83608529  1
  Ca2+  Ca12  1  0.08457909  0.32862642  0.16342269  1
  Ca2+  Ca13  1  0.07552944  0.32786831  0.48609384  1
  Ca2+  Ca14  1  0.08499732  0.32641763  0.83610728  1
  Ca2+  Ca15  1  0.08433770  0.82587502  0.15663191  1
  Ca2+  Ca16  1  0.08208440  0.83537152  0.49802740  1
  Ca2+  Ca17  1  0.09102858  0.83047582  0.83153895  1
  Ca2+  Ca18  1  0.59130595  0.32805972  0.16860224  1
  Ca2+  Ca19  1  0.58948602  0.32335968  0.49267841  1
  Ca2+  Ca20  1  0.58225388  0.32629464  0.82729877  1
  Ca2+  Ca21  1  0.57469400  0.83465937  0.16325390  1
  Ca2+  Ca22  1  0.57506832  0.82594368  0.49264841  1
  Ca2+  Ca23  1  0.57336250  0.83796043  0.82922603  1
  Ca2+  Ca24  1  0.31926240  0.41185978  0.17155089  1
  Ca2+  Ca25  1  0.32550711  0.41113077  0.49939353  1
  Ca2+  Ca26  1  0.32770297  0.41967275  0.84186270  1
  Ca2+  Ca27  1  0.33439115  0.92175521  0.16753995  1
  Ca2+  Ca28  1  0.33357159  0.91442087  0.50017416  1
  Ca2+  Ca29  1  0.32999639  0.91539595  0.84063212  1
  Ca2+  Ca30  1  0.83372268  0.42604990  0.17619011  1
  Ca2+  Ca31  1  0.82997874  0.42350713  0.49804450  1
  Ca2+  Ca32  1  0.83212094  0.42802202  0.83745018  1
  Ca2+  Ca33  1  0.82851041  0.91986773  0.16470015  1
  Ca2+  Ca34  1  0.83053261  0.92584743  0.50815070  1
  Ca2+  Ca35  1  0.82326172  0.92681035  0.84152253  1
  Ca2+  Ca36  1  0.41668108  0.15958644  0.16578675  1
  Ca2+  Ca37  1  0.42808175  0.16123650  0.49240685  1
  Ca2+  Ca38  1  0.42082410  0.16213424  0.83224297  1
  Ca2+  Ca39  1  0.41782818  0.67886379  0.16100587  1
  Ca2+  Ca40  1  0.42612339  0.67708496  0.49264975  1
  Ca2+  Ca41  1  0.42114878  0.68154572  0.82421129  1
  Ca2+  Ca42  1  0.92711549  0.17157026  0.16067999  1
  Ca2+  Ca43  1  0.92134758  0.17210691  0.48855514  1
  Ca2+  Ca44  1  0.92047377  0.15560306  0.83175061  1
  Ca2+  Ca45  1  0.91813680  0.66085951  0.15971057  1
  Ca2+  Ca46  1  0.91198747  0.66421638  0.49643619  1
  Ca2+  Ca47  1  0.91835835  0.66267079  0.83433205  1
  Al0+  Al48  1  -0.00056564  -0.00129325  0.00253045  1
  Al0+  Al49  1  0.00132643  -0.00087976  0.32851315  1
  Al0+  Al50  1  0.00176284  -0.00169299  0.67290497  1
  Al0+  Al51  1  -0.00055346  0.49940469  0.00149894  1
  Al0+  Al52  1  -0.00083434  0.50002020  0.33994259  1
  Al0+  Al53  1  -0.00154077  0.49882440  0.67031162  1
  Al0+  Al54  1  0.50017060  -0.00021280  0.00099127  1
  Al0+  Al55  1  0.49942916  0.00026648  0.33056553  1
  Al0+  Al56  1  0.49902797  0.00119261  0.65770317  1
  Al0+  Al57  1  0.50097265  0.49933806  -0.00188455  1
  Al0+  Al58  1  0.49991965  0.49869319  0.33340063  1
  Al0+  Al59  1  0.49855542  0.49920620  0.66336024  1
  Al0+  Al60  1  0.24893958  0.25010100  0.00039640  1
  Al0+  Al61  1  0.25189282  0.24749276  0.34214563  1
  Al0+  Al62  1  0.24877273  0.24829319  0.66795498  1
  Al0+  Al63  1  0.25116796  0.74896298  -0.00597560  1
  Al0+  Al64  1  0.24849717  0.75061251  0.33008721  1
  Al0+  Al65  1  0.24888233  0.74713084  0.66381123  1
  Al0+  Al66  1  0.75178054  0.25215724  0.00093967  1
  Al0+  Al67  1  0.75161080  0.25206086  0.32694227  1
  Al0+  Al68  1  0.75204302  0.25323257  0.66839098  1
  Al0+  Al69  1  0.75070448  0.75084342  0.00800752  1
  Al0+  Al70  1  0.74933047  0.75206979  0.33436642  1
  Al0+  Al71  1  0.75213361  0.75182302  0.66884223  1
  Al0+  Al72  1  0.57290253  0.67707724  0.31672072  1
  Al0+  Al73  1  0.57373205  0.67950285  0.65228871  1
  Al0+  Al74  1  0.18028750  0.43018717  0.01295985  1
  Al0+  Al75  1  0.57167965  0.18182800  0.65473138  1
  Al0+  Al76  1  0.82279799  0.07409298  0.01750723  1
  Al0+  Al77  1  0.93032661  0.32244298  0.31753343  1
  Al0+  Al78  1  0.82074044  0.07367415  0.67808416  1
  Al0+  Al79  1  0.57158386  0.18041021  0.31801264  1
  Al0+  Al80  1  0.18037302  0.42930274  0.34854502  1
  Al0+  Al81  1  0.81946923  0.57293590  0.35068868  1
  Al0+  Al82  1  0.42811676  0.82030094  0.31491665  1
  Al0+  Al83  1  0.32000473  0.07067984  0.01431241  1
  Al0+  Al84  1  0.18082881  0.92773031  0.67970069  1
  Al0+  Al85  1  0.07354976  0.17792105  0.31883534  1
  Al0+  Al86  1  0.17927976  0.92472983  0.01552380  1
  Al0+  Al87  1  0.67724262  0.42715291  0.34892823  1
  Al0+  Al88  1  0.81977353  0.57219557  0.68299720  1
  Al0+  Al89  1  0.32140128  0.06878724  0.34948846  1
  Al0+  Al90  1  0.06888446  0.67883979  0.98671439  1
  Al0+  Al91  1  0.43072115  0.82115613  0.98442240  1
  Al0+  Al92  1  0.42619934  0.82150433  0.64915433  1
  Al0+  Al93  1  0.67817441  0.93064898  0.01546848  1
  Al0+  Al94  1  0.07139851  0.17810024  0.98439717  1
  Al0+  Al95  1  0.81881691  0.56940173  0.01387585  1
  Si0+  Si96  1  0.93135747  0.82163049  0.65325614  1
  Si0+  Si97  1  0.17836644  0.42800216  0.68303166  1
  Si0+  Si98  1  0.92794467  0.82293389  0.31910610  1
  Si0+  Si99  1  0.06950724  0.67594501  0.65098735  1
  Si0+  Si100  1  0.57342082  0.67698862  0.98433739  1
  Si0+  Si101  1  0.92847259  0.32166384  0.98067554  1
  Si0+  Si102  1  0.06992925  0.17696411  0.65248098  1
  Si0+  Si103  1  0.32040689  0.56908206  0.68071037  1
  Si0+  Si104  1  0.17633668  0.92596203  0.34978277  1
  Si0+  Si105  1  0.93157798  0.32270018  0.65180338  1
  Si0+  Si106  1  0.67741243  0.93003358  0.68034043  1
  Si0+  Si107  1  0.92557526  0.82197441  0.98244348  1
  Si0+  Si108  1  0.82232996  0.07023731  0.34622228  1
  Si0+  Si109  1  0.42794996  0.32193933  0.98574291  1
  Si0+  Si110  1  0.42482076  0.32217007  0.64996544  1
  Si0+  Si111  1  0.67517359  0.42719070  0.01593941  1
  Si0+  Si112  1  0.32422051  0.57162397  0.01486286  1
  Si0+  Si113  1  0.67662978  0.42854804  0.68385457  1
  Si0+  Si114  1  0.42622337  0.32170350  0.31747117  1
  Si0+  Si115  1  0.67906471  0.93134023  0.34977391  1
  Si0+  Si116  1  0.32316172  0.07206085  0.68283717  1
  Si0+  Si117  1  0.32136446  0.57465280  0.34941159  1
  Si0+  Si118  1  0.57165021  0.18043079  0.98552097  1
  Si0+  Si119  1  0.06889249  0.67939512  0.32074735  1
  O2-  O120  1  0.24682197  0.00039825  0.06546611  1
  O2-  O121  1  0.24513953  -0.00573451  0.39384500  1
  O2-  O122  1  0.25752746  0.00042258  0.72571961  1
  O2-  O123  1  0.25514299  0.50428466  0.06009897  1
  O2-  O124  1  0.25601697  0.50316383  0.39583337  1
  O2-  O125  1  0.25160503  0.49649154  0.72477163  1
  O2-  O126  1  0.74980315  0.00293631  0.06656247  1
  O2-  O127  1  0.75041145  0.00225682  0.39205072  1
  O2-  O128  1  0.74149320  0.00341479  0.72390784  1
  O2-  O129  1  0.74130310  0.49807763  0.05882205  1
  O2-  O130  1  0.74396059  0.50384703  0.39991425  1
  O2-  O131  1  0.73962810  0.50236407  0.72843439  1
  O2-  O132  1  0.00330529  0.25119872  0.26866420  1
  O2-  O133  1  -0.00026022  0.24846717  0.61011798  1
  O2-  O134  1  -0.00765744  0.24839259  0.93555699  1
  O2-  O135  1  -0.00307936  0.74910934  0.27906534  1
  O2-  O136  1  -0.00032168  0.74831521  0.60937122  1
  O2-  O137  1  -0.00246735  0.75612305  0.93796795  1
  O2-  O138  1  0.49847946  0.25748814  0.27222171  1
  O2-  O139  1  0.49508296  0.25463583  0.60732799  1
  O2-  O140  1  0.50044446  0.25197258  0.94383041  1
  O2-  O141  1  0.49870692  0.74614808  0.26623839  1
  O2-  O142  1  0.50173405  0.75132579  0.60232686  1
  O2-  O143  1  0.50517281  0.74514877  0.93894491  1
  O2-  O144  1  0.07418772  0.18379939  0.09674065  1
  O2-  O145  1  0.06910921  0.17701587  0.43361092  1
  O2-  O146  1  0.07044452  0.17850310  0.75741061  1
  O2-  O147  1  0.06623184  0.67652847  0.09998233  1
  O2-  O148  1  0.07000236  0.68083442  0.42645641  1
  O2-  O149  1  0.06957863  0.67383438  0.75581402  1
  O2-  O150  1  0.57208499  0.18176856  0.09024794  1
  O2-  O151  1  0.57185337  0.18037664  0.43150638  1
  O2-  O152  1  0.57081125  0.18348647  0.76828187  1
  O2-  O153  1  0.57012337  0.67487874  0.08933119  1
  O2-  O154  1  0.57349824  0.68272885  0.43052846  1
  O2-  O155  1  0.57193012  0.68164434  0.76616970  1
  O2-  O156  1  0.18027153  0.43113505  0.23569872  1
  O2-  O157  1  0.17766436  0.42837782  0.57807193  1
  O2-  O158  1  0.18258569  0.43100347  0.89907289  1
  O2-  O159  1  0.17457070  0.92256080  0.24508958  1
  O2-  O160  1  0.17628746  0.93129504  0.56664901  1
  O2-  O161  1  0.18354206  0.92530132  0.90141151  1
  O2-  O162  1  0.68203278  0.42723347  0.23527475  1
  O2-  O163  1  0.68035735  0.42425988  0.57908459  1
  O2-  O164  1  0.67453285  0.42530889  0.91001876  1
  O2-  O165  1  0.68054644  0.93159282  0.24496618  1
  O2-  O166  1  0.68212785  0.92904638  0.57460552  1
  O2-  O167  1  0.67793278  0.93314974  0.90107431  1
  O2-  O168  1  0.42721732  0.32427050  0.09018723  1
  O2-  O169  1  0.42417376  0.31773688  0.42330320  1
  O2-  O170  1  0.42301296  0.32258076  0.75589331  1
  O2-  O171  1  0.43084220  0.82010172  0.09692170  1
  O2-  O172  1  0.42859271  0.81882948  0.42864750  1
  O2-  O173  1  0.42644210  0.82060643  0.76284311  1
  O2-  O174  1  0.93049050  0.32326893  0.08565996  1
  O2-  O175  1  0.93116620  0.31982220  0.43219288  1
  O2-  O176  1  0.93444311  0.32632173  0.75668301  1
  O2-  O177  1  0.92439051  0.81838839  0.08825465  1
  O2-  O178  1  0.93003219  0.82657611  0.42473842  1
  O2-  O179  1  0.93217650  0.82196569  0.75773590  1
  O2-  O180  1  0.32089015  0.06920862  0.23689086  1
  O2-  O181  1  0.32038327  0.07585368  0.57758182  1
  O2-  O182  1  0.32125283  0.07048944  0.90015691  1
  O2-  O183  1  0.31637681  0.57562850  0.24400279  1
  O2-  O184  1  0.31670235  0.56790897  0.57582533  1
  O2-  O185  1  0.32411740  0.56751787  0.90869125  1
  O2-  O186  1  0.82253535  0.06611716  0.24181832  1
  O2-  O187  1  0.82255899  0.07160738  0.56451325  1
  O2-  O188  1  0.81834618  0.07300964  0.90313088  1
  O2-  O189  1  0.82239734  0.57142260  0.23736707  1
  O2-  O190  1  0.82391373  0.56946088  0.57081405  1
  O2-  O191  1  0.81863143  0.56802030  0.90027429  1
  O2-  O192  1  0.04583689  0.07992711  0.26547323  1
  O2-  O193  1  0.04186519  0.08499140  0.60638291  1
  O2-  O194  1  0.04320055  0.07915470  0.93249500  1
  O2-  O195  1  0.04158962  0.58716954  0.27536174  1
  O2-  O196  1  0.03958973  0.58440889  0.60369968  1
  O2-  O197  1  0.03556862  0.58293663  0.93116830  1
  O2-  O198  1  0.53887297  0.08485790  0.26455242  1
  O2-  O199  1  0.54531066  0.08569294  0.59784641  1
  O2-  O200  1  0.54305811  0.08957790  0.93768734  1
  O2-  O201  1  0.55048296  0.57566291  0.26783541  1
  O2-  O202  1  0.54618093  0.57961449  0.60135005  1
  O2-  O203  1  0.55067900  0.58249871  0.93706388  1
  O2-  O204  1  0.17323601  0.20743336  0.27132005  1
  O2-  O205  1  0.16259840  0.20471985  0.60625726  1
  O2-  O206  1  0.16628344  0.21453433  0.92881430  1
  O2-  O207  1  0.15961198  0.70606408  0.27155877  1
  O2-  O208  1  0.16087951  0.70148229  0.60212419  1
  O2-  O209  1  0.16636197  0.70413702  0.93080687  1
  O2-  O210  1  0.66743637  0.20935657  0.26234532  1
  O2-  O211  1  0.66882507  0.21396166  0.60163850  1
  O2-  O212  1  0.66343931  0.20939528  0.93774546  1
  O2-  O213  1  0.67109262  0.70936300  0.26550399  1
  O2-  O214  1  0.67325517  0.70808662  0.60138511  1
  O2-  O215  1  0.66801496  0.70451893  0.94168763  1
  O2-  O216  1  0.08480611  0.46190170  0.06658581  1
  O2-  O217  1  0.08592245  0.46266673  0.40542756  1
  O2-  O218  1  0.08829381  0.45892064  0.73106680  1
  O2-  O219  1  0.07747153  0.94410061  0.06315199  1
  O2-  O220  1  0.08241447  0.95254529  0.39632949  1
  O2-  O221  1  0.08602336  0.95888423  0.73687458  1
  O2-  O222  1  0.58040362  0.44813958  0.06149620  1
  O2-  O223  1  0.57486721  0.44422390  0.39908515  1
  O2-  O224  1  0.57947516  0.44598576  0.72658856  1
  O2-  O225  1  0.58175316  0.96108726  0.06968246  1
  O2-  O226  1  0.58777557  0.95996827  0.39646506  1
  O2-  O227  1  0.58132799  0.95213569  0.72211733  1
  O2-  O228  1  0.21289870  0.33528638  0.06702458  1
  O2-  O229  1  0.21165062  0.33439944  0.40594406  1
  O2-  O230  1  0.20428836  0.33498037  0.72961191  1
  O2-  O231  1  0.20943594  0.82593015  0.06621172  1
  O2-  O232  1  0.20165627  0.83226033  0.39727266  1
  O2-  O233  1  0.20636449  0.82799812  0.73037770  1
  O2-  O234  1  0.70280467  0.33482269  0.06216195  1
  O2-  O235  1  0.71243703  0.32946233  0.40141938  1
  O2-  O236  1  0.70910881  0.33851933  0.73402787  1
  O2-  O237  1  0.70720556  0.83380962  0.07063689  1
  O2-  O238  1  0.70821432  0.84052216  0.39796365  1
  O2-  O239  1  0.70804378  0.83959628  0.72918118  1
  O2-  O240  1  0.44285059  0.41760263  0.27307991  1
  O2-  O241  1  0.44607843  0.41613321  0.60332507  1
  O2-  O242  1  0.45498192  0.41333524  0.93495185  1
  O2-  O243  1  0.46033511  0.91758203  0.26388252  1
  O2-  O244  1  0.45020704  0.92064590  0.59633794  1
  O2-  O245  1  0.46320168  0.91768611  0.93020459  1
  O2-  O246  1  0.96016059  0.42186686  0.26814128  1
  O2-  O247  1  0.96357148  0.41255240  0.60282213  1
  O2-  O248  1  0.96072116  0.41291708  0.93325432  1
  O2-  O249  1  0.95735593  0.91186989  0.26774331  1
  O2-  O250  1  0.96252718  0.91211654  0.60393917  1
  O2-  O251  1  0.94566158  0.91728320  0.93816514  1
  O2-  O252  1  0.33427774  0.29023473  0.27192872  1
  O2-  O253  1  0.33089252  0.29521106  0.60407023  1
  O2-  O254  1  0.33768964  0.29333263  0.93569802  1
  O2-  O255  1  0.32824276  0.79336076  0.26375308  1
  O2-  O256  1  0.32910438  0.78768166  0.59593811  1
  O2-  O257  1  0.33547149  0.78888074  0.92840621  1
  O2-  O258  1  0.83381958  0.29520771  0.26241276  1
  O2-  O259  1  0.83859179  0.29825124  0.60618922  1
  O2-  O260  1  0.83263890  0.30216600  0.93532909  1
  O2-  O261  1  0.83565388  0.79837315  0.27252620  1
  O2-  O262  1  0.83914625  0.79691868  0.60512554  1
  O2-  O263  1  0.83280951  0.79222190  0.93615607  1
  O2-  O264  1  0.41847249  0.04335636  0.06602077  1
  O2-  O265  1  0.41827920  0.03671418  0.40274270  1
  O2-  O266  1  0.41907802  0.05021401  0.72568907  1
  O2-  O267  1  0.41769381  0.54596111  0.06049934  1
  O2-  O268  1  0.41626667  0.55277699  0.39368582  1
  O2-  O269  1  0.41276897  0.54367822  0.72846606  1
  O2-  O270  1  0.92079661  0.04585170  0.06940867  1
  O2-  O271  1  0.91399218  0.04005383  0.39373869  1
  O2-  O272  1  0.91457581  0.03727752  0.73352958  1
  O2-  O273  1  0.91429635  0.53572607  0.06700220  1
  O2-  O274  1  0.91682322  0.54248541  0.40548637  1
  O2-  O275  1  0.91527365  0.53576133  0.73719490  1
  O2-  O276  1  0.29306634  0.16964977  0.06638345  1
  O2-  O277  1  0.29258066  0.16368627  0.40803312  1
  O2-  O278  1  0.29592505  0.16526080  0.73019213  1
  O2-  O279  1  0.29874181  0.66521226  0.05823243  1
  O2-  O280  1  0.28997742  0.66616101  0.39717226  1
  O2-  O281  1  0.28974514  0.65962544  0.72849118  1
  O2-  O282  1  0.79619015  0.17377574  0.06739531  1
  O2-  O283  1  0.79635096  0.16356595  0.39046504  1
  O2-  O284  1  0.79543491  0.17101593  0.73325645  1
  O2-  O285  1  0.79475810  0.66637117  0.06878722  1
  O2-  O286  1  0.79467354  0.67353468  0.40252173  1
  O2-  O287  1  0.79522234  0.67088920  0.73668256  1
