# generated using pymatgen
data_Ca2Al2SiO7
_symmetry_space_group_name_H-M   'P 1'
_cell_length_a   15.45698099
_cell_length_b   15.45675832
_cell_length_c   15.28215440
_cell_angle_alpha   89.99226922
_cell_angle_beta   90.01604719
_cell_angle_gamma   89.98944786
_symmetry_Int_Tables_number   1
_chemical_formula_structural   Ca2Al2SiO7
_chemical_formula_sum   'Ca48 Al48 Si24 O168'
_cell_volume   3651.13292419
_cell_formula_units_Z   24
loop_
 _symmetry_equiv_pos_site_id
 _symmetry_equiv_pos_as_xyz
  1  'x, y, z'
loop_
 _atom_type_symbol
 _atom_type_oxidation_number
  Ca2+  2.0
  Al0+  0.0
  Si0+  0.0
  O2-  -2.0
loop_
 _atom_site_type_symbol
 _atom_site_label
 _atom_site_symmetry_multiplicity
 _atom_site_fract_x
 _atom_site_fract_y
 _atom_site_fract_z
 _atom_site_occupancy
  Ca2+  Ca0  1  0.18207342  0.09354439  0.16883287  1
  Ca2+  Ca1  1  0.17311845  0.08097052  0.51062107  1
  Ca2+  Ca2  1  0.16772838  0.08290549  0.83886330  1
  Ca2+  Ca3  1  0.16447483  0.57991932  0.17388932  1
  Ca2+  Ca4  1  0.16043902  0.57425892  0.50543849  1
  Ca2+  Ca5  1  0.16138465  0.57942701  0.83507886  1
  Ca2+  Ca6  1  0.66141946  0.08712813  0.17113803  1
  Ca2+  Ca7  1  0.66832618  0.08248803  0.50988860  1
  Ca2+  Ca8  1  0.66457549  0.08948885  0.83403473  1
  Ca2+  Ca9  1  0.66862873  0.56882595  0.17742805  1
  Ca2+  Ca10  1  0.66730845  0.58573272  0.50441016  1
  Ca2+  Ca11  1  0.66489668  0.57766949  0.83995958  1
  Ca2+  Ca12  1  0.07681160  0.33413356  0.15836958  1
  Ca2+  Ca13  1  0.08865024  0.33286745  0.49998156  1
  Ca2+  Ca14  1  0.08326927  0.32198473  0.82860868  1
  Ca2+  Ca15  1  0.08569341  0.81929588  0.16217047  1
  Ca2+  Ca16  1  0.08906502  0.82388658  0.49816054  1
  Ca2+  Ca17  1  0.08979705  0.82382057  0.82561271  1
  Ca2+  Ca18  1  0.58432978  0.32643212  0.15821778  1
  Ca2+  Ca19  1  0.58039788  0.32471573  0.49506646  1
  Ca2+  Ca20  1  0.57495399  0.32805929  0.82864243  1
  Ca2+  Ca21  1  0.57842611  0.82609291  0.16330747  1
  Ca2+  Ca22  1  0.59337060  0.82388487  0.49852029  1
  Ca2+  Ca23  1  0.57807884  0.83361294  0.82708823  1
  Ca2+  Ca24  1  0.32637103  0.41189005  0.17034111  1
  Ca2+  Ca25  1  0.32403202  0.41357070  0.50635388  1
  Ca2+  Ca26  1  0.33387199  0.41074349  0.83430613  1
  Ca2+  Ca27  1  0.34120971  0.92869688  0.16747599  1
  Ca2+  Ca28  1  0.32965234  0.92304128  0.50391575  1
  Ca2+  Ca29  1  0.33114784  0.92163438  0.84035185  1
  Ca2+  Ca30  1  0.82355953  0.41456190  0.17161398  1
  Ca2+  Ca31  1  0.82682876  0.42155446  0.49809376  1
  Ca2+  Ca32  1  0.82698152  0.41258997  0.84047715  1
  Ca2+  Ca33  1  0.83206104  0.92020072  0.16915642  1
  Ca2+  Ca34  1  0.82710854  0.92385237  0.51221213  1
  Ca2+  Ca35  1  0.82785976  0.92294302  0.83026538  1
  Ca2+  Ca36  1  0.42277926  0.16950754  0.15839612  1
  Ca2+  Ca37  1  0.42336389  0.16722315  0.49738016  1
  Ca2+  Ca38  1  0.42131263  0.17436289  0.83080986  1
  Ca2+  Ca39  1  0.41969743  0.67188412  0.16252562  1
  Ca2+  Ca40  1  0.42852662  0.66773581  0.49790801  1
  Ca2+  Ca41  1  0.42124479  0.67324260  0.82835451  1
  Ca2+  Ca42  1  0.92520209  0.17591374  0.15565483  1
  Ca2+  Ca43  1  0.92156315  0.16086153  0.50171194  1
  Ca2+  Ca44  1  0.92170265  0.16969750  0.82911446  1
  Ca2+  Ca45  1  0.92560281  0.65572939  0.16753539  1
  Ca2+  Ca46  1  0.92430876  0.66312043  0.49438488  1
  Ca2+  Ca47  1  0.92785804  0.66574204  0.82908967  1
  Al0+  Al48  1  -0.00096862  -0.00383011  0.00067775  1
  Al0+  Al49  1  0.00095713  -0.00126548  0.33098335  1
  Al0+  Al50  1  -0.00042419  0.00016852  0.67172557  1
  Al0+  Al51  1  -0.00102889  0.50042815  -0.00800774  1
  Al0+  Al52  1  -0.00139391  0.49904325  0.33702248  1
  Al0+  Al53  1  0.00002275  0.49925507  0.66816158  1
  Al0+  Al54  1  0.49928699  -0.00162037  -0.00282288  1
  Al0+  Al55  1  0.50050717  0.00138169  0.33593068  1
  Al0+  Al56  1  0.49892917  0.00077238  0.66712362  1
  Al0+  Al57  1  0.49936765  0.49957101  0.00369116  1
  Al0+  Al58  1  0.49766988  0.49872915  0.33304424  1
  Al0+  Al59  1  0.49823570  0.50169654  0.65901402  1
  Al0+  Al60  1  0.25054883  0.24965480  -0.00157629  1
  Al0+  Al61  1  0.25182860  0.24901371  0.34303503  1
  Al0+  Al62  1  0.24781321  0.25136487  0.66412852  1
  Al0+  Al63  1  0.25058808  0.74903358  -0.00628003  1
  Al0+  Al64  1  0.25003363  0.75088401  0.32843304  1
  Al0+  Al65  1  0.25169696  0.74917049  0.66436042  1
  Al0+  Al66  1  0.75103585  0.24934345  -0.00157771  1
  Al0+  Al67  1  0.75065619  0.24974197  0.33466407  1
  Al0+  Al68  1  0.75057773  0.25231259  0.66643341  1
  Al0+  Al69  1  0.75288369  0.75015647  0.00329063  1
  Al0+  Al70  1  0.75108078  0.75010565  0.32994932  1
  Al0+  Al71  1  0.75098716  0.75143485  0.66998020  1
  Al0+  Al72  1  0.32182495  0.06989811  0.34902377  1
  Al0+  Al73  1  0.06875830  0.17808394  0.65225823  1
  Al0+  Al74  1  0.57162724  0.17936550  0.65060442  1
  Al0+  Al75  1  0.67604132  0.42674048  0.35038631  1
  Al0+  Al76  1  0.42809220  0.32352567  0.98653792  1
  Al0+  Al77  1  0.07249874  0.17760728  0.98728655  1
  Al0+  Al78  1  0.18044553  0.92753489  0.67989746  1
  Al0+  Al79  1  0.92861717  0.32108157  0.98483353  1
  Al0+  Al80  1  0.42763403  0.32176427  0.64884236  1
  Al0+  Al81  1  0.07137035  0.67871318  0.65117459  1
  Al0+  Al82  1  0.57100033  0.18027542  0.31940974  1
  Al0+  Al83  1  0.43079804  0.82011650  0.98658209  1
  Al0+  Al84  1  0.31960640  0.07024750  0.01286521  1
  Al0+  Al85  1  0.81916361  0.57099292  0.34880687  1
  Al0+  Al86  1  0.67871405  0.42877177  0.01261777  1
  Al0+  Al87  1  0.06958266  0.67829131  0.32008851  1
  Al0+  Al88  1  0.57129447  0.17807586  0.98528971  1
  Al0+  Al89  1  0.57216261  0.68129144  0.65504913  1
  Al0+  Al90  1  0.17950868  0.43071183  0.34596350  1
  Al0+  Al91  1  0.57237314  0.67723843  0.31829552  1
  Al0+  Al92  1  0.82055460  0.07394895  0.68335203  1
  Al0+  Al93  1  0.06985068  0.68003736  0.98487401  1
  Al0+  Al94  1  0.67722665  0.92870116  0.68280106  1
  Al0+  Al95  1  0.17884407  0.42966123  0.68366085  1
  Si0+  Si96  1  0.17722501  0.92707045  0.34841442  1
  Si0+  Si97  1  0.92536997  0.82331867  0.98106684  1
  Si0+  Si98  1  0.42759535  0.82328397  0.64887510  1
  Si0+  Si99  1  0.07298853  0.17707567  0.32004358  1
  Si0+  Si100  1  0.57326819  0.67795259  0.98638874  1
  Si0+  Si101  1  0.67852608  0.92800295  0.01697228  1
  Si0+  Si102  1  0.68014788  0.92988229  0.34633973  1
  Si0+  Si103  1  0.32192108  0.57607682  0.34951786  1
  Si0+  Si104  1  0.82106175  0.57139877  0.68302128  1
  Si0+  Si105  1  0.82147914  0.07029227  0.01685556  1
  Si0+  Si106  1  0.32069322  0.57322187  0.01481813  1
  Si0+  Si107  1  0.92774788  0.82403307  0.31564879  1
  Si0+  Si108  1  0.42897783  0.82219813  0.31704627  1
  Si0+  Si109  1  0.17735374  0.92466487  0.01781000  1
  Si0+  Si110  1  0.92726407  0.32323959  0.64713497  1
  Si0+  Si111  1  0.82326571  0.57252483  0.01650308  1
  Si0+  Si112  1  0.17877774  0.43051673  0.01300308  1
  Si0+  Si113  1  0.67715915  0.43152187  0.68085476  1
  Si0+  Si114  1  0.92888693  0.82126441  0.65074168  1
  Si0+  Si115  1  0.82348681  0.07089114  0.34648413  1
  Si0+  Si116  1  0.32330050  0.57131964  0.68358301  1
  Si0+  Si117  1  0.42537606  0.32066859  0.31683615  1
  Si0+  Si118  1  0.32090840  0.07283155  0.68498105  1
  Si0+  Si119  1  0.93063651  0.31912918  0.31998514  1
  O2-  O120  1  0.24207238  -0.00254391  0.06168852  1
  O2-  O121  1  0.24419176  -0.00330054  0.39295598  1
  O2-  O122  1  0.25315500  0.00272184  0.72849371  1
  O2-  O123  1  0.24979766  0.50123538  0.05628145  1
  O2-  O124  1  0.25325952  0.50688234  0.39253703  1
  O2-  O125  1  0.25408440  0.50421267  0.72972541  1
  O2-  O126  1  0.74850160  0.00062353  0.05946624  1
  O2-  O127  1  0.75235291  -0.00009649  0.38755775  1
  O2-  O128  1  0.74420062  0.00555922  0.73297918  1
  O2-  O129  1  0.75278963  0.50511979  0.05903331  1
  O2-  O130  1  0.74212549  0.50506184  0.40031746  1
  O2-  O131  1  0.74827656  0.50212756  0.72439637  1
  O2-  O132  1  0.00248707  0.24840268  0.27803035  1
  O2-  O133  1  -0.00564252  0.25241704  0.60341213  1
  O2-  O134  1  -0.00005346  0.24809383  0.93622085  1
  O2-  O135  1  -0.00438564  0.75364411  0.27255558  1
  O2-  O136  1  -0.00166003  0.75482045  0.60430235  1
  O2-  O137  1  -0.00363862  0.75621599  0.93889089  1
  O2-  O138  1  0.49892075  0.25731861  0.27268958  1
  O2-  O139  1  0.49936211  0.24966380  0.59886704  1
  O2-  O140  1  0.50101909  0.25240976  0.93737900  1
  O2-  O141  1  0.49530828  0.75059327  0.27309412  1
  O2-  O142  1  0.50150088  0.75916244  0.60628235  1
  O2-  O143  1  0.50702841  0.74712860  0.94019087  1
  O2-  O144  1  0.07206314  0.18250151  0.10195636  1
  O2-  O145  1  0.07002182  0.17433851  0.42488215  1
  O2-  O146  1  0.06828318  0.17897718  0.76503428  1
  O2-  O147  1  0.06908238  0.67807173  0.09839996  1
  O2-  O148  1  0.06850481  0.68005909  0.43277858  1
  O2-  O149  1  0.06906570  0.67955135  0.76429788  1
  O2-  O150  1  0.57003314  0.17837706  0.09943885  1
  O2-  O151  1  0.57108462  0.17788524  0.43187309  1
  O2-  O152  1  0.57073393  0.18242918  0.76383487  1
  O2-  O153  1  0.57118062  0.67957582  0.09206041  1
  O2-  O154  1  0.57321646  0.68225589  0.43142772  1
  O2-  O155  1  0.56963223  0.67986333  0.76834387  1
  O2-  O156  1  0.17893734  0.43051757  0.23205196  1
  O2-  O157  1  0.17821271  0.43243011  0.57028625  1
  O2-  O158  1  0.17897381  0.43209429  0.90830629  1
  O2-  O159  1  0.17639293  0.92618853  0.24292111  1
  O2-  O160  1  0.18332086  0.92796966  0.56624564  1
  O2-  O161  1  0.17985216  0.92288419  0.91233511  1
  O2-  O162  1  0.68110040  0.42426235  0.23666683  1
  O2-  O163  1  0.67916425  0.43295048  0.57591416  1
  O2-  O164  1  0.67881180  0.43265251  0.89911235  1
  O2-  O165  1  0.68016690  0.93083638  0.24077949  1
  O2-  O166  1  0.68300438  0.92524341  0.56867958  1
  O2-  O167  1  0.68034643  0.92441193  0.91262408  1
  O2-  O168  1  0.42616651  0.32246924  0.10034073  1
  O2-  O169  1  0.42319147  0.31694786  0.42199128  1
  O2-  O170  1  0.43042667  0.32245219  0.76245086  1
  O2-  O171  1  0.43296423  0.81898836  0.10009073  1
  O2-  O172  1  0.42862185  0.82203098  0.42244854  1
  O2-  O173  1  0.42613155  0.82001094  0.75454621  1
  O2-  O174  1  0.93061251  0.32116781  0.09939967  1
  O2-  O175  1  0.93014583  0.31802177  0.42488265  1
  O2-  O176  1  0.92758836  0.32427097  0.75259398  1
  O2-  O177  1  0.92384997  0.82467559  0.08688879  1
  O2-  O178  1  0.92820083  0.82835711  0.42073157  1
  O2-  O179  1  0.92799345  0.81737470  0.75634085  1
  O2-  O180  1  0.32191814  0.07011592  0.23565777  1
  O2-  O181  1  0.31991625  0.07016646  0.57888764  1
  O2-  O182  1  0.31887531  0.06785225  0.90026749  1
  O2-  O183  1  0.32002198  0.57764308  0.24340934  1
  O2-  O184  1  0.32292549  0.57167965  0.57791574  1
  O2-  O185  1  0.32125904  0.57573486  0.91008855  1
  O2-  O186  1  0.82537898  0.06980574  0.24116122  1
  O2-  O187  1  0.82176528  0.06969087  0.56878227  1
  O2-  O188  1  0.82287310  0.06870362  0.91248993  1
  O2-  O189  1  0.82170814  0.56554701  0.23515783  1
  O2-  O190  1  0.82140057  0.57146722  0.57800513  1
  O2-  O191  1  0.82185304  0.57489303  0.91072461  1
  O2-  O192  1  0.04616566  0.08570473  0.27091508  1
  O2-  O193  1  0.03824613  0.08064021  0.59886662  1
  O2-  O194  1  0.04670734  0.07665570  0.93939568  1
  O2-  O195  1  0.03660200  0.58162539  0.26662829  1
  O2-  O196  1  0.03659380  0.58244622  0.59952668  1
  O2-  O197  1  0.03773760  0.58561104  0.92831316  1
  O2-  O198  1  0.53965008  0.08268323  0.26687448  1
  O2-  O199  1  0.54559379  0.07877037  0.60001589  1
  O2-  O200  1  0.54345908  0.07993561  0.93332516  1
  O2-  O201  1  0.54242000  0.57959328  0.26576320  1
  O2-  O202  1  0.53903826  0.58791116  0.59698366  1
  O2-  O203  1  0.54561132  0.58519421  0.94116078  1
  O2-  O204  1  0.16594364  0.20623686  0.27660104  1
  O2-  O205  1  0.16440334  0.20962758  0.59744256  1
  O2-  O206  1  0.16886254  0.20683420  0.93289649  1
  O2-  O207  1  0.16625947  0.70828639  0.26455743  1
  O2-  O208  1  0.16895131  0.70730952  0.59829139  1
  O2-  O209  1  0.16606477  0.70878151  0.93017249  1
  O2-  O210  1  0.66998875  0.20712256  0.26690409  1
  O2-  O211  1  0.67114420  0.20789659  0.59938615  1
  O2-  O212  1  0.67059951  0.20323440  0.93469174  1
  O2-  O213  1  0.66796153  0.70994389  0.26303245  1
  O2-  O214  1  0.66990775  0.71039767  0.60158591  1
  O2-  O215  1  0.66880028  0.70110414  0.94365293  1
  O2-  O216  1  0.08602738  0.45995424  0.05851859  1
  O2-  O217  1  0.08372144  0.46010092  0.40146620  1
  O2-  O218  1  0.08208567  0.46143650  0.73713602  1
  O2-  O219  1  0.08089122  0.94230156  0.06190973  1
  O2-  O220  1  0.08270367  0.95043986  0.39407384  1
  O2-  O221  1  0.08315511  0.95374058  0.73395777  1
  O2-  O222  1  0.58267128  0.45860182  0.06923078  1
  O2-  O223  1  0.57426615  0.44771194  0.39860659  1
  O2-  O224  1  0.58504640  0.46141964  0.72591187  1
  O2-  O225  1  0.58638825  0.95407500  0.06415114  1
  O2-  O226  1  0.58943585  0.95680144  0.39515248  1
  O2-  O227  1  0.57613974  0.95044517  0.73290587  1
  O2-  O228  1  0.20536055  0.33876244  0.06114277  1
  O2-  O229  1  0.20984923  0.33536521  0.40266054  1
  O2-  O230  1  0.20829188  0.33191499  0.73556210  1
  O2-  O231  1  0.20837158  0.83187575  0.06346402  1
  O2-  O232  1  0.20497339  0.83368102  0.39427311  1
  O2-  O233  1  0.21268429  0.83069890  0.73337246  1
  O2-  O234  1  0.71178405  0.33233229  0.06650162  1
  O2-  O235  1  0.71341666  0.33107278  0.40423030  1
  O2-  O236  1  0.70561330  0.34017335  0.72795652  1
  O2-  O237  1  0.70896537  0.83695526  0.06664430  1
  O2-  O238  1  0.70820289  0.83784434  0.39264694  1
  O2-  O239  1  0.71081232  0.83231629  0.73857942  1
  O2-  O240  1  0.44133789  0.41746037  0.27381178  1
  O2-  O241  1  0.45408528  0.42021262  0.59506899  1
  O2-  O242  1  0.45402769  0.42316382  0.93446852  1
  O2-  O243  1  0.46021840  0.91417615  0.27098052  1
  O2-  O244  1  0.44712262  0.91847597  0.60456716  1
  O2-  O245  1  0.46096088  0.91459337  0.93013080  1
  O2-  O246  1  0.95884086  0.41037268  0.27237339  1
  O2-  O247  1  0.95635225  0.41580792  0.60116524  1
  O2-  O248  1  0.95371105  0.41867393  0.92995198  1
  O2-  O249  1  0.95509237  0.91643517  0.26569983  1
  O2-  O250  1  0.95184474  0.91590309  0.60664804  1
  O2-  O251  1  0.94803581  0.91705895  0.93503604  1
  O2-  O252  1  0.33280948  0.28904378  0.27087994  1
  O2-  O253  1  0.32882903  0.29372840  0.59733658  1
  O2-  O254  1  0.33071091  0.29463909  0.93296978  1
  O2-  O255  1  0.33523311  0.80019610  0.26901005  1
  O2-  O256  1  0.33738012  0.79194294  0.59930804  1
  O2-  O257  1  0.33598036  0.78837603  0.93086749  1
  O2-  O258  1  0.83988572  0.28958849  0.27142112  1
  O2-  O259  1  0.83327880  0.30040321  0.60097688  1
  O2-  O260  1  0.83179150  0.29133487  0.93107795  1
  O2-  O261  1  0.83454173  0.80049597  0.26773221  1
  O2-  O262  1  0.83594546  0.79403590  0.60417045  1
  O2-  O263  1  0.83243805  0.79531632  0.93467790  1
  O2-  O264  1  0.41580937  0.03522970  0.06691304  1
  O2-  O265  1  0.41667547  0.03565024  0.40453620  1
  O2-  O266  1  0.41494939  0.04853646  0.72983652  1
  O2-  O267  1  0.41209026  0.54762732  0.06461053  1
  O2-  O268  1  0.41582276  0.55183142  0.39513286  1
  O2-  O269  1  0.41693534  0.54526410  0.73002142  1
  O2-  O270  1  0.91244017  0.03968370  0.06649298  1
  O2-  O271  1  0.91539991  0.04213184  0.39421336  1
  O2-  O272  1  0.91643235  0.04045301  0.73838431  1
  O2-  O273  1  0.91709704  0.54399155  0.06101478  1
  O2-  O274  1  0.91495600  0.53712212  0.40396788  1
  O2-  O275  1  0.91154030  0.54089406  0.73130813  1
  O2-  O276  1  0.28960227  0.16730978  0.06847336  1
  O2-  O277  1  0.29119171  0.16409526  0.40646197  1
  O2-  O278  1  0.29263487  0.16611250  0.72843700  1
  O2-  O279  1  0.29053237  0.66415450  0.06349625  1
  O2-  O280  1  0.29713459  0.67014761  0.39496050  1
  O2-  O281  1  0.29899863  0.66570241  0.72861285  1
  O2-  O282  1  0.79623803  0.16254467  0.06463368  1
  O2-  O283  1  0.79727289  0.16195964  0.39467488  1
  O2-  O284  1  0.79711024  0.17449224  0.73438006  1
  O2-  O285  1  0.80259919  0.66698284  0.06407143  1
  O2-  O286  1  0.79787158  0.67295758  0.39827143  1
  O2-  O287  1  0.79565036  0.66320625  0.73130437  1
