# generated using pymatgen
data_Ca2Al2SiO7
_symmetry_space_group_name_H-M   'P 1'
_cell_length_a   15.47327484
_cell_length_b   15.47454734
_cell_length_c   15.29493966
_cell_angle_alpha   90.00089103
_cell_angle_beta   89.97197122
_cell_angle_gamma   90.00344470
_symmetry_Int_Tables_number   1
_chemical_formula_structural   Ca2Al2SiO7
_chemical_formula_sum   'Ca48 Al48 Si24 O168'
_cell_volume   3662.24933433
_cell_formula_units_Z   24
loop_
 _symmetry_equiv_pos_site_id
 _symmetry_equiv_pos_as_xyz
  1  'x, y, z'
loop_
 _atom_type_symbol
 _atom_type_oxidation_number
  Ca2+  2.0
  Al0+  0.0
  Si0+  0.0
  O2-  -2.0
loop_
 _atom_site_type_symbol
 _atom_site_label
 _atom_site_symmetry_multiplicity
 _atom_site_fract_x
 _atom_site_fract_y
 _atom_site_fract_z
 _atom_site_occupancy
  Ca2+  Ca0  1  0.17413597  0.09007424  0.16657951  1
  Ca2+  Ca1  1  0.17853297  0.09273574  0.49875529  1
  Ca2+  Ca2  1  0.17826929  0.08205927  0.84355551  1
  Ca2+  Ca3  1  0.17549218  0.57785298  0.17375228  1
  Ca2+  Ca4  1  0.17452957  0.58238651  0.49949586  1
  Ca2+  Ca5  1  0.16941238  0.57978356  0.83960161  1
  Ca2+  Ca6  1  0.67475533  0.09295187  0.16358343  1
  Ca2+  Ca7  1  0.67874529  0.08336017  0.50660689  1
  Ca2+  Ca8  1  0.67170550  0.07671210  0.84210277  1
  Ca2+  Ca9  1  0.66319020  0.57717465  0.16843384  1
  Ca2+  Ca10  1  0.66923036  0.57491113  0.50212660  1
  Ca2+  Ca11  1  0.65494326  0.57230800  0.83978372  1
  Ca2+  Ca12  1  0.07185999  0.32018633  0.16256767  1
  Ca2+  Ca13  1  0.07401161  0.32392794  0.48736185  1
  Ca2+  Ca14  1  0.07717082  0.32429738  0.83707930  1
  Ca2+  Ca15  1  0.08552812  0.83465056  0.15974672  1
  Ca2+  Ca16  1  0.08115897  0.83235488  0.49570086  1
  Ca2+  Ca17  1  0.08452381  0.83974534  0.83425561  1
  Ca2+  Ca18  1  0.57495699  0.33015050  0.15663377  1
  Ca2+  Ca19  1  0.58045755  0.33265038  0.49707249  1
  Ca2+  Ca20  1  0.58660558  0.32880557  0.83838052  1
  Ca2+  Ca21  1  0.57483135  0.82957782  0.15554972  1
  Ca2+  Ca22  1  0.57447634  0.84229746  0.49786145  1
  Ca2+  Ca23  1  0.57732018  0.84503704  0.83113729  1
  Ca2+  Ca24  1  0.34133746  0.41911988  0.17532918  1
  Ca2+  Ca25  1  0.33957672  0.42146745  0.49912117  1
  Ca2+  Ca26  1  0.33705380  0.41804790  0.84243334  1
  Ca2+  Ca27  1  0.33766921  0.92650285  0.16748036  1
  Ca2+  Ca28  1  0.34107785  0.92737632  0.50268947  1
  Ca2+  Ca29  1  0.33383519  0.92282483  0.84132146  1
  Ca2+  Ca30  1  0.83144996  0.41355138  0.16914444  1
  Ca2+  Ca31  1  0.83086216  0.41712178  0.50239617  1
  Ca2+  Ca32  1  0.82208442  0.41487442  0.84245226  1
  Ca2+  Ca33  1  0.82631992  0.92829285  0.16739512  1
  Ca2+  Ca34  1  0.82684750  0.92887981  0.50643988  1
  Ca2+  Ca35  1  0.82313150  0.92609739  0.84117064  1
  Ca2+  Ca36  1  0.41610530  0.17373065  0.15757696  1
  Ca2+  Ca37  1  0.41698778  0.16822738  0.49115699  1
  Ca2+  Ca38  1  0.42217417  0.15772307  0.83476409  1
  Ca2+  Ca39  1  0.41740709  0.67679601  0.16007946  1
  Ca2+  Ca40  1  0.41677428  0.67988340  0.49215504  1
  Ca2+  Ca41  1  0.42491487  0.68142975  0.83500444  1
  Ca2+  Ca42  1  0.92172298  0.16505144  0.15812986  1
  Ca2+  Ca43  1  0.91951270  0.16643063  0.48691337  1
  Ca2+  Ca44  1  0.91479616  0.16020034  0.83425130  1
  Ca2+  Ca45  1  0.91490221  0.66539360  0.16404597  1
  Ca2+  Ca46  1  0.91544126  0.66546963  0.49266722  1
  Ca2+  Ca47  1  0.91815966  0.66894775  0.83186969  1
  Al0+  Al48  1  0.00089202  -0.00213177  0.00108330  1
  Al0+  Al49  1  -0.00015218  -0.00292625  0.33310171  1
  Al0+  Al50  1  0.00332799  -0.00035070  0.66549308  1
  Al0+  Al51  1  0.00089643  0.49937719  -0.00396992  1
  Al0+  Al52  1  -0.00022035  0.49934870  0.33425509  1
  Al0+  Al53  1  0.00169957  0.49895370  0.66528125  1
  Al0+  Al54  1  0.49861282  0.00113072  0.00063626  1
  Al0+  Al55  1  0.49861548  -0.00080116  0.33179369  1
  Al0+  Al56  1  0.50099014  0.00275253  0.66625137  1
  Al0+  Al57  1  0.50020125  0.50244782  -0.00175026  1
  Al0+  Al58  1  0.50020776  0.50123353  0.33787402  1
  Al0+  Al59  1  0.49968101  0.50221573  0.66918067  1
  Al0+  Al60  1  0.24522714  0.25220808  -0.00365609  1
  Al0+  Al61  1  0.24844187  0.24997905  0.33093489  1
  Al0+  Al62  1  0.24875483  0.25186373  0.66966575  1
  Al0+  Al63  1  0.25074924  0.74833858  -0.00155680  1
  Al0+  Al64  1  0.24982897  0.74901900  0.33449531  1
  Al0+  Al65  1  0.25108165  0.74901221  0.66145669  1
  Al0+  Al66  1  0.74741690  0.25319877  0.00160320  1
  Al0+  Al67  1  0.74886793  0.25017857  0.33625670  1
  Al0+  Al68  1  0.75011778  0.25302298  0.67207732  1
  Al0+  Al69  1  0.75181037  0.74763567  -0.00193876  1
  Al0+  Al70  1  0.74984109  0.74723240  0.33876021  1
  Al0+  Al71  1  0.75071826  0.74859288  0.66710984  1
  Al0+  Al72  1  0.67815032  0.43161049  0.01586076  1
  Al0+  Al73  1  0.92626885  0.32154795  0.31901595  1
  Al0+  Al74  1  0.06896403  0.17551192  0.98213609  1
  Al0+  Al75  1  0.42937119  0.82209612  0.98507342  1
  Al0+  Al76  1  0.82075678  0.07059510  0.34621401  1
  Al0+  Al77  1  0.57374714  0.67984937  0.98569467  1
  Al0+  Al78  1  0.43125876  0.82220960  0.65072684  1
  Al0+  Al79  1  0.42853276  0.82145941  0.31833213  1
  Al0+  Al80  1  0.18016761  0.92659588  0.01446127  1
  Al0+  Al81  1  0.92780541  0.32107898  0.98361006  1
  Al0+  Al82  1  0.57004871  0.17929202  0.98496380  1
  Al0+  Al83  1  0.82448953  0.07201409  0.68084372  1
  Al0+  Al84  1  0.67686855  0.92594335  0.01550329  1
  Al0+  Al85  1  0.67840217  0.43157517  0.68208554  1
  Al0+  Al86  1  0.06988540  0.17551758  0.31747503  1
  Al0+  Al87  1  0.82151692  0.56986392  0.34668043  1
  Al0+  Al88  1  0.43053520  0.32118769  0.32312052  1
  Al0+  Al89  1  0.32029926  0.07341443  0.01558151  1
  Al0+  Al90  1  0.67925676  0.92927148  0.68024542  1
  Al0+  Al91  1  0.32199183  0.57173718  0.34783465  1
  Al0+  Al92  1  0.42705392  0.32239530  0.98562574  1
  Al0+  Al93  1  0.31996427  0.07142283  0.34644534  1
  Al0+  Al94  1  0.81936316  0.07142404  0.01542774  1
  Al0+  Al95  1  0.31990562  0.07253132  0.67946916  1
  Si0+  Si96  1  0.17585322  0.42975138  0.01571558  1
  Si0+  Si97  1  0.07095294  0.67867495  0.31851780  1
  Si0+  Si98  1  0.92905746  0.82035924  0.98475988  1
  Si0+  Si99  1  0.31948062  0.56847218  0.01460704  1
  Si0+  Si100  1  0.31970354  0.57207810  0.68313098  1
  Si0+  Si101  1  0.42707740  0.32296415  0.65188697  1
  Si0+  Si102  1  0.57131438  0.18171446  0.65145705  1
  Si0+  Si103  1  0.67830701  0.92613511  0.34915642  1
  Si0+  Si104  1  0.57231344  0.67577353  0.64753380  1
  Si0+  Si105  1  0.57202271  0.17688959  0.31884197  1
  Si0+  Si106  1  0.07167382  0.67854409  0.98515502  1
  Si0+  Si107  1  0.17881894  0.42882159  0.35039362  1
  Si0+  Si108  1  0.57284403  0.67853150  0.31876938  1
  Si0+  Si109  1  0.17984511  0.92522796  0.68077518  1
  Si0+  Si110  1  0.92946924  0.82091149  0.65085256  1
  Si0+  Si111  1  0.92771755  0.81880676  0.31882338  1
  Si0+  Si112  1  0.67703931  0.42786670  0.35106938  1
  Si0+  Si113  1  0.17876108  0.43051352  0.68262982  1
  Si0+  Si114  1  0.07061452  0.67701167  0.64956024  1
  Si0+  Si115  1  0.07217072  0.17934580  0.65051068  1
  Si0+  Si116  1  0.92929377  0.32084212  0.65127080  1
  Si0+  Si117  1  0.17775043  0.92575626  0.35099204  1
  Si0+  Si118  1  0.82496622  0.57118663  0.68393898  1
  Si0+  Si119  1  0.82584637  0.57083149  0.01573139  1
  O2-  O120  1  0.24945823  -0.00033735  0.06544863  1
  O2-  O121  1  0.24528655  -0.00395030  0.39418974  1
  O2-  O122  1  0.24804770  -0.00601801  0.72337902  1
  O2-  O123  1  0.25300260  0.49379372  0.05777230  1
  O2-  O124  1  0.24984095  0.49478271  0.39621093  1
  O2-  O125  1  0.25134703  0.49912331  0.72615422  1
  O2-  O126  1  0.74497978  0.00152705  0.06571618  1
  O2-  O127  1  0.74474748  -0.00255169  0.39299569  1
  O2-  O128  1  0.75348711  -0.00111642  0.72924956  1
  O2-  O129  1  0.75516212  0.50522285  0.06008056  1
  O2-  O130  1  0.75002439  0.49318872  0.39417200  1
  O2-  O131  1  0.75335443  0.50697461  0.72812677  1
  O2-  O132  1  -0.00767185  0.24355129  0.27072137  1
  O2-  O133  1  -0.00454663  0.24509123  0.60913431  1
  O2-  O134  1  -0.00652800  0.24411696  0.93164255  1
  O2-  O135  1  -0.00006700  0.74882445  0.27604594  1
  O2-  O136  1  -0.00066571  0.74797711  0.60795434  1
  O2-  O137  1  0.00204541  0.75025992  0.94270671  1
  O2-  O138  1  0.50241737  0.24535288  0.27651714  1
  O2-  O139  1  0.49787080  0.25166038  0.61003770  1
  O2-  O140  1  0.49428173  0.24755161  0.93339835  1
  O2-  O141  1  0.50485554  0.74719674  0.27482349  1
  O2-  O142  1  0.50888519  0.74941773  0.60372816  1
  O2-  O143  1  0.50946286  0.75847268  0.93504113  1
  O2-  O144  1  0.06945708  0.17872348  0.09535549  1
  O2-  O145  1  0.07050250  0.17960731  0.43226675  1
  O2-  O146  1  0.07438338  0.18144625  0.75481380  1
  O2-  O147  1  0.07106886  0.67627005  0.09009924  1
  O2-  O148  1  0.07055870  0.67973974  0.42410552  1
  O2-  O149  1  0.07094023  0.67454983  0.75452691  1
  O2-  O150  1  0.57124456  0.18409770  0.09872929  1
  O2-  O151  1  0.57219928  0.17809389  0.42528964  1
  O2-  O152  1  0.57162304  0.18159386  0.75578166  1
  O2-  O153  1  0.56881133  0.67733020  0.09954058  1
  O2-  O154  1  0.57222469  0.67844774  0.42468276  1
  O2-  O155  1  0.56786445  0.67109834  0.75225976  1
  O2-  O156  1  0.17782032  0.43330922  0.24519785  1
  O2-  O157  1  0.17780058  0.43264389  0.57768399  1
  O2-  O158  1  0.17361538  0.43572528  0.91009405  1
  O2-  O159  1  0.17810793  0.92102328  0.24628560  1
  O2-  O160  1  0.17790711  0.92331715  0.57527564  1
  O2-  O161  1  0.18260925  0.92473591  0.90030928  1
  O2-  O162  1  0.67315654  0.43064094  0.24633080  1
  O2-  O163  1  0.67941918  0.43205873  0.56859251  1
  O2-  O164  1  0.67827072  0.43447589  0.90262652  1
  O2-  O165  1  0.68181243  0.92136261  0.24442807  1
  O2-  O166  1  0.68072207  0.93270756  0.56607679  1
  O2-  O167  1  0.68269018  0.92611993  0.90190523  1
  O2-  O168  1  0.43010256  0.32493572  0.09935884  1
  O2-  O169  1  0.43313540  0.32148804  0.43718326  1
  O2-  O170  1  0.42553633  0.32492250  0.75610510  1
  O2-  O171  1  0.42492738  0.81567206  0.09834222  1
  O2-  O172  1  0.43000220  0.82148971  0.43210612  1
  O2-  O173  1  0.42795730  0.81928385  0.76295662  1
  O2-  O174  1  0.93300663  0.32574101  0.09656177  1
  O2-  O175  1  0.92939499  0.32209781  0.43372133  1
  O2-  O176  1  0.93294341  0.32578921  0.75545060  1
  O2-  O177  1  0.92867428  0.81738269  0.08991646  1
  O2-  O178  1  0.92980049  0.81717089  0.42437464  1
  O2-  O179  1  0.93197827  0.81941551  0.75568233  1
  O2-  O180  1  0.32039861  0.07307330  0.23465155  1
  O2-  O181  1  0.31821184  0.07509595  0.56596359  1
  O2-  O182  1  0.31833102  0.07165661  0.90158193  1
  O2-  O183  1  0.31916215  0.57137092  0.23495697  1
  O2-  O184  1  0.31775808  0.57141773  0.57795613  1
  O2-  O185  1  0.31485504  0.56924923  0.90902123  1
  O2-  O186  1  0.82115547  0.06935374  0.23404179  1
  O2-  O187  1  0.82396239  0.07130007  0.56663942  1
  O2-  O188  1  0.82013022  0.06701446  0.90188418  1
  O2-  O189  1  0.82078246  0.57277548  0.23438289  1
  O2-  O190  1  0.82791388  0.56833216  0.57826948  1
  O2-  O191  1  0.83127790  0.56867495  0.91015152  1
  O2-  O192  1  0.04773168  0.07481273  0.26775346  1
  O2-  O193  1  0.05245738  0.08486530  0.60424864  1
  O2-  O194  1  0.04581344  0.07519083  0.93034527  1
  O2-  O195  1  0.04413751  0.58693834  0.27148581  1
  O2-  O196  1  0.04286701  0.58566839  0.60039045  1
  O2-  O197  1  0.04192344  0.58905454  0.93380589  1
  O2-  O198  1  0.54903699  0.08344784  0.27336310  1
  O2-  O199  1  0.54499577  0.09078564  0.60192472  1
  O2-  O200  1  0.54562652  0.07993374  0.93201265  1
  O2-  O201  1  0.54647886  0.58474490  0.27459639  1
  O2-  O202  1  0.54003635  0.58458707  0.59893142  1
  O2-  O203  1  0.53397270  0.58666126  0.92974317  1
  O2-  O204  1  0.16580219  0.21045514  0.26487323  1
  O2-  O205  1  0.16149896  0.21545639  0.60216514  1
  O2-  O206  1  0.16423974  0.21150782  0.92711478  1
  O2-  O207  1  0.16229010  0.70581640  0.27079674  1
  O2-  O208  1  0.16178554  0.70484206  0.60055263  1
  O2-  O209  1  0.16252568  0.70434893  0.93483456  1
  O2-  O210  1  0.66513916  0.20382985  0.27377691  1
  O2-  O211  1  0.66281511  0.21345930  0.60412928  1
  O2-  O212  1  0.66655094  0.21250780  0.93122005  1
  O2-  O213  1  0.66739201  0.70161461  0.27394710  1
  O2-  O214  1  0.66982320  0.69364940  0.60554283  1
  O2-  O215  1  0.67580806  0.69385195  0.93423501  1
  O2-  O216  1  0.08821589  0.46706091  0.06437485  1
  O2-  O217  1  0.08729766  0.45919730  0.39893140  1
  O2-  O218  1  0.08852795  0.46258298  0.73075241  1
  O2-  O219  1  0.07973780  0.94818798  0.06548204  1
  O2-  O220  1  0.08307567  0.94824587  0.39721210  1
  O2-  O221  1  0.08598344  0.94969625  0.72649659  1
  O2-  O222  1  0.58245431  0.46680036  0.06942618  1
  O2-  O223  1  0.58685235  0.45918937  0.40187191  1
  O2-  O224  1  0.58154708  0.46265072  0.73518126  1
  O2-  O225  1  0.57629382  0.94770273  0.06465529  1
  O2-  O226  1  0.58387094  0.95140713  0.39315586  1
  O2-  O227  1  0.58229188  0.96086965  0.73206913  1
  O2-  O228  1  0.19450670  0.33599246  0.06047253  1
  O2-  O229  1  0.20209402  0.33520692  0.39662952  1
  O2-  O230  1  0.20456719  0.33926360  0.73073798  1
  O2-  O231  1  0.20572657  0.82617512  0.06608312  1
  O2-  O232  1  0.20303926  0.83250164  0.39891690  1
  O2-  O233  1  0.20298098  0.83036561  0.72578932  1
  O2-  O234  1  0.70606807  0.33578407  0.07082426  1
  O2-  O235  1  0.69867525  0.33404608  0.39855326  1
  O2-  O236  1  0.70908369  0.33624437  0.73661522  1
  O2-  O237  1  0.71016263  0.82748265  0.06640230  1
  O2-  O238  1  0.70600711  0.83444230  0.39881077  1
  O2-  O239  1  0.70297497  0.82797779  0.72942895  1
  O2-  O240  1  0.46062379  0.41902710  0.27140757  1
  O2-  O241  1  0.45600108  0.41559475  0.60532573  1
  O2-  O242  1  0.45891044  0.41980107  0.93221257  1
  O2-  O243  1  0.45699542  0.91812445  0.26476328  1
  O2-  O244  1  0.46163171  0.91985432  0.59703746  1
  O2-  O245  1  0.44906917  0.92238103  0.93405196  1
  O2-  O246  1  0.95956549  0.41891241  0.26726669  1
  O2-  O247  1  0.96264557  0.41127158  0.60251272  1
  O2-  O248  1  0.96423407  0.41730662  0.92852851  1
  O2-  O249  1  0.95470933  0.90961545  0.27074220  1
  O2-  O250  1  0.96025157  0.91142662  0.60155570  1
  O2-  O251  1  0.95743057  0.91028822  0.93520183  1
  O2-  O252  1  0.33230543  0.29690835  0.27098217  1
  O2-  O253  1  0.33418489  0.29686221  0.60500758  1
  O2-  O254  1  0.32515909  0.30485771  0.93567976  1
  O2-  O255  1  0.33216793  0.78661366  0.26777705  1
  O2-  O256  1  0.33520391  0.78702176  0.59655607  1
  O2-  O257  1  0.33422954  0.78260436  0.93068583  1
  O2-  O258  1  0.82455717  0.30182976  0.27132146  1
  O2-  O259  1  0.83498618  0.29948114  0.60618879  1
  O2-  O260  1  0.82718267  0.30013217  0.93420679  1
  O2-  O261  1  0.83665943  0.78742942  0.27322402  1
  O2-  O262  1  0.83750257  0.79417713  0.60283317  1
  O2-  O263  1  0.84019718  0.78972872  0.93371211  1
  O2-  O264  1  0.41947250  0.04930659  0.06739186  1
  O2-  O265  1  0.41728613  0.04060043  0.40089481  1
  O2-  O266  1  0.41755195  0.04477010  0.73034307  1
  O2-  O267  1  0.41151924  0.54477088  0.06143454  1
  O2-  O268  1  0.41761369  0.54288081  0.40505374  1
  O2-  O269  1  0.41164478  0.54627703  0.72949853  1
  O2-  O270  1  0.91723554  0.03826713  0.06606225  1
  O2-  O271  1  0.91693824  0.03677642  0.40034948  1
  O2-  O272  1  0.92405699  0.04338421  0.73090695  1
  O2-  O273  1  0.91894662  0.54373971  0.06288139  1
  O2-  O274  1  0.91930912  0.54313166  0.40205990  1
  O2-  O275  1  0.91870826  0.54394112  0.72942744  1
  O2-  O276  1  0.28848247  0.17300490  0.06500231  1
  O2-  O277  1  0.28806712  0.16833900  0.40139903  1
  O2-  O278  1  0.28698506  0.16811689  0.73354650  1
  O2-  O279  1  0.28578412  0.65781614  0.06229504  1
  O2-  O280  1  0.28491170  0.66540777  0.40447090  1
  O2-  O281  1  0.28660410  0.66233225  0.72959260  1
  O2-  O282  1  0.79293508  0.17079496  0.06643883  1
  O2-  O283  1  0.79166048  0.16751995  0.40191086  1
  O2-  O284  1  0.79770605  0.17079964  0.73149578  1
  O2-  O285  1  0.80505294  0.66581988  0.05984137  1
  O2-  O286  1  0.79027007  0.66468662  0.40588223  1
  O2-  O287  1  0.80569003  0.66710784  0.72695473  1
