# generated using pymatgen
data_Ca2Al2SiO7
_symmetry_space_group_name_H-M   'P 1'
_cell_length_a   15.45538605
_cell_length_b   15.45536604
_cell_length_c   15.28217188
_cell_angle_alpha   89.99083732
_cell_angle_beta   89.99599350
_cell_angle_gamma   89.99983274
_symmetry_Int_Tables_number   1
_chemical_formula_structural   Ca2Al2SiO7
_chemical_formula_sum   'Ca48 Al48 Si24 O168'
_cell_volume   3650.43169100
_cell_formula_units_Z   24
loop_
 _symmetry_equiv_pos_site_id
 _symmetry_equiv_pos_as_xyz
  1  'x, y, z'
loop_
 _atom_type_symbol
 _atom_type_oxidation_number
  Ca2+  2.0
  Al0+  0.0
  Si0+  0.0
  O2-  -2.0
loop_
 _atom_site_type_symbol
 _atom_site_label
 _atom_site_symmetry_multiplicity
 _atom_site_fract_x
 _atom_site_fract_y
 _atom_site_fract_z
 _atom_site_occupancy
  Ca2+  Ca0  1  0.16727099  0.07652575  0.17481437  1
  Ca2+  Ca1  1  0.16222007  0.08281515  0.50512636  1
  Ca2+  Ca2  1  0.17878513  0.09090828  0.83568723  1
  Ca2+  Ca3  1  0.16977280  0.58023561  0.17696147  1
  Ca2+  Ca4  1  0.17420492  0.57106252  0.50696037  1
  Ca2+  Ca5  1  0.15699452  0.58030258  0.83221811  1
  Ca2+  Ca6  1  0.66639298  0.08287482  0.16944094  1
  Ca2+  Ca7  1  0.67337436  0.09363029  0.49780785  1
  Ca2+  Ca8  1  0.66674672  0.07742326  0.84419691  1
  Ca2+  Ca9  1  0.68140403  0.58660681  0.17204526  1
  Ca2+  Ca10  1  0.67696741  0.58403126  0.50730572  1
  Ca2+  Ca11  1  0.67734549  0.58946349  0.83575118  1
  Ca2+  Ca12  1  0.08294408  0.33422231  0.17156876  1
  Ca2+  Ca13  1  0.08238149  0.32996573  0.49570048  1
  Ca2+  Ca14  1  0.07981020  0.33085769  0.82190094  1
  Ca2+  Ca15  1  0.07834807  0.82845755  0.15869934  1
  Ca2+  Ca16  1  0.08952473  0.82738929  0.49641798  1
  Ca2+  Ca17  1  0.07887088  0.82134647  0.83130436  1
  Ca2+  Ca18  1  0.58007289  0.32289868  0.16692287  1
  Ca2+  Ca19  1  0.57307992  0.33111733  0.48808967  1
  Ca2+  Ca20  1  0.58287123  0.32760470  0.83137088  1
  Ca2+  Ca21  1  0.57733060  0.83656411  0.15828375  1
  Ca2+  Ca22  1  0.58122402  0.82551667  0.50023414  1
  Ca2+  Ca23  1  0.57969915  0.83236998  0.83234075  1
  Ca2+  Ca24  1  0.32838417  0.42330475  0.17829199  1
  Ca2+  Ca25  1  0.32475259  0.41563739  0.50479015  1
  Ca2+  Ca26  1  0.32622187  0.42181890  0.83236792  1
  Ca2+  Ca27  1  0.32985200  0.91925317  0.16895972  1
  Ca2+  Ca28  1  0.32538942  0.92480624  0.50250340  1
  Ca2+  Ca29  1  0.33744628  0.92614491  0.83920590  1
  Ca2+  Ca30  1  0.83852223  0.42668941  0.17358959  1
  Ca2+  Ca31  1  0.84243756  0.42184030  0.50288627  1
  Ca2+  Ca32  1  0.84256719  0.42762645  0.83291292  1
  Ca2+  Ca33  1  0.82855999  0.91800837  0.17187285  1
  Ca2+  Ca34  1  0.83481538  0.92636298  0.49988575  1
  Ca2+  Ca35  1  0.82642153  0.91258300  0.84185590  1
  Ca2+  Ca36  1  0.42192215  0.16767134  0.16204309  1
  Ca2+  Ca37  1  0.41888847  0.17159655  0.49187518  1
  Ca2+  Ca38  1  0.41994733  0.15798516  0.83112733  1
  Ca2+  Ca39  1  0.41319566  0.67365707  0.16034761  1
  Ca2+  Ca40  1  0.41905961  0.65414473  0.49770631  1
  Ca2+  Ca41  1  0.41931735  0.67291585  0.82392371  1
  Ca2+  Ca42  1  0.91874060  0.16757584  0.16930744  1
  Ca2+  Ca43  1  0.92374172  0.17906475  0.48948331  1
  Ca2+  Ca44  1  0.92519390  0.17507619  0.82129786  1
  Ca2+  Ca45  1  0.92092797  0.66759880  0.15728011  1
  Ca2+  Ca46  1  0.92213779  0.65849855  0.49933389  1
  Ca2+  Ca47  1  0.92165605  0.66442038  0.83032782  1
  Al0+  Al48  1  0.00070999  0.00049762  -0.00681072  1
  Al0+  Al49  1  -0.00200434  -0.00103163  0.33844785  1
  Al0+  Al50  1  -0.00103669  -0.00095544  0.66728285  1
  Al0+  Al51  1  0.00015238  0.49838660  0.00211414  1
  Al0+  Al52  1  0.00247266  0.49982212  0.33660323  1
  Al0+  Al53  1  -0.00054862  0.50196421  0.66708008  1
  Al0+  Al54  1  0.50082403  0.00041891  0.00102702  1
  Al0+  Al55  1  0.49967792  -0.00384809  0.33181311  1
  Al0+  Al56  1  0.49939336  -0.00148957  0.66690778  1
  Al0+  Al57  1  0.49943368  0.49757871  0.00081646  1
  Al0+  Al58  1  0.50375879  0.50093436  0.32753315  1
  Al0+  Al59  1  0.50073480  0.49947323  0.66763105  1
  Al0+  Al60  1  0.25138914  0.25173066  0.00566972  1
  Al0+  Al61  1  0.25021176  0.24978030  0.32737312  1
  Al0+  Al62  1  0.25111050  0.24897522  0.67267089  1
  Al0+  Al63  1  0.24991167  0.75066375  -0.01035611  1
  Al0+  Al64  1  0.25137947  0.75112391  0.34113016  1
  Al0+  Al65  1  0.24950788  0.75270083  0.66508767  1
  Al0+  Al66  1  0.74913001  0.25040392  -0.00500292  1
  Al0+  Al67  1  0.75014520  0.25054093  0.32819636  1
  Al0+  Al68  1  0.75034586  0.25050994  0.66471438  1
  Al0+  Al69  1  0.74935763  0.75086327  0.00712914  1
  Al0+  Al70  1  0.74989916  0.75046824  0.33886786  1
  Al0+  Al71  1  0.74751196  0.75074936  0.66560249  1
  Al0+  Al72  1  0.56961813  0.67891453  0.65358026  1
  Al0+  Al73  1  0.92644225  0.82237660  0.98660494  1
  Al0+  Al74  1  0.17927185  0.43015931  0.68324467  1
  Al0+  Al75  1  0.42965801  0.82070447  0.98604122  1
  Al0+  Al76  1  0.17764579  0.92985388  0.34599956  1
  Al0+  Al77  1  0.57080236  0.17672081  0.31794348  1
  Al0+  Al78  1  0.81878904  0.07154091  0.34597206  1
  Al0+  Al79  1  0.82143813  0.57142991  0.34870000  1
  Al0+  Al80  1  0.32331869  0.57242154  0.68316859  1
  Al0+  Al81  1  0.07109760  0.17553271  0.31709663  1
  Al0+  Al82  1  0.92877035  0.32158490  0.65104937  1
  Al0+  Al83  1  0.18051171  0.42707431  0.34871302  1
  Al0+  Al84  1  0.81966407  0.56865509  0.01437478  1
  Al0+  Al85  1  0.32055865  0.07037037  0.01618832  1
  Al0+  Al86  1  0.07020442  0.67693646  0.98591947  1
  Al0+  Al87  1  0.42744899  0.32292260  0.31740894  1
  Al0+  Al88  1  0.93063942  0.32332632  0.31589459  1
  Al0+  Al89  1  0.07357670  0.17853392  0.65277720  1
  Al0+  Al90  1  0.81924121  0.57079695  0.68121965  1
  Al0+  Al91  1  0.07076157  0.68091044  0.64987495  1
  Al0+  Al92  1  0.68054584  0.93015553  0.01401565  1
  Al0+  Al93  1  0.56913469  0.18043181  0.98473073  1
  Al0+  Al94  1  0.32369796  0.57226068  0.34654194  1
  Al0+  Al95  1  0.32003699  0.06933310  0.67954736  1
  Si0+  Si96  1  0.67978160  0.93081931  0.68152888  1
  Si0+  Si97  1  0.57177390  0.67609816  0.98586974  1
  Si0+  Si98  1  0.43049818  0.32012177  0.65424450  1
  Si0+  Si99  1  0.07314240  0.17901873  0.98549348  1
  Si0+  Si100  1  0.07159545  0.68130526  0.32108825  1
  Si0+  Si101  1  0.17477018  0.92713148  0.68628603  1
  Si0+  Si102  1  0.57399803  0.68001601  0.31730802  1
  Si0+  Si103  1  0.42585713  0.32292595  0.98060095  1
  Si0+  Si104  1  0.92759014  0.82062031  0.32017526  1
  Si0+  Si105  1  0.67939846  0.42829450  0.34840243  1
  Si0+  Si106  1  0.67586848  0.42522896  0.01779769  1
  Si0+  Si107  1  0.92497798  0.82211687  0.64800256  1
  Si0+  Si108  1  0.92969276  0.32017309  0.98483374  1
  Si0+  Si109  1  0.32169209  0.57287678  0.01250800  1
  Si0+  Si110  1  0.17928699  0.42993426  0.01675680  1
  Si0+  Si111  1  0.67645943  0.42569643  0.68342964  1
  Si0+  Si112  1  0.57074290  0.17632910  0.65220892  1
  Si0+  Si113  1  0.67549074  0.92734414  0.35289032  1
  Si0+  Si114  1  0.17741724  0.92732807  0.01409358  1
  Si0+  Si115  1  0.82421901  0.07426145  0.01417092  1
  Si0+  Si116  1  0.82062137  0.07274612  0.68198593  1
  Si0+  Si117  1  0.32276762  0.07085916  0.34752803  1
  Si0+  Si118  1  0.42856269  0.81874450  0.31865812  1
  Si0+  Si119  1  0.42831869  0.82365618  0.64773764  1
  O2-  O120  1  0.24392622  -0.00324949  0.06077540  1
  O2-  O121  1  0.24809299  0.00923881  0.39222512  1
  O2-  O122  1  0.24289952  -0.00229438  0.72837609  1
  O2-  O123  1  0.24978856  0.50343842  0.05558015  1
  O2-  O124  1  0.25702091  0.49579117  0.39631486  1
  O2-  O125  1  0.24795632  0.50519529  0.73517701  1
  O2-  O126  1  0.75858013  0.00260310  0.05847278  1
  O2-  O127  1  0.74087480  0.00021146  0.39516922  1
  O2-  O128  1  0.75031722  0.00164052  0.72481761  1
  O2-  O129  1  0.74315412  0.49563074  0.06140496  1
  O2-  O130  1  0.74871819  0.49471045  0.39482689  1
  O2-  O131  1  0.74571161  0.49419932  0.72743397  1
  O2-  O132  1  0.00114345  0.24938661  0.26560868  1
  O2-  O133  1  0.00083588  0.24909416  0.60258579  1
  O2-  O134  1  -0.00121578  0.24677256  0.94396193  1
  O2-  O135  1  -0.00145099  0.74971047  0.27781132  1
  O2-  O136  1  -0.00381088  0.75652704  0.60300951  1
  O2-  O137  1  -0.00341743  0.74863339  0.93701042  1
  O2-  O138  1  0.49645582  0.24675084  0.26859769  1
  O2-  O139  1  0.50211957  0.24959447  0.61152736  1
  O2-  O140  1  0.49469514  0.25437552  0.93589392  1
  O2-  O141  1  0.49915113  0.74728009  0.27598382  1
  O2-  O142  1  0.49000829  0.74784205  0.60446983  1
  O2-  O143  1  0.50133561  0.74226542  0.94064968  1
  O2-  O144  1  0.07268949  0.17754455  0.09018748  1
  O2-  O145  1  0.06831186  0.17412877  0.43022234  1
  O2-  O146  1  0.07156475  0.18092278  0.76738097  1
  O2-  O147  1  0.07125984  0.67778787  0.10024842  1
  O2-  O148  1  0.07094964  0.68354862  0.42592072  1
  O2-  O149  1  0.06684299  0.68143539  0.76295428  1
  O2-  O150  1  0.56874146  0.18142130  0.09716209  1
  O2-  O151  1  0.56883896  0.17884419  0.43246174  1
  O2-  O152  1  0.57042292  0.17471811  0.75737513  1
  O2-  O153  1  0.57006069  0.67757412  0.09178001  1
  O2-  O154  1  0.57562831  0.68199023  0.42238716  1
  O2-  O155  1  0.57242578  0.68484441  0.76669303  1
  O2-  O156  1  0.17892391  0.43401055  0.23429544  1
  O2-  O157  1  0.18239471  0.42715882  0.57040157  1
  O2-  O158  1  0.17856557  0.42761362  0.91185789  1
  O2-  O159  1  0.18028914  0.92589227  0.23262967  1
  O2-  O160  1  0.17627000  0.92755138  0.58041228  1
  O2-  O161  1  0.17846679  0.92897943  0.90876272  1
  O2-  O162  1  0.67948766  0.43241177  0.24267951  1
  O2-  O163  1  0.67399148  0.42507612  0.57810400  1
  O2-  O164  1  0.67545636  0.42463118  0.91211142  1
  O2-  O165  1  0.67645785  0.92384976  0.24749241  1
  O2-  O166  1  0.67928313  0.93183784  0.57646280  1
  O2-  O167  1  0.68013893  0.93183003  0.90035001  1
  O2-  O168  1  0.42620714  0.32372459  0.08568052  1
  O2-  O169  1  0.42990338  0.32203581  0.43178601  1
  O2-  O170  1  0.43263376  0.31951900  0.75952454  1
  O2-  O171  1  0.42883280  0.81842334  0.09970851  1
  O2-  O172  1  0.43065869  0.82152393  0.42347932  1
  O2-  O173  1  0.43389055  0.82775344  0.75324682  1
  O2-  O174  1  0.93015726  0.32181410  0.08956110  1
  O2-  O175  1  0.93074322  0.32288421  0.42893219  1
  O2-  O176  1  0.92790112  0.31834485  0.76569825  1
  O2-  O177  1  0.92865465  0.82241857  0.10068506  1
  O2-  O178  1  0.92646679  0.82015881  0.42520404  1
  O2-  O179  1  0.92307095  0.82127636  0.75359152  1
  O2-  O180  1  0.32525729  0.06448281  0.24207179  1
  O2-  O181  1  0.32443511  0.06735497  0.56661772  1
  O2-  O182  1  0.31981181  0.06969745  0.90282586  1
  O2-  O183  1  0.31860375  0.57714148  0.23211458  1
  O2-  O184  1  0.32518295  0.56482866  0.57013180  1
  O2-  O185  1  0.32433519  0.57067070  0.90799038  1
  O2-  O186  1  0.81937598  0.06643804  0.23278564  1
  O2-  O187  1  0.81836610  0.07295463  0.57705583  1
  O2-  O188  1  0.82127796  0.07544125  0.90820411  1
  O2-  O189  1  0.82009776  0.57424759  0.23538596  1
  O2-  O190  1  0.81704835  0.57117718  0.56828261  1
  O2-  O191  1  0.81972859  0.56763163  0.90128038  1
  O2-  O192  1  0.03814281  0.07688832  0.26518743  1
  O2-  O193  1  0.04680869  0.07785613  0.60409259  1
  O2-  O194  1  0.05098922  0.08709284  0.93558486  1
  O2-  O195  1  0.04594051  0.58910724  0.27430139  1
  O2-  O196  1  0.03876115  0.58461682  0.59731684  1
  O2-  O197  1  0.03976991  0.57854048  0.93356493  1
  O2-  O198  1  0.54541411  0.07599927  0.26766110  1
  O2-  O199  1  0.54162714  0.08555280  0.60405589  1
  O2-  O200  1  0.53783860  0.08408695  0.93080350  1
  O2-  O201  1  0.55411890  0.58763227  0.26823092  1
  O2-  O202  1  0.54510497  0.58025136  0.60011753  1
  O2-  O203  1  0.55058445  0.58087192  0.94118793  1
  O2-  O204  1  0.17051425  0.19892816  0.26401354  1
  O2-  O205  1  0.17350616  0.20468175  0.60269129  1
  O2-  O206  1  0.16446322  0.21220951  0.94020730  1
  O2-  O207  1  0.16347180  0.71198247  0.27519512  1
  O2-  O208  1  0.16822364  0.71146375  0.59684535  1
  O2-  O209  1  0.16676174  0.70469028  0.92923926  1
  O2-  O210  1  0.66788489  0.20585981  0.26328784  1
  O2-  O211  1  0.66341253  0.20245205  0.60612739  1
  O2-  O212  1  0.66607265  0.20999823  0.92860947  1
  O2-  O213  1  0.66420755  0.71404918  0.26983296  1
  O2-  O214  1  0.66314976  0.71625492  0.59685450  1
  O2-  O215  1  0.66479821  0.70546812  0.94156933  1
  O2-  O216  1  0.08768912  0.45645507  0.06482720  1
  O2-  O217  1  0.08457290  0.45944430  0.40270027  1
  O2-  O218  1  0.08040999  0.45854844  0.73582244  1
  O2-  O219  1  0.08257125  0.95221995  0.05876271  1
  O2-  O220  1  0.08095147  0.95378320  0.40255348  1
  O2-  O221  1  0.07972517  0.94860739  0.73164742  1
  O2-  O222  1  0.58111418  0.44745605  0.06366069  1
  O2-  O223  1  0.58627075  0.45589062  0.39453359  1
  O2-  O224  1  0.58405665  0.45090180  0.73181936  1
  O2-  O225  1  0.58576548  0.96403159  0.06913736  1
  O2-  O226  1  0.58058383  0.94798002  0.39850383  1
  O2-  O227  1  0.58817059  0.95888152  0.72916729  1
  O2-  O228  1  0.20884748  0.33983479  0.06619663  1
  O2-  O229  1  0.20451351  0.32602497  0.39801172  1
  O2-  O230  1  0.21110104  0.33322385  0.73849992  1
  O2-  O231  1  0.20477695  0.83302556  0.05824496  1
  O2-  O232  1  0.21491182  0.83776489  0.40487290  1
  O2-  O233  1  0.20220809  0.83428452  0.73205815  1
  O2-  O234  1  0.70444336  0.33193776  0.06273303  1
  O2-  O235  1  0.69993158  0.33320311  0.39257391  1
  O2-  O236  1  0.70185489  0.33149351  0.73016733  1
  O2-  O237  1  0.70577215  0.83403915  0.07208151  1
  O2-  O238  1  0.70678753  0.83661516  0.40188541  1
  O2-  O239  1  0.70753098  0.83952042  0.72951513  1
  O2-  O240  1  0.46029789  0.41980621  0.26169909  1
  O2-  O241  1  0.45774487  0.41114005  0.60590281  1
  O2-  O242  1  0.45230250  0.41663251  0.93416837  1
  O2-  O243  1  0.45684279  0.90926031  0.26872197  1
  O2-  O244  1  0.46391482  0.91312126  0.59832206  1
  O2-  O245  1  0.46568416  0.91526463  0.93203736  1
  O2-  O246  1  0.96289529  0.42166755  0.26294921  1
  O2-  O247  1  0.95517009  0.42074264  0.60134100  1
  O2-  O248  1  0.96169146  0.41041784  0.93703752  1
  O2-  O249  1  0.95467047  0.91197710  0.27285614  1
  O2-  O250  1  0.94826414  0.91750600  0.60418015  1
  O2-  O251  1  0.95319295  0.92015454  0.92989458  1
  O2-  O252  1  0.32935551  0.29927385  0.26244725  1
  O2-  O253  1  0.33935777  0.28998122  0.60826708  1
  O2-  O254  1  0.33173413  0.29671364  0.93600985  1
  O2-  O255  1  0.33657789  0.79064104  0.27145582  1
  O2-  O256  1  0.33182047  0.80837281  0.60526099  1
  O2-  O257  1  0.33426426  0.79489518  0.92787808  1
  O2-  O258  1  0.83142038  0.29715378  0.26345476  1
  O2-  O259  1  0.82962288  0.29332416  0.59845352  1
  O2-  O260  1  0.83744069  0.29623128  0.93650187  1
  O2-  O261  1  0.83489512  0.79298443  0.27378772  1
  O2-  O262  1  0.83198887  0.79628669  0.60133853  1
  O2-  O263  1  0.82627243  0.79527671  0.93640148  1
  O2-  O264  1  0.41604998  0.03678932  0.06905472  1
  O2-  O265  1  0.41373556  0.03792139  0.39571556  1
  O2-  O266  1  0.41625024  0.03430640  0.73450396  1
  O2-  O267  1  0.41351383  0.54538502  0.06123015  1
  O2-  O268  1  0.42649817  0.55027766  0.39253968  1
  O2-  O269  1  0.42153996  0.54212261  0.73677912  1
  O2-  O270  1  0.91993867  0.05223471  0.05718558  1
  O2-  O271  1  0.91180609  0.03657578  0.40388416  1
  O2-  O272  1  0.91280939  0.04613479  0.72929241  1
  O2-  O273  1  0.91569843  0.53527749  0.06854935  1
  O2-  O274  1  0.91851692  0.54250173  0.40090833  1
  O2-  O275  1  0.91539557  0.54122318  0.73594164  1
  O2-  O276  1  0.29238708  0.16798887  0.06930002  1
  O2-  O277  1  0.30570469  0.16761655  0.38836773  1
  O2-  O278  1  0.29437337  0.16514293  0.73787253  1
  O2-  O279  1  0.29531093  0.66660992  0.05688946  1
  O2-  O280  1  0.29445224  0.66819314  0.40341880  1
  O2-  O281  1  0.30150593  0.67540895  0.72896446  1
  O2-  O282  1  0.79497931  0.16706005  0.05980461  1
  O2-  O283  1  0.78898696  0.16894213  0.39951339  1
  O2-  O284  1  0.79240855  0.16429694  0.73008569  1
  O2-  O285  1  0.79070776  0.66508876  0.06983008  1
  O2-  O286  1  0.78766901  0.66662702  0.40389630  1
  O2-  O287  1  0.78461655  0.66752588  0.73362763  1
