# generated using pymatgen
data_Ca2Al2SiO7
_symmetry_space_group_name_H-M   'P 1'
_cell_length_a   15.45198628
_cell_length_b   15.45323597
_cell_length_c   15.27927152
_cell_angle_alpha   89.98717685
_cell_angle_beta   90.00141800
_cell_angle_gamma   89.99921877
_symmetry_Int_Tables_number   1
_chemical_formula_structural   Ca2Al2SiO7
_chemical_formula_sum   'Ca48 Al48 Si24 O168'
_cell_volume   3648.43310373
_cell_formula_units_Z   24
loop_
 _symmetry_equiv_pos_site_id
 _symmetry_equiv_pos_as_xyz
  1  'x, y, z'
loop_
 _atom_type_symbol
 _atom_type_oxidation_number
  Ca2+  2.0
  Al0+  0.0
  Si0+  0.0
  O2-  -2.0
loop_
 _atom_site_type_symbol
 _atom_site_label
 _atom_site_symmetry_multiplicity
 _atom_site_fract_x
 _atom_site_fract_y
 _atom_site_fract_z
 _atom_site_occupancy
  Ca2+  Ca0  1  0.17862013  0.08837531  0.17534043  1
  Ca2+  Ca1  1  0.17394461  0.09274720  0.50568275  1
  Ca2+  Ca2  1  0.17563087  0.08945945  0.83516589  1
  Ca2+  Ca3  1  0.16736405  0.57297915  0.17115594  1
  Ca2+  Ca4  1  0.16379169  0.58178824  0.50479288  1
  Ca2+  Ca5  1  0.17262949  0.58413640  0.84078901  1
  Ca2+  Ca6  1  0.66560881  0.08206996  0.17290784  1
  Ca2+  Ca7  1  0.67363647  0.08744454  0.49872606  1
  Ca2+  Ca8  1  0.66585828  0.07551578  0.84314774  1
  Ca2+  Ca9  1  0.67255115  0.57997657  0.17379918  1
  Ca2+  Ca10  1  0.66498651  0.58029309  0.50745840  1
  Ca2+  Ca11  1  0.67926367  0.58987581  0.83543530  1
  Ca2+  Ca12  1  0.08396575  0.33440787  0.16320957  1
  Ca2+  Ca13  1  0.08026813  0.32870076  0.49636073  1
  Ca2+  Ca14  1  0.07637291  0.33682956  0.83006154  1
  Ca2+  Ca15  1  0.08478766  0.82638895  0.16617890  1
  Ca2+  Ca16  1  0.08236592  0.82231876  0.49831734  1
  Ca2+  Ca17  1  0.07458007  0.82622215  0.82260267  1
  Ca2+  Ca18  1  0.58977973  0.32168060  0.16477316  1
  Ca2+  Ca19  1  0.57971799  0.33200409  0.48965067  1
  Ca2+  Ca20  1  0.58239981  0.32636490  0.83247120  1
  Ca2+  Ca21  1  0.57928530  0.83203494  0.16058200  1
  Ca2+  Ca22  1  0.58359641  0.81880654  0.49710795  1
  Ca2+  Ca23  1  0.57876642  0.83057708  0.83216563  1
  Ca2+  Ca24  1  0.32156445  0.41611093  0.16971241  1
  Ca2+  Ca25  1  0.32477589  0.42064436  0.50454187  1
  Ca2+  Ca26  1  0.32563484  0.43008582  0.83998943  1
  Ca2+  Ca27  1  0.33970236  0.92469860  0.16718636  1
  Ca2+  Ca28  1  0.33317323  0.92852968  0.50314483  1
  Ca2+  Ca29  1  0.33657128  0.92448598  0.83984123  1
  Ca2+  Ca30  1  0.83104831  0.41727970  0.16833533  1
  Ca2+  Ca31  1  0.82679902  0.41822392  0.50431516  1
  Ca2+  Ca32  1  0.84385994  0.42572143  0.83642004  1
  Ca2+  Ca33  1  0.82546141  0.92402422  0.17171766  1
  Ca2+  Ca34  1  0.83839014  0.91955393  0.50212642  1
  Ca2+  Ca35  1  0.82649706  0.91168082  0.83842218  1
  Ca2+  Ca36  1  0.42468758  0.15875837  0.16160676  1
  Ca2+  Ca37  1  0.41805302  0.16499343  0.49290883  1
  Ca2+  Ca38  1  0.41801355  0.16037301  0.83360878  1
  Ca2+  Ca39  1  0.42140424  0.66998051  0.15902837  1
  Ca2+  Ca40  1  0.42564834  0.65907347  0.49591006  1
  Ca2+  Ca41  1  0.41548385  0.66863829  0.82691992  1
  Ca2+  Ca42  1  0.91988749  0.17212324  0.16192633  1
  Ca2+  Ca43  1  0.92757447  0.16782924  0.49325989  1
  Ca2+  Ca44  1  0.92307508  0.18241757  0.82343591  1
  Ca2+  Ca45  1  0.92260002  0.65743998  0.16413998  1
  Ca2+  Ca46  1  0.92209739  0.66681424  0.50123842  1
  Ca2+  Ca47  1  0.91964211  0.66603048  0.82139072  1
  Al0+  Al48  1  0.00090407  -0.00082111  -0.00147150  1
  Al0+  Al49  1  0.00084993  0.00006419  0.33149808  1
  Al0+  Al50  1  0.00028100  0.00094951  0.66168232  1
  Al0+  Al51  1  0.00022874  0.49919657  0.00399085  1
  Al0+  Al52  1  -0.00034555  0.50069829  0.33432122  1
  Al0+  Al53  1  -0.00299923  0.49854502  0.66115573  1
  Al0+  Al54  1  0.50093366  -0.00331596  -0.00094022  1
  Al0+  Al55  1  0.50060736  -0.00078771  0.33685240  1
  Al0+  Al56  1  0.50024850  -0.00090434  0.66902900  1
  Al0+  Al57  1  0.50232060  0.49822741  0.00188196  1
  Al0+  Al58  1  0.50019609  0.49975469  0.32949386  1
  Al0+  Al59  1  0.49831158  0.49736675  0.66901765  1
  Al0+  Al60  1  0.25253530  0.24993921  0.00711608  1
  Al0+  Al61  1  0.24873012  0.25213733  0.33860159  1
  Al0+  Al62  1  0.25211539  0.25120442  0.67081746  1
  Al0+  Al63  1  0.25128233  0.75177920  -0.00104521  1
  Al0+  Al64  1  0.24944788  0.75141431  0.32848021  1
  Al0+  Al65  1  0.25011485  0.75326464  0.66560483  1
  Al0+  Al66  1  0.75201224  0.25023871  -0.01190727  1
  Al0+  Al67  1  0.74902990  0.25065696  0.33848595  1
  Al0+  Al68  1  0.74904523  0.24884249  0.66480776  1
  Al0+  Al69  1  0.75044941  0.74992796  0.01155262  1
  Al0+  Al70  1  0.74962578  0.75108708  0.32914878  1
  Al0+  Al71  1  0.74802322  0.74960179  0.66182940  1
  Al0+  Al72  1  0.32126133  0.57257644  0.67856467  1
  Al0+  Al73  1  0.57151836  0.67696992  0.31775776  1
  Al0+  Al74  1  0.07323497  0.67843885  0.65313967  1
  Al0+  Al75  1  0.92610355  0.82148080  0.65192682  1
  Al0+  Al76  1  0.68013934  0.93006199  0.01429632  1
  Al0+  Al77  1  0.07312929  0.18124750  0.65252458  1
  Al0+  Al78  1  0.92656622  0.32226523  0.64772741  1
  Al0+  Al79  1  0.17794143  0.43055507  0.35007439  1
  Al0+  Al80  1  0.43008296  0.81852788  0.98541366  1
  Al0+  Al81  1  0.82029777  0.57003324  0.01402706  1
  Al0+  Al82  1  0.07232608  0.17927970  0.31833679  1
  Al0+  Al83  1  0.82149092  0.07090635  0.34617541  1
  Al0+  Al84  1  0.56979137  0.17850046  0.98578968  1
  Al0+  Al85  1  0.57020264  0.17999384  0.32149703  1
  Al0+  Al86  1  0.06991724  0.67865651  0.31741723  1
  Al0+  Al87  1  0.56799657  0.67855726  0.65557138  1
  Al0+  Al88  1  0.31976978  0.06845361  0.01462941  1
  Al0+  Al89  1  0.81805400  0.56932366  0.67779212  1
  Al0+  Al90  1  0.32093850  0.07095844  0.68236103  1
  Al0+  Al91  1  0.32396874  0.57469283  0.01567022  1
  Al0+  Al92  1  0.93112806  0.32079428  0.98632994  1
  Al0+  Al93  1  0.67878956  0.43024802  0.34579973  1
  Al0+  Al94  1  0.17943840  0.43084271  0.01499725  1
  Al0+  Al95  1  0.32083884  0.06981765  0.34767011  1
  Si0+  Si96  1  0.42628444  0.32254027  0.98299238  1
  Si0+  Si97  1  0.17770541  0.42964817  0.68279734  1
  Si0+  Si98  1  0.42916887  0.82170477  0.31713615  1
  Si0+  Si99  1  0.17757931  0.92641852  0.35054448  1
  Si0+  Si100  1  0.67593820  0.42495836  0.68520239  1
  Si0+  Si101  1  0.82289341  0.07377074  0.01297152  1
  Si0+  Si102  1  0.92765992  0.82317734  0.31329732  1
  Si0+  Si103  1  0.56985469  0.17622869  0.65119298  1
  Si0+  Si104  1  0.42652568  0.32227640  0.31636508  1
  Si0+  Si105  1  0.43047727  0.32011933  0.65262060  1
  Si0+  Si106  1  0.82118671  0.57348525  0.35145839  1
  Si0+  Si107  1  0.67842295  0.42428110  0.01470765  1
  Si0+  Si108  1  0.68063907  0.92975557  0.68095412  1
  Si0+  Si109  1  0.06900493  0.67996233  0.98632923  1
  Si0+  Si110  1  0.92768799  0.32084236  0.31668586  1
  Si0+  Si111  1  0.07513942  0.17656234  0.98486356  1
  Si0+  Si112  1  0.82270360  0.07197855  0.68233874  1
  Si0+  Si113  1  0.42799494  0.82432632  0.64885868  1
  Si0+  Si114  1  0.17452737  0.92738661  0.01686637  1
  Si0+  Si115  1  0.32115113  0.57391155  0.34840650  1
  Si0+  Si116  1  0.67808601  0.92729412  0.35279791  1
  Si0+  Si117  1  0.17621612  0.92853726  0.68339656  1
  Si0+  Si118  1  0.92730413  0.82158375  0.98746929  1
  Si0+  Si119  1  0.57440128  0.67611632  0.98439479  1
  O2-  O120  1  0.24083015  -0.00173786  0.06119569  1
  O2-  O121  1  0.24324064  -0.00190892  0.39473052  1
  O2-  O122  1  0.24435359  -0.00228263  0.72824202  1
  O2-  O123  1  0.25326574  0.50149515  0.06524389  1
  O2-  O124  1  0.25147574  0.50768633  0.39465278  1
  O2-  O125  1  0.24031380  0.50485004  0.72571494  1
  O2-  O126  1  0.75434412  0.00624216  0.05908728  1
  O2-  O127  1  0.74843758  -0.00504154  0.39570738  1
  O2-  O128  1  0.75235963  -0.00000846  0.72438307  1
  O2-  O129  1  0.74337116  0.49647494  0.05859767  1
  O2-  O130  1  0.74921904  0.50786118  0.39446204  1
  O2-  O131  1  0.74614209  0.49294617  0.72775456  1
  O2-  O132  1  -0.00304463  0.25310842  0.27145457  1
  O2-  O133  1  -0.00074365  0.24986628  0.60020397  1
  O2-  O134  1  0.00598054  0.24486934  0.94126395  1
  O2-  O135  1  -0.00594206  0.75205254  0.26919468  1
  O2-  O136  1  0.00010037  0.75040541  0.60390374  1
  O2-  O137  1  -0.00150525  0.75166827  0.94441540  1
  O2-  O138  1  0.49451706  0.25223520  0.27271842  1
  O2-  O139  1  0.50067644  0.24858857  0.60948421  1
  O2-  O140  1  0.49541057  0.25363383  0.93850683  1
  O2-  O141  1  0.49601061  0.75129921  0.27282346  1
  O2-  O142  1  0.48979757  0.74886532  0.60622692  1
  O2-  O143  1  0.50050075  0.73881341  0.93941866  1
  O2-  O144  1  0.07301482  0.17523091  0.09040149  1
  O2-  O145  1  0.07235452  0.18113611  0.43119173  1
  O2-  O146  1  0.07238227  0.18351811  0.76665172  1
  O2-  O147  1  0.06743367  0.68082434  0.09157862  1
  O2-  O148  1  0.07013682  0.68048374  0.43017234  1
  O2-  O149  1  0.07182433  0.68029117  0.76744733  1
  O2-  O150  1  0.57091005  0.17927741  0.09895873  1
  O2-  O151  1  0.56876224  0.18149471  0.43500718  1
  O2-  O152  1  0.56925260  0.17518586  0.75644461  1
  O2-  O153  1  0.57484240  0.67947463  0.08997444  1
  O2-  O154  1  0.57015461  0.67745795  0.43135531  1
  O2-  O155  1  0.57038472  0.68291322  0.76853757  1
  O2-  O156  1  0.17890021  0.43064198  0.23712442  1
  O2-  O157  1  0.18218220  0.42754129  0.57719368  1
  O2-  O158  1  0.17788009  0.43427128  0.90106911  1
  O2-  O159  1  0.17955376  0.92511889  0.24477925  1
  O2-  O160  1  0.17864096  0.92734973  0.57788692  1
  O2-  O161  1  0.17221911  0.92699535  0.91140951  1
  O2-  O162  1  0.68284274  0.42842228  0.23261681  1
  O2-  O163  1  0.67373408  0.42551518  0.57947515  1
  O2-  O164  1  0.67831396  0.42393087  0.90914074  1
  O2-  O165  1  0.67732600  0.92857896  0.24712187  1
  O2-  O166  1  0.67874995  0.93193206  0.57605456  1
  O2-  O167  1  0.68230058  0.92884935  0.90051810  1
  O2-  O168  1  0.42596941  0.32160775  0.08837795  1
  O2-  O169  1  0.42875174  0.32283723  0.42258252  1
  O2-  O170  1  0.43183030  0.32034813  0.75764928  1
  O2-  O171  1  0.43394627  0.82079389  0.09853014  1
  O2-  O172  1  0.43007900  0.82205397  0.42290062  1
  O2-  O173  1  0.43170066  0.82761780  0.75438494  1
  O2-  O174  1  0.92870736  0.31847914  0.09948089  1
  O2-  O175  1  0.92802662  0.31918958  0.42207660  1
  O2-  O176  1  0.92857735  0.32256510  0.76165392  1
  O2-  O177  1  0.92913137  0.82332446  0.09224972  1
  O2-  O178  1  0.92795712  0.82288031  0.41874387  1
  O2-  O179  1  0.92505603  0.81928887  0.76641594  1
  O2-  O180  1  0.32311446  0.06645133  0.23465260  1
  O2-  O181  1  0.32363286  0.06966777  0.56930910  1
  O2-  O182  1  0.31912868  0.06695313  0.90132936  1
  O2-  O183  1  0.31998084  0.57287403  0.24301004  1
  O2-  O184  1  0.32548036  0.56634588  0.56561887  1
  O2-  O185  1  0.31992103  0.57473113  0.90159467  1
  O2-  O186  1  0.81866470  0.07017534  0.23267937  1
  O2-  O187  1  0.82017362  0.07228629  0.57720693  1
  O2-  O188  1  0.82200984  0.07054057  0.90721441  1
  O2-  O189  1  0.82142694  0.57065898  0.24547108  1
  O2-  O190  1  0.81388454  0.57030459  0.56499118  1
  O2-  O191  1  0.82134561  0.57271224  0.90082263  1
  O2-  O192  1  0.04500780  0.08127986  0.26511469  1
  O2-  O193  1  0.04849567  0.08191714  0.60008197  1
  O2-  O194  1  0.05144583  0.08214995  0.93821345  1
  O2-  O195  1  0.03760005  0.58220934  0.26337192  1
  O2-  O196  1  0.04474285  0.58095048  0.59986233  1
  O2-  O197  1  0.03993313  0.58865266  0.94019547  1
  O2-  O198  1  0.54190719  0.08135944  0.27003315  1
  O2-  O199  1  0.54094756  0.08499427  0.60375853  1
  O2-  O200  1  0.53751676  0.08257676  0.93144290  1
  O2-  O201  1  0.54277209  0.58081146  0.26209726  1
  O2-  O202  1  0.54024662  0.57998065  0.60320718  1
  O2-  O203  1  0.55840855  0.57931836  0.94114350  1
  O2-  O204  1  0.16925336  0.21239873  0.26636466  1
  O2-  O205  1  0.17233457  0.21129712  0.60175412  1
  O2-  O206  1  0.16971618  0.20263308  0.94145679  1
  O2-  O207  1  0.16615797  0.71083501  0.26254212  1
  O2-  O208  1  0.17100422  0.70816979  0.59839636  1
  O2-  O209  1  0.16134233  0.70717698  0.94005675  1
  O2-  O210  1  0.66666908  0.21249800  0.26811066  1
  O2-  O211  1  0.66255422  0.20170307  0.60499343  1
  O2-  O212  1  0.66525666  0.20751544  0.92768392  1
  O2-  O213  1  0.66808380  0.70831437  0.26387331  1
  O2-  O214  1  0.66089668  0.71350011  0.59767519  1
  O2-  O215  1  0.66722626  0.71000021  0.94099352  1
  O2-  O216  1  0.08322586  0.46110856  0.07086656  1
  O2-  O217  1  0.08085778  0.46082911  0.40306487  1
  O2-  O218  1  0.08099060  0.44865163  0.72394046  1
  O2-  O219  1  0.07999807  0.94895842  0.06426910  1
  O2-  O220  1  0.08241715  0.94749799  0.39424033  1
  O2-  O221  1  0.08139897  0.95234678  0.72869390  1
  O2-  O222  1  0.58363607  0.44281623  0.06120889  1
  O2-  O223  1  0.58013701  0.45758083  0.39889281  1
  O2-  O224  1  0.58291205  0.45024305  0.73222557  1
  O2-  O225  1  0.58482619  0.96156131  0.06876908  1
  O2-  O226  1  0.58573611  0.95325474  0.40051233  1
  O2-  O227  1  0.58972527  0.95922927  0.73004168  1
  O2-  O228  1  0.20665546  0.33232316  0.06891771  1
  O2-  O229  1  0.21089760  0.33604341  0.40628983  1
  O2-  O230  1  0.21086516  0.33986829  0.73200073  1
  O2-  O231  1  0.20313500  0.83491915  0.06325306  1
  O2-  O232  1  0.20746616  0.83401326  0.39765469  1
  O2-  O233  1  0.20171093  0.83546707  0.73116961  1
  O2-  O234  1  0.70994495  0.33136823  0.05923825  1
  O2-  O235  1  0.70954497  0.33568174  0.40390571  1
  O2-  O236  1  0.70003875  0.32989883  0.72982020  1
  O2-  O237  1  0.71110492  0.83644822  0.07345070  1
  O2-  O238  1  0.70463056  0.83283702  0.39730555  1
  O2-  O239  1  0.70797311  0.83801904  0.72828820  1
  O2-  O240  1  0.45177298  0.41495058  0.26877582  1
  O2-  O241  1  0.45855535  0.41045162  0.60251492  1
  O2-  O242  1  0.45287017  0.41629538  0.93625644  1
  O2-  O243  1  0.45936450  0.91411008  0.27102452  1
  O2-  O244  1  0.46253704  0.91461539  0.60068881  1
  O2-  O245  1  0.46700487  0.91204256  0.92901271  1
  O2-  O246  1  0.95238670  0.41535589  0.27235005  1
  O2-  O247  1  0.95151039  0.41990996  0.59318870  1
  O2-  O248  1  0.96487869  0.41729771  0.93275052  1
  O2-  O249  1  0.95524025  0.91562742  0.26593233  1
  O2-  O250  1  0.95294529  0.92000803  0.59869576  1
  O2-  O251  1  0.95263512  0.91366232  0.93774837  1
  O2-  O252  1  0.33269272  0.29680993  0.27241198  1
  O2-  O253  1  0.33882770  0.29263257  0.60535706  1
  O2-  O254  1  0.33306264  0.29565008  0.93670040  1
  O2-  O255  1  0.33517294  0.80058646  0.26990453  1
  O2-  O256  1  0.33209404  0.80808536  0.60515278  1
  O2-  O257  1  0.33139582  0.79543680  0.93046707  1
  O2-  O258  1  0.83422409  0.29331157  0.27180072  1
  O2-  O259  1  0.82695867  0.29278600  0.59749587  1
  O2-  O260  1  0.83681547  0.29263587  0.92630152  1
  O2-  O261  1  0.83278228  0.80100885  0.26796439  1
  O2-  O262  1  0.82958794  0.79288146  0.59577407  1
  O2-  O263  1  0.83449379  0.79288862  0.94299661  1
  O2-  O264  1  0.41531798  0.03205842  0.06651935  1
  O2-  O265  1  0.41642122  0.03670154  0.40355194  1
  O2-  O266  1  0.41745630  0.03709270  0.73604069  1
  O2-  O267  1  0.42453564  0.54884442  0.06539046  1
  O2-  O268  1  0.41495684  0.54562656  0.39257897  1
  O2-  O269  1  0.41486403  0.53592910  0.73568180  1
  O2-  O270  1  0.91687973  0.04803147  0.05892044  1
  O2-  O271  1  0.91859285  0.04006889  0.39976203  1
  O2-  O272  1  0.91562265  0.04696593  0.72835344  1
  O2-  O273  1  0.91467923  0.53625586  0.06995724  1
  O2-  O274  1  0.91379848  0.54566772  0.39709453  1
  O2-  O275  1  0.91637919  0.54101043  0.73098238  1
  O2-  O276  1  0.29664566  0.16609983  0.06968058  1
  O2-  O277  1  0.29302520  0.16732941  0.40094338  1
  O2-  O278  1  0.29334456  0.16823283  0.73740403  1
  O2-  O279  1  0.29599059  0.67364340  0.06725041  1
  O2-  O280  1  0.29878597  0.66925532  0.39239969  1
  O2-  O281  1  0.29839280  0.67288071  0.72929978  1
  O2-  O282  1  0.79739864  0.16819733  0.05604460  1
  O2-  O283  1  0.78819914  0.16491908  0.40330153  1
  O2-  O284  1  0.79214014  0.16322941  0.72991040  1
  O2-  O285  1  0.79269922  0.66485858  0.07319450  1
  O2-  O286  1  0.79892506  0.66972025  0.39298047  1
  O2-  O287  1  0.78524217  0.66640275  0.73145312  1
