# generated using pymatgen
data_Ca2Al2SiO7
_symmetry_space_group_name_H-M   'P 1'
_cell_length_a   15.45373718
_cell_length_b   15.45479139
_cell_length_c   15.28091662
_cell_angle_alpha   90.00101719
_cell_angle_beta   90.00898083
_cell_angle_gamma   90.00361557
_symmetry_Int_Tables_number   1
_chemical_formula_structural   Ca2Al2SiO7
_chemical_formula_sum   'Ca48 Al48 Si24 O168'
_cell_volume   3649.60673236
_cell_formula_units_Z   24
loop_
 _symmetry_equiv_pos_site_id
 _symmetry_equiv_pos_as_xyz
  1  'x, y, z'
loop_
 _atom_type_symbol
 _atom_type_oxidation_number
  Ca2+  2.0
  Al0+  0.0
  Si0+  0.0
  O2-  -2.0
loop_
 _atom_site_type_symbol
 _atom_site_label
 _atom_site_symmetry_multiplicity
 _atom_site_fract_x
 _atom_site_fract_y
 _atom_site_fract_z
 _atom_site_occupancy
  Ca2+  Ca0  1  0.16793673  0.07323899  0.17782369  1
  Ca2+  Ca1  1  0.16650279  0.07623544  0.50031673  1
  Ca2+  Ca2  1  0.16626045  0.07017896  0.83784713  1
  Ca2+  Ca3  1  0.17024003  0.59184940  0.16921210  1
  Ca2+  Ca4  1  0.16922322  0.58110075  0.50789897  1
  Ca2+  Ca5  1  0.17798982  0.58745751  0.83775656  1
  Ca2+  Ca6  1  0.66681328  0.08198574  0.17220254  1
  Ca2+  Ca7  1  0.67093546  0.08773267  0.49787470  1
  Ca2+  Ca8  1  0.66782867  0.07627928  0.84316599  1
  Ca2+  Ca9  1  0.66905209  0.57250477  0.17692700  1
  Ca2+  Ca10  1  0.66526427  0.58559003  0.49899233  1
  Ca2+  Ca11  1  0.66634306  0.58080512  0.84046073  1
  Ca2+  Ca12  1  0.08432559  0.32424936  0.16476578  1
  Ca2+  Ca13  1  0.07944912  0.33367027  0.49455531  1
  Ca2+  Ca14  1  0.07972102  0.33360688  0.82417955  1
  Ca2+  Ca15  1  0.08229566  0.82856583  0.15996721  1
  Ca2+  Ca16  1  0.08449972  0.83368293  0.49553535  1
  Ca2+  Ca17  1  0.07874406  0.83518264  0.83139968  1
  Ca2+  Ca18  1  0.58656734  0.32550764  0.15982886  1
  Ca2+  Ca19  1  0.58113301  0.32987704  0.49013413  1
  Ca2+  Ca20  1  0.58095986  0.33384921  0.83717691  1
  Ca2+  Ca21  1  0.58607307  0.82945937  0.16250209  1
  Ca2+  Ca22  1  0.57626617  0.82181699  0.49701575  1
  Ca2+  Ca23  1  0.57642226  0.82875725  0.82203892  1
  Ca2+  Ca24  1  0.33852169  0.41990965  0.16505659  1
  Ca2+  Ca25  1  0.32465577  0.42256844  0.50937179  1
  Ca2+  Ca26  1  0.33538270  0.42785054  0.83787107  1
  Ca2+  Ca27  1  0.32098049  0.92077501  0.17410709  1
  Ca2+  Ca28  1  0.32419663  0.91610349  0.50319350  1
  Ca2+  Ca29  1  0.32197992  0.90568131  0.83637684  1
  Ca2+  Ca30  1  0.82185884  0.42060858  0.17529602  1
  Ca2+  Ca31  1  0.83075770  0.42106490  0.50053342  1
  Ca2+  Ca32  1  0.82895062  0.41719121  0.83861611  1
  Ca2+  Ca33  1  0.82985927  0.91721496  0.16875020  1
  Ca2+  Ca34  1  0.83935523  0.92307505  0.50263536  1
  Ca2+  Ca35  1  0.82957197  0.91064507  0.84050996  1
  Ca2+  Ca36  1  0.42422799  0.17002333  0.16057216  1
  Ca2+  Ca37  1  0.41933746  0.16654648  0.48902153  1
  Ca2+  Ca38  1  0.42189289  0.16909223  0.83428251  1
  Ca2+  Ca39  1  0.42105689  0.66364395  0.16375016  1
  Ca2+  Ca40  1  0.42042702  0.66613973  0.49984721  1
  Ca2+  Ca41  1  0.41918816  0.66601829  0.82556531  1
  Ca2+  Ca42  1  0.91883040  0.15985728  0.16931836  1
  Ca2+  Ca43  1  0.92058177  0.17169383  0.49289988  1
  Ca2+  Ca44  1  0.91708752  0.17454247  0.82736751  1
  Ca2+  Ca45  1  0.92768128  0.66625257  0.16157483  1
  Ca2+  Ca46  1  0.92146908  0.67237072  0.49106492  1
  Ca2+  Ca47  1  0.92040935  0.67893758  0.82984020  1
  Al0+  Al48  1  -0.00040552  -0.00023292  -0.00021607  1
  Al0+  Al49  1  -0.00223872  0.00092998  0.33719961  1
  Al0+  Al50  1  0.00068596  0.00201544  0.66846451  1
  Al0+  Al51  1  0.00361457  0.49943084  -0.00485938  1
  Al0+  Al52  1  -0.00168464  0.50200917  0.33087992  1
  Al0+  Al53  1  -0.00317030  0.49971679  0.66677062  1
  Al0+  Al54  1  0.50094053  -0.00036653  -0.00026615  1
  Al0+  Al55  1  0.49857516  0.00066838  0.33264145  1
  Al0+  Al56  1  0.50106996  -0.00079677  0.66160347  1
  Al0+  Al57  1  0.49986314  0.49864797  0.00487918  1
  Al0+  Al58  1  0.49889013  0.50071151  0.33418136  1
  Al0+  Al59  1  0.50123226  0.49678540  0.66607604  1
  Al0+  Al60  1  0.25114617  0.25208982  -0.00622566  1
  Al0+  Al61  1  0.24875185  0.25019632  0.33153008  1
  Al0+  Al62  1  0.25116986  0.24791899  0.67104811  1
  Al0+  Al63  1  0.25112714  0.74857234  0.00658621  1
  Al0+  Al64  1  0.24902626  0.75046829  0.33411210  1
  Al0+  Al65  1  0.25054834  0.75105207  0.67068297  1
  Al0+  Al66  1  0.75072205  0.24889566  -0.00029580  1
  Al0+  Al67  1  0.74774428  0.24995211  0.33722731  1
  Al0+  Al68  1  0.75219758  0.25085559  0.66367754  1
  Al0+  Al69  1  0.75211033  0.75028980  0.00234779  1
  Al0+  Al70  1  0.74854589  0.74931443  0.33254974  1
  Al0+  Al71  1  0.75122975  0.75039640  0.65815545  1
  Al0+  Al72  1  0.42960754  0.32250381  0.98318070  1
  Al0+  Al73  1  0.92933169  0.82136648  0.98552664  1
  Al0+  Al74  1  0.17951129  0.93095648  0.68233553  1
  Al0+  Al75  1  0.17897665  0.93023693  0.01511024  1
  Al0+  Al76  1  0.32008783  0.56968878  0.01626194  1
  Al0+  Al77  1  0.17832189  0.92836810  0.34949628  1
  Al0+  Al78  1  0.07443218  0.67856042  0.98262506  1
  Al0+  Al79  1  0.68107454  0.42964723  0.01326615  1
  Al0+  Al80  1  0.67762513  0.42956566  0.35050285  1
  Al0+  Al81  1  0.67778587  0.92745584  0.01208037  1
  Al0+  Al82  1  0.32142171  0.56944564  0.68143601  1
  Al0+  Al83  1  0.92977568  0.82297599  0.65104707  1
  Al0+  Al84  1  0.92899178  0.32236738  0.65167816  1
  Al0+  Al85  1  0.17598609  0.42745579  0.68131593  1
  Al0+  Al86  1  0.07013787  0.17924882  0.32060968  1
  Al0+  Al87  1  0.07107890  0.67918730  0.32049440  1
  Al0+  Al88  1  0.81880241  0.06955164  0.34764531  1
  Al0+  Al89  1  0.56996407  0.67906603  0.31702160  1
  Al0+  Al90  1  0.82200219  0.57211198  0.34857578  1
  Al0+  Al91  1  0.32122575  0.07285225  0.34686614  1
  Al0+  Al92  1  0.57283540  0.17745761  0.98367949  1
  Al0+  Al93  1  0.42628539  0.82163754  0.65115160  1
  Al0+  Al94  1  0.57128666  0.67584680  0.65220499  1
  Al0+  Al95  1  0.57078464  0.17911531  0.31951101  1
  Si0+  Si96  1  0.42761659  0.82138735  0.31482461  1
  Si0+  Si97  1  0.17631885  0.42598324  0.01767637  1
  Si0+  Si98  1  0.92956272  0.32055455  0.98644790  1
  Si0+  Si99  1  0.32018147  0.57091884  0.34874412  1
  Si0+  Si100  1  0.07121625  0.67935009  0.65138641  1
  Si0+  Si101  1  0.32672165  0.07205648  0.68531306  1
  Si0+  Si102  1  0.82155020  0.07242516  0.01572140  1
  Si0+  Si103  1  0.82484896  0.57219588  0.01513901  1
  Si0+  Si104  1  0.42912068  0.31916984  0.65136991  1
  Si0+  Si105  1  0.68038161  0.92895566  0.67883295  1
  Si0+  Si106  1  0.67567605  0.92620333  0.35183012  1
  Si0+  Si107  1  0.42622214  0.32258849  0.31738212  1
  Si0+  Si108  1  0.17768428  0.42861487  0.34550427  1
  Si0+  Si109  1  0.07282648  0.17904527  0.65080484  1
  Si0+  Si110  1  0.32166510  0.07450644  0.01518030  1
  Si0+  Si111  1  0.81992382  0.07215866  0.68232656  1
  Si0+  Si112  1  0.81976728  0.57335210  0.68213693  1
  Si0+  Si113  1  0.07171420  0.17841126  0.98458709  1
  Si0+  Si114  1  0.43004740  0.82063885  0.98783352  1
  Si0+  Si115  1  0.57181337  0.17871171  0.65091979  1
  Si0+  Si116  1  0.68063424  0.42718609  0.68266350  1
  Si0+  Si117  1  0.57120357  0.67886668  0.98808381  1
  Si0+  Si118  1  0.92742135  0.82349196  0.31692125  1
  Si0+  Si119  1  0.92765900  0.32198376  0.31562392  1
  O2-  O120  1  0.25200781  0.00744104  0.05994547  1
  O2-  O121  1  0.25035005  0.00109325  0.39861564  1
  O2-  O122  1  0.25812587  0.00273319  0.72892955  1
  O2-  O123  1  0.24354234  0.49577806  0.06225239  1
  O2-  O124  1  0.24756023  0.50038250  0.38859714  1
  O2-  O125  1  0.24754615  0.49930126  0.73219353  1
  O2-  O126  1  0.75183251  0.00354604  0.05739513  1
  O2-  O127  1  0.74499574  -0.00539108  0.39620819  1
  O2-  O128  1  0.75108611  -0.00086444  0.72401548  1
  O2-  O129  1  0.75646318  0.50346044  0.05933539  1
  O2-  O130  1  0.74860175  0.50243648  0.40091646  1
  O2-  O131  1  0.74814343  0.50215349  0.72437304  1
  O2-  O132  1  -0.00427638  0.25301725  0.27070462  1
  O2-  O133  1  0.00940266  0.25292948  0.60705301  1
  O2-  O134  1  0.00194704  0.25118128  0.94331695  1
  O2-  O135  1  -0.00434533  0.75365655  0.27432510  1
  O2-  O136  1  0.00526215  0.74935455  0.60507976  1
  O2-  O137  1  0.00169405  0.75055679  0.93392765  1
  O2-  O138  1  0.49521590  0.25352764  0.27451181  1
  O2-  O139  1  0.49800160  0.24664205  0.60884132  1
  O2-  O140  1  0.50077577  0.24914484  0.93289988  1
  O2-  O141  1  0.49768271  0.75507080  0.26865997  1
  O2-  O142  1  0.49648157  0.74628978  0.60365943  1
  O2-  O143  1  0.50386172  0.75248833  0.94502683  1
  O2-  O144  1  0.07098503  0.17832218  0.08966550  1
  O2-  O145  1  0.06934098  0.18319839  0.43361317  1
  O2-  O146  1  0.06835420  0.17773800  0.75693168  1
  O2-  O147  1  0.07212455  0.67949204  0.09639752  1
  O2-  O148  1  0.07181464  0.67794571  0.43372666  1
  O2-  O149  1  0.06892553  0.68027558  0.75682178  1
  O2-  O150  1  0.57318820  0.17846433  0.09690690  1
  O2-  O151  1  0.56972565  0.18207682  0.43337064  1
  O2-  O152  1  0.57315446  0.17875617  0.75582823  1
  O2-  O153  1  0.56932118  0.67961188  0.09306394  1
  O2-  O154  1  0.56596019  0.67890138  0.42987480  1
  O2-  O155  1  0.57334790  0.67810764  0.76672036  1
  O2-  O156  1  0.17885010  0.42706298  0.24049049  1
  O2-  O157  1  0.17833389  0.42813877  0.56691345  1
  O2-  O158  1  0.17538646  0.42483865  0.91241804  1
  O2-  O159  1  0.17943684  0.92886537  0.23572710  1
  O2-  O160  1  0.17780924  0.93375056  0.56976690  1
  O2-  O161  1  0.17948005  0.93144523  0.90167889  1
  O2-  O162  1  0.67961873  0.42893826  0.23677679  1
  O2-  O163  1  0.68153553  0.42391034  0.57814026  1
  O2-  O164  1  0.68298138  0.43170259  0.89932372  1
  O2-  O165  1  0.67694534  0.92674286  0.24592741  1
  O2-  O166  1  0.68071186  0.93190446  0.57406518  1
  O2-  O167  1  0.67832617  0.92708042  0.89827061  1
  O2-  O168  1  0.43023355  0.32083992  0.09673189  1
  O2-  O169  1  0.42555307  0.32228510  0.42350986  1
  O2-  O170  1  0.43204523  0.32047694  0.75610690  1
  O2-  O171  1  0.43084972  0.81989398  0.09287696  1
  O2-  O172  1  0.42739903  0.81878519  0.42032955  1
  O2-  O173  1  0.43020521  0.82299632  0.76548748  1
  O2-  O174  1  0.92953050  0.31980759  0.09130038  1
  O2-  O175  1  0.93011156  0.32208560  0.42134231  1
  O2-  O176  1  0.92442706  0.31728428  0.76531675  1
  O2-  O177  1  0.92862564  0.82158151  0.09888943  1
  O2-  O178  1  0.92958472  0.82338509  0.42286347  1
  O2-  O179  1  0.92672189  0.82130296  0.76384149  1
  O2-  O180  1  0.31963525  0.07193134  0.23308496  1
  O2-  O181  1  0.32652889  0.07459681  0.58004743  1
  O2-  O182  1  0.32001136  0.07331455  0.90924018  1
  O2-  O183  1  0.32103733  0.57008996  0.24362571  1
  O2-  O184  1  0.32067044  0.56628727  0.56734562  1
  O2-  O185  1  0.32230856  0.56986883  0.90344451  1
  O2-  O186  1  0.81879518  0.06797977  0.23447330  1
  O2-  O187  1  0.81846685  0.07352478  0.57743001  1
  O2-  O188  1  0.82157154  0.07469008  0.90966268  1
  O2-  O189  1  0.82298388  0.56771400  0.23474991  1
  O2-  O190  1  0.82052686  0.57243909  0.57751682  1
  O2-  O191  1  0.82181661  0.57175446  0.90891019  1
  O2-  O192  1  0.03671594  0.08313570  0.26699244  1
  O2-  O193  1  0.04023764  0.08855258  0.60350291  1
  O2-  O194  1  0.04110155  0.08817688  0.93581650  1
  O2-  O195  1  0.04146213  0.58290235  0.26397890  1
  O2-  O196  1  0.04372202  0.58573977  0.60644497  1
  O2-  O197  1  0.04963648  0.57875664  0.92997126  1
  O2-  O198  1  0.54325187  0.08128050  0.26613065  1
  O2-  O199  1  0.54837129  0.08653912  0.60255105  1
  O2-  O200  1  0.54373608  0.07883828  0.92997427  1
  O2-  O201  1  0.53656972  0.58240620  0.26416607  1
  O2-  O202  1  0.54571727  0.57629780  0.59979906  1
  O2-  O203  1  0.54091300  0.58789906  0.94123028  1
  O2-  O204  1  0.16542118  0.21087054  0.26400638  1
  O2-  O205  1  0.16941837  0.19711165  0.60820765  1
  O2-  O206  1  0.16301833  0.20419094  0.93556497  1
  O2-  O207  1  0.16780190  0.70971723  0.26629315  1
  O2-  O208  1  0.16619319  0.70228139  0.60781464  1
  O2-  O209  1  0.17373702  0.70890892  0.93322285  1
  O2-  O210  1  0.66765647  0.21028430  0.26632396  1
  O2-  O211  1  0.66256137  0.21048766  0.60383964  1
  O2-  O212  1  0.67161252  0.20627007  0.93036879  1
  O2-  O213  1  0.66791764  0.70676804  0.26387000  1
  O2-  O214  1  0.66712035  0.70784220  0.59653412  1
  O2-  O215  1  0.66492104  0.70209864  0.94260695  1
  O2-  O216  1  0.08158701  0.44829167  0.06334103  1
  O2-  O217  1  0.08543575  0.45546019  0.39204491  1
  O2-  O218  1  0.07544446  0.45177689  0.73223916  1
  O2-  O219  1  0.08170156  0.96086602  0.06733609  1
  O2-  O220  1  0.08016181  0.95728509  0.40153248  1
  O2-  O221  1  0.08389977  0.96631359  0.73735237  1
  O2-  O222  1  0.58573587  0.45961981  0.06827592  1
  O2-  O223  1  0.57826136  0.45747668  0.40245486  1
  O2-  O224  1  0.58759608  0.45090525  0.72927627  1
  O2-  O225  1  0.58142020  0.95637634  0.06764199  1
  O2-  O226  1  0.58223022  0.95283712  0.39687014  1
  O2-  O227  1  0.58808559  0.95678083  0.72578581  1
  O2-  O228  1  0.20412567  0.33202515  0.06294907  1
  O2-  O229  1  0.20547972  0.33784887  0.39463819  1
  O2-  O230  1  0.20273286  0.32783451  0.73347641  1
  O2-  O231  1  0.21216224  0.83523464  0.06934589  1
  O2-  O232  1  0.20911664  0.83062249  0.40302851  1
  O2-  O233  1  0.20746022  0.83388985  0.73688804  1
  O2-  O234  1  0.71247777  0.33250542  0.06564086  1
  O2-  O235  1  0.70677573  0.33207217  0.40425746  1
  O2-  O236  1  0.71378279  0.33697497  0.73090809  1
  O2-  O237  1  0.70978843  0.83224280  0.06886246  1
  O2-  O238  1  0.69993119  0.83231175  0.39703298  1
  O2-  O239  1  0.70807959  0.83629092  0.72466104  1
  O2-  O240  1  0.45154241  0.41630954  0.27209816  1
  O2-  O241  1  0.45842430  0.40944549  0.60201721  1
  O2-  O242  1  0.46332383  0.42002863  0.93060721  1
  O2-  O243  1  0.45075656  0.91593628  0.27004122  1
  O2-  O244  1  0.45776203  0.91864885  0.59628528  1
  O2-  O245  1  0.45338991  0.91279654  0.93940687  1
  O2-  O246  1  0.95382335  0.41466520  0.26865095  1
  O2-  O247  1  0.95324371  0.42039772  0.59747163  1
  O2-  O248  1  0.95453897  0.41213701  0.93683053  1
  O2-  O249  1  0.95241361  0.91712872  0.27149020  1
  O2-  O250  1  0.95923936  0.92147267  0.60019767  1
  O2-  O251  1  0.95490724  0.92100388  0.93226346  1
  O2-  O252  1  0.33319702  0.29831789  0.26963580  1
  O2-  O253  1  0.33578406  0.29338036  0.60555337  1
  O2-  O254  1  0.33080405  0.29748931  0.92814820  1
  O2-  O255  1  0.33482774  0.79256843  0.26899202  1
  O2-  O256  1  0.32725391  0.79513267  0.59904869  1
  O2-  O257  1  0.33933853  0.78862640  0.94139084  1
  O2-  O258  1  0.83386134  0.29419184  0.27217549  1
  O2-  O259  1  0.83522933  0.28560101  0.59552653  1
  O2-  O260  1  0.83938944  0.29034685  0.93676025  1
  O2-  O261  1  0.83256227  0.80040074  0.27270877  1
  O2-  O262  1  0.83467014  0.79309414  0.59450622  1
  O2-  O263  1  0.83063966  0.79094027  0.93169234  1
  O2-  O264  1  0.41566004  0.04849559  0.05950413  1
  O2-  O265  1  0.42007443  0.04600257  0.40015232  1
  O2-  O266  1  0.42155763  0.04726514  0.72984445  1
  O2-  O267  1  0.41522259  0.53624781  0.07188546  1
  O2-  O268  1  0.41067700  0.54205795  0.39727029  1
  O2-  O269  1  0.42001991  0.53744598  0.73362885  1
  O2-  O270  1  0.91472747  0.04643053  0.06213035  1
  O2-  O271  1  0.91443948  0.04097047  0.40497995  1
  O2-  O272  1  0.91255411  0.04832831  0.72963190  1
  O2-  O273  1  0.91947005  0.54552964  0.05803050  1
  O2-  O274  1  0.92000144  0.54187216  0.40242647  1
  O2-  O275  1  0.91054950  0.54483549  0.73096182  1
  O2-  O276  1  0.29792452  0.16960806  0.05844122  1
  O2-  O277  1  0.29265051  0.17166741  0.40009295  1
  O2-  O278  1  0.30144778  0.16520781  0.73297151  1
  O2-  O279  1  0.29132217  0.66505733  0.07359877  1
  O2-  O280  1  0.29289533  0.66255405  0.39576522  1
  O2-  O281  1  0.29688085  0.66876360  0.73418675  1
  O2-  O282  1  0.79720771  0.16524631  0.06354429  1
  O2-  O283  1  0.78814084  0.16554749  0.40325262  1
  O2-  O284  1  0.78898098  0.16314163  0.73037188  1
  O2-  O285  1  0.80073604  0.66516336  0.06198044  1
  O2-  O286  1  0.79538744  0.67159973  0.40016268  1
  O2-  O287  1  0.79109612  0.66564783  0.72867553  1
