# generated using pymatgen
data_Ca2Al2SiO7
_symmetry_space_group_name_H-M   'P 1'
_cell_length_a   15.46391274
_cell_length_b   15.46193936
_cell_length_c   15.28839932
_cell_angle_alpha   89.99759842
_cell_angle_beta   89.99515705
_cell_angle_gamma   90.00673567
_symmetry_Int_Tables_number   1
_chemical_formula_structural   Ca2Al2SiO7
_chemical_formula_sum   'Ca48 Al48 Si24 O168'
_cell_volume   3655.48805486
_cell_formula_units_Z   24
loop_
 _symmetry_equiv_pos_site_id
 _symmetry_equiv_pos_as_xyz
  1  'x, y, z'
loop_
 _atom_type_symbol
 _atom_type_oxidation_number
  Ca2+  2.0
  Al0+  0.0
  Si0+  0.0
  O2-  -2.0
loop_
 _atom_site_type_symbol
 _atom_site_label
 _atom_site_symmetry_multiplicity
 _atom_site_fract_x
 _atom_site_fract_y
 _atom_site_fract_z
 _atom_site_occupancy
  Ca2+  Ca0  1  0.17596813  0.08234551  0.17588585  1
  Ca2+  Ca1  1  0.17656293  0.08208756  0.49981393  1
  Ca2+  Ca2  1  0.16873561  0.07853057  0.83560161  1
  Ca2+  Ca3  1  0.17096662  0.57680301  0.16555146  1
  Ca2+  Ca4  1  0.17401915  0.58099818  0.50353412  1
  Ca2+  Ca5  1  0.17744285  0.58404632  0.84314113  1
  Ca2+  Ca6  1  0.66732893  0.07856209  0.17622156  1
  Ca2+  Ca7  1  0.67122271  0.07186818  0.50879323  1
  Ca2+  Ca8  1  0.66019528  0.08086307  0.83092214  1
  Ca2+  Ca9  1  0.66791440  0.58190812  0.17347135  1
  Ca2+  Ca10  1  0.65753151  0.57626190  0.50714452  1
  Ca2+  Ca11  1  0.67500215  0.59021513  0.83237570  1
  Ca2+  Ca12  1  0.08681058  0.33841316  0.16222264  1
  Ca2+  Ca13  1  0.08176201  0.33431235  0.49326040  1
  Ca2+  Ca14  1  0.08359397  0.33772545  0.83367586  1
  Ca2+  Ca15  1  0.07531446  0.82722182  0.16246763  1
  Ca2+  Ca16  1  0.06950421  0.83234332  0.49573056  1
  Ca2+  Ca17  1  0.07663641  0.82368113  0.82661723  1
  Ca2+  Ca18  1  0.57309602  0.33231715  0.16228232  1
  Ca2+  Ca19  1  0.58584791  0.33214122  0.49371859  1
  Ca2+  Ca20  1  0.58833742  0.32528008  0.82771474  1
  Ca2+  Ca21  1  0.58363097  0.83172138  0.17148731  1
  Ca2+  Ca22  1  0.58732083  0.82387703  0.49517955  1
  Ca2+  Ca23  1  0.57738629  0.82616752  0.82024572  1
  Ca2+  Ca24  1  0.32834788  0.41215077  0.17200392  1
  Ca2+  Ca25  1  0.33257073  0.41997477  0.50181201  1
  Ca2+  Ca26  1  0.33307155  0.42911349  0.84110793  1
  Ca2+  Ca27  1  0.33743463  0.92421611  0.17663522  1
  Ca2+  Ca28  1  0.34365579  0.91681721  0.50211925  1
  Ca2+  Ca29  1  0.33653691  0.91388879  0.83534807  1
  Ca2+  Ca30  1  0.82624190  0.42440161  0.17180933  1
  Ca2+  Ca31  1  0.81814766  0.42411654  0.50665500  1
  Ca2+  Ca32  1  0.82556121  0.42633445  0.83261483  1
  Ca2+  Ca33  1  0.82763678  0.92279981  0.17959242  1
  Ca2+  Ca34  1  0.82510145  0.91721642  0.50524851  1
  Ca2+  Ca35  1  0.82803188  0.91426832  0.82921666  1
  Ca2+  Ca36  1  0.41806368  0.17700520  0.16173581  1
  Ca2+  Ca37  1  0.42455015  0.17089927  0.49345101  1
  Ca2+  Ca38  1  0.42833343  0.17611967  0.83093575  1
  Ca2+  Ca39  1  0.41987841  0.66761882  0.16703908  1
  Ca2+  Ca40  1  0.42512753  0.67373607  0.49711851  1
  Ca2+  Ca41  1  0.41657250  0.66732981  0.82147520  1
  Ca2+  Ca42  1  0.91441236  0.16814964  0.16564007  1
  Ca2+  Ca43  1  0.91327830  0.16057118  0.49666700  1
  Ca2+  Ca44  1  0.91583239  0.16745908  0.82469316  1
  Ca2+  Ca45  1  0.91913930  0.66838119  0.16067465  1
  Ca2+  Ca46  1  0.90299114  0.67888087  0.49922783  1
  Ca2+  Ca47  1  0.91967141  0.66116169  0.82721764  1
  Al0+  Al48  1  -0.00182864  0.00033048  -0.00029584  1
  Al0+  Al49  1  0.00290033  0.00012527  0.33048502  1
  Al0+  Al50  1  0.00190680  -0.00079632  0.66644437  1
  Al0+  Al51  1  0.00034278  0.50091889  0.00241036  1
  Al0+  Al52  1  0.00095167  0.49893409  0.33733296  1
  Al0+  Al53  1  0.00002561  0.49699264  0.66658727  1
  Al0+  Al54  1  0.50023393  -0.00017380  -0.00265123  1
  Al0+  Al55  1  0.50174236  -0.00056415  0.33853074  1
  Al0+  Al56  1  0.49971425  0.00403648  0.66610336  1
  Al0+  Al57  1  0.50056825  0.50227931  -0.00043062  1
  Al0+  Al58  1  0.49908506  0.49968752  0.32835300  1
  Al0+  Al59  1  0.49602161  0.49817545  0.67241408  1
  Al0+  Al60  1  0.25020238  0.24901837  -0.00353093  1
  Al0+  Al61  1  0.24982484  0.24915882  0.33904319  1
  Al0+  Al62  1  0.24912646  0.24775473  0.66769557  1
  Al0+  Al63  1  0.24677531  0.74974842  0.00179684  1
  Al0+  Al64  1  0.24944023  0.74991255  0.32910363  1
  Al0+  Al65  1  0.24794314  0.74998533  0.66505333  1
  Al0+  Al66  1  0.75140359  0.24903110  -0.00375127  1
  Al0+  Al67  1  0.75268221  0.25249230  0.33753663  1
  Al0+  Al68  1  0.75190524  0.24981618  0.66850086  1
  Al0+  Al69  1  0.74861764  0.75307975  0.00501093  1
  Al0+  Al70  1  0.75177935  0.75167565  0.32507073  1
  Al0+  Al71  1  0.74974686  0.75015187  0.66763643  1
  Al0+  Al72  1  0.42623432  0.82211777  0.65303500  1
  Al0+  Al73  1  0.67605665  0.42800286  0.68217997  1
  Al0+  Al74  1  0.42729726  0.32339498  0.98362311  1
  Al0+  Al75  1  0.82358096  0.07206444  0.34711378  1
  Al0+  Al76  1  0.32189266  0.07032532  0.34683720  1
  Al0+  Al77  1  0.42820073  0.31926415  0.32118163  1
  Al0+  Al78  1  0.18153782  0.42843241  0.01462333  1
  Al0+  Al79  1  0.93063573  0.82147301  0.31798859  1
  Al0+  Al80  1  0.42866754  0.82303936  0.31752422  1
  Al0+  Al81  1  0.67707084  0.43139811  0.34443570  1
  Al0+  Al82  1  0.81969563  0.57150888  0.01448995  1
  Al0+  Al83  1  0.57043057  0.67743951  0.65391415  1
  Al0+  Al84  1  0.67699469  0.92906222  0.68344135  1
  Al0+  Al85  1  0.32417517  0.57431328  0.01746603  1
  Al0+  Al86  1  0.31771451  0.57087768  0.67847324  1
  Al0+  Al87  1  0.82286701  0.06927115  0.68312912  1
  Al0+  Al88  1  0.67979778  0.92788855  0.34925674  1
  Al0+  Al89  1  0.17947250  0.42928195  0.34845870  1
  Al0+  Al90  1  0.57122170  0.67818106  0.31695319  1
  Al0+  Al91  1  0.06863494  0.67918929  0.98602731  1
  Al0+  Al92  1  0.57299551  0.18189162  0.65023283  1
  Al0+  Al93  1  0.57188176  0.17874618  0.98546392  1
  Al0+  Al94  1  0.82071913  0.57210034  0.67990041  1
  Al0+  Al95  1  0.92969461  0.81988806  0.65395754  1
  Si0+  Si96  1  0.67774476  0.93130005  0.01619559  1
  Si0+  Si97  1  0.82248862  0.57199571  0.34821048  1
  Si0+  Si98  1  0.17577497  0.92932289  0.01507587  1
  Si0+  Si99  1  0.07086223  0.17715532  0.98475327  1
  Si0+  Si100  1  0.07151162  0.18048386  0.31827819  1
  Si0+  Si101  1  0.93038031  0.32066836  0.65019581  1
  Si0+  Si102  1  0.32108931  0.07234350  0.68415510  1
  Si0+  Si103  1  0.07247355  0.67532635  0.31579641  1
  Si0+  Si104  1  0.31984097  0.06781807  0.01326975  1
  Si0+  Si105  1  0.57478145  0.17940135  0.31931818  1
  Si0+  Si106  1  0.32193301  0.57348479  0.35021701  1
  Si0+  Si107  1  0.17757994  0.42531982  0.68369372  1
  Si0+  Si108  1  0.82260826  0.07176804  0.01528971  1
  Si0+  Si109  1  0.42580500  0.32059370  0.64978058  1
  Si0+  Si110  1  0.17878107  0.92668935  0.34944075  1
  Si0+  Si111  1  0.92943798  0.32207823  0.31799289  1
  Si0+  Si112  1  0.57280960  0.68047433  0.98537225  1
  Si0+  Si113  1  0.07136737  0.67538470  0.64916717  1
  Si0+  Si114  1  0.67927625  0.42553022  0.01657138  1
  Si0+  Si115  1  0.17963763  0.92978246  0.68134752  1
  Si0+  Si116  1  0.42868263  0.82040144  0.98679759  1
  Si0+  Si117  1  0.92981782  0.32100570  0.98474570  1
  Si0+  Si118  1  0.92692620  0.82327695  0.98201843  1
  Si0+  Si119  1  0.07176548  0.17786916  0.65028205  1
  O2-  O120  1  0.24828124  -0.00163606  0.05737323  1
  O2-  O121  1  0.25259978  -0.01024435  0.39363305  1
  O2-  O122  1  0.25475040  -0.00406483  0.72541589  1
  O2-  O123  1  0.25688827  0.49619900  0.06560810  1
  O2-  O124  1  0.25284994  0.50463370  0.39434495  1
  O2-  O125  1  0.24350847  0.49604389  0.72651766  1
  O2-  O126  1  0.74938109  0.00327640  0.05639539  1
  O2-  O127  1  0.75148162  0.00140909  0.39724277  1
  O2-  O128  1  0.74939774  0.00057440  0.73536303  1
  O2-  O129  1  0.74394309  0.49794952  0.06125736  1
  O2-  O130  1  0.74860505  0.50904119  0.39124968  1
  O2-  O131  1  0.74490721  0.50427151  0.73077575  1
  O2-  O132  1  -0.00064229  0.24974028  0.27510651  1
  O2-  O133  1  0.00087624  0.24840234  0.60825059  1
  O2-  O134  1  0.00089603  0.24894931  0.94263587  1
  O2-  O135  1  0.00357264  0.74445691  0.27224847  1
  O2-  O136  1  -0.00169696  0.73953094  0.60593470  1
  O2-  O137  1  -0.00737890  0.75202672  0.93801432  1
  O2-  O138  1  0.50451518  0.24591053  0.27418726  1
  O2-  O139  1  0.49931131  0.25802936  0.60460707  1
  O2-  O140  1  0.50486271  0.25590212  0.93552621  1
  O2-  O141  1  0.49939449  0.75096017  0.26616809  1
  O2-  O142  1  0.50146631  0.75312276  0.60458310  1
  O2-  O143  1  0.49443555  0.74474911  0.94496909  1
  O2-  O144  1  0.07030126  0.17417478  0.08967848  1
  O2-  O145  1  0.07239075  0.18099729  0.42338678  1
  O2-  O146  1  0.07312252  0.17785739  0.75580950  1
  O2-  O147  1  0.06712044  0.68195405  0.09911616  1
  O2-  O148  1  0.07363765  0.67587278  0.42136397  1
  O2-  O149  1  0.07295957  0.67802865  0.75491629  1
  O2-  O150  1  0.56973893  0.17571048  0.09923624  1
  O2-  O151  1  0.57417643  0.18219756  0.42464569  1
  O2-  O152  1  0.56920612  0.18170933  0.76355242  1
  O2-  O153  1  0.57607622  0.68430256  0.09006173  1
  O2-  O154  1  0.56992839  0.67617173  0.43009712  1
  O2-  O155  1  0.56829533  0.67959862  0.76833587  1
  O2-  O156  1  0.17892480  0.42822254  0.23580170  1
  O2-  O157  1  0.17814765  0.42298505  0.57809940  1
  O2-  O158  1  0.17985182  0.42966016  0.90099993  1
  O2-  O159  1  0.17627027  0.93174825  0.24344591  1
  O2-  O160  1  0.17738948  0.93320834  0.57666528  1
  O2-  O161  1  0.17471565  0.93180358  0.90975849  1
  O2-  O162  1  0.68122758  0.42937778  0.23102211  1
  O2-  O163  1  0.67901570  0.42798198  0.56839325  1
  O2-  O164  1  0.68379865  0.42317471  0.91140807  1
  O2-  O165  1  0.68097270  0.93143697  0.23450653  1
  O2-  O166  1  0.67916601  0.92879799  0.57061468  1
  O2-  O167  1  0.67688248  0.92971940  0.91159592  1
  O2-  O168  1  0.42486039  0.31691524  0.09742412  1
  O2-  O169  1  0.42751015  0.31775277  0.43412189  1
  O2-  O170  1  0.42135174  0.31568126  0.75502479  1
  O2-  O171  1  0.43154926  0.82554969  0.09134106  1
  O2-  O172  1  0.42711514  0.81988271  0.43027080  1
  O2-  O173  1  0.42427632  0.81853808  0.76763998  1
  O2-  O174  1  0.92885851  0.31834521  0.09003998  1
  O2-  O175  1  0.93163580  0.32304223  0.42275514  1
  O2-  O176  1  0.93361765  0.32101002  0.75571732  1
  O2-  O177  1  0.93072544  0.82612485  0.08747290  1
  O2-  O178  1  0.93220542  0.82146195  0.43102293  1
  O2-  O179  1  0.93541765  0.82204762  0.76715528  1
  O2-  O180  1  0.31709465  0.07188597  0.23294986  1
  O2-  O181  1  0.31675906  0.07642185  0.57944450  1
  O2-  O182  1  0.31766878  0.06490640  0.90805984  1
  O2-  O183  1  0.31988982  0.57321834  0.24476734  1
  O2-  O184  1  0.31509594  0.56999042  0.56538288  1
  O2-  O185  1  0.31862245  0.57788300  0.90386791  1
  O2-  O186  1  0.82250921  0.07230036  0.23253795  1
  O2-  O187  1  0.82526118  0.06659151  0.57017616  1
  O2-  O188  1  0.82867756  0.07032494  0.91101447  1
  O2-  O189  1  0.82541827  0.56721379  0.24218645  1
  O2-  O190  1  0.82408034  0.56827025  0.56659038  1
  O2-  O191  1  0.81934370  0.57060616  0.90174300  1
  O2-  O192  1  0.04753708  0.08870362  0.26849642  1
  O2-  O193  1  0.04560178  0.08641120  0.60217842  1
  O2-  O194  1  0.04137265  0.08599028  0.93567549  1
  O2-  O195  1  0.04452860  0.58172898  0.27061678  1
  O2-  O196  1  0.05259487  0.57916174  0.60595171  1
  O2-  O197  1  0.03957232  0.58218866  0.93207616  1
  O2-  O198  1  0.55083626  0.08445242  0.27625636  1
  O2-  O199  1  0.53903877  0.08613932  0.59749442  1
  O2-  O200  1  0.53679287  0.08242801  0.93065619  1
  O2-  O201  1  0.54210976  0.58099858  0.26119491  1
  O2-  O202  1  0.53811470  0.57860489  0.60392016  1
  O2-  O203  1  0.55557216  0.58566562  0.94053050  1
  O2-  O204  1  0.16217674  0.21068178  0.27033673  1
  O2-  O205  1  0.16330319  0.20644007  0.60227907  1
  O2-  O206  1  0.16219230  0.20213094  0.93496057  1
  O2-  O207  1  0.16516708  0.70069783  0.26800146  1
  O2-  O208  1  0.16138540  0.70814993  0.60078008  1
  O2-  O209  1  0.16438982  0.71390698  0.93145702  1
  O2-  O210  1  0.66842191  0.20631602  0.27321715  1
  O2-  O211  1  0.67143895  0.20912979  0.59885230  1
  O2-  O212  1  0.67228497  0.20136368  0.93267438  1
  O2-  O213  1  0.66920088  0.70634306  0.26180278  1
  O2-  O214  1  0.67029412  0.70089803  0.60254323  1
  O2-  O215  1  0.66228316  0.71626840  0.93769355  1
  O2-  O216  1  0.08325827  0.45831142  0.06747292  1
  O2-  O217  1  0.08272644  0.45833662  0.40417559  1
  O2-  O218  1  0.08298035  0.44760801  0.72852077  1
  O2-  O219  1  0.08502384  0.96032395  0.06332371  1
  O2-  O220  1  0.08860826  0.96032812  0.39731105  1
  O2-  O221  1  0.09173349  0.96373824  0.73262928  1
  O2-  O222  1  0.58358327  0.44760984  0.05877541  1
  O2-  O223  1  0.57929524  0.45732576  0.39779663  1
  O2-  O224  1  0.57601963  0.44702454  0.73441521  1
  O2-  O225  1  0.58606153  0.96035921  0.06352305  1
  O2-  O226  1  0.58147489  0.95186058  0.40249073  1
  O2-  O227  1  0.57846044  0.96048357  0.73638182  1
  O2-  O228  1  0.20389762  0.32625131  0.06470083  1
  O2-  O229  1  0.20880690  0.33330539  0.40399328  1
  O2-  O230  1  0.20291190  0.33134715  0.72988096  1
  O2-  O231  1  0.20020033  0.83760754  0.06263238  1
  O2-  O232  1  0.19604590  0.83051234  0.39250704  1
  O2-  O233  1  0.20262259  0.83694242  0.72899499  1
  O2-  O234  1  0.70948379  0.33288158  0.06280443  1
  O2-  O235  1  0.71252735  0.33741042  0.40009438  1
  O2-  O236  1  0.71380517  0.33294790  0.73606700  1
  O2-  O237  1  0.70607137  0.84109327  0.06608005  1
  O2-  O238  1  0.71177083  0.82883552  0.39776198  1
  O2-  O239  1  0.70614703  0.83097831  0.73680884  1
  O2-  O240  1  0.45520684  0.41529125  0.26519102  1
  O2-  O241  1  0.44373498  0.41674566  0.60772527  1
  O2-  O242  1  0.44930088  0.42495977  0.93502812  1
  O2-  O243  1  0.45732460  0.92299786  0.26582499  1
  O2-  O244  1  0.44733934  0.92418946  0.60643621  1
  O2-  O245  1  0.45964801  0.91027570  0.93676561  1
  O2-  O246  1  0.95965437  0.41316094  0.26992426  1
  O2-  O247  1  0.96014248  0.41076914  0.60027267  1
  O2-  O248  1  0.95970258  0.41166492  0.93733884  1
  O2-  O249  1  0.96554380  0.91699851  0.26242850  1
  O2-  O250  1  0.96898447  0.91383310  0.60000434  1
  O2-  O251  1  0.95625446  0.91604590  0.93564640  1
  O2-  O252  1  0.33187431  0.28397665  0.26838721  1
  O2-  O253  1  0.33353127  0.28830248  0.60323640  1
  O2-  O254  1  0.33109683  0.28873539  0.92883591  1
  O2-  O255  1  0.32821843  0.79847055  0.26438938  1
  O2-  O256  1  0.32783546  0.79408743  0.59941744  1
  O2-  O257  1  0.33350020  0.79969770  0.94285807  1
  O2-  O258  1  0.83830860  0.29480574  0.26834206  1
  O2-  O259  1  0.83905525  0.29358817  0.60310904  1
  O2-  O260  1  0.83959578  0.29248383  0.93512088  1
  O2-  O261  1  0.83578945  0.79406553  0.25975024  1
  O2-  O262  1  0.83242023  0.79351133  0.60028041  1
  O2-  O263  1  0.83115049  0.80060476  0.94031188  1
  O2-  O264  1  0.41091249  0.03816463  0.06045593  1
  O2-  O265  1  0.41875660  0.04609397  0.40172411  1
  O2-  O266  1  0.41327075  0.05040158  0.73217911  1
  O2-  O267  1  0.42598395  0.55457665  0.06667876  1
  O2-  O268  1  0.41503082  0.54587784  0.39423913  1
  O2-  O269  1  0.41206278  0.54120505  0.73656694  1
  O2-  O270  1  0.91388362  0.04288237  0.06472386  1
  O2-  O271  1  0.92421843  0.04573435  0.39621905  1
  O2-  O272  1  0.92268349  0.04114044  0.73560953  1
  O2-  O273  1  0.91525372  0.53877326  0.06874570  1
  O2-  O274  1  0.91354716  0.54240869  0.39628875  1
  O2-  O275  1  0.91879886  0.53771148  0.73275626  1
  O2-  O276  1  0.29100865  0.15969844  0.05902746  1
  O2-  O277  1  0.28278074  0.16180251  0.40460023  1
  O2-  O278  1  0.28448151  0.16036922  0.73410729  1
  O2-  O279  1  0.28843682  0.67088193  0.07106885  1
  O2-  O280  1  0.29453059  0.66723294  0.39513626  1
  O2-  O281  1  0.28535089  0.66737985  0.73284401  1
  O2-  O282  1  0.79869275  0.16542222  0.06107311  1
  O2-  O283  1  0.80133969  0.17197947  0.39873588  1
  O2-  O284  1  0.79863228  0.16935505  0.73404285  1
  O2-  O285  1  0.79104823  0.66929110  0.06806882  1
  O2-  O286  1  0.80222454  0.66859934  0.38734529  1
  O2-  O287  1  0.79878610  0.67094301  0.73450306  1
