# generated using pymatgen
data_Ca2Al2SiO7
_symmetry_space_group_name_H-M   'P 1'
_cell_length_a   15.46250098
_cell_length_b   15.46122668
_cell_length_c   15.28533721
_cell_angle_alpha   90.00022851
_cell_angle_beta   89.99317497
_cell_angle_gamma   90.00406287
_symmetry_Int_Tables_number   1
_chemical_formula_structural   Ca2Al2SiO7
_chemical_formula_sum   'Ca48 Al48 Si24 O168'
_cell_volume   3654.25380350
_cell_formula_units_Z   24
loop_
 _symmetry_equiv_pos_site_id
 _symmetry_equiv_pos_as_xyz
  1  'x, y, z'
loop_
 _atom_type_symbol
 _atom_type_oxidation_number
  Ca2+  2.0
  Al0+  0.0
  Si0+  0.0
  O2-  -2.0
loop_
 _atom_site_type_symbol
 _atom_site_label
 _atom_site_symmetry_multiplicity
 _atom_site_fract_x
 _atom_site_fract_y
 _atom_site_fract_z
 _atom_site_occupancy
  Ca2+  Ca0  1  0.17792779  0.08474317  0.17490027  1
  Ca2+  Ca1  1  0.16752672  0.08399001  0.50064113  1
  Ca2+  Ca2  1  0.16951657  0.08181192  0.83555592  1
  Ca2+  Ca3  1  0.17513201  0.57430284  0.17334016  1
  Ca2+  Ca4  1  0.17917272  0.57939734  0.50135178  1
  Ca2+  Ca5  1  0.17576344  0.57768479  0.84148448  1
  Ca2+  Ca6  1  0.66994709  0.07670308  0.17547245  1
  Ca2+  Ca7  1  0.67050069  0.08740939  0.50371832  1
  Ca2+  Ca8  1  0.65920131  0.07239386  0.83599218  1
  Ca2+  Ca9  1  0.67075108  0.58993750  0.17043634  1
  Ca2+  Ca10  1  0.66217473  0.57703119  0.50272615  1
  Ca2+  Ca11  1  0.67109367  0.57674319  0.83713517  1
  Ca2+  Ca12  1  0.09145247  0.33283925  0.16754703  1
  Ca2+  Ca13  1  0.08110269  0.32423327  0.48866587  1
  Ca2+  Ca14  1  0.08627869  0.33016540  0.82995422  1
  Ca2+  Ca15  1  0.06925442  0.83804867  0.16334699  1
  Ca2+  Ca16  1  0.08011915  0.83592260  0.49342686  1
  Ca2+  Ca17  1  0.07729530  0.83802758  0.82806996  1
  Ca2+  Ca18  1  0.57655649  0.32655891  0.17103300  1
  Ca2+  Ca19  1  0.58145891  0.32577564  0.49226198  1
  Ca2+  Ca20  1  0.58321565  0.32744769  0.82318218  1
  Ca2+  Ca21  1  0.57382223  0.83173030  0.16500218  1
  Ca2+  Ca22  1  0.57881613  0.82670474  0.49152161  1
  Ca2+  Ca23  1  0.57900992  0.83788797  0.83323271  1
  Ca2+  Ca24  1  0.32549947  0.42123382  0.17711972  1
  Ca2+  Ca25  1  0.34136139  0.42447046  0.49670137  1
  Ca2+  Ca26  1  0.33037251  0.42921969  0.84227138  1
  Ca2+  Ca27  1  0.34239857  0.92385165  0.17159702  1
  Ca2+  Ca28  1  0.33332303  0.92146526  0.50111687  1
  Ca2+  Ca29  1  0.32796589  0.92143063  0.84049724  1
  Ca2+  Ca30  1  0.83641279  0.42112796  0.17270597  1
  Ca2+  Ca31  1  0.82852846  0.41120539  0.50132941  1
  Ca2+  Ca32  1  0.82575298  0.41880892  0.83840130  1
  Ca2+  Ca33  1  0.82960353  0.91475829  0.17329944  1
  Ca2+  Ca34  1  0.82858026  0.92095539  0.50144856  1
  Ca2+  Ca35  1  0.81956803  0.91303649  0.84007893  1
  Ca2+  Ca36  1  0.41101760  0.16709515  0.16515483  1
  Ca2+  Ca37  1  0.42812948  0.16854220  0.48767767  1
  Ca2+  Ca38  1  0.41973869  0.16650319  0.82928389  1
  Ca2+  Ca39  1  0.41245796  0.67348857  0.16397096  1
  Ca2+  Ca40  1  0.41816271  0.66969808  0.48854890  1
  Ca2+  Ca41  1  0.40624994  0.67062956  0.83201751  1
  Ca2+  Ca42  1  0.92031154  0.16833561  0.17157115  1
  Ca2+  Ca43  1  0.92669593  0.16752184  0.48819761  1
  Ca2+  Ca44  1  0.92546218  0.16807426  0.82538111  1
  Ca2+  Ca45  1  0.91333269  0.67597780  0.15915611  1
  Ca2+  Ca46  1  0.91947077  0.67546003  0.49090220  1
  Ca2+  Ca47  1  0.91181609  0.66934783  0.83646634  1
  Al0+  Al48  1  -0.00157115  0.00109165  -0.00751532  1
  Al0+  Al49  1  -0.00173456  0.00127236  0.32857368  1
  Al0+  Al50  1  -0.00028490  0.00110398  0.66618750  1
  Al0+  Al51  1  -0.00199900  0.49914541  0.00463423  1
  Al0+  Al52  1  0.00020894  0.50020306  0.33694266  1
  Al0+  Al53  1  0.00154709  0.50327669  0.66551062  1
  Al0+  Al54  1  0.50044243  -0.00261780  0.00293424  1
  Al0+  Al55  1  0.50144029  -0.00343129  0.33312496  1
  Al0+  Al56  1  0.50025744  0.00053421  0.66548835  1
  Al0+  Al57  1  0.50092311  0.49888820  0.00229863  1
  Al0+  Al58  1  0.50307794  0.49800400  0.32817869  1
  Al0+  Al59  1  0.50178681  0.50192386  0.67724877  1
  Al0+  Al60  1  0.25100509  0.24917567  0.00281275  1
  Al0+  Al61  1  0.25089107  0.24879767  0.33670733  1
  Al0+  Al62  1  0.25032710  0.25230461  0.66119469  1
  Al0+  Al63  1  0.24749077  0.75032010  -0.00099294  1
  Al0+  Al64  1  0.24917526  0.74986684  0.33245179  1
  Al0+  Al65  1  0.24795070  0.75217547  0.67351177  1
  Al0+  Al66  1  0.75088696  0.24833074  -0.00268924  1
  Al0+  Al67  1  0.75220657  0.24899864  0.32881168  1
  Al0+  Al68  1  0.75050914  0.25089282  0.66911622  1
  Al0+  Al69  1  0.74805972  0.74943289  0.00202677  1
  Al0+  Al70  1  0.74986850  0.74979699  0.32902464  1
  Al0+  Al71  1  0.74888261  0.75166843  0.66944504  1
  Al0+  Al72  1  0.32338724  0.57157559  0.34814202  1
  Al0+  Al73  1  0.92939944  0.32259997  0.31806737  1
  Al0+  Al74  1  0.32331337  0.06954137  0.34826089  1
  Al0+  Al75  1  0.42662699  0.81997260  0.31972940  1
  Al0+  Al76  1  0.32225438  0.57392476  0.01749639  1
  Al0+  Al77  1  0.57143997  0.67684930  0.31924449  1
  Al0+  Al78  1  0.81760541  0.56841436  0.01394189  1
  Al0+  Al79  1  0.67837121  0.92930084  0.67987520  1
  Al0+  Al80  1  0.57288926  0.17671858  0.31779792  1
  Al0+  Al81  1  0.82027539  0.07075279  0.34655067  1
  Al0+  Al82  1  0.31956302  0.06787769  0.01212938  1
  Al0+  Al83  1  0.42826475  0.82016747  0.98393289  1
  Al0+  Al84  1  0.07226907  0.17895398  0.31628547  1
  Al0+  Al85  1  0.17824746  0.42792039  0.35206984  1
  Al0+  Al86  1  0.92751813  0.82121445  0.98312942  1
  Al0+  Al87  1  0.93014003  0.82062858  0.32086800  1
  Al0+  Al88  1  0.57029737  0.17847523  0.65354138  1
  Al0+  Al89  1  0.42919873  0.31961227  0.31848120  1
  Al0+  Al90  1  0.68119560  0.42886860  0.67927176  1
  Al0+  Al91  1  0.07141156  0.17929701  0.65202178  1
  Al0+  Al92  1  0.67984222  0.92984932  0.01594251  1
  Al0+  Al93  1  0.32104612  0.57123746  0.68117680  1
  Al0+  Al94  1  0.17950228  0.42830134  0.01468477  1
  Al0+  Al95  1  0.17800533  0.93135209  0.67955961  1
  Si0+  Si96  1  0.92866482  0.32423205  0.65177844  1
  Si0+  Si97  1  0.82174813  0.07200962  0.68353657  1
  Si0+  Si98  1  0.57117979  0.17859570  0.98465033  1
  Si0+  Si99  1  0.67754838  0.42325725  0.01883332  1
  Si0+  Si100  1  0.92810717  0.32200273  0.98325193  1
  Si0+  Si101  1  0.17676923  0.42830216  0.68274732  1
  Si0+  Si102  1  0.68149672  0.42834735  0.34669956  1
  Si0+  Si103  1  0.57150904  0.67653980  0.98071116  1
  Si0+  Si104  1  0.07252498  0.68047279  0.65155121  1
  Si0+  Si105  1  0.82392654  0.07299329  0.01575146  1
  Si0+  Si106  1  0.17408063  0.92835539  0.01575432  1
  Si0+  Si107  1  0.43011010  0.32553526  0.65204755  1
  Si0+  Si108  1  0.17611083  0.92901259  0.34729508  1
  Si0+  Si109  1  0.06905015  0.67688688  0.98263154  1
  Si0+  Si110  1  0.92742430  0.81994092  0.65166020  1
  Si0+  Si111  1  0.82396518  0.57409576  0.68192488  1
  Si0+  Si112  1  0.67936829  0.92636911  0.35132323  1
  Si0+  Si113  1  0.07258470  0.18074699  0.98363087  1
  Si0+  Si114  1  0.82111499  0.57345973  0.34905424  1
  Si0+  Si115  1  0.42876204  0.32015065  0.98426539  1
  Si0+  Si116  1  0.42727305  0.82026143  0.65329332  1
  Si0+  Si117  1  0.57139499  0.67939394  0.65461175  1
  Si0+  Si118  1  0.32217056  0.07346364  0.68137117  1
  Si0+  Si119  1  0.07213234  0.67733782  0.31708722  1
  O2-  O120  1  0.24589244  -0.00723777  0.05986013  1
  O2-  O121  1  0.24734888  -0.00541438  0.39265291  1
  O2-  O122  1  0.25124266  0.00740517  0.72636233  1
  O2-  O123  1  0.25171606  0.49961735  0.06451734  1
  O2-  O124  1  0.25267878  0.49903191  0.40012165  1
  O2-  O125  1  0.24752339  0.49455712  0.72687555  1
  O2-  O126  1  0.75684468  0.00324090  0.05966834  1
  O2-  O127  1  0.74426548  -0.00136380  0.39556687  1
  O2-  O128  1  0.75092244  0.00579379  0.72812482  1
  O2-  O129  1  0.74356767  0.49431680  0.06253030  1
  O2-  O130  1  0.75167263  0.50056227  0.38995829  1
  O2-  O131  1  0.75867725  0.50153809  0.72490865  1
  O2-  O132  1  0.00447487  0.25514954  0.26616285  1
  O2-  O133  1  -0.00225863  0.25635257  0.60823459  1
  O2-  O134  1  0.00029191  0.25152349  0.94181038  1
  O2-  O135  1  0.00397891  0.74627464  0.27265036  1
  O2-  O136  1  -0.00036475  0.75014367  0.60950766  1
  O2-  O137  1  0.00376925  0.74826582  0.93540779  1
  O2-  O138  1  0.49518555  0.24211672  0.26711159  1
  O2-  O139  1  0.49564680  0.25359754  0.60848610  1
  O2-  O140  1  0.50240097  0.25173655  0.94123328  1
  O2-  O141  1  0.49556152  0.74472940  0.27028129  1
  O2-  O142  1  0.49888075  0.74881667  0.61266048  1
  O2-  O143  1  0.49864809  0.74098116  0.93569761  1
  O2-  O144  1  0.07298416  0.17930727  0.08776041  1
  O2-  O145  1  0.06793409  0.17698759  0.43010757  1
  O2-  O146  1  0.07007478  0.18068397  0.76601038  1
  O2-  O147  1  0.06534659  0.67760660  0.08779130  1
  O2-  O148  1  0.07016435  0.67971820  0.42350241  1
  O2-  O149  1  0.07133240  0.67955636  0.75642442  1
  O2-  O150  1  0.57234179  0.18006112  0.08902820  1
  O2-  O151  1  0.57414949  0.18159410  0.43180282  1
  O2-  O152  1  0.56727968  0.17854311  0.76740474  1
  O2-  O153  1  0.57379413  0.67883328  0.08573706  1
  O2-  O154  1  0.57348985  0.67896788  0.43400875  1
  O2-  O155  1  0.57358305  0.68016751  0.75939941  1
  O2-  O156  1  0.17770920  0.43188494  0.23854737  1
  O2-  O157  1  0.17310183  0.43086476  0.57823353  1
  O2-  O158  1  0.18121773  0.42767528  0.90009367  1
  O2-  O159  1  0.17365178  0.93086053  0.24177275  1
  O2-  O160  1  0.17860061  0.92873150  0.56684234  1
  O2-  O161  1  0.17349970  0.93247024  0.90964677  1
  O2-  O162  1  0.68366838  0.42832220  0.24168000  1
  O2-  O163  1  0.68076615  0.43058873  0.56627043  1
  O2-  O164  1  0.68023245  0.42187721  0.91259534  1
  O2-  O165  1  0.68250198  0.92529312  0.24578663  1
  O2-  O166  1  0.68198487  0.92443709  0.56761559  1
  O2-  O167  1  0.67897148  0.93233998  0.90207739  1
  O2-  O168  1  0.42806633  0.31794527  0.08861220  1
  O2-  O169  1  0.43611204  0.32254370  0.43249235  1
  O2-  O170  1  0.43132835  0.32448860  0.75833141  1
  O2-  O171  1  0.43181262  0.82226742  0.09611810  1
  O2-  O172  1  0.42840640  0.81999940  0.43436244  1
  O2-  O173  1  0.42768463  0.82066188  0.75849276  1
  O2-  O174  1  0.92448579  0.32158550  0.08722985  1
  O2-  O175  1  0.92744060  0.31980372  0.43219769  1
  O2-  O176  1  0.92909514  0.32403932  0.75794770  1
  O2-  O177  1  0.92880084  0.82102477  0.09591438  1
  O2-  O178  1  0.93015872  0.81867079  0.43481501  1
  O2-  O179  1  0.92655241  0.81773110  0.75672035  1
  O2-  O180  1  0.32200113  0.06747584  0.23501645  1
  O2-  O181  1  0.32381918  0.07026723  0.57641953  1
  O2-  O182  1  0.31742261  0.06969612  0.89828786  1
  O2-  O183  1  0.32031149  0.57161515  0.23526083  1
  O2-  O184  1  0.32240798  0.57230276  0.56865564  1
  O2-  O185  1  0.31907582  0.57102271  0.90303853  1
  O2-  O186  1  0.81976838  0.06801053  0.23338458  1
  O2-  O187  1  0.82208749  0.07041514  0.57827680  1
  O2-  O188  1  0.82309778  0.07432907  0.90964836  1
  O2-  O189  1  0.82006411  0.57504678  0.24409105  1
  O2-  O190  1  0.82331885  0.57714042  0.57653148  1
  O2-  O191  1  0.81655122  0.56545281  0.90006268  1
  O2-  O192  1  0.03879372  0.08330950  0.26124911  1
  O2-  O193  1  0.03891654  0.08289607  0.59867952  1
  O2-  O194  1  0.04410617  0.08985975  0.93347729  1
  O2-  O195  1  0.04510085  0.58434157  0.27266452  1
  O2-  O196  1  0.04657966  0.58866525  0.60255757  1
  O2-  O197  1  0.03897599  0.58406329  0.93589014  1
  O2-  O198  1  0.55229407  0.07538157  0.26986197  1
  O2-  O199  1  0.54176353  0.08188564  0.59850778  1
  O2-  O200  1  0.53993173  0.08748201  0.93802003  1
  O2-  O201  1  0.55329220  0.57753004  0.26541565  1
  O2-  O202  1  0.54521809  0.58609126  0.60959719  1
  O2-  O203  1  0.55260173  0.57943405  0.93714378  1
  O2-  O204  1  0.17246734  0.20302179  0.26680404  1
  O2-  O205  1  0.16897779  0.20618404  0.59814629  1
  O2-  O206  1  0.16370416  0.21001938  0.93472183  1
  O2-  O207  1  0.16518768  0.70123554  0.27060987  1
  O2-  O208  1  0.16310218  0.71192631  0.60425820  1
  O2-  O209  1  0.16358975  0.69942318  0.93691159  1
  O2-  O210  1  0.66795026  0.21077297  0.26262871  1
  O2-  O211  1  0.66880718  0.20891022  0.60323872  1
  O2-  O212  1  0.66381549  0.20388555  0.93584655  1
  O2-  O213  1  0.66751348  0.70981727  0.26418262  1
  O2-  O214  1  0.66301993  0.70755511  0.60633414  1
  O2-  O215  1  0.66352996  0.70668548  0.93353369  1
  O2-  O216  1  0.08028644  0.45368600  0.06591049  1
  O2-  O217  1  0.07966286  0.45797715  0.40543887  1
  O2-  O218  1  0.08366830  0.45638395  0.73035925  1
  O2-  O219  1  0.08063906  0.95779460  0.05981594  1
  O2-  O220  1  0.08369662  0.95757597  0.39453909  1
  O2-  O221  1  0.08090586  0.96071753  0.73466036  1
  O2-  O222  1  0.58267965  0.44509640  0.06230700  1
  O2-  O223  1  0.59026779  0.45523382  0.39512109  1
  O2-  O224  1  0.58813311  0.46126994  0.73943721  1
  O2-  O225  1  0.58505727  0.96231797  0.07034674  1
  O2-  O226  1  0.58470362  0.94629121  0.39639238  1
  O2-  O227  1  0.58139595  0.95989523  0.73436260  1
  O2-  O228  1  0.20865061  0.33057533  0.06706118  1
  O2-  O229  1  0.20447667  0.32887979  0.40360169  1
  O2-  O230  1  0.20050198  0.33309158  0.72703617  1
  O2-  O231  1  0.19227417  0.83251247  0.05803341  1
  O2-  O232  1  0.19706624  0.83388631  0.39260077  1
  O2-  O233  1  0.20759866  0.83659453  0.73790323  1
  O2-  O234  1  0.70632187  0.33016650  0.06319356  1
  O2-  O235  1  0.71192922  0.33770291  0.39465853  1
  O2-  O236  1  0.71053481  0.33310454  0.73728681  1
  O2-  O237  1  0.70915443  0.83305623  0.06809253  1
  O2-  O238  1  0.71083082  0.83410375  0.39769278  1
  O2-  O239  1  0.71102660  0.83410578  0.73678772  1
  O2-  O240  1  0.46366382  0.41430540  0.26225335  1
  O2-  O241  1  0.46124465  0.41861805  0.60860591  1
  O2-  O242  1  0.45479257  0.41331011  0.93754286  1
  O2-  O243  1  0.46000247  0.91581669  0.26559550  1
  O2-  O244  1  0.45523606  0.91190190  0.60625766  1
  O2-  O245  1  0.46422647  0.91602810  0.92960990  1
  O2-  O246  1  0.95122769  0.42434655  0.26919811  1
  O2-  O247  1  0.95060734  0.41946561  0.60693128  1
  O2-  O248  1  0.95486270  0.41398804  0.93519379  1
  O2-  O249  1  0.95979805  0.91532962  0.26407713  1
  O2-  O250  1  0.95419179  0.91254482  0.60634006  1
  O2-  O251  1  0.95582806  0.91824582  0.92710650  1
  O2-  O252  1  0.32930500  0.29598046  0.26837271  1
  O2-  O253  1  0.33512206  0.30649813  0.60694405  1
  O2-  O254  1  0.33824866  0.28915921  0.93527826  1
  O2-  O255  1  0.32693361  0.79800669  0.26654068  1
  O2-  O256  1  0.33487788  0.79251273  0.60784040  1
  O2-  O257  1  0.32838357  0.79523096  0.93115174  1
  O2-  O258  1  0.83387756  0.29107167  0.26189672  1
  O2-  O259  1  0.83461700  0.29882236  0.60714163  1
  O2-  O260  1  0.83708558  0.29219655  0.93303316  1
  O2-  O261  1  0.83519494  0.78849131  0.26591791  1
  O2-  O262  1  0.83631246  0.79009154  0.60391367  1
  O2-  O263  1  0.83122509  0.78584035  0.93046433  1
  O2-  O264  1  0.41577759  0.03870571  0.06578396  1
  O2-  O265  1  0.41980119  0.03694417  0.40273539  1
  O2-  O266  1  0.41438987  0.04504121  0.72890310  1
  O2-  O267  1  0.42332365  0.54918413  0.06487785  1
  O2-  O268  1  0.42374191  0.54198397  0.39811593  1
  O2-  O269  1  0.41667896  0.54370608  0.73903919  1
  O2-  O270  1  0.91873002  0.04899208  0.05895286  1
  O2-  O271  1  0.91624316  0.03719064  0.40048116  1
  O2-  O272  1  0.91417795  0.04395339  0.73068301  1
  O2-  O273  1  0.91355403  0.53955725  0.06866256  1
  O2-  O274  1  0.91287835  0.54925253  0.39800902  1
  O2-  O275  1  0.91887902  0.55294039  0.72784687  1
  O2-  O276  1  0.28881689  0.16375312  0.06604967  1
  O2-  O277  1  0.29569261  0.16600393  0.40309308  1
  O2-  O278  1  0.29925666  0.16928061  0.72518351  1
  O2-  O279  1  0.29217906  0.67282253  0.06725828  1
  O2-  O280  1  0.29291446  0.67038872  0.40113224  1
  O2-  O281  1  0.28603563  0.66601405  0.73627899  1
  O2-  O282  1  0.79758657  0.16659148  0.06083036  1
  O2-  O283  1  0.79134497  0.16811702  0.40029873  1
  O2-  O284  1  0.80065454  0.16671135  0.72961367  1
  O2-  O285  1  0.78743394  0.66484232  0.06752749  1
  O2-  O286  1  0.79056387  0.66411727  0.39779972  1
  O2-  O287  1  0.79322842  0.66501071  0.73069226  1
