# generated using pymatgen
data_Ca2Al2SiO7
_symmetry_space_group_name_H-M   'P 1'
_cell_length_a   15.46248621
_cell_length_b   15.46260015
_cell_length_c   15.28666467
_cell_angle_alpha   89.99153695
_cell_angle_beta   89.98855134
_cell_angle_gamma   89.97711771
_symmetry_Int_Tables_number   1
_chemical_formula_structural   Ca2Al2SiO7
_chemical_formula_sum   'Ca48 Al48 Si24 O168'
_cell_volume   3654.89194381
_cell_formula_units_Z   24
loop_
 _symmetry_equiv_pos_site_id
 _symmetry_equiv_pos_as_xyz
  1  'x, y, z'
loop_
 _atom_type_symbol
 _atom_type_oxidation_number
  Ca2+  2.0
  Al0+  0.0
  Si0+  0.0
  O2-  -2.0
loop_
 _atom_site_type_symbol
 _atom_site_label
 _atom_site_symmetry_multiplicity
 _atom_site_fract_x
 _atom_site_fract_y
 _atom_site_fract_z
 _atom_site_occupancy
  Ca2+  Ca0  1  0.16321723  0.07479376  0.17529623  1
  Ca2+  Ca1  1  0.16628917  0.08083303  0.49820340  1
  Ca2+  Ca2  1  0.16753062  0.07527589  0.84320034  1
  Ca2+  Ca3  1  0.17674260  0.58928406  0.17500256  1
  Ca2+  Ca4  1  0.17397383  0.59135661  0.50305146  1
  Ca2+  Ca5  1  0.17701589  0.59188368  0.83348072  1
  Ca2+  Ca6  1  0.66659992  0.08164380  0.17453500  1
  Ca2+  Ca7  1  0.66352617  0.08144914  0.50687723  1
  Ca2+  Ca8  1  0.66311893  0.07734582  0.83059480  1
  Ca2+  Ca9  1  0.68103222  0.58621393  0.17271165  1
  Ca2+  Ca10  1  0.67203964  0.58758339  0.50364750  1
  Ca2+  Ca11  1  0.66966011  0.58878794  0.83660064  1
  Ca2+  Ca12  1  0.08650660  0.32310310  0.16859779  1
  Ca2+  Ca13  1  0.07910524  0.32788209  0.48941696  1
  Ca2+  Ca14  1  0.08752977  0.32667812  0.83376795  1
  Ca2+  Ca15  1  0.07854499  0.83587539  0.16506550  1
  Ca2+  Ca16  1  0.07728714  0.82627054  0.49379051  1
  Ca2+  Ca17  1  0.07486770  0.83053580  0.82919917  1
  Ca2+  Ca18  1  0.57934504  0.32997103  0.17114863  1
  Ca2+  Ca19  1  0.57461039  0.32476196  0.49463038  1
  Ca2+  Ca20  1  0.57728829  0.32823671  0.82263880  1
  Ca2+  Ca21  1  0.57185690  0.83176275  0.16164461  1
  Ca2+  Ca22  1  0.57995694  0.83325915  0.50435449  1
  Ca2+  Ca23  1  0.57192246  0.82832681  0.82344737  1
  Ca2+  Ca24  1  0.33520362  0.42699106  0.17519349  1
  Ca2+  Ca25  1  0.34248368  0.42393521  0.50313421  1
  Ca2+  Ca26  1  0.33955792  0.42869902  0.83413253  1
  Ca2+  Ca27  1  0.31872682  0.91751334  0.17497754  1
  Ca2+  Ca28  1  0.32972478  0.91889577  0.50079977  1
  Ca2+  Ca29  1  0.32818044  0.90965548  0.84041967  1
  Ca2+  Ca30  1  0.83877515  0.42666138  0.17479273  1
  Ca2+  Ca31  1  0.84035801  0.42245422  0.50091567  1
  Ca2+  Ca32  1  0.82880473  0.42678881  0.84231439  1
  Ca2+  Ca33  1  0.83538744  0.91180326  0.17206108  1
  Ca2+  Ca34  1  0.83079837  0.91223626  0.50585512  1
  Ca2+  Ca35  1  0.82792763  0.90537278  0.83412363  1
  Ca2+  Ca36  1  0.41255892  0.16668873  0.16982109  1
  Ca2+  Ca37  1  0.42203443  0.17362582  0.49002116  1
  Ca2+  Ca38  1  0.42266489  0.17442029  0.82111544  1
  Ca2+  Ca39  1  0.40999686  0.66941462  0.16060374  1
  Ca2+  Ca40  1  0.41627023  0.66591426  0.49993677  1
  Ca2+  Ca41  1  0.41413994  0.67383022  0.82472073  1
  Ca2+  Ca42  1  0.92951182  0.16753298  0.16737641  1
  Ca2+  Ca43  1  0.92182517  0.17377457  0.48880177  1
  Ca2+  Ca44  1  0.92380119  0.16467723  0.83324538  1
  Ca2+  Ca45  1  0.91902070  0.67218913  0.16459789  1
  Ca2+  Ca46  1  0.92712858  0.67295823  0.49041312  1
  Ca2+  Ca47  1  0.91982262  0.67489418  0.82572820  1
  Al0+  Al48  1  -0.00143084  -0.00044323  -0.00543342  1
  Al0+  Al49  1  -0.00315434  -0.00056152  0.33325932  1
  Al0+  Al50  1  -0.00007698  0.00119763  0.66540546  1
  Al0+  Al51  1  0.00107625  0.49853063  0.00353386  1
  Al0+  Al52  1  0.00225183  0.50245448  0.33057376  1
  Al0+  Al53  1  0.00247068  0.49908167  0.66804940  1
  Al0+  Al54  1  0.49994194  0.00007550  -0.00406227  1
  Al0+  Al55  1  0.49931703  -0.00121404  0.33287470  1
  Al0+  Al56  1  0.50119038  -0.00042038  0.66606305  1
  Al0+  Al57  1  0.50184170  0.49822777  0.00491393  1
  Al0+  Al58  1  0.50293965  0.49908565  0.33292894  1
  Al0+  Al59  1  0.50146280  0.50064273  0.66576360  1
  Al0+  Al60  1  0.25135829  0.25063476  -0.00608434  1
  Al0+  Al61  1  0.25169549  0.25065030  0.32889083  1
  Al0+  Al62  1  0.24951822  0.25109010  0.66460718  1
  Al0+  Al63  1  0.24803600  0.75120848  0.00454673  1
  Al0+  Al64  1  0.24925889  0.75076077  0.33962706  1
  Al0+  Al65  1  0.24907857  0.75119651  0.66475134  1
  Al0+  Al66  1  0.75021377  0.24910133  -0.00000196  1
  Al0+  Al67  1  0.74818060  0.25017908  0.32588277  1
  Al0+  Al68  1  0.75166569  0.25027459  0.66702412  1
  Al0+  Al69  1  0.74881723  0.74990814  0.00238594  1
  Al0+  Al70  1  0.74960379  0.74913207  0.33529571  1
  Al0+  Al71  1  0.74820000  0.75221489  0.66611352  1
  Al0+  Al72  1  0.82253554  0.57065767  0.34914920  1
  Al0+  Al73  1  0.57265522  0.17901759  0.65234719  1
  Al0+  Al74  1  0.92815429  0.32362067  0.31845484  1
  Al0+  Al75  1  0.57116887  0.67853561  0.65217101  1
  Al0+  Al76  1  0.42697457  0.81958724  0.98842859  1
  Al0+  Al77  1  0.32073240  0.57037166  0.68041456  1
  Al0+  Al78  1  0.42818251  0.32170596  0.65161058  1
  Al0+  Al79  1  0.92699114  0.81980343  0.31770476  1
  Al0+  Al80  1  0.92854370  0.82185096  0.65156564  1
  Al0+  Al81  1  0.92772215  0.81931202  0.98509599  1
  Al0+  Al82  1  0.07386509  0.68064512  0.31632685  1
  Al0+  Al83  1  0.07161565  0.17814212  0.31960795  1
  Al0+  Al84  1  0.17531595  0.93005400  0.35140865  1
  Al0+  Al85  1  0.17764142  0.93084943  0.01274614  1
  Al0+  Al86  1  0.67905528  0.92945201  0.68171880  1
  Al0+  Al87  1  0.42663608  0.82202496  0.65050193  1
  Al0+  Al88  1  0.32134402  0.07160047  0.34824781  1
  Al0+  Al89  1  0.32285992  0.57072937  0.34881286  1
  Al0+  Al90  1  0.07077884  0.17940771  0.98531886  1
  Al0+  Al91  1  0.31982494  0.56992689  0.01319871  1
  Al0+  Al92  1  0.56971664  0.17594475  0.31638943  1
  Al0+  Al93  1  0.07087629  0.67752044  0.65240195  1
  Al0+  Al94  1  0.42935374  0.32263462  0.31567622  1
  Al0+  Al95  1  0.82069706  0.57164380  0.01360936  1
  Si0+  Si96  1  0.07213114  0.67580570  0.98391983  1
  Si0+  Si97  1  0.92747385  0.32251726  0.98232070  1
  Si0+  Si98  1  0.68000937  0.42730255  0.35154218  1
  Si0+  Si99  1  0.17813611  0.93082008  0.68326650  1
  Si0+  Si100  1  0.92949457  0.32114944  0.65470206  1
  Si0+  Si101  1  0.43101303  0.32196410  0.98368774  1
  Si0+  Si102  1  0.82222092  0.57084472  0.68122525  1
  Si0+  Si103  1  0.42932539  0.81977282  0.31904769  1
  Si0+  Si104  1  0.67777166  0.92823590  0.34810247  1
  Si0+  Si105  1  0.17915714  0.42458760  0.01748489  1
  Si0+  Si106  1  0.57152292  0.67872459  0.31810316  1
  Si0+  Si107  1  0.32332608  0.07345251  0.01370952  1
  Si0+  Si108  1  0.81849327  0.07199830  0.34676124  1
  Si0+  Si109  1  0.82001492  0.07129334  0.01531744  1
  Si0+  Si110  1  0.67890057  0.42498644  0.01852745  1
  Si0+  Si111  1  0.68091281  0.42831503  0.68128332  1
  Si0+  Si112  1  0.17637693  0.42549364  0.68495914  1
  Si0+  Si113  1  0.07118511  0.17907422  0.65202351  1
  Si0+  Si114  1  0.17922192  0.42787693  0.34898660  1
  Si0+  Si115  1  0.57083211  0.67769938  0.98615689  1
  Si0+  Si116  1  0.67771200  0.92996079  0.01566581  1
  Si0+  Si117  1  0.32022504  0.07232844  0.68131679  1
  Si0+  Si118  1  0.82335834  0.07378515  0.68468609  1
  Si0+  Si119  1  0.57305074  0.17835203  0.98281908  1
  O2-  O120  1  0.25399663  0.00549767  0.05700068  1
  O2-  O121  1  0.24721222  0.00327164  0.40052420  1
  O2-  O122  1  0.25142769  0.00009478  0.72576908  1
  O2-  O123  1  0.24482867  0.49608751  0.06101620  1
  O2-  O124  1  0.24869162  0.49491239  0.39432019  1
  O2-  O125  1  0.24539336  0.49523467  0.72712351  1
  O2-  O126  1  0.74906286  0.00037869  0.05819555  1
  O2-  O127  1  0.74776981  0.00109741  0.38881117  1
  O2-  O128  1  0.75555960  0.00370820  0.72849465  1
  O2-  O129  1  0.74801943  0.49423461  0.06040527  1
  O2-  O130  1  0.75134118  0.49268544  0.39676054  1
  O2-  O131  1  0.75023437  0.50080342  0.72448031  1
  O2-  O132  1  0.00069451  0.25168273  0.26975477  1
  O2-  O133  1  0.00013063  0.25060900  0.61202626  1
  O2-  O134  1  -0.00303754  0.25517233  0.93716847  1
  O2-  O135  1  0.00078027  0.75120354  0.26604908  1
  O2-  O136  1  -0.00195647  0.74816719  0.60244414  1
  O2-  O137  1  0.00013027  0.74152195  0.94010154  1
  O2-  O138  1  0.49685437  0.24621397  0.26502698  1
  O2-  O139  1  0.49787365  0.24728885  0.60290830  1
  O2-  O140  1  0.50124677  0.24935501  0.94208514  1
  O2-  O141  1  0.49687076  0.74560323  0.27580575  1
  O2-  O142  1  0.49736935  0.74810312  0.60141192  1
  O2-  O143  1  0.49853991  0.74180334  0.94193781  1
  O2-  O144  1  0.06908942  0.18004562  0.09749601  1
  O2-  O145  1  0.06743010  0.17991748  0.43377050  1
  O2-  O146  1  0.07077657  0.17886683  0.75738374  1
  O2-  O147  1  0.07296160  0.67697559  0.08899821  1
  O2-  O148  1  0.07219830  0.68100591  0.42979386  1
  O2-  O149  1  0.06914115  0.67787709  0.76672947  1
  O2-  O150  1  0.57456159  0.17673595  0.08723998  1
  O2-  O151  1  0.57138684  0.17704867  0.42947565  1
  O2-  O152  1  0.57209832  0.18232194  0.76691992  1
  O2-  O153  1  0.57236358  0.68062521  0.09198119  1
  O2-  O154  1  0.57323269  0.68061032  0.42269869  1
  O2-  O155  1  0.57151946  0.67938940  0.76639752  1
  O2-  O156  1  0.18076838  0.42854972  0.24318958  1
  O2-  O157  1  0.17188381  0.42170055  0.58013189  1
  O2-  O158  1  0.18117648  0.42197726  0.91178431  1
  O2-  O159  1  0.17680615  0.93069929  0.23733999  1
  O2-  O160  1  0.17558463  0.93419503  0.57878918  1
  O2-  O161  1  0.17857258  0.93160933  0.89898894  1
  O2-  O162  1  0.67923257  0.43051136  0.24563105  1
  O2-  O163  1  0.68463743  0.42529869  0.57687687  1
  O2-  O164  1  0.67882739  0.42315372  0.91251686  1
  O2-  O165  1  0.67719051  0.92819638  0.24231557  1
  O2-  O166  1  0.68042546  0.93106013  0.56860038  1
  O2-  O167  1  0.67735466  0.93078833  0.91093073  1
  O2-  O168  1  0.43141564  0.32242612  0.08806812  1
  O2-  O169  1  0.43395450  0.32411966  0.42879602  1
  O2-  O170  1  0.43104175  0.32038819  0.76629365  1
  O2-  O171  1  0.42990246  0.82040704  0.10174801  1
  O2-  O172  1  0.43243427  0.82146326  0.42363196  1
  O2-  O173  1  0.42677987  0.82028226  0.76474365  1
  O2-  O174  1  0.92557896  0.32116033  0.08708134  1
  O2-  O175  1  0.92874556  0.32022224  0.43306001  1
  O2-  O176  1  0.92885701  0.32038099  0.75992934  1
  O2-  O177  1  0.92660836  0.82009436  0.09743818  1
  O2-  O178  1  0.92447010  0.81800440  0.43085361  1
  O2-  O179  1  0.93013341  0.81978362  0.76572363  1
  O2-  O180  1  0.32260969  0.06580278  0.23414763  1
  O2-  O181  1  0.31671925  0.07405419  0.57696689  1
  O2-  O182  1  0.32315132  0.07383294  0.90765146  1
  O2-  O183  1  0.32241902  0.57047313  0.23522053  1
  O2-  O184  1  0.32054902  0.56821381  0.56786730  1
  O2-  O185  1  0.32089580  0.56896232  0.90007916  1
  O2-  O186  1  0.81767536  0.07115431  0.24131748  1
  O2-  O187  1  0.82418200  0.07742698  0.57932492  1
  O2-  O188  1  0.81779208  0.07453937  0.91029385  1
  O2-  O189  1  0.81796424  0.57193321  0.23583871  1
  O2-  O190  1  0.82302377  0.56732656  0.57654060  1
  O2-  O191  1  0.81717909  0.57018372  0.89978848  1
  O2-  O192  1  0.03728410  0.08212718  0.26633687  1
  O2-  O193  1  0.04281295  0.08847519  0.60414488  1
  O2-  O194  1  0.03588925  0.08568209  0.92811288  1
  O2-  O195  1  0.04861865  0.58166240  0.26417247  1
  O2-  O196  1  0.04595730  0.57740317  0.60145091  1
  O2-  O197  1  0.05187699  0.57979749  0.93988917  1
  O2-  O198  1  0.54310923  0.07681205  0.26282447  1
  O2-  O199  1  0.54901051  0.07961375  0.60268882  1
  O2-  O200  1  0.54563205  0.08680783  0.93445482  1
  O2-  O201  1  0.54974490  0.58579576  0.27086932  1
  O2-  O202  1  0.54873643  0.57933551  0.59953144  1
  O2-  O203  1  0.55227091  0.58095706  0.94341538  1
  O2-  O204  1  0.16964496  0.20356404  0.26554504  1
  O2-  O205  1  0.16230279  0.20630408  0.60455932  1
  O2-  O206  1  0.16732310  0.20940693  0.92902642  1
  O2-  O207  1  0.17294301  0.71069037  0.26545950  1
  O2-  O208  1  0.16784123  0.70757818  0.60026118  1
  O2-  O209  1  0.16400977  0.70708253  0.93771503  1
  O2-  O210  1  0.66652805  0.20632334  0.26065605  1
  O2-  O211  1  0.67135719  0.20875039  0.60115525  1
  O2-  O212  1  0.66484386  0.20673008  0.93519781  1
  O2-  O213  1  0.66085489  0.71197898  0.26916373  1
  O2-  O214  1  0.66819379  0.70931576  0.59846483  1
  O2-  O215  1  0.66229256  0.70791762  0.93890329  1
  O2-  O216  1  0.08354106  0.44389240  0.06153642  1
  O2-  O217  1  0.08538991  0.45287748  0.39488449  1
  O2-  O218  1  0.08328078  0.45005637  0.73456221  1
  O2-  O219  1  0.08071702  0.96369260  0.06448490  1
  O2-  O220  1  0.07632208  0.95865635  0.40356883  1
  O2-  O221  1  0.08698504  0.96220886  0.73137505  1
  O2-  O222  1  0.58603539  0.44984646  0.06596455  1
  O2-  O223  1  0.58836569  0.45684511  0.39843867  1
  O2-  O224  1  0.58944209  0.45514452  0.73014587  1
  O2-  O225  1  0.58595153  0.95977470  0.06302886  1
  O2-  O226  1  0.58637395  0.95502014  0.39578637  1
  O2-  O227  1  0.58273332  0.96118308  0.73809160  1
  O2-  O228  1  0.20878421  0.33175879  0.06320530  1
  O2-  O229  1  0.20160633  0.33301585  0.39390825  1
  O2-  O230  1  0.20341016  0.33214136  0.73275523  1
  O2-  O231  1  0.20725644  0.83549833  0.06876675  1
  O2-  O232  1  0.20762219  0.83360608  0.40496594  1
  O2-  O233  1  0.20428847  0.83835369  0.72980824  1
  O2-  O234  1  0.70458669  0.33132103  0.06463473  1
  O2-  O235  1  0.70209385  0.33143116  0.39429237  1
  O2-  O236  1  0.71111081  0.33790573  0.73209922  1
  O2-  O237  1  0.70360280  0.83812454  0.06377807  1
  O2-  O238  1  0.70677625  0.83770402  0.39636656  1
  O2-  O239  1  0.70866824  0.83275916  0.73815904  1
  O2-  O240  1  0.46537634  0.41900264  0.26144491  1
  O2-  O241  1  0.46026601  0.41837050  0.60025131  1
  O2-  O242  1  0.46223352  0.41334505  0.93641458  1
  O2-  O243  1  0.46101973  0.90910276  0.26945474  1
  O2-  O244  1  0.45789214  0.91946806  0.59884598  1
  O2-  O245  1  0.45925499  0.91568173  0.93340605  1
  O2-  O246  1  0.95676529  0.42102829  0.26546487  1
  O2-  O247  1  0.95685727  0.41251501  0.60712535  1
  O2-  O248  1  0.95255341  0.41658603  0.93624299  1
  O2-  O249  1  0.95041755  0.92011543  0.26705207  1
  O2-  O250  1  0.95624076  0.92126069  0.60086049  1
  O2-  O251  1  0.95718928  0.91548214  0.92981484  1
  O2-  O252  1  0.33038861  0.29947629  0.26226087  1
  O2-  O253  1  0.32862435  0.29704534  0.60043136  1
  O2-  O254  1  0.33950675  0.29666371  0.93469805  1
  O2-  O255  1  0.33640789  0.79397457  0.27418803  1
  O2-  O256  1  0.32830659  0.79705626  0.59817507  1
  O2-  O257  1  0.32972324  0.79076059  0.93513938  1
  O2-  O258  1  0.83068302  0.29602122  0.26419900  1
  O2-  O259  1  0.83860034  0.29419372  0.60612241  1
  O2-  O260  1  0.83397683  0.29468977  0.93558204  1
  O2-  O261  1  0.82828242  0.78946012  0.26504407  1
  O2-  O262  1  0.82880720  0.79764323  0.60223678  1
  O2-  O263  1  0.82939438  0.78906966  0.93297546  1
  O2-  O264  1  0.41773639  0.04893659  0.05856791  1
  O2-  O265  1  0.41913997  0.03942428  0.40109826  1
  O2-  O266  1  0.41360329  0.04798133  0.72749360  1
  O2-  O267  1  0.41755914  0.54027978  0.06677300  1
  O2-  O268  1  0.42123816  0.54059619  0.39974192  1
  O2-  O269  1  0.41822037  0.53972985  0.73473015  1
  O2-  O270  1  0.91175212  0.04244121  0.06072324  1
  O2-  O271  1  0.90939399  0.04590531  0.39622912  1
  O2-  O272  1  0.91744388  0.04872621  0.73111520  1
  O2-  O273  1  0.91824634  0.54267997  0.06644890  1
  O2-  O274  1  0.92035826  0.54189351  0.40148412  1
  O2-  O275  1  0.91305170  0.54088162  0.73008175  1
  O2-  O276  1  0.29883381  0.16814754  0.05761413  1
  O2-  O277  1  0.29817180  0.17280092  0.39771460  1
  O2-  O278  1  0.29091900  0.16404753  0.72988643  1
  O2-  O279  1  0.28958086  0.66609307  0.06786996  1
  O2-  O280  1  0.29328076  0.66695182  0.40305723  1
  O2-  O281  1  0.28872078  0.66795354  0.73380454  1
  O2-  O282  1  0.79244572  0.16309785  0.06333437  1
  O2-  O283  1  0.79090541  0.16464518  0.39308498  1
  O2-  O284  1  0.79661035  0.16672278  0.73348886  1
  O2-  O285  1  0.78594893  0.66624720  0.06944794  1
  O2-  O286  1  0.78536740  0.66521047  0.40328747  1
  O2-  O287  1  0.79350918  0.66270879  0.72744141  1
