# generated using pymatgen
data_Ca2Al2SiO7
_symmetry_space_group_name_H-M   'P 1'
_cell_length_a   15.46107930
_cell_length_b   15.46168402
_cell_length_c   15.28570893
_cell_angle_alpha   89.99568646
_cell_angle_beta   90.00629791
_cell_angle_gamma   89.96976925
_symmetry_Int_Tables_number   1
_chemical_formula_structural   Ca2Al2SiO7
_chemical_formula_sum   'Ca48 Al48 Si24 O168'
_cell_volume   3654.11425596
_cell_formula_units_Z   24
loop_
 _symmetry_equiv_pos_site_id
 _symmetry_equiv_pos_as_xyz
  1  'x, y, z'
loop_
 _atom_type_symbol
 _atom_type_oxidation_number
  Ca2+  2.0
  Al0+  0.0
  Si0+  0.0
  O2-  -2.0
loop_
 _atom_site_type_symbol
 _atom_site_label
 _atom_site_symmetry_multiplicity
 _atom_site_fract_x
 _atom_site_fract_y
 _atom_site_fract_z
 _atom_site_occupancy
  Ca2+  Ca0  1  0.17413568  0.09331208  0.17213597  1
  Ca2+  Ca1  1  0.17561349  0.09281243  0.50457513  1
  Ca2+  Ca2  1  0.17705172  0.09440232  0.83857171  1
  Ca2+  Ca3  1  0.15714975  0.57947661  0.16674520  1
  Ca2+  Ca4  1  0.15886612  0.57855137  0.50838356  1
  Ca2+  Ca5  1  0.15548465  0.57309423  0.83651977  1
  Ca2+  Ca6  1  0.66450013  0.08191574  0.16592614  1
  Ca2+  Ca7  1  0.66731753  0.08391079  0.50571333  1
  Ca2+  Ca8  1  0.66291430  0.08178139  0.84140469  1
  Ca2+  Ca9  1  0.66620866  0.57758984  0.17506641  1
  Ca2+  Ca10  1  0.67407982  0.57298526  0.50530374  1
  Ca2+  Ca11  1  0.67514837  0.58670519  0.83936401  1
  Ca2+  Ca12  1  0.07684242  0.32717671  0.16031344  1
  Ca2+  Ca13  1  0.07846862  0.32897780  0.49817434  1
  Ca2+  Ca14  1  0.08133401  0.33102088  0.82979797  1
  Ca2+  Ca15  1  0.08158312  0.82394515  0.16538214  1
  Ca2+  Ca16  1  0.08103920  0.82000719  0.49129399  1
  Ca2+  Ca17  1  0.09072571  0.81990346  0.82977772  1
  Ca2+  Ca18  1  0.57562523  0.33351563  0.16252724  1
  Ca2+  Ca19  1  0.57992116  0.32882449  0.49292451  1
  Ca2+  Ca20  1  0.58132980  0.31837697  0.82869467  1
  Ca2+  Ca21  1  0.57850477  0.83384862  0.16006980  1
  Ca2+  Ca22  1  0.57130027  0.83308089  0.49752582  1
  Ca2+  Ca23  1  0.58026902  0.83357016  0.83192232  1
  Ca2+  Ca24  1  0.32637967  0.41347203  0.17198949  1
  Ca2+  Ca25  1  0.32652081  0.41573084  0.50484810  1
  Ca2+  Ca26  1  0.31681195  0.41414104  0.83818129  1
  Ca2+  Ca27  1  0.33423140  0.92883254  0.17325544  1
  Ca2+  Ca28  1  0.33781556  0.92482788  0.50492761  1
  Ca2+  Ca29  1  0.33518526  0.92485622  0.83511718  1
  Ca2+  Ca30  1  0.83024984  0.40991696  0.17217741  1
  Ca2+  Ca31  1  0.83634938  0.41504528  0.50444309  1
  Ca2+  Ca32  1  0.84374897  0.41856803  0.83416199  1
  Ca2+  Ca33  1  0.82751858  0.91181194  0.17181394  1
  Ca2+  Ca34  1  0.83525517  0.91524146  0.50255706  1
  Ca2+  Ca35  1  0.82511505  0.92061919  0.84223236  1
  Ca2+  Ca36  1  0.41493338  0.16753769  0.16449560  1
  Ca2+  Ca37  1  0.41687125  0.16736556  0.49702516  1
  Ca2+  Ca38  1  0.42336744  0.15448938  0.83100743  1
  Ca2+  Ca39  1  0.42257627  0.67344095  0.16173954  1
  Ca2+  Ca40  1  0.40972324  0.68162831  0.49485886  1
  Ca2+  Ca41  1  0.42258475  0.67309537  0.82859985  1
  Ca2+  Ca42  1  0.92678336  0.17588220  0.15987840  1
  Ca2+  Ca43  1  0.92917814  0.17533340  0.49275070  1
  Ca2+  Ca44  1  0.92787060  0.17889111  0.82532424  1
  Ca2+  Ca45  1  0.92545063  0.66789952  0.16648443  1
  Ca2+  Ca46  1  0.92449334  0.66464267  0.49821635  1
  Ca2+  Ca47  1  0.92484797  0.66305360  0.82880291  1
  Al0+  Al48  1  0.00088189  0.00087993  -0.00274340  1
  Al0+  Al49  1  0.00052548  -0.00243914  0.32668294  1
  Al0+  Al50  1  0.00092442  -0.00079829  0.66635409  1
  Al0+  Al51  1  -0.00079281  0.50189906  0.00039380  1
  Al0+  Al52  1  -0.00123794  0.49883102  0.32787882  1
  Al0+  Al53  1  -0.00163696  0.50061154  0.66751921  1
  Al0+  Al54  1  0.49944482  0.00064032  0.00627958  1
  Al0+  Al55  1  0.49977305  -0.00077102  0.33472652  1
  Al0+  Al56  1  0.50014659  -0.00074313  0.66223504  1
  Al0+  Al57  1  0.50027360  0.50227701  -0.00621596  1
  Al0+  Al58  1  0.49945216  0.49841746  0.33701313  1
  Al0+  Al59  1  0.50125900  0.49938895  0.66925965  1
  Al0+  Al60  1  0.24918380  0.25296911  0.00743718  1
  Al0+  Al61  1  0.25290065  0.25131193  0.33265177  1
  Al0+  Al62  1  0.25208386  0.25064400  0.67356547  1
  Al0+  Al63  1  0.25039916  0.75140063  -0.00372332  1
  Al0+  Al64  1  0.25143399  0.75096131  0.32324293  1
  Al0+  Al65  1  0.25117891  0.75112235  0.65949392  1
  Al0+  Al66  1  0.74842216  0.25133868  -0.00698738  1
  Al0+  Al67  1  0.74956173  0.24726196  0.33598551  1
  Al0+  Al68  1  0.74915378  0.24845174  0.66056203  1
  Al0+  Al69  1  0.74901043  0.75027049  0.00284141  1
  Al0+  Al70  1  0.75056420  0.74801937  0.33551176  1
  Al0+  Al71  1  0.74887500  0.74799351  0.67106174  1
  Al0+  Al72  1  0.92825699  0.32127182  0.98370331  1
  Al0+  Al73  1  0.43064806  0.32181090  0.32096498  1
  Al0+  Al74  1  0.06917821  0.68036278  0.65398341  1
  Al0+  Al75  1  0.31883603  0.06972899  0.01554919  1
  Al0+  Al76  1  0.07417557  0.17845017  0.98411097  1
  Al0+  Al77  1  0.92687876  0.31968053  0.31780502  1
  Al0+  Al78  1  0.07507295  0.17748439  0.65179857  1
  Al0+  Al79  1  0.43116498  0.81919906  0.65346328  1
  Al0+  Al80  1  0.56740264  0.17974968  0.98830845  1
  Al0+  Al81  1  0.57238405  0.67843821  0.98688579  1
  Al0+  Al82  1  0.07178080  0.67744312  0.31732660  1
  Al0+  Al83  1  0.17888886  0.43268482  0.01677961  1
  Al0+  Al84  1  0.92661749  0.82133763  0.31886010  1
  Al0+  Al85  1  0.07017865  0.68164827  0.98446533  1
  Al0+  Al86  1  0.68082312  0.93001839  0.01467594  1
  Al0+  Al87  1  0.07358209  0.17914860  0.31855478  1
  Al0+  Al88  1  0.67783743  0.42681437  0.34690288  1
  Al0+  Al89  1  0.32037463  0.06923941  0.68063733  1
  Al0+  Al90  1  0.18033037  0.43149147  0.67925002  1
  Al0+  Al91  1  0.56936850  0.17864338  0.65210965  1
  Al0+  Al92  1  0.81850460  0.56880608  0.68148816  1
  Al0+  Al93  1  0.43058984  0.82275421  0.31715163  1
  Al0+  Al94  1  0.93032909  0.32110691  0.65029788  1
  Al0+  Al95  1  0.31954365  0.07064317  0.34970475  1
  Si0+  Si96  1  0.81967846  0.57079455  0.01737708  1
  Si0+  Si97  1  0.82225774  0.57058212  0.35078333  1
  Si0+  Si98  1  0.67724596  0.42861767  0.01325024  1
  Si0+  Si99  1  0.32182450  0.57280375  0.34689225  1
  Si0+  Si100  1  0.67635678  0.42448704  0.68582412  1
  Si0+  Si101  1  0.82241557  0.06925256  0.34809503  1
  Si0+  Si102  1  0.57200790  0.17685540  0.31688088  1
  Si0+  Si103  1  0.57076923  0.67780921  0.32018511  1
  Si0+  Si104  1  0.17756558  0.92570626  0.34914610  1
  Si0+  Si105  1  0.32367303  0.57601373  0.68230235  1
  Si0+  Si106  1  0.92602495  0.82258287  0.98326677  1
  Si0+  Si107  1  0.32445720  0.57411671  0.01588509  1
  Si0+  Si108  1  0.82264939  0.07158086  0.68092920  1
  Si0+  Si109  1  0.67924847  0.92739187  0.35048345  1
  Si0+  Si110  1  0.17652359  0.92479668  0.01710505  1
  Si0+  Si111  1  0.92457038  0.82255154  0.65319307  1
  Si0+  Si112  1  0.67983265  0.93032890  0.68070432  1
  Si0+  Si113  1  0.42663029  0.32436313  0.98297476  1
  Si0+  Si114  1  0.57440305  0.67615660  0.64946342  1
  Si0+  Si115  1  0.42998901  0.82270775  0.98312326  1
  Si0+  Si116  1  0.17710844  0.92535504  0.68190597  1
  Si0+  Si117  1  0.42824684  0.32392612  0.65188049  1
  Si0+  Si118  1  0.82222420  0.07430278  0.01548366  1
  Si0+  Si119  1  0.17901804  0.43147027  0.34821754  1
  O2-  O120  1  0.23996565  -0.00167713  0.06119335  1
  O2-  O121  1  0.24261596  -0.00301896  0.39521283  1
  O2-  O122  1  0.24087928  -0.00135177  0.72632182  1
  O2-  O123  1  0.25563435  0.50710425  0.06223342  1
  O2-  O124  1  0.24717854  0.50603943  0.38986110  1
  O2-  O125  1  0.25604888  0.50674884  0.72616150  1
  O2-  O126  1  0.75738306  0.00256339  0.06208228  1
  O2-  O127  1  0.75223487  -0.00325276  0.39187529  1
  O2-  O128  1  0.75294645  -0.00126325  0.72323694  1
  O2-  O129  1  0.74810982  0.49906133  0.05726309  1
  O2-  O130  1  0.75518171  0.49921833  0.39331324  1
  O2-  O131  1  0.74423194  0.49387900  0.73000205  1
  O2-  O132  1  -0.00016706  0.24912334  0.26861055  1
  O2-  O133  1  0.00147340  0.24765578  0.60196774  1
  O2-  O134  1  0.00035043  0.24885818  0.93511797  1
  O2-  O135  1  -0.00041138  0.75065463  0.26943052  1
  O2-  O136  1  -0.00354349  0.75766632  0.60912400  1
  O2-  O137  1  -0.00181244  0.75904449  0.93764448  1
  O2-  O138  1  0.50552326  0.24761579  0.27377026  1
  O2-  O139  1  0.49834542  0.25708165  0.60711166  1
  O2-  O140  1  0.49262028  0.25291106  0.93930086  1
  O2-  O141  1  0.50599273  0.74795392  0.27267069  1
  O2-  O142  1  0.50128484  0.73982894  0.60575351  1
  O2-  O143  1  0.49696727  0.75195155  0.93960677  1
  O2-  O144  1  0.07281065  0.18086358  0.09756282  1
  O2-  O145  1  0.07356655  0.18175293  0.43220628  1
  O2-  O146  1  0.07358432  0.17889441  0.76498997  1
  O2-  O147  1  0.06748443  0.68194897  0.09713813  1
  O2-  O148  1  0.07042486  0.67687947  0.43113457  1
  O2-  O149  1  0.06791925  0.68105001  0.76705682  1
  O2-  O150  1  0.56822886  0.18193432  0.10124662  1
  O2-  O151  1  0.57094223  0.17619676  0.42266531  1
  O2-  O152  1  0.56807970  0.17598876  0.76533868  1
  O2-  O153  1  0.57067608  0.67795089  0.10017032  1
  O2-  O154  1  0.56909197  0.67991157  0.42581066  1
  O2-  O155  1  0.57593683  0.67954643  0.75506253  1
  O2-  O156  1  0.18038734  0.43236714  0.24317769  1
  O2-  O157  1  0.18189105  0.43280213  0.56558060  1
  O2-  O158  1  0.17924057  0.43398637  0.90354165  1
  O2-  O159  1  0.18112450  0.92436298  0.24358864  1
  O2-  O160  1  0.17886589  0.92092691  0.57671191  1
  O2-  O161  1  0.18088959  0.91948827  0.91162232  1
  O2-  O162  1  0.67567742  0.43065827  0.23331838  1
  O2-  O163  1  0.67447426  0.42663373  0.58016331  1
  O2-  O164  1  0.67652108  0.42986705  0.90849654  1
  O2-  O165  1  0.67816654  0.92728804  0.24552895  1
  O2-  O166  1  0.68068562  0.93032155  0.57535117  1
  O2-  O167  1  0.68047209  0.93099285  0.90101866  1
  O2-  O168  1  0.43032475  0.32681898  0.08876345  1
  O2-  O169  1  0.43059003  0.32211931  0.43409952  1
  O2-  O170  1  0.42976408  0.32497723  0.75738364  1
  O2-  O171  1  0.43195598  0.82197687  0.08874699  1
  O2-  O172  1  0.43222380  0.82223352  0.43038816  1
  O2-  O173  1  0.43491689  0.81990589  0.76659847  1
  O2-  O174  1  0.92611016  0.31930272  0.09720798  1
  O2-  O175  1  0.92873667  0.31951053  0.43110893  1
  O2-  O176  1  0.93139510  0.32027670  0.76361262  1
  O2-  O177  1  0.92381924  0.81870726  0.08858315  1
  O2-  O178  1  0.92565246  0.81943914  0.43279165  1
  O2-  O179  1  0.92126206  0.82159472  0.75862931  1
  O2-  O180  1  0.32123883  0.06937367  0.23668418  1
  O2-  O181  1  0.32244551  0.06770227  0.56764139  1
  O2-  O182  1  0.32226359  0.06519922  0.90233475  1
  O2-  O183  1  0.32592787  0.57027878  0.24201834  1
  O2-  O184  1  0.32339411  0.57621286  0.57641301  1
  O2-  O185  1  0.32579455  0.57308448  0.91036511  1
  O2-  O186  1  0.81857296  0.06985243  0.24317641  1
  O2-  O187  1  0.82150359  0.06931868  0.57569374  1
  O2-  O188  1  0.81845626  0.07190887  0.90963378  1
  O2-  O189  1  0.81934833  0.57381801  0.24514668  1
  O2-  O190  1  0.81625523  0.57041435  0.56843085  1
  O2-  O191  1  0.81903127  0.57245766  0.91220956  1
  O2-  O192  1  0.04956149  0.07935425  0.26733284  1
  O2-  O193  1  0.04930582  0.07686434  0.60105878  1
  O2-  O194  1  0.05246717  0.07727142  0.93305292  1
  O2-  O195  1  0.04029222  0.58115057  0.26285303  1
  O2-  O196  1  0.03438348  0.58607519  0.59968547  1
  O2-  O197  1  0.03438826  0.58663269  0.93196992  1
  O2-  O198  1  0.54450141  0.08393596  0.27127971  1
  O2-  O199  1  0.53785417  0.08379157  0.59592675  1
  O2-  O200  1  0.53683338  0.08216947  0.93558431  1
  O2-  O201  1  0.54254636  0.58526276  0.27436833  1
  O2-  O202  1  0.55478961  0.57967337  0.60720876  1
  O2-  O203  1  0.54424702  0.58340164  0.92828234  1
  O2-  O204  1  0.17073018  0.21128673  0.26675501  1
  O2-  O205  1  0.17410648  0.20892229  0.60238025  1
  O2-  O206  1  0.17275646  0.21151321  0.93477731  1
  O2-  O207  1  0.16926436  0.70397888  0.26213315  1
  O2-  O208  1  0.16625034  0.70688367  0.59913078  1
  O2-  O209  1  0.16834517  0.70864426  0.93081234  1
  O2-  O210  1  0.66667378  0.19833682  0.27252119  1
  O2-  O211  1  0.66602618  0.20519383  0.59633775  1
  O2-  O212  1  0.66261269  0.20951435  0.93113854  1
  O2-  O213  1  0.66572308  0.69948434  0.27595648  1
  O2-  O214  1  0.66559331  0.70742698  0.60202125  1
  O2-  O215  1  0.66805656  0.71181532  0.93281711  1
  O2-  O216  1  0.08270728  0.46648816  0.07015058  1
  O2-  O217  1  0.08560385  0.45712294  0.39368262  1
  O2-  O218  1  0.08486772  0.46454912  0.73337911  1
  O2-  O219  1  0.07951076  0.94341427  0.05930894  1
  O2-  O220  1  0.08091175  0.94458565  0.39196793  1
  O2-  O221  1  0.08098842  0.94243319  0.72718432  1
  O2-  O222  1  0.58475246  0.45766207  0.05976902  1
  O2-  O223  1  0.58329088  0.46081337  0.40448000  1
  O2-  O224  1  0.58209684  0.44825130  0.73242377  1
  O2-  O225  1  0.58593779  0.96241311  0.07069546  1
  O2-  O226  1  0.58880463  0.95835939  0.39884719  1
  O2-  O227  1  0.58937317  0.96146459  0.72786966  1
  O2-  O228  1  0.20998318  0.33771042  0.07343767  1
  O2-  O229  1  0.21205367  0.34154164  0.39547287  1
  O2-  O230  1  0.21235455  0.33698015  0.73670607  1
  O2-  O231  1  0.20715568  0.83294236  0.06526706  1
  O2-  O232  1  0.20725336  0.83182994  0.39367124  1
  O2-  O233  1  0.21039382  0.83386594  0.72969137  1
  O2-  O234  1  0.70412455  0.33628396  0.06024266  1
  O2-  O235  1  0.70444321  0.32893462  0.40103934  1
  O2-  O236  1  0.70191964  0.32952144  0.72897845  1
  O2-  O237  1  0.70954620  0.83316339  0.07028397  1
  O2-  O238  1  0.70451807  0.83481578  0.39859281  1
  O2-  O239  1  0.70382388  0.83767325  0.72877506  1
  O2-  O240  1  0.46103723  0.41825287  0.26609290  1
  O2-  O241  1  0.45027667  0.41914144  0.60603220  1
  O2-  O242  1  0.45289408  0.41653147  0.93473300  1
  O2-  O243  1  0.46478201  0.91793648  0.26344719  1
  O2-  O244  1  0.46799028  0.91197865  0.59666364  1
  O2-  O245  1  0.46084270  0.91466978  0.93807709  1
  O2-  O246  1  0.95132720  0.41853789  0.26537957  1
  O2-  O247  1  0.95901299  0.41930040  0.59843360  1
  O2-  O248  1  0.95747722  0.42048191  0.93411504  1
  O2-  O249  1  0.95045670  0.91874809  0.26255751  1
  O2-  O250  1  0.94554557  0.91720651  0.60764786  1
  O2-  O251  1  0.94432865  0.91861803  0.93945248  1
  O2-  O252  1  0.33578786  0.29128924  0.26489454  1
  O2-  O253  1  0.33568219  0.29586519  0.60654169  1
  O2-  O254  1  0.33194805  0.30008064  0.94109471  1
  O2-  O255  1  0.33611488  0.79297215  0.26041157  1
  O2-  O256  1  0.33550909  0.79235206  0.59570096  1
  O2-  O257  1  0.33636082  0.79949652  0.93660968  1
  O2-  O258  1  0.82773223  0.28980123  0.26692373  1
  O2-  O259  1  0.83087711  0.29442322  0.59905758  1
  O2-  O260  1  0.82981198  0.29563460  0.92927758  1
  O2-  O261  1  0.82776969  0.79144765  0.26640180  1
  O2-  O262  1  0.83197888  0.79347175  0.60629653  1
  O2-  O263  1  0.83367898  0.79294113  0.93691963  1
  O2-  O264  1  0.41360720  0.03602884  0.07170497  1
  O2-  O265  1  0.41689807  0.03732616  0.40216752  1
  O2-  O266  1  0.41652842  0.03155056  0.73290726  1
  O2-  O267  1  0.41895914  0.54863402  0.06137300  1
  O2-  O268  1  0.41114096  0.54311727  0.39828913  1
  O2-  O269  1  0.41890685  0.55319254  0.72776897  1
  O2-  O270  1  0.91795148  0.05310455  0.05910735  1
  O2-  O271  1  0.91492756  0.04148724  0.39446704  1
  O2-  O272  1  0.91459001  0.04577344  0.72969497  1
  O2-  O273  1  0.91072522  0.54316773  0.06528748  1
  O2-  O274  1  0.91663689  0.54526336  0.39537996  1
  O2-  O275  1  0.91454791  0.53897074  0.73668806  1
  O2-  O276  1  0.29390494  0.16815121  0.06894234  1
  O2-  O277  1  0.29220160  0.16924707  0.40240302  1
  O2-  O278  1  0.29726431  0.16668557  0.73654778  1
  O2-  O279  1  0.30032928  0.66927216  0.05994874  1
  O2-  O280  1  0.29654507  0.66713756  0.39092819  1
  O2-  O281  1  0.29863550  0.67002032  0.72756448  1
  O2-  O282  1  0.79040338  0.16657491  0.06055096  1
  O2-  O283  1  0.79278032  0.15906836  0.39869611  1
  O2-  O284  1  0.79138189  0.16261462  0.72731006  1
  O2-  O285  1  0.79065790  0.66186824  0.06551403  1
  O2-  O286  1  0.79491591  0.66304981  0.39943092  1
  O2-  O287  1  0.78692883  0.66506003  0.73809542  1
