# generated using pymatgen
data_Ca2Al2SiO7
_symmetry_space_group_name_H-M   'P 1'
_cell_length_a   15.44487857
_cell_length_b   15.44452907
_cell_length_c   15.27431282
_cell_angle_alpha   90.00213403
_cell_angle_beta   90.00330304
_cell_angle_gamma   90.00437073
_symmetry_Int_Tables_number   1
_chemical_formula_structural   Ca2Al2SiO7
_chemical_formula_sum   'Ca48 Al48 Si24 O168'
_cell_volume   3643.51739386
_cell_formula_units_Z   24
loop_
 _symmetry_equiv_pos_site_id
 _symmetry_equiv_pos_as_xyz
  1  'x, y, z'
loop_
 _atom_type_symbol
 _atom_type_oxidation_number
  Ca2+  2.0
  Al0+  0.0
  Si0+  0.0
  O2-  -2.0
loop_
 _atom_site_type_symbol
 _atom_site_label
 _atom_site_symmetry_multiplicity
 _atom_site_fract_x
 _atom_site_fract_y
 _atom_site_fract_z
 _atom_site_occupancy
  Ca2+  Ca0  1  0.16877400  0.08323092  0.17273832  1
  Ca2+  Ca1  1  0.17130632  0.08282129  0.50035354  1
  Ca2+  Ca2  1  0.16317511  0.07305893  0.84041428  1
  Ca2+  Ca3  1  0.17149396  0.56953444  0.17330190  1
  Ca2+  Ca4  1  0.17759650  0.58718866  0.50397111  1
  Ca2+  Ca5  1  0.16927458  0.58118790  0.83666229  1
  Ca2+  Ca6  1  0.66753774  0.08405661  0.16380959  1
  Ca2+  Ca7  1  0.66482339  0.07706696  0.50924676  1
  Ca2+  Ca8  1  0.66574962  0.07847220  0.84037596  1
  Ca2+  Ca9  1  0.67095459  0.58031256  0.17021464  1
  Ca2+  Ca10  1  0.65961331  0.57162213  0.50611156  1
  Ca2+  Ca11  1  0.66958754  0.58011440  0.83478805  1
  Ca2+  Ca12  1  0.09471312  0.32376929  0.16274394  1
  Ca2+  Ca13  1  0.07975291  0.33259912  0.49283228  1
  Ca2+  Ca14  1  0.07884664  0.33111427  0.83086093  1
  Ca2+  Ca15  1  0.07889215  0.83557693  0.16169083  1
  Ca2+  Ca16  1  0.08332567  0.83116783  0.49771058  1
  Ca2+  Ca17  1  0.08515779  0.83142116  0.82615398  1
  Ca2+  Ca18  1  0.57822308  0.33301494  0.16485679  1
  Ca2+  Ca19  1  0.58189396  0.33243019  0.49534724  1
  Ca2+  Ca20  1  0.59157861  0.32193644  0.82686777  1
  Ca2+  Ca21  1  0.57074678  0.83894050  0.16000488  1
  Ca2+  Ca22  1  0.58097557  0.82680687  0.49622385  1
  Ca2+  Ca23  1  0.58110528  0.83348176  0.82815015  1
  Ca2+  Ca24  1  0.32660303  0.41638233  0.17743033  1
  Ca2+  Ca25  1  0.33321877  0.42366208  0.50026450  1
  Ca2+  Ca26  1  0.33011366  0.42394695  0.83594439  1
  Ca2+  Ca27  1  0.33309586  0.91901823  0.17103537  1
  Ca2+  Ca28  1  0.33295448  0.92074511  0.50288132  1
  Ca2+  Ca29  1  0.32382955  0.91199525  0.83835652  1
  Ca2+  Ca30  1  0.82824904  0.42164843  0.16974347  1
  Ca2+  Ca31  1  0.82404880  0.41161896  0.50565078  1
  Ca2+  Ca32  1  0.83342421  0.41899822  0.83481577  1
  Ca2+  Ca33  1  0.83014474  0.92029813  0.16799192  1
  Ca2+  Ca34  1  0.83068820  0.91641138  0.50491064  1
  Ca2+  Ca35  1  0.81986105  0.92130022  0.84174266  1
  Ca2+  Ca36  1  0.41754158  0.17047647  0.16339411  1
  Ca2+  Ca37  1  0.41962965  0.17025157  0.49294797  1
  Ca2+  Ca38  1  0.42798136  0.16678822  0.83087333  1
  Ca2+  Ca39  1  0.41056965  0.67547959  0.16550776  1
  Ca2+  Ca40  1  0.41584318  0.66646616  0.49549010  1
  Ca2+  Ca41  1  0.41923192  0.67087383  0.82693573  1
  Ca2+  Ca42  1  0.92777559  0.16416978  0.15968158  1
  Ca2+  Ca43  1  0.92212999  0.17240173  0.49691361  1
  Ca2+  Ca44  1  0.91714891  0.16862433  0.83194140  1
  Ca2+  Ca45  1  0.91360534  0.67020896  0.16359095  1
  Ca2+  Ca46  1  0.92344400  0.67254731  0.49638412  1
  Ca2+  Ca47  1  0.92232503  0.66395408  0.82778136  1
  Al0+  Al48  1  -0.00067885  -0.00025525  0.00120184  1
  Al0+  Al49  1  -0.00110591  -0.00023055  0.32778020  1
  Al0+  Al50  1  0.00086631  0.00081378  0.66953833  1
  Al0+  Al51  1  -0.00010237  0.49982393  0.00873133  1
  Al0+  Al52  1  -0.00117664  0.50013547  0.33600561  1
  Al0+  Al53  1  0.00043581  0.50004883  0.65620572  1
  Al0+  Al54  1  0.49826958  0.00021284  -0.00548350  1
  Al0+  Al55  1  0.50011629  -0.00122923  0.33415609  1
  Al0+  Al56  1  0.49982491  0.00102159  0.66609996  1
  Al0+  Al57  1  0.49961402  0.50196550  -0.00042100  1
  Al0+  Al58  1  0.50107310  0.49881204  0.33425846  1
  Al0+  Al59  1  0.49992626  0.50017044  0.67410044  1
  Al0+  Al60  1  0.24974936  0.24962110  -0.00535627  1
  Al0+  Al61  1  0.25118981  0.24893587  0.33537283  1
  Al0+  Al62  1  0.25099505  0.25053806  0.66831658  1
  Al0+  Al63  1  0.24961192  0.75080108  0.00047161  1
  Al0+  Al64  1  0.24941126  0.74912825  0.33166043  1
  Al0+  Al65  1  0.24981709  0.75023413  0.66962945  1
  Al0+  Al66  1  0.75023166  0.24998855  0.00093687  1
  Al0+  Al67  1  0.75197005  0.24926827  0.33568479  1
  Al0+  Al68  1  0.75072214  0.24971432  0.66175662  1
  Al0+  Al69  1  0.74860003  0.74991974  0.00686418  1
  Al0+  Al70  1  0.75112074  0.75000356  0.32961231  1
  Al0+  Al71  1  0.74872835  0.74984964  0.66606043  1
  Al0+  Al72  1  0.07244429  0.67971815  0.65335208  1
  Al0+  Al73  1  0.07053232  0.18120577  0.32024317  1
  Al0+  Al74  1  0.18037142  0.42854781  0.01249728  1
  Al0+  Al75  1  0.57075627  0.18148967  0.98683571  1
  Al0+  Al76  1  0.92884828  0.82045647  0.31817602  1
  Al0+  Al77  1  0.32198731  0.07022249  0.34604095  1
  Al0+  Al78  1  0.43083503  0.32075716  0.32121785  1
  Al0+  Al79  1  0.82125968  0.57084375  0.01304843  1
  Al0+  Al80  1  0.67878078  0.92791825  0.67935299  1
  Al0+  Al81  1  0.32032103  0.57204450  0.34796079  1
  Al0+  Al82  1  0.92994634  0.32044912  0.65260857  1
  Al0+  Al83  1  0.67960135  0.42791396  0.68112816  1
  Al0+  Al84  1  0.42917680  0.82092994  0.32040218  1
  Al0+  Al85  1  0.17891210  0.92813093  0.01494926  1
  Al0+  Al86  1  0.07154627  0.17785463  0.98454700  1
  Al0+  Al87  1  0.42821633  0.82029610  0.98431960  1
  Al0+  Al88  1  0.68060995  0.42916445  0.34717146  1
  Al0+  Al89  1  0.17998389  0.93056198  0.67939760  1
  Al0+  Al90  1  0.17840728  0.42657029  0.35025195  1
  Al0+  Al91  1  0.82082806  0.07208991  0.01538922  1
  Al0+  Al92  1  0.32064065  0.57069344  0.68209156  1
  Al0+  Al93  1  0.57132909  0.67822732  0.65400256  1
  Al0+  Al94  1  0.67581864  0.92967293  0.01641474  1
  Al0+  Al95  1  0.57025759  0.17862006  0.65149674  1
  Si0+  Si96  1  0.92753460  0.82048304  0.98451521  1
  Si0+  Si97  1  0.57188819  0.67701133  0.31593223  1
  Si0+  Si98  1  0.17587924  0.42766900  0.68279196  1
  Si0+  Si99  1  0.57349801  0.67769076  0.98293131  1
  Si0+  Si100  1  0.32131596  0.07139350  0.01495895  1
  Si0+  Si101  1  0.17633201  0.92871360  0.34870273  1
  Si0+  Si102  1  0.57382556  0.17672516  0.31700208  1
  Si0+  Si103  1  0.07198064  0.67740805  0.31460081  1
  Si0+  Si104  1  0.92798704  0.82292293  0.65293297  1
  Si0+  Si105  1  0.32253063  0.07409156  0.68468882  1
  Si0+  Si106  1  0.82148739  0.57435625  0.35268083  1
  Si0+  Si107  1  0.32262715  0.57227402  0.01722103  1
  Si0+  Si108  1  0.92650062  0.32279974  0.31493030  1
  Si0+  Si109  1  0.67917233  0.92901994  0.34857226  1
  Si0+  Si110  1  0.82203707  0.07196364  0.68226118  1
  Si0+  Si111  1  0.67711274  0.42737101  0.01601656  1
  Si0+  Si112  1  0.07338304  0.17642709  0.65025429  1
  Si0+  Si113  1  0.92865858  0.32337473  0.98541779  1
  Si0+  Si114  1  0.42744458  0.32249330  0.65074405  1
  Si0+  Si115  1  0.82264797  0.06969961  0.34935844  1
  Si0+  Si116  1  0.42723295  0.32446429  0.98186787  1
  Si0+  Si117  1  0.42785039  0.82094729  0.64974774  1
  Si0+  Si118  1  0.82323146  0.57160841  0.68004832  1
  Si0+  Si119  1  0.06902830  0.67826598  0.98692280  1
  O2-  O120  1  0.25197445  0.00424759  0.06068693  1
  O2-  O121  1  0.24730731  -0.00509318  0.39286804  1
  O2-  O122  1  0.25235358  0.00656966  0.72802411  1
  O2-  O123  1  0.25796878  0.49959555  0.06001694  1
  O2-  O124  1  0.24791275  0.50119888  0.39959782  1
  O2-  O125  1  0.24470932  0.49591689  0.72754475  1
  O2-  O126  1  0.74818973  0.00121432  0.06714881  1
  O2-  O127  1  0.74978011  0.00036625  0.39160088  1
  O2-  O128  1  0.75361975  0.00268605  0.72551608  1
  O2-  O129  1  0.74466064  0.49763479  0.05922313  1
  O2-  O130  1  0.75495309  0.50359031  0.39599997  1
  O2-  O131  1  0.75482217  0.50348621  0.72578272  1
  O2-  O132  1  -0.00088147  0.25855938  0.27116888  1
  O2-  O133  1  0.00684626  0.24719317  0.60658288  1
  O2-  O134  1  -0.00416318  0.25332267  0.94053031  1
  O2-  O135  1  0.00261877  0.74539209  0.27011018  1
  O2-  O136  1  -0.00255597  0.75539776  0.60803661  1
  O2-  O137  1  -0.00109005  0.74954497  0.94247822  1
  O2-  O138  1  0.50578292  0.24621765  0.27353309  1
  O2-  O139  1  0.49506832  0.25298828  0.60595954  1
  O2-  O140  1  0.49906417  0.25874138  0.93839219  1
  O2-  O141  1  0.50246433  0.74519598  0.27220410  1
  O2-  O142  1  0.49787389  0.75349084  0.60580684  1
  O2-  O143  1  0.50421835  0.74595121  0.93922753  1
  O2-  O144  1  0.07293493  0.17941118  0.09760169  1
  O2-  O145  1  0.06629998  0.17916020  0.43367739  1
  O2-  O146  1  0.07139835  0.17530099  0.75580763  1
  O2-  O147  1  0.06721106  0.67915980  0.09192904  1
  O2-  O148  1  0.07198748  0.68028557  0.42040333  1
  O2-  O149  1  0.06982472  0.67881234  0.76714351  1
  O2-  O150  1  0.56897710  0.18368488  0.10020266  1
  O2-  O151  1  0.57340278  0.17582317  0.42272546  1
  O2-  O152  1  0.57029875  0.17919087  0.76472586  1
  O2-  O153  1  0.57243022  0.67524738  0.08859207  1
  O2-  O154  1  0.57343841  0.67870215  0.42170383  1
  O2-  O155  1  0.57144522  0.67981548  0.76712716  1
  O2-  O156  1  0.18133501  0.42699150  0.23623414  1
  O2-  O157  1  0.17720196  0.42667745  0.57767441  1
  O2-  O158  1  0.17839774  0.43285327  0.89907967  1
  O2-  O159  1  0.17566354  0.93069094  0.24310066  1
  O2-  O160  1  0.18017157  0.93190279  0.56610563  1
  O2-  O161  1  0.17966412  0.92664277  0.90160962  1
  O2-  O162  1  0.68243923  0.43058269  0.23363965  1
  O2-  O163  1  0.67988250  0.42847223  0.56799593  1
  O2-  O164  1  0.67842208  0.42699634  0.91046179  1
  O2-  O165  1  0.67894869  0.93069096  0.24380572  1
  O2-  O166  1  0.68098455  0.92841915  0.56553154  1
  O2-  O167  1  0.67844672  0.92905710  0.90258026  1
  O2-  O168  1  0.42695324  0.32423704  0.08753505  1
  O2-  O169  1  0.43334187  0.32023861  0.43438216  1
  O2-  O170  1  0.42613309  0.32020165  0.75662957  1
  O2-  O171  1  0.42771091  0.81898773  0.09767676  1
  O2-  O172  1  0.43237294  0.82218575  0.43346418  1
  O2-  O173  1  0.42758465  0.81925859  0.75549308  1
  O2-  O174  1  0.92870849  0.32402356  0.09087799  1
  O2-  O175  1  0.92402301  0.31868178  0.42061886  1
  O2-  O176  1  0.93141398  0.32107494  0.76613371  1
  O2-  O177  1  0.92855991  0.81929284  0.08975913  1
  O2-  O178  1  0.92895316  0.81997369  0.43175406  1
  O2-  O179  1  0.92815608  0.82211563  0.75859093  1
  O2-  O180  1  0.32234691  0.06922888  0.23291377  1
  O2-  O181  1  0.32229879  0.07427500  0.57888739  1
  O2-  O182  1  0.32011787  0.06988374  0.90910308  1
  O2-  O183  1  0.31786358  0.57206487  0.23411939  1
  O2-  O184  1  0.32039967  0.57092025  0.56937129  1
  O2-  O185  1  0.32160467  0.57215198  0.91140206  1
  O2-  O186  1  0.82271356  0.06948352  0.24464227  1
  O2-  O187  1  0.82322399  0.06960503  0.57608231  1
  O2-  O188  1  0.81979564  0.07064634  0.90145391  1
  O2-  O189  1  0.81975029  0.57450669  0.24668714  1
  O2-  O190  1  0.82255478  0.57185306  0.57462810  1
  O2-  O191  1  0.82355978  0.56915595  0.89976671  1
  O2-  O192  1  0.03704875  0.08591639  0.26526437  1
  O2-  O193  1  0.04543231  0.08367741  0.60298468  1
  O2-  O194  1  0.03861815  0.08124448  0.93083410  1
  O2-  O195  1  0.04504395  0.58298770  0.27019610  1
  O2-  O196  1  0.04296069  0.58550373  0.59486155  1
  O2-  O197  1  0.03922219  0.58640192  0.94030452  1
  O2-  O198  1  0.54719621  0.08350307  0.27130763  1
  O2-  O199  1  0.53931546  0.08203928  0.59643583  1
  O2-  O200  1  0.53818977  0.08638188  0.93108051  1
  O2-  O201  1  0.54827344  0.58346455  0.26941028  1
  O2-  O202  1  0.53921819  0.58073826  0.60245129  1
  O2-  O203  1  0.54862071  0.58351739  0.93616468  1
  O2-  O204  1  0.16821148  0.20819454  0.26699081  1
  O2-  O205  1  0.16874209  0.19987250  0.60660585  1
  O2-  O206  1  0.16723339  0.20808651  0.92790044  1
  O2-  O207  1  0.16473924  0.70284722  0.26736383  1
  O2-  O208  1  0.16773235  0.71358269  0.59881043  1
  O2-  O209  1  0.16133525  0.70494202  0.93998750  1
  O2-  O210  1  0.66828502  0.20237066  0.27239589  1
  O2-  O211  1  0.66681961  0.20744398  0.59697820  1
  O2-  O212  1  0.66839918  0.21030505  0.93260407  1
  O2-  O213  1  0.66529797  0.70368227  0.26964433  1
  O2-  O214  1  0.66798603  0.70729529  0.59805212  1
  O2-  O215  1  0.66774676  0.70354426  0.93814600  1
  O2-  O216  1  0.08625513  0.46025234  0.07005779  1
  O2-  O217  1  0.07727648  0.45177173  0.39986753  1
  O2-  O218  1  0.08169197  0.45524414  0.72649352  1
  O2-  O219  1  0.08147218  0.95640684  0.06726390  1
  O2-  O220  1  0.08314950  0.95685152  0.39480080  1
  O2-  O221  1  0.08253575  0.95854538  0.73490521  1
  O2-  O222  1  0.58283941  0.45341003  0.06143276  1
  O2-  O223  1  0.58472691  0.45962436  0.40176711  1
  O2-  O224  1  0.58455497  0.45707316  0.73811057  1
  O2-  O225  1  0.57708833  0.96062698  0.06716431  1
  O2-  O226  1  0.58807131  0.95588011  0.39742378  1
  O2-  O227  1  0.58164218  0.95851603  0.73184475  1
  O2-  O228  1  0.21051489  0.33057543  0.06379833  1
  O2-  O229  1  0.20788763  0.32948586  0.40396245  1
  O2-  O230  1  0.20084864  0.33357881  0.72956968  1
  O2-  O231  1  0.20936300  0.83161561  0.06943006  1
  O2-  O232  1  0.19955660  0.83383087  0.39257108  1
  O2-  O233  1  0.21054946  0.83495329  0.73516908  1
  O2-  O234  1  0.70357907  0.33537510  0.06386915  1
  O2-  O235  1  0.71097366  0.33173756  0.40105761  1
  O2-  O236  1  0.71422230  0.33147839  0.73336421  1
  O2-  O237  1  0.70316652  0.83157852  0.07024112  1
  O2-  O238  1  0.70857819  0.83636490  0.39382972  1
  O2-  O239  1  0.70921395  0.83160421  0.73442895  1
  O2-  O240  1  0.46186940  0.41653079  0.26472925  1
  O2-  O241  1  0.45501987  0.41617863  0.60746962  1
  O2-  O242  1  0.45002428  0.41985069  0.93722349  1
  O2-  O243  1  0.46263094  0.91655510  0.26517801  1
  O2-  O244  1  0.45197736  0.91562643  0.60524399  1
  O2-  O245  1  0.45620031  0.91656880  0.92894273  1
  O2-  O246  1  0.94553603  0.41968365  0.27296956  1
  O2-  O247  1  0.95658370  0.41587775  0.59426049  1
  O2-  O248  1  0.95754097  0.41668144  0.93956364  1
  O2-  O249  1  0.95878078  0.91603300  0.26237511  1
  O2-  O250  1  0.95355918  0.91690137  0.60653784  1
  O2-  O251  1  0.95471331  0.91199448  0.93697532  1
  O2-  O252  1  0.33499786  0.28865272  0.26694771  1
  O2-  O253  1  0.33304179  0.29818305  0.60460458  1
  O2-  O254  1  0.33592289  0.29607055  0.93258484  1
  O2-  O255  1  0.33144334  0.79301872  0.26644545  1
  O2-  O256  1  0.33482668  0.79419321  0.60392704  1
  O2-  O257  1  0.33163312  0.78718229  0.93028886  1
  O2-  O258  1  0.83440924  0.29253597  0.26772628  1
  O2-  O259  1  0.83581849  0.28673751  0.59526541  1
  O2-  O260  1  0.83468157  0.29953412  0.93903251  1
  O2-  O261  1  0.83262444  0.79005383  0.26217053  1
  O2-  O262  1  0.83551119  0.79640236  0.60491557  1
  O2-  O263  1  0.83489323  0.79146216  0.93929268  1
  O2-  O264  1  0.41433110  0.04522351  0.06086450  1
  O2-  O265  1  0.41814918  0.03885136  0.40198684  1
  O2-  O266  1  0.41562945  0.04671762  0.73039591  1
  O2-  O267  1  0.41817756  0.55215742  0.06194010  1
  O2-  O268  1  0.41956427  0.54435192  0.39876085  1
  O2-  O269  1  0.41504708  0.53946277  0.74012907  1
  O2-  O270  1  0.91801536  0.04103175  0.06887538  1
  O2-  O271  1  0.91311494  0.03839969  0.39770354  1
  O2-  O272  1  0.91573894  0.04837270  0.72917143  1
  O2-  O273  1  0.91486189  0.53980847  0.07273697  1
  O2-  O274  1  0.91635926  0.55209092  0.39710016  1
  O2-  O275  1  0.91744227  0.54442151  0.72482149  1
  O2-  O276  1  0.29713521  0.16634056  0.05870077  1
  O2-  O277  1  0.29118907  0.16478398  0.40298488  1
  O2-  O278  1  0.29976269  0.16829568  0.73146477  1
  O2-  O279  1  0.29185574  0.66399892  0.06323683  1
  O2-  O280  1  0.29138239  0.67083348  0.40174009  1
  O2-  O281  1  0.28891230  0.66652805  0.73679963  1
  O2-  O282  1  0.79449556  0.17110339  0.06897379  1
  O2-  O283  1  0.79739124  0.16212302  0.39697082  1
  O2-  O284  1  0.79588066  0.16536052  0.72705167  1
  O2-  O285  1  0.79132756  0.66598802  0.07047595  1
  O2-  O286  1  0.79492387  0.66821657  0.39786754  1
  O2-  O287  1  0.79843762  0.66503945  0.72708531  1
