# generated using pymatgen
data_Ca2Al2SiO7
_symmetry_space_group_name_H-M   'P 1'
_cell_length_a   15.46272790
_cell_length_b   15.46565078
_cell_length_c   15.28863042
_cell_angle_alpha   90.01876618
_cell_angle_beta   89.98862692
_cell_angle_gamma   89.99635457
_symmetry_Int_Tables_number   1
_chemical_formula_structural   Ca2Al2SiO7
_chemical_formula_sum   'Ca48 Al48 Si24 O168'
_cell_volume   3656.14038217
_cell_formula_units_Z   24
loop_
 _symmetry_equiv_pos_site_id
 _symmetry_equiv_pos_as_xyz
  1  'x, y, z'
loop_
 _atom_type_symbol
 _atom_type_oxidation_number
  Ca2+  2.0
  Al0+  0.0
  Si0+  0.0
  O2-  -2.0
loop_
 _atom_site_type_symbol
 _atom_site_label
 _atom_site_symmetry_multiplicity
 _atom_site_fract_x
 _atom_site_fract_y
 _atom_site_fract_z
 _atom_site_occupancy
  Ca2+  Ca0  1  0.16954051  0.07427794  0.17526760  1
  Ca2+  Ca1  1  0.17471439  0.06834746  0.50565007  1
  Ca2+  Ca2  1  0.17239878  0.07590659  0.83097335  1
  Ca2+  Ca3  1  0.17010833  0.59243744  0.17419369  1
  Ca2+  Ca4  1  0.17297719  0.59266866  0.49677476  1
  Ca2+  Ca5  1  0.16679483  0.58765593  0.83866650  1
  Ca2+  Ca6  1  0.67296900  0.07003708  0.17236692  1
  Ca2+  Ca7  1  0.67309549  0.07870463  0.50081720  1
  Ca2+  Ca8  1  0.66771369  0.08041229  0.83482629  1
  Ca2+  Ca9  1  0.66638072  0.57434912  0.17841812  1
  Ca2+  Ca10  1  0.66326396  0.58406644  0.49361662  1
  Ca2+  Ca11  1  0.66747480  0.57621949  0.84135545  1
  Ca2+  Ca12  1  0.07530815  0.33035548  0.16007381  1
  Ca2+  Ca13  1  0.08315782  0.32674451  0.49474913  1
  Ca2+  Ca14  1  0.07503132  0.33198211  0.83307518  1
  Ca2+  Ca15  1  0.07274895  0.82751582  0.16739936  1
  Ca2+  Ca16  1  0.07748556  0.83859664  0.49189035  1
  Ca2+  Ca17  1  0.07496698  0.83450114  0.83052517  1
  Ca2+  Ca18  1  0.57813914  0.34059533  0.16411406  1
  Ca2+  Ca19  1  0.58382091  0.32502284  0.49170919  1
  Ca2+  Ca20  1  0.58181009  0.32897295  0.82959000  1
  Ca2+  Ca21  1  0.58043624  0.83569212  0.16305471  1
  Ca2+  Ca22  1  0.57138969  0.83380789  0.48909154  1
  Ca2+  Ca23  1  0.57355288  0.84608743  0.83125223  1
  Ca2+  Ca24  1  0.33787940  0.42320986  0.17666090  1
  Ca2+  Ca25  1  0.34067592  0.42237857  0.49591056  1
  Ca2+  Ca26  1  0.33336423  0.41835467  0.84082709  1
  Ca2+  Ca27  1  0.32812888  0.90631917  0.17400499  1
  Ca2+  Ca28  1  0.32392733  0.90621875  0.50616655  1
  Ca2+  Ca29  1  0.33566633  0.91571783  0.83447471  1
  Ca2+  Ca30  1  0.82485138  0.42125826  0.17418535  1
  Ca2+  Ca31  1  0.83009392  0.42706872  0.49750229  1
  Ca2+  Ca32  1  0.82703044  0.41703896  0.84434991  1
  Ca2+  Ca33  1  0.82737547  0.91317954  0.17605353  1
  Ca2+  Ca34  1  0.83595474  0.92186580  0.50381847  1
  Ca2+  Ca35  1  0.83330815  0.91925805  0.83940319  1
  Ca2+  Ca36  1  0.41560465  0.18114632  0.16171140  1
  Ca2+  Ca37  1  0.42074993  0.16638413  0.49697443  1
  Ca2+  Ca38  1  0.42362244  0.16783435  0.82517530  1
  Ca2+  Ca39  1  0.42046121  0.67447811  0.17064970  1
  Ca2+  Ca40  1  0.42032794  0.67387162  0.48994501  1
  Ca2+  Ca41  1  0.41967478  0.67947622  0.83130397  1
  Ca2+  Ca42  1  0.91124373  0.16943874  0.16581228  1
  Ca2+  Ca43  1  0.91197800  0.16109968  0.49515164  1
  Ca2+  Ca44  1  0.90811812  0.17208191  0.82907729  1
  Ca2+  Ca45  1  0.92155970  0.67043587  0.16414963  1
  Ca2+  Ca46  1  0.92146652  0.67915832  0.48890437  1
  Ca2+  Ca47  1  0.91767619  0.68037177  0.83137858  1
  Al0+  Al48  1  0.00367915  0.00021860  -0.00158900  1
  Al0+  Al49  1  0.00279991  0.00030725  0.33530298  1
  Al0+  Al50  1  0.00049622  0.00264632  0.67343367  1
  Al0+  Al51  1  0.00159098  0.49732619  -0.00807715  1
  Al0+  Al52  1  -0.00021770  0.49768097  0.33480817  1
  Al0+  Al53  1  -0.00140572  0.50046810  0.66750582  1
  Al0+  Al54  1  0.50075609  0.00257347  0.00176852  1
  Al0+  Al55  1  0.50068376  0.00372075  0.33044976  1
  Al0+  Al56  1  0.49970361  0.00218148  0.65907642  1
  Al0+  Al57  1  0.49841281  0.50092397  -0.00121204  1
  Al0+  Al58  1  0.49816129  0.49983783  0.33617292  1
  Al0+  Al59  1  0.49867956  0.49981633  0.66950208  1
  Al0+  Al60  1  0.25034139  0.25100798  -0.00433294  1
  Al0+  Al61  1  0.24971976  0.24965154  0.32919125  1
  Al0+  Al62  1  0.24806387  0.25142075  0.67083215  1
  Al0+  Al63  1  0.25187923  0.74994070  -0.00711290  1
  Al0+  Al64  1  0.24993436  0.74869535  0.33615636  1
  Al0+  Al65  1  0.24918007  0.74743015  0.67109360  1
  Al0+  Al66  1  0.74923904  0.24987567  0.00114181  1
  Al0+  Al67  1  0.74952523  0.24891481  0.33883881  1
  Al0+  Al68  1  0.74785125  0.25031581  0.66492198  1
  Al0+  Al69  1  0.75115734  0.74904720  -0.00023440  1
  Al0+  Al70  1  0.74819394  0.74854615  0.33520017  1
  Al0+  Al71  1  0.75034210  0.74843809  0.66437365  1
  Al0+  Al72  1  0.42984547  0.81972688  0.65300086  1
  Al0+  Al73  1  0.82375219  0.57228731  0.34805057  1
  Al0+  Al74  1  0.32300824  0.07181717  0.68143762  1
  Al0+  Al75  1  0.67583313  0.92613750  0.34861604  1
  Al0+  Al76  1  0.07060864  0.67743772  0.32078103  1
  Al0+  Al77  1  0.92707021  0.82250916  0.98498078  1
  Al0+  Al78  1  0.57129569  0.67868074  0.31908576  1
  Al0+  Al79  1  0.92804845  0.82356063  0.32013331  1
  Al0+  Al80  1  0.42919356  0.32317915  0.98489696  1
  Al0+  Al81  1  0.81955022  0.07129920  0.68210976  1
  Al0+  Al82  1  0.17962933  0.92692017  0.68489121  1
  Al0+  Al83  1  0.18323913  0.92881090  0.34495098  1
  Al0+  Al84  1  0.31890112  0.56974606  0.34645862  1
  Al0+  Al85  1  0.57077599  0.18046360  0.65113196  1
  Al0+  Al86  1  0.42994704  0.31883029  0.32079295  1
  Al0+  Al87  1  0.92842764  0.31736103  0.98739527  1
  Al0+  Al88  1  0.42908086  0.82337076  0.31919377  1
  Al0+  Al89  1  0.43178721  0.82212115  0.98607773  1
  Al0+  Al90  1  0.93009511  0.82325197  0.65256480  1
  Al0+  Al91  1  0.07165203  0.67918120  0.98428266  1
  Al0+  Al92  1  0.67809756  0.42932427  0.01346605  1
  Al0+  Al93  1  0.82137966  0.06802562  0.34744304  1
  Al0+  Al94  1  0.67928414  0.92903636  0.01235565  1
  Al0+  Al95  1  0.67739981  0.42948571  0.35007034  1
  Si0+  Si96  1  0.31892963  0.57122739  0.01532300  1
  Si0+  Si97  1  0.18140654  0.92825791  0.01597281  1
  Si0+  Si98  1  0.92771527  0.32157501  0.65004183  1
  Si0+  Si99  1  0.07126076  0.17932776  0.31885278  1
  Si0+  Si100  1  0.32048406  0.56905222  0.68471904  1
  Si0+  Si101  1  0.82417512  0.57010624  0.01503268  1
  Si0+  Si102  1  0.07439801  0.17710540  0.98133265  1
  Si0+  Si103  1  0.82425837  0.07159549  0.01539912  1
  Si0+  Si104  1  0.57259632  0.67755399  0.98414847  1
  Si0+  Si105  1  0.17717517  0.42435051  0.34911085  1
  Si0+  Si106  1  0.57550975  0.17903260  0.31295225  1
  Si0+  Si107  1  0.17857082  0.42777282  0.01476189  1
  Si0+  Si108  1  0.07102053  0.18135330  0.65163970  1
  Si0+  Si109  1  0.82210539  0.57109440  0.68398588  1
  Si0+  Si110  1  0.07038086  0.67640552  0.64950187  1
  Si0+  Si111  1  0.92795596  0.32007631  0.31998959  1
  Si0+  Si112  1  0.67827247  0.92675854  0.68127211  1
  Si0+  Si113  1  0.32173599  0.07608087  0.34689243  1
  Si0+  Si114  1  0.17589849  0.42866802  0.68373878  1
  Si0+  Si115  1  0.42581651  0.32342004  0.65012197  1
  Si0+  Si116  1  0.57169602  0.67427649  0.65084739  1
  Si0+  Si117  1  0.32111705  0.07283119  0.01529898  1
  Si0+  Si118  1  0.67971749  0.43012037  0.68214774  1
  Si0+  Si119  1  0.57054782  0.17943004  0.98358877  1
  O2-  O120  1  0.25192235  0.00039521  0.05783241  1
  O2-  O121  1  0.26312482  -0.00106296  0.39057049  1
  O2-  O122  1  0.25626135  -0.00418743  0.73370747  1
  O2-  O123  1  0.24766798  0.49973987  0.05716321  1
  O2-  O124  1  0.24279295  0.49552624  0.39352217  1
  O2-  O125  1  0.24807065  0.49852955  0.72591852  1
  O2-  O126  1  0.76092704  -0.00243432  0.05759453  1
  O2-  O127  1  0.75233510  -0.00597945  0.39841926  1
  O2-  O128  1  0.74901190  -0.00747388  0.72782401  1
  O2-  O129  1  0.75258069  0.50433757  0.05887384  1
  O2-  O130  1  0.74825048  0.50338270  0.39913465  1
  O2-  O131  1  0.74900468  0.50177885  0.72598371  1
  O2-  O132  1  -0.00146510  0.24881108  0.27756255  1
  O2-  O133  1  -0.00208908  0.24989447  0.60790982  1
  O2-  O134  1  0.00018155  0.24080857  0.93809129  1
  O2-  O135  1  -0.00472717  0.74587059  0.27148762  1
  O2-  O136  1  0.00640947  0.74946502  0.60702492  1
  O2-  O137  1  -0.00077095  0.75045868  0.93447108  1
  O2-  O138  1  0.50483775  0.24680380  0.27035941  1
  O2-  O139  1  0.49238300  0.25317918  0.60669781  1
  O2-  O140  1  0.50393386  0.24971336  0.93793198  1
  O2-  O141  1  0.50625954  0.75699615  0.26849542  1
  O2-  O142  1  0.50679213  0.74684730  0.60856401  1
  O2-  O143  1  0.51092855  0.75209342  0.93875426  1
  O2-  O144  1  0.07762205  0.17928654  0.08703682  1
  O2-  O145  1  0.07378191  0.18206645  0.42398580  1
  O2-  O146  1  0.07158262  0.18571087  0.75667191  1
  O2-  O147  1  0.07263865  0.67970233  0.09731988  1
  O2-  O148  1  0.07123343  0.67969502  0.43451082  1
  O2-  O149  1  0.06703306  0.67238242  0.75507254  1
  O2-  O150  1  0.56801476  0.17946976  0.08870474  1
  O2-  O151  1  0.57585895  0.18080623  0.41870412  1
  O2-  O152  1  0.57225864  0.18474371  0.76466148  1
  O2-  O153  1  0.56856262  0.67412263  0.08884469  1
  O2-  O154  1  0.56408731  0.67621917  0.43290486  1
  O2-  O155  1  0.56917115  0.66842119  0.75662490  1
  O2-  O156  1  0.17817589  0.41991793  0.24365537  1
  O2-  O157  1  0.17343613  0.42656857  0.57904056  1
  O2-  O158  1  0.18018770  0.42707182  0.90928980  1
  O2-  O159  1  0.18169795  0.93186864  0.23132171  1
  O2-  O160  1  0.17959624  0.92901856  0.57135116  1
  O2-  O161  1  0.18151521  0.93015298  0.91106980  1
  O2-  O162  1  0.67967780  0.42882871  0.23625961  1
  O2-  O163  1  0.68024383  0.43075407  0.57776007  1
  O2-  O164  1  0.67987921  0.43019429  0.89936661  1
  O2-  O165  1  0.67584824  0.93118178  0.23458096  1
  O2-  O166  1  0.67948783  0.92788902  0.57634955  1
  O2-  O167  1  0.67610632  0.93510940  0.89903099  1
  O2-  O168  1  0.42696834  0.32260874  0.09760488  1
  O2-  O169  1  0.42800996  0.31498665  0.43404656  1
  O2-  O170  1  0.42855594  0.32567764  0.75593051  1
  O2-  O171  1  0.42811286  0.81960930  0.09823248  1
  O2-  O172  1  0.42628990  0.81855338  0.43275596  1
  O2-  O173  1  0.43229879  0.81845423  0.76667051  1
  O2-  O174  1  0.93059317  0.31663522  0.10043968  1
  O2-  O175  1  0.93048021  0.31999368  0.42542008  1
  O2-  O176  1  0.92853946  0.32171833  0.75535168  1
  O2-  O177  1  0.92811975  0.82312868  0.09789935  1
  O2-  O178  1  0.93425881  0.82687309  0.43380223  1
  O2-  O179  1  0.92915996  0.82034506  0.76576127  1
  O2-  O180  1  0.31430782  0.08242519  0.24124260  1
  O2-  O181  1  0.31804818  0.07642344  0.56832585  1
  O2-  O182  1  0.32033754  0.07330253  0.91038929  1
  O2-  O183  1  0.31812194  0.56865019  0.23313349  1
  O2-  O184  1  0.32181910  0.56795845  0.58000355  1
  O2-  O185  1  0.31843213  0.56912943  0.90968495  1
  O2-  O186  1  0.82036140  0.07160680  0.23358001  1
  O2-  O187  1  0.81878135  0.07334811  0.56976223  1
  O2-  O188  1  0.82107356  0.07443700  0.90973326  1
  O2-  O189  1  0.82812688  0.56484006  0.23448605  1
  O2-  O190  1  0.82562388  0.56861551  0.57971021  1
  O2-  O191  1  0.82209034  0.56737026  0.90865672  1
  O2-  O192  1  0.04455673  0.08868277  0.26957183  1
  O2-  O193  1  0.04522393  0.08874359  0.60656982  1
  O2-  O194  1  0.05535658  0.08221903  0.93636665  1
  O2-  O195  1  0.04903112  0.57574324  0.27006203  1
  O2-  O196  1  0.04216289  0.58338533  0.60315665  1
  O2-  O197  1  0.04758916  0.57957126  0.93034528  1
  O2-  O198  1  0.55128946  0.08584225  0.26643815  1
  O2-  O199  1  0.54308873  0.08521649  0.59398437  1
  O2-  O200  1  0.54164860  0.08793483  0.93522876  1
  O2-  O201  1  0.53547886  0.58201192  0.26644339  1
  O2-  O202  1  0.54083717  0.58228954  0.60393260  1
  O2-  O203  1  0.53918552  0.58751166  0.93409700  1
  O2-  O204  1  0.16034083  0.20971057  0.26744272  1
  O2-  O205  1  0.16127147  0.21371688  0.60355351  1
  O2-  O206  1  0.16422499  0.20985340  0.93183119  1
  O2-  O207  1  0.16781802  0.70861030  0.26811176  1
  O2-  O208  1  0.16723697  0.69619147  0.60897736  1
  O2-  O209  1  0.16884014  0.70850813  0.92871021  1
  O2-  O210  1  0.66838858  0.20763824  0.26750251  1
  O2-  O211  1  0.66498575  0.21653711  0.59571583  1
  O2-  O212  1  0.66473843  0.20353230  0.93806033  1
  O2-  O213  1  0.67303058  0.69359381  0.26879430  1
  O2-  O214  1  0.66734337  0.69351534  0.60748928  1
  O2-  O215  1  0.66874907  0.69385826  0.93984779  1
  O2-  O216  1  0.08493871  0.45200334  0.05997355  1
  O2-  O217  1  0.08300895  0.44442566  0.39591687  1
  O2-  O218  1  0.08428054  0.45769985  0.73227393  1
  O2-  O219  1  0.08931397  0.95611179  0.06318743  1
  O2-  O220  1  0.09010867  0.96672765  0.40051539  1
  O2-  O221  1  0.08466105  0.96383352  0.73986953  1
  O2-  O222  1  0.58060023  0.46026654  0.06520216  1
  O2-  O223  1  0.57931069  0.45582540  0.40402738  1
  O2-  O224  1  0.58672657  0.45606555  0.72969350  1
  O2-  O225  1  0.58474829  0.96523030  0.06787399  1
  O2-  O226  1  0.57810137  0.96097521  0.40107538  1
  O2-  O227  1  0.58520390  0.95813139  0.72525405  1
  O2-  O228  1  0.20597298  0.33537383  0.06133502  1
  O2-  O229  1  0.20747202  0.33253724  0.39757390  1
  O2-  O230  1  0.20223544  0.33780397  0.73386784  1
  O2-  O231  1  0.21267008  0.83638890  0.06008533  1
  O2-  O232  1  0.20951865  0.83311848  0.40166754  1
  O2-  O233  1  0.20331978  0.82686117  0.73718175  1
  O2-  O234  1  0.70790831  0.33240055  0.06657411  1
  O2-  O235  1  0.70945101  0.33260486  0.40364334  1
  O2-  O236  1  0.70969041  0.33933098  0.72982962  1
  O2-  O237  1  0.70250300  0.82921170  0.06321901  1
  O2-  O238  1  0.69287943  0.82516751  0.39910127  1
  O2-  O239  1  0.69809590  0.83090872  0.72630145  1
  O2-  O240  1  0.45838933  0.41601093  0.26817448  1
  O2-  O241  1  0.45400148  0.41679046  0.60507969  1
  O2-  O242  1  0.45826092  0.41966448  0.92958062  1
  O2-  O243  1  0.44750090  0.92526881  0.26857936  1
  O2-  O244  1  0.45440133  0.91704722  0.59910222  1
  O2-  O245  1  0.45966165  0.92081091  0.93373148  1
  O2-  O246  1  0.95664017  0.41014332  0.27088287  1
  O2-  O247  1  0.95834820  0.41310172  0.60387292  1
  O2-  O248  1  0.96170600  0.41101528  0.92844842  1
  O2-  O249  1  0.96345086  0.91977137  0.26591614  1
  O2-  O250  1  0.95987395  0.92233874  0.60389253  1
  O2-  O251  1  0.95741092  0.92155475  0.93302945  1
  O2-  O252  1  0.33352583  0.28855176  0.26440398  1
  O2-  O253  1  0.32977469  0.30225319  0.60788243  1
  O2-  O254  1  0.33254218  0.29254931  0.93041747  1
  O2-  O255  1  0.33281192  0.78661195  0.26704211  1
  O2-  O256  1  0.33225870  0.78467498  0.60393255  1
  O2-  O257  1  0.33834987  0.78673106  0.92899789  1
  O2-  O258  1  0.83642948  0.29117550  0.27334997  1
  O2-  O259  1  0.83609676  0.29493780  0.60345393  1
  O2-  O260  1  0.83151628  0.28880101  0.93163444  1
  O2-  O261  1  0.82716608  0.80083765  0.27191083  1
  O2-  O262  1  0.83289191  0.79126835  0.60056715  1
  O2-  O263  1  0.82876384  0.79419654  0.93008249  1
  O2-  O264  1  0.41352967  0.04970372  0.06248463  1
  O2-  O265  1  0.41951336  0.06325158  0.38637893  1
  O2-  O266  1  0.42383173  0.04778754  0.73187311  1
  O2-  O267  1  0.41046769  0.54251445  0.06141179  1
  O2-  O268  1  0.41211160  0.53550301  0.40418492  1
  O2-  O269  1  0.41138631  0.53962617  0.73415882  1
  O2-  O270  1  0.92151446  0.05479739  0.05771059  1
  O2-  O271  1  0.92154107  0.04564745  0.39999742  1
  O2-  O272  1  0.91747691  0.04874134  0.73722096  1
  O2-  O273  1  0.91736037  0.53906789  0.05780382  1
  O2-  O274  1  0.91943398  0.53652388  0.40458170  1
  O2-  O275  1  0.91247796  0.53975698  0.73290103  1
  O2-  O276  1  0.28953548  0.16465496  0.06155953  1
  O2-  O277  1  0.28630598  0.16487461  0.39679271  1
  O2-  O278  1  0.29029793  0.16973034  0.73594712  1
  O2-  O279  1  0.29044786  0.66338858  0.06075199  1
  O2-  O280  1  0.28756614  0.66387134  0.40452468  1
  O2-  O281  1  0.29271592  0.65943069  0.73481690  1
  O2-  O282  1  0.79366896  0.16321219  0.06280904  1
  O2-  O283  1  0.79245579  0.16600671  0.40190010  1
  O2-  O284  1  0.78487808  0.16845395  0.73496656  1
  O2-  O285  1  0.80410923  0.66519885  0.05865555  1
  O2-  O286  1  0.79944036  0.67060487  0.40191737  1
  O2-  O287  1  0.79475754  0.66313094  0.73147784  1
