# generated using pymatgen
data_Ca2Al2SiO7
_symmetry_space_group_name_H-M   'P 1'
_cell_length_a   15.46130100
_cell_length_b   15.46083944
_cell_length_c   15.28487624
_cell_angle_alpha   90.00301056
_cell_angle_beta   90.01534851
_cell_angle_gamma   89.98294712
_symmetry_Int_Tables_number   1
_chemical_formula_structural   Ca2Al2SiO7
_chemical_formula_sum   'Ca48 Al48 Si24 O168'
_cell_volume   3653.76823899
_cell_formula_units_Z   24
loop_
 _symmetry_equiv_pos_site_id
 _symmetry_equiv_pos_as_xyz
  1  'x, y, z'
loop_
 _atom_type_symbol
 _atom_type_oxidation_number
  Ca2+  2.0
  Al0+  0.0
  Si0+  0.0
  O2-  -2.0
loop_
 _atom_site_type_symbol
 _atom_site_label
 _atom_site_symmetry_multiplicity
 _atom_site_fract_x
 _atom_site_fract_y
 _atom_site_fract_z
 _atom_site_occupancy
  Ca2+  Ca0  1  0.17532874  0.08281537  0.17507926  1
  Ca2+  Ca1  1  0.17286396  0.08092956  0.50127997  1
  Ca2+  Ca2  1  0.17152321  0.09220844  0.83934282  1
  Ca2+  Ca3  1  0.16316954  0.57129455  0.17541206  1
  Ca2+  Ca4  1  0.16277253  0.58079096  0.50410103  1
  Ca2+  Ca5  1  0.16820191  0.57817295  0.83816001  1
  Ca2+  Ca6  1  0.67774102  0.08517935  0.17531713  1
  Ca2+  Ca7  1  0.66826950  0.08246007  0.50772509  1
  Ca2+  Ca8  1  0.65766651  0.07723566  0.83191002  1
  Ca2+  Ca9  1  0.65993390  0.57623490  0.17046110  1
  Ca2+  Ca10  1  0.65550143  0.57700960  0.50431744  1
  Ca2+  Ca11  1  0.65937446  0.57348102  0.83699814  1
  Ca2+  Ca12  1  0.08007775  0.33136168  0.15671283  1
  Ca2+  Ca13  1  0.07868568  0.33025528  0.49735013  1
  Ca2+  Ca14  1  0.07728738  0.32842198  0.82865161  1
  Ca2+  Ca15  1  0.09114830  0.83110176  0.17160983  1
  Ca2+  Ca16  1  0.09090204  0.82216665  0.49298345  1
  Ca2+  Ca17  1  0.08160897  0.82685799  0.82545239  1
  Ca2+  Ca18  1  0.57877594  0.33947112  0.16629069  1
  Ca2+  Ca19  1  0.57485460  0.33961462  0.49581335  1
  Ca2+  Ca20  1  0.58099710  0.33034935  0.82242670  1
  Ca2+  Ca21  1  0.58154865  0.82328814  0.16286972  1
  Ca2+  Ca22  1  0.57743592  0.82976578  0.49441584  1
  Ca2+  Ca23  1  0.58014055  0.82354927  0.82114757  1
  Ca2+  Ca24  1  0.32031260  0.41243804  0.17482504  1
  Ca2+  Ca25  1  0.33184826  0.41087201  0.50090341  1
  Ca2+  Ca26  1  0.32924491  0.41440047  0.83788753  1
  Ca2+  Ca27  1  0.33228430  0.92846255  0.17687922  1
  Ca2+  Ca28  1  0.33808744  0.91449615  0.50160906  1
  Ca2+  Ca29  1  0.33690507  0.92359880  0.83648207  1
  Ca2+  Ca30  1  0.82128641  0.41033940  0.17013566  1
  Ca2+  Ca31  1  0.82092948  0.41584622  0.50690371  1
  Ca2+  Ca32  1  0.82507663  0.40704343  0.83495991  1
  Ca2+  Ca33  1  0.83407219  0.92553769  0.17529993  1
  Ca2+  Ca34  1  0.82832017  0.92390122  0.50471977  1
  Ca2+  Ca35  1  0.82552912  0.91504390  0.83280153  1
  Ca2+  Ca36  1  0.40682758  0.16921453  0.16750213  1
  Ca2+  Ca37  1  0.42118903  0.17479591  0.49792398  1
  Ca2+  Ca38  1  0.41923584  0.17301786  0.82554152  1
  Ca2+  Ca39  1  0.42600555  0.66860941  0.16798979  1
  Ca2+  Ca40  1  0.42616641  0.67689815  0.49436442  1
  Ca2+  Ca41  1  0.42741204  0.67006019  0.82481627  1
  Ca2+  Ca42  1  0.92332500  0.17070035  0.15783434  1
  Ca2+  Ca43  1  0.91645632  0.16893529  0.49911065  1
  Ca2+  Ca44  1  0.92774019  0.17748515  0.82747612  1
  Ca2+  Ca45  1  0.92182861  0.66491974  0.16824800  1
  Ca2+  Ca46  1  0.92791896  0.66273949  0.49741953  1
  Ca2+  Ca47  1  0.92371935  0.66453661  0.82821731  1
  Al0+  Al48  1  0.00023835  -0.00149491  -0.00498003  1
  Al0+  Al49  1  0.00144472  -0.00000616  0.34216650  1
  Al0+  Al50  1  0.00131534  -0.00032594  0.66596736  1
  Al0+  Al51  1  -0.00289842  0.50101602  -0.00039959  1
  Al0+  Al52  1  -0.00221324  0.49887390  0.33285751  1
  Al0+  Al53  1  -0.00118921  0.49899857  0.66127321  1
  Al0+  Al54  1  0.49892328  -0.00008691  0.00695344  1
  Al0+  Al55  1  0.50195365  0.00166967  0.33216692  1
  Al0+  Al56  1  0.49938897  0.00157162  0.66553976  1
  Al0+  Al57  1  0.49966294  0.50069463  0.00026754  1
  Al0+  Al58  1  0.49692971  0.49857727  0.32765242  1
  Al0+  Al59  1  0.49759113  0.50116922  0.66575224  1
  Al0+  Al60  1  0.25038301  0.25020494  0.00438769  1
  Al0+  Al61  1  0.24947409  0.24925805  0.33900471  1
  Al0+  Al62  1  0.24886719  0.24936050  0.66104223  1
  Al0+  Al63  1  0.25133692  0.75148444  0.00018932  1
  Al0+  Al64  1  0.25147210  0.74897033  0.32491197  1
  Al0+  Al65  1  0.25051331  0.74955436  0.66333056  1
  Al0+  Al66  1  0.74896015  0.24920724  0.00049254  1
  Al0+  Al67  1  0.74941892  0.25148779  0.34212045  1
  Al0+  Al68  1  0.75212565  0.24931972  0.66635922  1
  Al0+  Al69  1  0.74999677  0.74779310  -0.00344572  1
  Al0+  Al70  1  0.75304115  0.74925404  0.32876130  1
  Al0+  Al71  1  0.75184588  0.74953637  0.66834059  1
  Al0+  Al72  1  0.82172476  0.07186625  0.34747350  1
  Al0+  Al73  1  0.07295850  0.17909297  0.98699369  1
  Al0+  Al74  1  0.17634168  0.42917857  0.34890658  1
  Al0+  Al75  1  0.07215793  0.17727027  0.64873353  1
  Al0+  Al76  1  0.42789461  0.31830169  0.31721321  1
  Al0+  Al77  1  0.18172537  0.92751242  0.34955272  1
  Al0+  Al78  1  0.57279480  0.67843476  0.31667943  1
  Al0+  Al79  1  0.32388434  0.07169656  0.35290970  1
  Al0+  Al80  1  0.42971517  0.82208426  0.65312959  1
  Al0+  Al81  1  0.42950260  0.82431465  0.31496185  1
  Al0+  Al82  1  0.57173347  0.17880769  0.65366524  1
  Al0+  Al83  1  0.31992838  0.07044908  0.01326574  1
  Al0+  Al84  1  0.67737734  0.43267656  0.34785172  1
  Al0+  Al85  1  0.42870875  0.32268521  0.65296390  1
  Al0+  Al86  1  0.67892869  0.93001636  0.67970721  1
  Al0+  Al87  1  0.57344153  0.67848947  0.65209799  1
  Al0+  Al88  1  0.92637216  0.32216697  0.98561365  1
  Al0+  Al89  1  0.92877859  0.32078471  0.64903760  1
  Al0+  Al90  1  0.17867834  0.43154495  0.01161877  1
  Al0+  Al91  1  0.07099289  0.67737451  0.31805306  1
  Al0+  Al92  1  0.67894610  0.42814721  0.01392687  1
  Al0+  Al93  1  0.57015560  0.67877909  0.98333816  1
  Al0+  Al94  1  0.67776364  0.43014875  0.68057383  1
  Al0+  Al95  1  0.07033090  0.67983377  0.65462663  1
  Si0+  Si96  1  0.82228321  0.57323894  0.35022546  1
  Si0+  Si97  1  0.31889796  0.57239744  0.68129150  1
  Si0+  Si98  1  0.68008070  0.92626252  0.34760054  1
  Si0+  Si99  1  0.93023995  0.82374124  0.31725113  1
  Si0+  Si100  1  0.17941549  0.92654242  0.68263285  1
  Si0+  Si101  1  0.92720595  0.31973501  0.31796811  1
  Si0+  Si102  1  0.92754578  0.82280090  0.64993926  1
  Si0+  Si103  1  0.42935591  0.82405632  0.98296193  1
  Si0+  Si104  1  0.57469428  0.17992832  0.31628208  1
  Si0+  Si105  1  0.06929732  0.17875006  0.31917823  1
  Si0+  Si106  1  0.92812625  0.82167414  0.98439756  1
  Si0+  Si107  1  0.82103788  0.06870154  0.01261661  1
  Si0+  Si108  1  0.32041070  0.57051105  0.34926816  1
  Si0+  Si109  1  0.67974994  0.92713794  0.01511960  1
  Si0+  Si110  1  0.32198459  0.57401209  0.01724843  1
  Si0+  Si111  1  0.57177091  0.17727593  0.98759568  1
  Si0+  Si112  1  0.82431032  0.57124151  0.68403065  1
  Si0+  Si113  1  0.17807643  0.42865185  0.68129526  1
  Si0+  Si114  1  0.07138899  0.67929183  0.98598058  1
  Si0+  Si115  1  0.42924143  0.31986508  0.98722476  1
  Si0+  Si116  1  0.31902544  0.07150467  0.68256590  1
  Si0+  Si117  1  0.17548888  0.92578272  0.01563962  1
  Si0+  Si118  1  0.82175781  0.57428778  0.01773353  1
  Si0+  Si119  1  0.82488599  0.07200876  0.68729259  1
  O2-  O120  1  0.24314828  -0.00371966  0.05732364  1
  O2-  O121  1  0.25624955  -0.00505374  0.40218568  1
  O2-  O122  1  0.24710728  0.00061729  0.72520498  1
  O2-  O123  1  0.25059947  0.50783547  0.06072178  1
  O2-  O124  1  0.24922332  0.50552280  0.39574431  1
  O2-  O125  1  0.24970332  0.49903649  0.72374076  1
  O2-  O126  1  0.75057666  -0.00177774  0.05742181  1
  O2-  O127  1  0.74619521  -0.00291480  0.39193441  1
  O2-  O128  1  0.75301538  0.00493058  0.73017883  1
  O2-  O129  1  0.75422030  0.50337076  0.05988733  1
  O2-  O130  1  0.74834124  0.51096041  0.39413958  1
  O2-  O131  1  0.75265517  0.50544365  0.72807064  1
  O2-  O132  1  -0.00089105  0.24985055  0.27539326  1
  O2-  O133  1  -0.00112718  0.24736351  0.59840226  1
  O2-  O134  1  0.00228739  0.25285319  0.93777239  1
  O2-  O135  1  -0.00167465  0.75486992  0.27164959  1
  O2-  O136  1  -0.00321260  0.75467843  0.60681910  1
  O2-  O137  1  0.00162883  0.75183777  0.94395730  1
  O2-  O138  1  0.50241553  0.24333782  0.26955505  1
  O2-  O139  1  0.50583243  0.25587354  0.60367610  1
  O2-  O140  1  0.50146207  0.24950546  0.94630433  1
  O2-  O141  1  0.50387641  0.75357009  0.26637065  1
  O2-  O142  1  0.50563750  0.75451344  0.60367940  1
  O2-  O143  1  0.49575809  0.75426579  0.93778580  1
  O2-  O144  1  0.07006071  0.17768843  0.10091301  1
  O2-  O145  1  0.06715045  0.17954577  0.42388475  1
  O2-  O146  1  0.07385027  0.18036969  0.76272295  1
  O2-  O147  1  0.07000381  0.67921624  0.09069814  1
  O2-  O148  1  0.06798575  0.67696877  0.43099944  1
  O2-  O149  1  0.07007096  0.68113795  0.76861807  1
  O2-  O150  1  0.57489045  0.17622855  0.09239986  1
  O2-  O151  1  0.57672086  0.18268262  0.42138909  1
  O2-  O152  1  0.56576808  0.17746413  0.76832715  1
  O2-  O153  1  0.57026837  0.68061837  0.09609657  1
  O2-  O154  1  0.57154742  0.67999241  0.42978471  1
  O2-  O155  1  0.56955288  0.67829070  0.76617965  1
  O2-  O156  1  0.17546387  0.42912667  0.23522033  1
  O2-  O157  1  0.17780622  0.43047641  0.57639517  1
  O2-  O158  1  0.18151956  0.43298481  0.89807380  1
  O2-  O159  1  0.17855786  0.93291217  0.23532421  1
  O2-  O160  1  0.18082081  0.92378205  0.57831241  1
  O2-  O161  1  0.17571661  0.92138967  0.90993898  1
  O2-  O162  1  0.68048821  0.43054958  0.23430486  1
  O2-  O163  1  0.67737189  0.43325972  0.56776528  1
  O2-  O164  1  0.67784833  0.42763355  0.90107169  1
  O2-  O165  1  0.68419777  0.92717815  0.24119081  1
  O2-  O166  1  0.68217132  0.93122894  0.56684463  1
  O2-  O167  1  0.67952995  0.92821050  0.91005666  1
  O2-  O168  1  0.42819206  0.31882389  0.09210196  1
  O2-  O169  1  0.42984315  0.31924238  0.42975641  1
  O2-  O170  1  0.42567994  0.31991243  0.76758878  1
  O2-  O171  1  0.43168982  0.82483601  0.08794854  1
  O2-  O172  1  0.43130322  0.82169787  0.42843985  1
  O2-  O173  1  0.42853714  0.81993824  0.76742927  1
  O2-  O174  1  0.92516374  0.31782480  0.09970001  1
  O2-  O175  1  0.92785049  0.31907190  0.42259712  1
  O2-  O176  1  0.93150146  0.32107608  0.76290289  1
  O2-  O177  1  0.92616940  0.82394045  0.08914321  1
  O2-  O178  1  0.92862502  0.82259680  0.42236824  1
  O2-  O179  1  0.92922814  0.82205151  0.75636568  1
  O2-  O180  1  0.31768656  0.07306648  0.23885184  1
  O2-  O181  1  0.31867370  0.07151035  0.57827048  1
  O2-  O182  1  0.32206820  0.06958537  0.89979780  1
  O2-  O183  1  0.31846871  0.56635320  0.24314759  1
  O2-  O184  1  0.31615169  0.57523896  0.57672441  1
  O2-  O185  1  0.32049094  0.57427387  0.91119094  1
  O2-  O186  1  0.82203528  0.07089464  0.23316018  1
  O2-  O187  1  0.82636861  0.06858628  0.58172567  1
  O2-  O188  1  0.81994736  0.06597934  0.90807135  1
  O2-  O189  1  0.82540230  0.57048434  0.24445766  1
  O2-  O190  1  0.82813859  0.57005497  0.57875090  1
  O2-  O191  1  0.82292252  0.57871559  0.91250012  1
  O2-  O192  1  0.04085025  0.08615475  0.27377619  1
  O2-  O193  1  0.04686240  0.07695448  0.59890374  1
  O2-  O194  1  0.04534752  0.08042991  0.93300240  1
  O2-  O195  1  0.03433951  0.58226935  0.26331711  1
  O2-  O196  1  0.03975674  0.58470120  0.59926968  1
  O2-  O197  1  0.04173192  0.58902780  0.93678158  1
  O2-  O198  1  0.55703596  0.08401076  0.27164174  1
  O2-  O199  1  0.53960699  0.08337492  0.59849936  1
  O2-  O200  1  0.54227012  0.08489996  0.94161099  1
  O2-  O201  1  0.53772566  0.58251384  0.26219035  1
  O2-  O202  1  0.53813518  0.58317686  0.59959065  1
  O2-  O203  1  0.53704773  0.58211968  0.93049609  1
  O2-  O204  1  0.16165558  0.20678330  0.27398927  1
  O2-  O205  1  0.16854851  0.20713764  0.59464095  1
  O2-  O206  1  0.17138357  0.20873965  0.93461659  1
  O2-  O207  1  0.16667701  0.70427386  0.26100916  1
  O2-  O208  1  0.16548083  0.71033603  0.59971225  1
  O2-  O209  1  0.16443341  0.70520253  0.93919770  1
  O2-  O210  1  0.66752649  0.21082675  0.26996074  1
  O2-  O211  1  0.67355441  0.19601652  0.60575068  1
  O2-  O212  1  0.66286189  0.20282934  0.93840419  1
  O2-  O213  1  0.67336164  0.70254818  0.26405297  1
  O2-  O214  1  0.67473102  0.69978501  0.60351394  1
  O2-  O215  1  0.66773049  0.70815508  0.93071119  1
  O2-  O216  1  0.08074462  0.46034115  0.06461616  1
  O2-  O217  1  0.07922162  0.45984503  0.40156203  1
  O2-  O218  1  0.08645563  0.45888942  0.72775222  1
  O2-  O219  1  0.08038178  0.94824834  0.06026512  1
  O2-  O220  1  0.08429127  0.95574554  0.40440507  1
  O2-  O221  1  0.08556213  0.95019122  0.72916261  1
  O2-  O222  1  0.58196943  0.46015042  0.06717677  1
  O2-  O223  1  0.57865886  0.46099237  0.39786287  1
  O2-  O224  1  0.57980212  0.45980479  0.73435378  1
  O2-  O225  1  0.58869659  0.95414801  0.06364507  1
  O2-  O226  1  0.58574400  0.94909722  0.39132551  1
  O2-  O227  1  0.58243821  0.96151556  0.73555752  1
  O2-  O228  1  0.21082100  0.33637937  0.06723667  1
  O2-  O229  1  0.20803616  0.33397121  0.40318240  1
  O2-  O230  1  0.20651236  0.33625029  0.72737403  1
  O2-  O231  1  0.20213891  0.83279495  0.06330308  1
  O2-  O232  1  0.20551843  0.82514127  0.39599145  1
  O2-  O233  1  0.20941448  0.83568505  0.73204703  1
  O2-  O234  1  0.70887848  0.33102554  0.06883046  1
  O2-  O235  1  0.71077498  0.33817533  0.40321011  1
  O2-  O236  1  0.70857755  0.33194610  0.73305047  1
  O2-  O237  1  0.71012229  0.83558544  0.06110075  1
  O2-  O238  1  0.70868365  0.83341049  0.39306342  1
  O2-  O239  1  0.71188271  0.83370988  0.73576655  1
  O2-  O240  1  0.45730933  0.41403491  0.26104463  1
  O2-  O241  1  0.45035017  0.42203031  0.60046358  1
  O2-  O242  1  0.45432472  0.41245056  0.94033434  1
  O2-  O243  1  0.45682176  0.92405513  0.26303837  1
  O2-  O244  1  0.45388578  0.92084375  0.60154650  1
  O2-  O245  1  0.45698954  0.91787318  0.93794562  1
  O2-  O246  1  0.95310059  0.41177747  0.27056159  1
  O2-  O247  1  0.95774949  0.41793011  0.59508378  1
  O2-  O248  1  0.94953450  0.42254608  0.93437472  1
  O2-  O249  1  0.95788698  0.91746485  0.27140426  1
  O2-  O250  1  0.95175864  0.91641604  0.60506132  1
  O2-  O251  1  0.95400466  0.91208113  0.93309891  1
  O2-  O252  1  0.32980201  0.28636180  0.26526978  1
  O2-  O253  1  0.33258455  0.29098321  0.59897685  1
  O2-  O254  1  0.33833186  0.29075096  0.93919701  1
  O2-  O255  1  0.33251689  0.79471129  0.25962905  1
  O2-  O256  1  0.33325783  0.79016449  0.59967055  1
  O2-  O257  1  0.33363356  0.80179085  0.93882672  1
  O2-  O258  1  0.83514011  0.28954537  0.27231880  1
  O2-  O259  1  0.83031845  0.29330179  0.59703230  1
  O2-  O260  1  0.82972233  0.28809093  0.93212614  1
  O2-  O261  1  0.83781694  0.79913983  0.26736397  1
  O2-  O262  1  0.83459479  0.79782863  0.60389807  1
  O2-  O263  1  0.83797405  0.79154380  0.93487795  1
  O2-  O264  1  0.41555042  0.04059017  0.07090873  1
  O2-  O265  1  0.42605601  0.05022441  0.40055207  1
  O2-  O266  1  0.41045935  0.04353499  0.73091197  1
  O2-  O267  1  0.41433680  0.54568422  0.06317803  1
  O2-  O268  1  0.41264151  0.54130633  0.39480805  1
  O2-  O269  1  0.41002027  0.54529008  0.73066499  1
  O2-  O270  1  0.91314931  0.03972919  0.05974772  1
  O2-  O271  1  0.91562116  0.03993195  0.40466809  1
  O2-  O272  1  0.91769152  0.04205725  0.73408334  1
  O2-  O273  1  0.91584566  0.55110180  0.06423451  1
  O2-  O274  1  0.91294590  0.54131222  0.39829707  1
  O2-  O275  1  0.91730513  0.54241461  0.73170884  1
  O2-  O276  1  0.29016032  0.16606090  0.06945202  1
  O2-  O277  1  0.28974179  0.16747305  0.40643161  1
  O2-  O278  1  0.28952790  0.16359586  0.72990771  1
  O2-  O279  1  0.29955666  0.66897216  0.06218470  1
  O2-  O280  1  0.29862291  0.66614268  0.39096727  1
  O2-  O281  1  0.28795266  0.66241997  0.73198754  1
  O2-  O282  1  0.79240955  0.15957697  0.06128355  1
  O2-  O283  1  0.79038077  0.16615781  0.40421974  1
  O2-  O284  1  0.80282830  0.16657924  0.73186976  1
  O2-  O285  1  0.79526970  0.66748766  0.06539328  1
  O2-  O286  1  0.80579161  0.67004742  0.39313513  1
  O2-  O287  1  0.80499311  0.66676522  0.72973145  1
