# generated using pymatgen
data_Ca2Al2SiO7
_symmetry_space_group_name_H-M   'P 1'
_cell_length_a   15.45949880
_cell_length_b   15.45914966
_cell_length_c   15.28487020
_cell_angle_alpha   90.01426487
_cell_angle_beta   89.99249132
_cell_angle_gamma   89.97752075
_symmetry_Int_Tables_number   1
_chemical_formula_structural   Ca2Al2SiO7
_chemical_formula_sum   'Ca48 Al48 Si24 O168'
_cell_volume   3652.94148806
_cell_formula_units_Z   24
loop_
 _symmetry_equiv_pos_site_id
 _symmetry_equiv_pos_as_xyz
  1  'x, y, z'
loop_
 _atom_type_symbol
 _atom_type_oxidation_number
  Ca2+  2.0
  Al0+  0.0
  Si0+  0.0
  O2-  -2.0
loop_
 _atom_site_type_symbol
 _atom_site_label
 _atom_site_symmetry_multiplicity
 _atom_site_fract_x
 _atom_site_fract_y
 _atom_site_fract_z
 _atom_site_occupancy
  Ca2+  Ca0  1  0.16593272  0.07723878  0.17536913  1
  Ca2+  Ca1  1  0.15273499  0.08116441  0.49984436  1
  Ca2+  Ca2  1  0.16554972  0.08536294  0.83581022  1
  Ca2+  Ca3  1  0.16091904  0.58238283  0.16935441  1
  Ca2+  Ca4  1  0.17186264  0.58509185  0.50466597  1
  Ca2+  Ca5  1  0.16905993  0.57688432  0.84161866  1
  Ca2+  Ca6  1  0.66810259  0.07622708  0.16776214  1
  Ca2+  Ca7  1  0.67424069  0.07594724  0.50511836  1
  Ca2+  Ca8  1  0.67882849  0.08236609  0.84486101  1
  Ca2+  Ca9  1  0.67559105  0.57863496  0.17790695  1
  Ca2+  Ca10  1  0.67209774  0.58059901  0.49958359  1
  Ca2+  Ca11  1  0.66495091  0.58450477  0.83340815  1
  Ca2+  Ca12  1  0.07972869  0.33184861  0.16522397  1
  Ca2+  Ca13  1  0.07353059  0.32303821  0.49363073  1
  Ca2+  Ca14  1  0.07893954  0.32828577  0.82638204  1
  Ca2+  Ca15  1  0.07616057  0.82468992  0.16378250  1
  Ca2+  Ca16  1  0.07217426  0.83166754  0.48986067  1
  Ca2+  Ca17  1  0.07204142  0.83186774  0.83126437  1
  Ca2+  Ca18  1  0.57593998  0.33409196  0.16152124  1
  Ca2+  Ca19  1  0.57342394  0.34063422  0.49377362  1
  Ca2+  Ca20  1  0.57604277  0.32947232  0.82970732  1
  Ca2+  Ca21  1  0.58174128  0.84105672  0.15915411  1
  Ca2+  Ca22  1  0.58841874  0.82752260  0.49654255  1
  Ca2+  Ca23  1  0.58252303  0.83223801  0.83323139  1
  Ca2+  Ca24  1  0.32932221  0.40996029  0.16840124  1
  Ca2+  Ca25  1  0.33492939  0.41826248  0.50777439  1
  Ca2+  Ca26  1  0.33158002  0.41610837  0.83762074  1
  Ca2+  Ca27  1  0.32914203  0.91658780  0.17442134  1
  Ca2+  Ca28  1  0.32158726  0.91831379  0.50187984  1
  Ca2+  Ca29  1  0.33320686  0.91679001  0.84071508  1
  Ca2+  Ca30  1  0.82891911  0.42233932  0.18020076  1
  Ca2+  Ca31  1  0.83763529  0.41677051  0.50074210  1
  Ca2+  Ca32  1  0.83505474  0.41583971  0.83790065  1
  Ca2+  Ca33  1  0.82957546  0.91510742  0.16991670  1
  Ca2+  Ca34  1  0.83635785  0.91714962  0.50453557  1
  Ca2+  Ca35  1  0.83536776  0.92513367  0.84084377  1
  Ca2+  Ca36  1  0.42534932  0.17557409  0.15956345  1
  Ca2+  Ca37  1  0.41571913  0.18038774  0.49372958  1
  Ca2+  Ca38  1  0.42272789  0.17547112  0.83276124  1
  Ca2+  Ca39  1  0.42005428  0.67562208  0.16093593  1
  Ca2+  Ca40  1  0.42299852  0.65907724  0.50040711  1
  Ca2+  Ca41  1  0.42036613  0.66911577  0.82805200  1
  Ca2+  Ca42  1  0.91647552  0.16647620  0.16759613  1
  Ca2+  Ca43  1  0.92024150  0.17126585  0.49857957  1
  Ca2+  Ca44  1  0.91828497  0.16563242  0.82368906  1
  Ca2+  Ca45  1  0.91923388  0.67440766  0.16388910  1
  Ca2+  Ca46  1  0.91870345  0.67582575  0.48877079  1
  Ca2+  Ca47  1  0.91780578  0.67867507  0.83170915  1
  Al0+  Al48  1  0.00070294  0.00066284  0.00194420  1
  Al0+  Al49  1  -0.00045025  -0.00064873  0.32969985  1
  Al0+  Al50  1  -0.00144591  -0.00158383  0.66522101  1
  Al0+  Al51  1  0.00213117  0.49910149  0.00084175  1
  Al0+  Al52  1  0.00188888  0.49952067  0.33357375  1
  Al0+  Al53  1  -0.00005759  0.50040420  0.66633738  1
  Al0+  Al54  1  0.50110733  0.00143319  -0.00593159  1
  Al0+  Al55  1  0.49994082  0.00135212  0.34134546  1
  Al0+  Al56  1  0.49772984  -0.00114781  0.66711713  1
  Al0+  Al57  1  0.49809753  0.50166436  -0.00202865  1
  Al0+  Al58  1  0.49988708  0.50119944  0.32993557  1
  Al0+  Al59  1  0.50010310  0.50152560  0.66528529  1
  Al0+  Al60  1  0.24953274  0.25112736  0.00148792  1
  Al0+  Al61  1  0.25129303  0.25080738  0.32648191  1
  Al0+  Al62  1  0.25014145  0.24805646  0.66020489  1
  Al0+  Al63  1  0.25135060  0.74844673  -0.00729929  1
  Al0+  Al64  1  0.25033654  0.75119097  0.33627602  1
  Al0+  Al65  1  0.25089913  0.75040680  0.67345346  1
  Al0+  Al66  1  0.75064111  0.24995804  0.00254427  1
  Al0+  Al67  1  0.74725262  0.24837348  0.33517905  1
  Al0+  Al68  1  0.74917802  0.24920081  0.66772633  1
  Al0+  Al69  1  0.75059484  0.75063902  -0.00058733  1
  Al0+  Al70  1  0.74980095  0.74892339  0.33721349  1
  Al0+  Al71  1  0.74797259  0.74826652  0.66049209  1
  Al0+  Al72  1  0.07064778  0.17834111  0.65259409  1
  Al0+  Al73  1  0.17988481  0.42904292  0.01472134  1
  Al0+  Al74  1  0.92978981  0.81878385  0.65265457  1
  Al0+  Al75  1  0.92615621  0.32353337  0.65299773  1
  Al0+  Al76  1  0.43083446  0.32318700  0.31761397  1
  Al0+  Al77  1  0.07098978  0.67652308  0.98307207  1
  Al0+  Al78  1  0.07461781  0.67890328  0.31994733  1
  Al0+  Al79  1  0.92623111  0.82057815  0.31674582  1
  Al0+  Al80  1  0.82340606  0.56923873  0.34926561  1
  Al0+  Al81  1  0.42762868  0.32200418  0.98351987  1
  Al0+  Al82  1  0.92663693  0.32075949  0.31774251  1
  Al0+  Al83  1  0.17886803  0.92956801  0.34602257  1
  Al0+  Al84  1  0.32166878  0.56993464  0.68175719  1
  Al0+  Al85  1  0.67714739  0.42768574  0.34812010  1
  Al0+  Al86  1  0.81948801  0.06928155  0.68004322  1
  Al0+  Al87  1  0.43138429  0.31940695  0.65290007  1
  Al0+  Al88  1  0.42942070  0.82220732  0.98772994  1
  Al0+  Al89  1  0.67775265  0.92908505  0.34890314  1
  Al0+  Al90  1  0.07023602  0.17900423  0.31541036  1
  Al0+  Al91  1  0.67935371  0.92908519  0.01356243  1
  Al0+  Al92  1  0.56867295  0.68046130  0.65156261  1
  Al0+  Al93  1  0.57323675  0.17989420  0.98492871  1
  Al0+  Al94  1  0.92856387  0.82200454  0.98417717  1
  Al0+  Al95  1  0.82400168  0.07293842  0.01795045  1
  Si0+  Si96  1  0.57070162  0.17515041  0.31824711  1
  Si0+  Si97  1  0.67894644  0.43001683  0.68237688  1
  Si0+  Si98  1  0.17839192  0.42679867  0.68154616  1
  Si0+  Si99  1  0.32179740  0.07232953  0.68265067  1
  Si0+  Si100  1  0.82158570  0.57204833  0.68258250  1
  Si0+  Si101  1  0.82105703  0.57027301  0.01302032  1
  Si0+  Si102  1  0.67658561  0.92557979  0.68409942  1
  Si0+  Si103  1  0.67758187  0.42988834  0.01305903  1
  Si0+  Si104  1  0.57008802  0.68006687  0.31796690  1
  Si0+  Si105  1  0.07119557  0.17889858  0.98613272  1
  Si0+  Si106  1  0.32089474  0.07103409  0.01387005  1
  Si0+  Si107  1  0.32075517  0.57181304  0.34721111  1
  Si0+  Si108  1  0.42517491  0.82388917  0.64794262  1
  Si0+  Si109  1  0.32126817  0.07329779  0.35052775  1
  Si0+  Si110  1  0.18023591  0.42715457  0.34929880  1
  Si0+  Si111  1  0.18044158  0.92770675  0.01395637  1
  Si0+  Si112  1  0.82243500  0.07162322  0.35175702  1
  Si0+  Si113  1  0.92928754  0.32110521  0.98703284  1
  Si0+  Si114  1  0.07398285  0.67813083  0.65148170  1
  Si0+  Si115  1  0.17892387  0.93024530  0.68354191  1
  Si0+  Si116  1  0.57258299  0.17588449  0.64931256  1
  Si0+  Si117  1  0.43006808  0.82221130  0.32210126  1
  Si0+  Si118  1  0.57290423  0.67780143  0.98496274  1
  Si0+  Si119  1  0.32266579  0.57323671  0.01816567  1
  O2-  O120  1  0.25268026  -0.00239720  0.05650264  1
  O2-  O121  1  0.24921465  0.00807361  0.39487609  1
  O2-  O122  1  0.25104819  0.00089298  0.72534273  1
  O2-  O123  1  0.25476038  0.50408221  0.06227719  1
  O2-  O124  1  0.25045528  0.50016910  0.38977733  1
  O2-  O125  1  0.24551211  0.49638410  0.72730393  1
  O2-  O126  1  0.75226295  -0.00101023  0.06521368  1
  O2-  O127  1  0.75493946  0.00087798  0.39534239  1
  O2-  O128  1  0.74296847  -0.00362422  0.72748902  1
  O2-  O129  1  0.74808391  0.50111298  0.05471374  1
  O2-  O130  1  0.75406545  0.49384097  0.39951065  1
  O2-  O131  1  0.75447004  0.49677395  0.72527170  1
  O2-  O132  1  -0.00190856  0.25010792  0.26442831  1
  O2-  O133  1  -0.00083298  0.25183260  0.60506008  1
  O2-  O134  1  -0.00280001  0.24706370  0.94477777  1
  O2-  O135  1  -0.00078315  0.74737432  0.27007921  1
  O2-  O136  1  0.00363151  0.74344520  0.60611712  1
  O2-  O137  1  0.00058075  0.74996072  0.93359859  1
  O2-  O138  1  0.50715995  0.24891585  0.27406419  1
  O2-  O139  1  0.50444024  0.24440716  0.60395430  1
  O2-  O140  1  0.50263218  0.25323957  0.93422283  1
  O2-  O141  1  0.50352600  0.75561437  0.27703994  1
  O2-  O142  1  0.49477324  0.75623555  0.60405690  1
  O2-  O143  1  0.50513997  0.74809781  0.94206034  1
  O2-  O144  1  0.07375559  0.17963681  0.09059062  1
  O2-  O145  1  0.06960028  0.18084781  0.42878970  1
  O2-  O146  1  0.07181633  0.17954903  0.76693817  1
  O2-  O147  1  0.06963826  0.67756042  0.09633227  1
  O2-  O148  1  0.07805266  0.68300918  0.43388559  1
  O2-  O149  1  0.07277269  0.67941802  0.75704386  1
  O2-  O150  1  0.57015717  0.18042125  0.09864395  1
  O2-  O151  1  0.56566633  0.17243285  0.42391845  1
  O2-  O152  1  0.57127061  0.17794101  0.75478442  1
  O2-  O153  1  0.57148362  0.67527991  0.09048521  1
  O2-  O154  1  0.56665544  0.67779936  0.42301639  1
  O2-  O155  1  0.56847727  0.68114267  0.76495829  1
  O2-  O156  1  0.18193183  0.42601650  0.24412219  1
  O2-  O157  1  0.17999059  0.42787827  0.57597773  1
  O2-  O158  1  0.17999153  0.42791171  0.90132489  1
  O2-  O159  1  0.18519391  0.92793183  0.23275964  1
  O2-  O160  1  0.18029421  0.92923175  0.57853201  1
  O2-  O161  1  0.18084550  0.93121533  0.90837667  1
  O2-  O162  1  0.67480401  0.43385389  0.23395744  1
  O2-  O163  1  0.67634993  0.43244433  0.57787452  1
  O2-  O164  1  0.67856250  0.43079148  0.90742718  1
  O2-  O165  1  0.67202418  0.93216050  0.23643245  1
  O2-  O166  1  0.67700384  0.92659684  0.57833236  1
  O2-  O167  1  0.67972415  0.92935765  0.89987779  1
  O2-  O168  1  0.42924235  0.32011776  0.09697297  1
  O2-  O169  1  0.43022092  0.32358881  0.43105734  1
  O2-  O170  1  0.43221581  0.31835073  0.76567774  1
  O2-  O171  1  0.42789625  0.82094863  0.10142066  1
  O2-  O172  1  0.42906407  0.81931851  0.42707409  1
  O2-  O173  1  0.42535099  0.82442269  0.75360440  1
  O2-  O174  1  0.93028302  0.32329082  0.09156162  1
  O2-  O175  1  0.92957565  0.31938718  0.43112587  1
  O2-  O176  1  0.92810257  0.32418224  0.76739905  1
  O2-  O177  1  0.92843023  0.81959145  0.09709042  1
  O2-  O178  1  0.92847601  0.81983410  0.43073292  1
  O2-  O179  1  0.93115318  0.81925017  0.76567853  1
  O2-  O180  1  0.32456349  0.06924256  0.24475403  1
  O2-  O181  1  0.32420874  0.07103178  0.57793081  1
  O2-  O182  1  0.31743084  0.07131145  0.90830670  1
  O2-  O183  1  0.32188778  0.57393209  0.24230411  1
  O2-  O184  1  0.32071375  0.56853139  0.56800814  1
  O2-  O185  1  0.32343627  0.57241637  0.91258220  1
  O2-  O186  1  0.82048326  0.07222931  0.24633657  1
  O2-  O187  1  0.81873641  0.06744419  0.56713859  1
  O2-  O188  1  0.82475517  0.07331580  0.90394048  1
  O2-  O189  1  0.81857074  0.57065876  0.23492797  1
  O2-  O190  1  0.82041893  0.57323676  0.57823165  1
  O2-  O191  1  0.81991068  0.56877254  0.90729985  1
  O2-  O192  1  0.04472238  0.07991464  0.26330502  1
  O2-  O193  1  0.04039104  0.08078168  0.60013845  1
  O2-  O194  1  0.04748055  0.08629823  0.93843210  1
  O2-  O195  1  0.05267234  0.57828871  0.27024782  1
  O2-  O196  1  0.05290361  0.58296880  0.60746764  1
  O2-  O197  1  0.04114436  0.57830334  0.93001835  1
  O2-  O198  1  0.53768529  0.08392257  0.27106739  1
  O2-  O199  1  0.54646475  0.08141115  0.60523755  1
  O2-  O200  1  0.54289038  0.08399520  0.92869418  1
  O2-  O201  1  0.53755900  0.59162086  0.26734468  1
  O2-  O202  1  0.53565025  0.58545194  0.59639755  1
  O2-  O203  1  0.54526498  0.58592228  0.93591812  1
  O2-  O204  1  0.16942407  0.20621776  0.26315957  1
  O2-  O205  1  0.16895434  0.20215241  0.59753613  1
  O2-  O206  1  0.16190979  0.20913491  0.93786099  1
  O2-  O207  1  0.17204636  0.71109966  0.26584320  1
  O2-  O208  1  0.16824053  0.70560573  0.60817806  1
  O2-  O209  1  0.16992730  0.70232341  0.93032672  1
  O2-  O210  1  0.66594494  0.19354477  0.27439778  1
  O2-  O211  1  0.66599252  0.20071312  0.60397377  1
  O2-  O212  1  0.67183450  0.20910659  0.93230867  1
  O2-  O213  1  0.66313490  0.70339470  0.27271622  1
  O2-  O214  1  0.66410959  0.70878841  0.59455537  1
  O2-  O215  1  0.66614014  0.70120011  0.93740688  1
  O2-  O216  1  0.08345557  0.45957315  0.06988472  1
  O2-  O217  1  0.08864480  0.45234285  0.39749113  1
  O2-  O218  1  0.08414919  0.45105478  0.72821500  1
  O2-  O219  1  0.08996633  0.95679947  0.06200046  1
  O2-  O220  1  0.08136058  0.95794093  0.39946464  1
  O2-  O221  1  0.08807968  0.95978435  0.73145823  1
  O2-  O222  1  0.58505237  0.45756267  0.05932128  1
  O2-  O223  1  0.58056327  0.46521562  0.40084414  1
  O2-  O224  1  0.58980101  0.46424669  0.73149725  1
  O2-  O225  1  0.57942303  0.95878227  0.06438847  1
  O2-  O226  1  0.58228695  0.96024276  0.40716560  1
  O2-  O227  1  0.58024515  0.94730041  0.72699080  1
  O2-  O228  1  0.21153146  0.33311565  0.07041114  1
  O2-  O229  1  0.21158573  0.33588213  0.39572439  1
  O2-  O230  1  0.20574853  0.33259707  0.72596534  1
  O2-  O231  1  0.20869278  0.83476611  0.05798951  1
  O2-  O232  1  0.21560461  0.83630557  0.40388903  1
  O2-  O233  1  0.20679329  0.83933434  0.73299966  1
  O2-  O234  1  0.70458179  0.33884739  0.06119432  1
  O2-  O235  1  0.69392950  0.32603394  0.39875866  1
  O2-  O236  1  0.70177890  0.33677391  0.72959338  1
  O2-  O237  1  0.70316030  0.82863297  0.06593164  1
  O2-  O238  1  0.70468033  0.83120837  0.40191001  1
  O2-  O239  1  0.70257154  0.83101217  0.72748291  1
  O2-  O240  1  0.46020652  0.41948910  0.26226185  1
  O2-  O241  1  0.46327456  0.41574410  0.59998326  1
  O2-  O242  1  0.45268666  0.42223843  0.93286357  1
  O2-  O243  1  0.45421807  0.91596931  0.27722628  1
  O2-  O244  1  0.44762360  0.91837658  0.60226244  1
  O2-  O245  1  0.45698603  0.91759193  0.93009949  1
  O2-  O246  1  0.95556791  0.41981076  0.26673261  1
  O2-  O247  1  0.95339769  0.42263058  0.60064707  1
  O2-  O248  1  0.95980203  0.41113348  0.93782294  1
  O2-  O249  1  0.95394844  0.91859329  0.26500197  1
  O2-  O250  1  0.96268379  0.91380170  0.59852677  1
  O2-  O251  1  0.96077050  0.92041386  0.93271134  1
  O2-  O252  1  0.33589420  0.29084166  0.26260764  1
  O2-  O253  1  0.33529430  0.28964770  0.59776724  1
  O2-  O254  1  0.33017993  0.28897201  0.93145685  1
  O2-  O255  1  0.34018427  0.79107356  0.27353483  1
  O2-  O256  1  0.33099730  0.79661353  0.60421809  1
  O2-  O257  1  0.33528583  0.79113549  0.92920903  1
  O2-  O258  1  0.82578545  0.29522538  0.26774249  1
  O2-  O259  1  0.82725698  0.29615224  0.60144952  1
  O2-  O260  1  0.83610399  0.29809749  0.94049878  1
  O2-  O261  1  0.82731346  0.79057970  0.26583239  1
  O2-  O262  1  0.83314799  0.78961112  0.59939020  1
  O2-  O263  1  0.83050441  0.79202808  0.93079780  1
  O2-  O264  1  0.41366258  0.04519835  0.05916267  1
  O2-  O265  1  0.41178460  0.04492555  0.40127671  1
  O2-  O266  1  0.41333990  0.04449007  0.73177757  1
  O2-  O267  1  0.41727260  0.54999888  0.06429918  1
  O2-  O268  1  0.41255627  0.54291852  0.39410007  1
  O2-  O269  1  0.41808098  0.53850932  0.73577153  1
  O2-  O270  1  0.92315370  0.04598348  0.07014709  1
  O2-  O271  1  0.91677064  0.04670056  0.39585167  1
  O2-  O272  1  0.91616364  0.03701728  0.73401472  1
  O2-  O273  1  0.91173448  0.54037937  0.06013573  1
  O2-  O274  1  0.92333970  0.54590523  0.40196182  1
  O2-  O275  1  0.91482847  0.54867314  0.73027252  1
  O2-  O276  1  0.29103082  0.16127765  0.06262968  1
  O2-  O277  1  0.29775758  0.16871234  0.39362209  1
  O2-  O278  1  0.29268970  0.16394844  0.73011857  1
  O2-  O279  1  0.29716438  0.66783093  0.06277036  1
  O2-  O280  1  0.29424533  0.66257979  0.39774367  1
  O2-  O281  1  0.29511838  0.66775190  0.73650922  1
  O2-  O282  1  0.79429210  0.17137759  0.07092487  1
  O2-  O283  1  0.79492119  0.16429425  0.39887781  1
  O2-  O284  1  0.79146292  0.16729698  0.73438800  1
  O2-  O285  1  0.79436706  0.66210085  0.06018878  1
  O2-  O286  1  0.78912714  0.66535814  0.40353763  1
  O2-  O287  1  0.78666496  0.66194935  0.73023684  1
