# generated using pymatgen
data_Ca2Al2SiO7
_symmetry_space_group_name_H-M   'P 1'
_cell_length_a   15.45416418
_cell_length_b   15.45566728
_cell_length_c   15.28069675
_cell_angle_alpha   90.00155232
_cell_angle_beta   90.00832172
_cell_angle_gamma   89.99713001
_symmetry_Int_Tables_number   1
_chemical_formula_structural   Ca2Al2SiO7
_chemical_formula_sum   'Ca48 Al48 Si24 O168'
_cell_volume   3649.86191141
_cell_formula_units_Z   24
loop_
 _symmetry_equiv_pos_site_id
 _symmetry_equiv_pos_as_xyz
  1  'x, y, z'
loop_
 _atom_type_symbol
 _atom_type_oxidation_number
  Ca2+  2.0
  Al0+  0.0
  Si0+  0.0
  O2-  -2.0
loop_
 _atom_site_type_symbol
 _atom_site_label
 _atom_site_symmetry_multiplicity
 _atom_site_fract_x
 _atom_site_fract_y
 _atom_site_fract_z
 _atom_site_occupancy
  Ca2+  Ca0  1  0.17205277  0.07409800  0.16974749  1
  Ca2+  Ca1  1  0.16230864  0.07475870  0.50661973  1
  Ca2+  Ca2  1  0.16387170  0.07622630  0.84049361  1
  Ca2+  Ca3  1  0.16472116  0.58326191  0.16230489  1
  Ca2+  Ca4  1  0.17508307  0.58407705  0.50687624  1
  Ca2+  Ca5  1  0.17662922  0.58319596  0.84428669  1
  Ca2+  Ca6  1  0.67013776  0.08641352  0.17134071  1
  Ca2+  Ca7  1  0.66213880  0.07387674  0.50345498  1
  Ca2+  Ca8  1  0.66824497  0.08186247  0.83801578  1
  Ca2+  Ca9  1  0.66444816  0.57707324  0.17120449  1
  Ca2+  Ca10  1  0.66415056  0.57692267  0.50601652  1
  Ca2+  Ca11  1  0.66601821  0.58540609  0.83830906  1
  Ca2+  Ca12  1  0.07227052  0.33833452  0.15763520  1
  Ca2+  Ca13  1  0.07582162  0.32798138  0.49660331  1
  Ca2+  Ca14  1  0.07591860  0.33164177  0.82721094  1
  Ca2+  Ca15  1  0.08434231  0.83447428  0.16354147  1
  Ca2+  Ca16  1  0.07325159  0.84344659  0.49636216  1
  Ca2+  Ca17  1  0.08396014  0.83635441  0.82940276  1
  Ca2+  Ca18  1  0.58911578  0.32305321  0.16312701  1
  Ca2+  Ca19  1  0.58837027  0.32092620  0.49441922  1
  Ca2+  Ca20  1  0.58169743  0.31905297  0.82943205  1
  Ca2+  Ca21  1  0.57694650  0.83504662  0.16314539  1
  Ca2+  Ca22  1  0.58099540  0.83301736  0.49321818  1
  Ca2+  Ca23  1  0.58383905  0.82317401  0.82582808  1
  Ca2+  Ca24  1  0.33087444  0.42204905  0.16566311  1
  Ca2+  Ca25  1  0.33527686  0.42516736  0.50821148  1
  Ca2+  Ca26  1  0.32755337  0.42575555  0.84195227  1
  Ca2+  Ca27  1  0.32586583  0.91445361  0.16904286  1
  Ca2+  Ca28  1  0.32233077  0.90968604  0.50320831  1
  Ca2+  Ca29  1  0.32090680  0.92243242  0.84058265  1
  Ca2+  Ca30  1  0.83226141  0.41542399  0.17336252  1
  Ca2+  Ca31  1  0.83309408  0.41075089  0.49887152  1
  Ca2+  Ca32  1  0.83641709  0.41247934  0.83804263  1
  Ca2+  Ca33  1  0.82867517  0.92341099  0.17339177  1
  Ca2+  Ca34  1  0.82444137  0.90956672  0.50671768  1
  Ca2+  Ca35  1  0.83062505  0.92179180  0.83600820  1
  Ca2+  Ca36  1  0.42817562  0.15922264  0.16085753  1
  Ca2+  Ca37  1  0.42950946  0.15881658  0.49682768  1
  Ca2+  Ca38  1  0.42414253  0.15756535  0.83170984  1
  Ca2+  Ca39  1  0.41950564  0.67157312  0.16009105  1
  Ca2+  Ca40  1  0.41918625  0.67090074  0.49820062  1
  Ca2+  Ca41  1  0.42365451  0.65822161  0.83033374  1
  Ca2+  Ca42  1  0.91044304  0.17697716  0.16006379  1
  Ca2+  Ca43  1  0.92012678  0.17331411  0.49999568  1
  Ca2+  Ca44  1  0.91886359  0.17378666  0.82900195  1
  Ca2+  Ca45  1  0.92123732  0.67619699  0.16127840  1
  Ca2+  Ca46  1  0.91604234  0.68090971  0.49734761  1
  Ca2+  Ca47  1  0.92722924  0.67329709  0.82942527  1
  Al0+  Al48  1  -0.00376719  0.00333805  0.01003603  1
  Al0+  Al49  1  0.00069657  0.00147817  0.33199050  1
  Al0+  Al50  1  -0.00230160  0.00125429  0.66390080  1
  Al0+  Al51  1  -0.00146754  0.50418325  -0.00512660  1
  Al0+  Al52  1  0.00112345  0.50024361  0.33256639  1
  Al0+  Al53  1  -0.00089933  0.50148529  0.66137162  1
  Al0+  Al54  1  0.49910350  -0.00230357  -0.00339098  1
  Al0+  Al55  1  0.50131652  -0.00109297  0.32745261  1
  Al0+  Al56  1  0.49925628  -0.00346342  0.66719275  1
  Al0+  Al57  1  0.49987583  0.49873155  0.00082758  1
  Al0+  Al58  1  0.50049666  0.49814367  0.33901587  1
  Al0+  Al59  1  0.50178575  0.49897220  0.66761344  1
  Al0+  Al60  1  0.24945147  0.25005463  0.00941894  1
  Al0+  Al61  1  0.25202570  0.25048585  0.33517221  1
  Al0+  Al62  1  0.25046119  0.25021838  0.66281080  1
  Al0+  Al63  1  0.24984516  0.74970788  0.00347983  1
  Al0+  Al64  1  0.25129906  0.75047975  0.33416897  1
  Al0+  Al65  1  0.25156999  0.74966859  0.67690071  1
  Al0+  Al66  1  0.74914570  0.24945047  -0.00577708  1
  Al0+  Al67  1  0.75132428  0.25083934  0.33135657  1
  Al0+  Al68  1  0.74878908  0.24952497  0.65931232  1
  Al0+  Al69  1  0.74911807  0.74997222  -0.00278960  1
  Al0+  Al70  1  0.75212124  0.74936426  0.33131194  1
  Al0+  Al71  1  0.74952328  0.74711777  0.66444014  1
  Al0+  Al72  1  0.18014420  0.92968144  0.34930858  1
  Al0+  Al73  1  0.42931772  0.81919594  0.31964677  1
  Al0+  Al74  1  0.67979332  0.92889437  0.34555190  1
  Al0+  Al75  1  0.32323956  0.57026004  0.01782023  1
  Al0+  Al76  1  0.56960670  0.18017648  0.31857044  1
  Al0+  Al77  1  0.32361534  0.07163148  0.01567790  1
  Al0+  Al78  1  0.57088694  0.67756852  0.65149232  1
  Al0+  Al79  1  0.92974143  0.32162018  0.98583704  1
  Al0+  Al80  1  0.07292621  0.17831302  0.65279407  1
  Al0+  Al81  1  0.07065177  0.68262139  0.98625074  1
  Al0+  Al82  1  0.92868682  0.32342454  0.64946047  1
  Al0+  Al83  1  0.81740600  0.07261330  0.01288260  1
  Al0+  Al84  1  0.56952928  0.17816679  0.98526212  1
  Al0+  Al85  1  0.17550310  0.42988664  0.01420479  1
  Al0+  Al86  1  0.32169029  0.56964599  0.68164203  1
  Al0+  Al87  1  0.17641429  0.93149754  0.68064029  1
  Al0+  Al88  1  0.17705813  0.92933295  0.01673386  1
  Al0+  Al89  1  0.93227710  0.31953058  0.31733416  1
  Al0+  Al90  1  0.56903720  0.17627446  0.65194382  1
  Al0+  Al91  1  0.68054539  0.42921916  0.34725482  1
  Al0+  Al92  1  0.57026826  0.67803930  0.98733775  1
  Al0+  Al93  1  0.67795496  0.92643990  0.68054096  1
  Al0+  Al94  1  0.93001426  0.82053883  0.65529055  1
  Al0+  Al95  1  0.92775309  0.82285241  0.31821880  1
  Si0+  Si96  1  0.82429256  0.57206673  0.35053267  1
  Si0+  Si97  1  0.82141778  0.57097036  0.68223280  1
  Si0+  Si98  1  0.07536954  0.17794801  0.31433426  1
  Si0+  Si99  1  0.42718952  0.82100885  0.98093121  1
  Si0+  Si100  1  0.42752053  0.82003995  0.65124490  1
  Si0+  Si101  1  0.92722503  0.82554195  0.98414193  1
  Si0+  Si102  1  0.32065178  0.57020463  0.34959729  1
  Si0+  Si103  1  0.42682862  0.32479409  0.31656648  1
  Si0+  Si104  1  0.42913077  0.32223493  0.65086742  1
  Si0+  Si105  1  0.32252520  0.07288490  0.68125933  1
  Si0+  Si106  1  0.68073311  0.42911432  0.01252827  1
  Si0+  Si107  1  0.07268120  0.67923945  0.31794667  1
  Si0+  Si108  1  0.81917071  0.07279430  0.68205411  1
  Si0+  Si109  1  0.07508922  0.67971477  0.65088498  1
  Si0+  Si110  1  0.07266966  0.17782092  0.98722217  1
  Si0+  Si111  1  0.67861779  0.92553458  0.01549527  1
  Si0+  Si112  1  0.42615871  0.32186224  0.98485043  1
  Si0+  Si113  1  0.57216913  0.67541518  0.31806341  1
  Si0+  Si114  1  0.17642660  0.42768761  0.68127884  1
  Si0+  Si115  1  0.82171814  0.07313887  0.35141544  1
  Si0+  Si116  1  0.32349125  0.07221083  0.35083218  1
  Si0+  Si117  1  0.17746207  0.42842104  0.34981279  1
  Si0+  Si118  1  0.68103860  0.42747381  0.68299985  1
  Si0+  Si119  1  0.82051314  0.57318306  0.01390254  1
  O2-  O120  1  0.25082612  0.00050441  0.06566567  1
  O2-  O121  1  0.25271616  0.00663134  0.39650732  1
  O2-  O122  1  0.24853713  0.00987470  0.72507556  1
  O2-  O123  1  0.24919134  0.49949388  0.06685466  1
  O2-  O124  1  0.25063103  0.49763604  0.39170555  1
  O2-  O125  1  0.24514008  0.49565447  0.72593870  1
  O2-  O126  1  0.74393844  -0.00308747  0.05988092  1
  O2-  O127  1  0.75663763  0.00043235  0.39495475  1
  O2-  O128  1  0.75060990  0.00360353  0.72629693  1
  O2-  O129  1  0.74969765  0.50179801  0.05549176  1
  O2-  O130  1  0.75334520  0.50553656  0.39510193  1
  O2-  O131  1  0.75396524  0.49649158  0.72529074  1
  O2-  O132  1  0.00803344  0.24739198  0.26930406  1
  O2-  O133  1  0.00336718  0.25280716  0.60214487  1
  O2-  O134  1  0.00826205  0.24996592  0.94161855  1
  O2-  O135  1  0.00406096  0.74843456  0.27427900  1
  O2-  O136  1  0.00830057  0.74976064  0.60647727  1
  O2-  O137  1  0.00031603  0.76164656  0.93985579  1
  O2-  O138  1  0.49391238  0.25481655  0.27270634  1
  O2-  O139  1  0.49258032  0.24949592  0.60556060  1
  O2-  O140  1  0.48947028  0.24842572  0.93980672  1
  O2-  O141  1  0.50671360  0.74637194  0.27354257  1
  O2-  O142  1  0.49747775  0.75315378  0.60556812  1
  O2-  O143  1  0.49537635  0.75082402  0.93809154  1
  O2-  O144  1  0.06920408  0.17805864  0.09270388  1
  O2-  O145  1  0.07483113  0.17960187  0.42010336  1
  O2-  O146  1  0.07194069  0.17908980  0.76657422  1
  O2-  O147  1  0.06552919  0.68066984  0.09955692  1
  O2-  O148  1  0.07287188  0.67787790  0.42381405  1
  O2-  O149  1  0.07266158  0.67826454  0.75627392  1
  O2-  O150  1  0.57226741  0.18206613  0.09825075  1
  O2-  O151  1  0.56835895  0.17999547  0.43187348  1
  O2-  O152  1  0.56933193  0.17875242  0.76502824  1
  O2-  O153  1  0.57121677  0.67879839  0.10058513  1
  O2-  O154  1  0.56929579  0.67399459  0.42374772  1
  O2-  O155  1  0.57025413  0.67682619  0.76459399  1
  O2-  O156  1  0.17556626  0.43007638  0.24518535  1
  O2-  O157  1  0.17856867  0.43006379  0.57509510  1
  O2-  O158  1  0.17652846  0.43174320  0.90032895  1
  O2-  O159  1  0.18242756  0.92861345  0.23676502  1
  O2-  O160  1  0.17867636  0.92982514  0.56738607  1
  O2-  O161  1  0.17634916  0.93206243  0.90279713  1
  O2-  O162  1  0.68127273  0.43091870  0.23367886  1
  O2-  O163  1  0.68044052  0.42865604  0.57778282  1
  O2-  O164  1  0.68203643  0.42928971  0.90716721  1
  O2-  O165  1  0.67988130  0.93061238  0.23242747  1
  O2-  O166  1  0.67839973  0.92701168  0.56718555  1
  O2-  O167  1  0.68188063  0.92335065  0.90977360  1
  O2-  O168  1  0.43151118  0.32553387  0.09032535  1
  O2-  O169  1  0.42696674  0.32663680  0.42229057  1
  O2-  O170  1  0.43143527  0.32388087  0.75635295  1
  O2-  O171  1  0.42969532  0.82102593  0.08689983  1
  O2-  O172  1  0.42719909  0.81551595  0.43290533  1
  O2-  O173  1  0.42826966  0.81968277  0.75651359  1
  O2-  O174  1  0.92719152  0.32107487  0.09894723  1
  O2-  O175  1  0.93383884  0.31885417  0.43010506  1
  O2-  O176  1  0.92865279  0.32255000  0.76313559  1
  O2-  O177  1  0.92432093  0.82125939  0.08969967  1
  O2-  O178  1  0.92709162  0.82018761  0.43158290  1
  O2-  O179  1  0.93038608  0.81850356  0.76839708  1
  O2-  O180  1  0.32216024  0.07188475  0.24557120  1
  O2-  O181  1  0.32504220  0.06989263  0.57566907  1
  O2-  O182  1  0.32348795  0.06911494  0.90167643  1
  O2-  O183  1  0.32157258  0.56962249  0.24504685  1
  O2-  O184  1  0.32026779  0.56921240  0.56759815  1
  O2-  O185  1  0.32447424  0.56636708  0.90425297  1
  O2-  O186  1  0.81813844  0.07464309  0.24558778  1
  O2-  O187  1  0.81840333  0.07294109  0.57640858  1
  O2-  O188  1  0.81709449  0.07250755  0.89958328  1
  O2-  O189  1  0.82503824  0.57093303  0.24468972  1
  O2-  O190  1  0.81955622  0.57244936  0.57712642  1
  O2-  O191  1  0.81955407  0.57419485  0.90860890  1
  O2-  O192  1  0.04982330  0.08452799  0.26912161  1
  O2-  O193  1  0.03990502  0.08273800  0.59671084  1
  O2-  O194  1  0.04102657  0.08547014  0.94162515  1
  O2-  O195  1  0.04638938  0.58594439  0.27153577  1
  O2-  O196  1  0.04856517  0.58709628  0.60276479  1
  O2-  O197  1  0.03504187  0.58953599  0.92840167  1
  O2-  O198  1  0.54032251  0.08452020  0.26279788  1
  O2-  O199  1  0.53825121  0.07911114  0.59861930  1
  O2-  O200  1  0.54366411  0.07988092  0.93173506  1
  O2-  O201  1  0.54280574  0.58217331  0.27285145  1
  O2-  O202  1  0.53956060  0.58057741  0.59798560  1
  O2-  O203  1  0.54192545  0.58018458  0.93350913  1
  O2-  O204  1  0.17073285  0.20220565  0.27127707  1
  O2-  O205  1  0.17208297  0.20242207  0.59729803  1
  O2-  O206  1  0.16901484  0.19723551  0.94433475  1
  O2-  O207  1  0.16585920  0.70476858  0.27184417  1
  O2-  O208  1  0.17034263  0.70322927  0.60779081  1
  O2-  O209  1  0.16961607  0.70701111  0.93417925  1
  O2-  O210  1  0.66559636  0.21413929  0.26564922  1
  O2-  O211  1  0.66352362  0.20942040  0.59632018  1
  O2-  O212  1  0.66241395  0.21532281  0.92838004  1
  O2-  O213  1  0.66777072  0.69508570  0.27439284  1
  O2-  O214  1  0.66759855  0.70493705  0.59706126  1
  O2-  O215  1  0.66695450  0.70820642  0.93180429  1
  O2-  O216  1  0.07807676  0.46511075  0.06661787  1
  O2-  O217  1  0.08711652  0.45888446  0.39891494  1
  O2-  O218  1  0.08167344  0.45313426  0.72464154  1
  O2-  O219  1  0.07913819  0.95710251  0.07101537  1
  O2-  O220  1  0.08176600  0.96020365  0.40065462  1
  O2-  O221  1  0.07865637  0.96011769  0.73346627  1
  O2-  O222  1  0.58909407  0.45474228  0.06081746  1
  O2-  O223  1  0.58368145  0.45678609  0.40381933  1
  O2-  O224  1  0.59002658  0.45672111  0.73068331  1
  O2-  O225  1  0.58297107  0.94754373  0.05733318  1
  O2-  O226  1  0.58261286  0.96058604  0.39848407  1
  O2-  O227  1  0.58055108  0.95427963  0.73441266  1
  O2-  O228  1  0.19862174  0.33154197  0.06972116  1
  O2-  O229  1  0.20379299  0.33580404  0.39703119  1
  O2-  O230  1  0.20042641  0.33302754  0.72572119  1
  O2-  O231  1  0.20550009  0.83090761  0.06907735  1
  O2-  O232  1  0.21258046  0.83279221  0.40275208  1
  O2-  O233  1  0.20899012  0.83618584  0.73615998  1
  O2-  O234  1  0.71120666  0.33844172  0.05974064  1
  O2-  O235  1  0.71454211  0.33370394  0.40165963  1
  O2-  O236  1  0.70752564  0.33448401  0.72883195  1
  O2-  O237  1  0.70627705  0.83312124  0.06348912  1
  O2-  O238  1  0.70739053  0.82987583  0.39757125  1
  O2-  O239  1  0.71088219  0.82971539  0.73329327  1
  O2-  O240  1  0.45415934  0.41818499  0.27086423  1
  O2-  O241  1  0.46078260  0.41313198  0.60237585  1
  O2-  O242  1  0.45777005  0.41262277  0.93605177  1
  O2-  O243  1  0.45889919  0.91458109  0.26342347  1
  O2-  O244  1  0.45053629  0.91335632  0.60386979  1
  O2-  O245  1  0.45332920  0.91325146  0.93276894  1
  O2-  O246  1  0.96087895  0.41838279  0.26572970  1
  O2-  O247  1  0.95378158  0.42264426  0.59522555  1
  O2-  O248  1  0.95557803  0.41942190  0.93209325  1
  O2-  O249  1  0.95634655  0.92043447  0.26569406  1
  O2-  O250  1  0.95466286  0.91737823  0.59965621  1
  O2-  O251  1  0.94790092  0.92191493  0.94246829  1
  O2-  O252  1  0.33181767  0.30252912  0.27162624  1
  O2-  O253  1  0.33368593  0.30480941  0.60492911  1
  O2-  O254  1  0.32946007  0.30270880  0.94273587  1
  O2-  O255  1  0.33437129  0.78485752  0.26456781  1
  O2-  O256  1  0.33405699  0.79027814  0.60634642  1
  O2-  O257  1  0.33268592  0.79684089  0.93731058  1
  O2-  O258  1  0.83539379  0.28908376  0.26420592  1
  O2-  O259  1  0.83144254  0.29265152  0.59578590  1
  O2-  O260  1  0.83515351  0.28751754  0.93002195  1
  O2-  O261  1  0.83276678  0.78962979  0.26172447  1
  O2-  O262  1  0.83616442  0.78324980  0.59982289  1
  O2-  O263  1  0.83577559  0.79457802  0.93664498  1
  O2-  O264  1  0.42220106  0.04008925  0.06765284  1
  O2-  O265  1  0.41684646  0.04299044  0.39472564  1
  O2-  O266  1  0.41336343  0.04138956  0.72965768  1
  O2-  O267  1  0.42090725  0.53897339  0.07184737  1
  O2-  O268  1  0.41198921  0.54270712  0.39893500  1
  O2-  O269  1  0.41809271  0.53585794  0.73434606  1
  O2-  O270  1  0.91207787  0.04672868  0.07255363  1
  O2-  O271  1  0.91764227  0.05228174  0.39402493  1
  O2-  O272  1  0.91253144  0.04724613  0.72810580  1
  O2-  O273  1  0.91149147  0.54585889  0.06189239  1
  O2-  O274  1  0.91708125  0.54440955  0.39778368  1
  O2-  O275  1  0.91540441  0.54646842  0.72790675  1
  O2-  O276  1  0.30162737  0.17056551  0.07073305  1
  O2-  O277  1  0.30323931  0.16803869  0.39643641  1
  O2-  O278  1  0.30500893  0.16970740  0.72432194  1
  O2-  O279  1  0.29609938  0.66896212  0.06928945  1
  O2-  O280  1  0.29045348  0.66060857  0.39817287  1
  O2-  O281  1  0.29395361  0.66489181  0.73884026  1
  O2-  O282  1  0.78302963  0.16850447  0.06714958  1
  O2-  O283  1  0.79245063  0.16525745  0.39788620  1
  O2-  O284  1  0.79182534  0.16668561  0.72708795  1
  O2-  O285  1  0.79173449  0.66435370  0.06266847  1
  O2-  O286  1  0.80035920  0.66628190  0.39593034  1
  O2-  O287  1  0.79023714  0.66018139  0.73210352  1
