# generated using pymatgen
data_Ca2Al2SiO7
_symmetry_space_group_name_H-M   'P 1'
_cell_length_a   15.46199985
_cell_length_b   15.46413142
_cell_length_c   15.28703212
_cell_angle_alpha   89.98595035
_cell_angle_beta   90.00930531
_cell_angle_gamma   89.98328781
_symmetry_Int_Tables_number   1
_chemical_formula_structural   Ca2Al2SiO7
_chemical_formula_sum   'Ca48 Al48 Si24 O168'
_cell_volume   3655.22686761
_cell_formula_units_Z   24
loop_
 _symmetry_equiv_pos_site_id
 _symmetry_equiv_pos_as_xyz
  1  'x, y, z'
loop_
 _atom_type_symbol
 _atom_type_oxidation_number
  Ca2+  2.0
  Al0+  0.0
  Si0+  0.0
  O2-  -2.0
loop_
 _atom_site_type_symbol
 _atom_site_label
 _atom_site_symmetry_multiplicity
 _atom_site_fract_x
 _atom_site_fract_y
 _atom_site_fract_z
 _atom_site_occupancy
  Ca2+  Ca0  1  0.17262274  0.08101487  0.16859472  1
  Ca2+  Ca1  1  0.17272592  0.07591895  0.50697068  1
  Ca2+  Ca2  1  0.16433480  0.07226427  0.84512915  1
  Ca2+  Ca3  1  0.16666943  0.59329588  0.16703587  1
  Ca2+  Ca4  1  0.16877352  0.58668394  0.50996013  1
  Ca2+  Ca5  1  0.17220587  0.58832174  0.83630881  1
  Ca2+  Ca6  1  0.66404653  0.08485390  0.17250169  1
  Ca2+  Ca7  1  0.66512898  0.08547244  0.50291006  1
  Ca2+  Ca8  1  0.66670936  0.08520986  0.83718267  1
  Ca2+  Ca9  1  0.67278223  0.57895315  0.17612348  1
  Ca2+  Ca10  1  0.67306688  0.58255161  0.50333780  1
  Ca2+  Ca11  1  0.66568043  0.58704396  0.84076882  1
  Ca2+  Ca12  1  0.07797527  0.32975766  0.16366738  1
  Ca2+  Ca13  1  0.07223402  0.34676087  0.49871909  1
  Ca2+  Ca14  1  0.08454120  0.32945587  0.82763920  1
  Ca2+  Ca15  1  0.07449853  0.82762285  0.16020262  1
  Ca2+  Ca16  1  0.08236633  0.82537033  0.49624765  1
  Ca2+  Ca17  1  0.08415886  0.83114429  0.82776359  1
  Ca2+  Ca18  1  0.58781641  0.32387413  0.16456932  1
  Ca2+  Ca19  1  0.58598299  0.32358185  0.49461687  1
  Ca2+  Ca20  1  0.57896588  0.32233259  0.82855245  1
  Ca2+  Ca21  1  0.57525650  0.82886528  0.16357353  1
  Ca2+  Ca22  1  0.57617572  0.82638300  0.49661604  1
  Ca2+  Ca23  1  0.57931944  0.81962553  0.82976468  1
  Ca2+  Ca24  1  0.33256298  0.42352400  0.16739133  1
  Ca2+  Ca25  1  0.32333884  0.42464104  0.51026929  1
  Ca2+  Ca26  1  0.32895573  0.42643916  0.83403949  1
  Ca2+  Ca27  1  0.33018235  0.92307796  0.17098005  1
  Ca2+  Ca28  1  0.33114274  0.91714207  0.50193596  1
  Ca2+  Ca29  1  0.31827644  0.91891705  0.84036864  1
  Ca2+  Ca30  1  0.82840266  0.42279401  0.18021025  1
  Ca2+  Ca31  1  0.83385716  0.41727134  0.49988611  1
  Ca2+  Ca32  1  0.83436584  0.41632930  0.83397237  1
  Ca2+  Ca33  1  0.83548289  0.91252350  0.17011306  1
  Ca2+  Ca34  1  0.83794222  0.91378140  0.50433922  1
  Ca2+  Ca35  1  0.83524781  0.90954175  0.83757885  1
  Ca2+  Ca36  1  0.42220641  0.15998853  0.16167139  1
  Ca2+  Ca37  1  0.42576071  0.16120827  0.49219951  1
  Ca2+  Ca38  1  0.42526512  0.15581718  0.83244755  1
  Ca2+  Ca39  1  0.41799747  0.67118434  0.15992006  1
  Ca2+  Ca40  1  0.41668770  0.66860954  0.49782247  1
  Ca2+  Ca41  1  0.42330241  0.65407312  0.82953243  1
  Ca2+  Ca42  1  0.92079119  0.17421168  0.16294568  1
  Ca2+  Ca43  1  0.91894700  0.17956062  0.49692262  1
  Ca2+  Ca44  1  0.92558929  0.17116246  0.83078706  1
  Ca2+  Ca45  1  0.92439522  0.67026282  0.16332261  1
  Ca2+  Ca46  1  0.92796657  0.67287064  0.49172250  1
  Ca2+  Ca47  1  0.93056820  0.67845456  0.82769012  1
  Al0+  Al48  1  -0.00347394  0.00370358  -0.00028147  1
  Al0+  Al49  1  0.00058702  -0.00073749  0.33262171  1
  Al0+  Al50  1  -0.00068853  0.00330079  0.66756805  1
  Al0+  Al51  1  -0.00191809  0.50285612  -0.00283788  1
  Al0+  Al52  1  -0.00054022  0.50038994  0.32710664  1
  Al0+  Al53  1  -0.00142479  0.50032785  0.66544489  1
  Al0+  Al54  1  0.50116125  -0.00171423  -0.00199540  1
  Al0+  Al55  1  0.50070877  -0.00094782  0.33013116  1
  Al0+  Al56  1  0.50364122  -0.00272791  0.66404497  1
  Al0+  Al57  1  0.49899155  0.49736192  0.00220914  1
  Al0+  Al58  1  0.49957230  0.49647239  0.33914024  1
  Al0+  Al59  1  0.50193872  0.49626441  0.66438896  1
  Al0+  Al60  1  0.24974668  0.25150787  -0.00009293  1
  Al0+  Al61  1  0.25272215  0.25027523  0.33979927  1
  Al0+  Al62  1  0.25317401  0.25057182  0.67151630  1
  Al0+  Al63  1  0.24862747  0.75108872  0.00671458  1
  Al0+  Al64  1  0.25077212  0.75162612  0.32628679  1
  Al0+  Al65  1  0.25232146  0.75258971  0.67237256  1
  Al0+  Al66  1  0.74755792  0.24941370  -0.00357188  1
  Al0+  Al67  1  0.75023218  0.24877442  0.32966376  1
  Al0+  Al68  1  0.75081340  0.24926227  0.66132881  1
  Al0+  Al69  1  0.74830001  0.74983402  -0.00462370  1
  Al0+  Al70  1  0.74998070  0.74993362  0.33643753  1
  Al0+  Al71  1  0.74861866  0.74999396  0.66088620  1
  Al0+  Al72  1  0.92787543  0.82224237  0.98521942  1
  Al0+  Al73  1  0.56953532  0.17811946  0.98520001  1
  Al0+  Al74  1  0.32093857  0.56981446  0.01557706  1
  Al0+  Al75  1  0.56785325  0.67759809  0.98949067  1
  Al0+  Al76  1  0.07155296  0.18148088  0.98837345  1
  Al0+  Al77  1  0.56932820  0.17821577  0.65180626  1
  Al0+  Al78  1  0.32223364  0.07118361  0.01469547  1
  Al0+  Al79  1  0.56911256  0.18048260  0.31856429  1
  Al0+  Al80  1  0.93020018  0.31966147  0.31893296  1
  Al0+  Al81  1  0.17451575  0.92953025  0.01856662  1
  Al0+  Al82  1  0.07271187  0.67966267  0.98253184  1
  Al0+  Al83  1  0.82188552  0.57186808  0.34967216  1
  Al0+  Al84  1  0.32237160  0.07034655  0.34813329  1
  Al0+  Al85  1  0.07366650  0.68112971  0.65251941  1
  Al0+  Al86  1  0.93087647  0.32085119  0.65371505  1
  Al0+  Al87  1  0.32215188  0.57145111  0.68090093  1
  Al0+  Al88  1  0.92931567  0.82375604  0.65067860  1
  Al0+  Al89  1  0.17544668  0.42889864  0.68219527  1
  Al0+  Al90  1  0.07156700  0.67855869  0.31721760  1
  Al0+  Al91  1  0.57090530  0.67518245  0.65190949  1
  Al0+  Al92  1  0.17862494  0.93229529  0.67963922  1
  Al0+  Al93  1  0.67890153  0.42638943  0.35010695  1
  Al0+  Al94  1  0.92698050  0.82287935  0.31791275  1
  Al0+  Al95  1  0.43040438  0.81990497  0.31942376  1
  Si0+  Si96  1  0.67949962  0.92751312  0.68236648  1
  Si0+  Si97  1  0.81821019  0.07388723  0.01557721  1
  Si0+  Si98  1  0.32609824  0.07117832  0.68243195  1
  Si0+  Si99  1  0.07491582  0.17752129  0.31939817  1
  Si0+  Si100  1  0.42725168  0.32266903  0.98272569  1
  Si0+  Si101  1  0.81890610  0.07231260  0.68155222  1
  Si0+  Si102  1  0.17848469  0.92837941  0.35046235  1
  Si0+  Si103  1  0.82211329  0.07066620  0.34801915  1
  Si0+  Si104  1  0.17945831  0.42886332  0.34630802  1
  Si0+  Si105  1  0.67944813  0.42744863  0.01395924  1
  Si0+  Si106  1  0.42784514  0.32129030  0.64844979  1
  Si0+  Si107  1  0.81888309  0.57168699  0.01337294  1
  Si0+  Si108  1  0.42975382  0.82118574  0.65128741  1
  Si0+  Si109  1  0.07512550  0.17877308  0.65102554  1
  Si0+  Si110  1  0.68021262  0.92779535  0.01458169  1
  Si0+  Si111  1  0.68125882  0.42661577  0.68304108  1
  Si0+  Si112  1  0.57115667  0.67505849  0.31867264  1
  Si0+  Si113  1  0.81908963  0.57247763  0.68310683  1
  Si0+  Si114  1  0.42560526  0.32294648  0.31647494  1
  Si0+  Si115  1  0.42761774  0.82174466  0.98330022  1
  Si0+  Si116  1  0.67878659  0.92937568  0.34836136  1
  Si0+  Si117  1  0.32062707  0.57290534  0.34729162  1
  Si0+  Si118  1  0.17496255  0.42873110  0.01758219  1
  Si0+  Si119  1  0.92672733  0.32262615  0.98404199  1
  O2-  O120  1  0.24926419  0.00101654  0.06609254  1
  O2-  O121  1  0.24586339  -0.00172730  0.39535163  1
  O2-  O122  1  0.25127812  0.00983470  0.72609101  1
  O2-  O123  1  0.24188964  0.49912480  0.06263091  1
  O2-  O124  1  0.24829981  0.50266838  0.38772743  1
  O2-  O125  1  0.24598717  0.50326507  0.73090866  1
  O2-  O126  1  0.74987259  -0.00000851  0.05737971  1
  O2-  O127  1  0.75403984  -0.00343533  0.39021412  1
  O2-  O128  1  0.75273753  -0.00335068  0.72427403  1
  O2-  O129  1  0.75023889  0.49825828  0.05591309  1
  O2-  O130  1  0.74877423  0.50040522  0.40042600  1
  O2-  O131  1  0.74786211  0.50105946  0.72672351  1
  O2-  O132  1  0.00593436  0.24546077  0.27418165  1
  O2-  O133  1  0.01224045  0.25279728  0.60684791  1
  O2-  O134  1  -0.00050622  0.25855440  0.94051050  1
  O2-  O135  1  -0.00238991  0.74983498  0.26926366  1
  O2-  O136  1  0.00193228  0.75271402  0.60151778  1
  O2-  O137  1  0.00495263  0.75677519  0.93471524  1
  O2-  O138  1  0.49504789  0.25544052  0.27165974  1
  O2-  O139  1  0.49143214  0.24798091  0.60421978  1
  O2-  O140  1  0.49073740  0.24833802  0.93902760  1
  O2-  O141  1  0.50165924  0.74149345  0.27316322  1
  O2-  O142  1  0.49327380  0.74733665  0.60737736  1
  O2-  O143  1  0.48989710  0.74692682  0.93938802  1
  O2-  O144  1  0.06856347  0.18386434  0.10176370  1
  O2-  O145  1  0.07301392  0.17705520  0.42512474  1
  O2-  O146  1  0.07036234  0.17731182  0.75664565  1
  O2-  O147  1  0.06678208  0.67625990  0.09566030  1
  O2-  O148  1  0.07480563  0.67973056  0.43082059  1
  O2-  O149  1  0.07269860  0.68254677  0.76571950  1
  O2-  O150  1  0.57339853  0.18089777  0.09782335  1
  O2-  O151  1  0.56878092  0.17949650  0.43168261  1
  O2-  O152  1  0.56988478  0.17921514  0.76502991  1
  O2-  O153  1  0.56968972  0.68010054  0.10248650  1
  O2-  O154  1  0.56940629  0.67709013  0.42435475  1
  O2-  O155  1  0.57178202  0.67740625  0.76533859  1
  O2-  O156  1  0.18231244  0.42487363  0.24126765  1
  O2-  O157  1  0.17792350  0.42984673  0.56800441  1
  O2-  O158  1  0.17580168  0.42780878  0.91245034  1
  O2-  O159  1  0.17828936  0.93052273  0.24543461  1
  O2-  O160  1  0.18085899  0.93312458  0.56626646  1
  O2-  O161  1  0.17571663  0.93205732  0.90452386  1
  O2-  O162  1  0.68030401  0.42698259  0.23572879  1
  O2-  O163  1  0.68369682  0.42457438  0.57848399  1
  O2-  O164  1  0.68066115  0.42599914  0.90860564  1
  O2-  O165  1  0.67716880  0.93109265  0.24303962  1
  O2-  O166  1  0.67668173  0.92938562  0.57739493  1
  O2-  O167  1  0.68076780  0.92775471  0.90937508  1
  O2-  O168  1  0.43092682  0.32598792  0.08827891  1
  O2-  O169  1  0.42443635  0.32178786  0.42184563  1
  O2-  O170  1  0.43149694  0.32373775  0.75404327  1
  O2-  O171  1  0.43370057  0.82316046  0.08898226  1
  O2-  O172  1  0.43149460  0.81823532  0.43284750  1
  O2-  O173  1  0.43418280  0.82639651  0.75647440  1
  O2-  O174  1  0.92433684  0.31993945  0.08953097  1
  O2-  O175  1  0.93117445  0.31839660  0.43201357  1
  O2-  O176  1  0.92608844  0.31542250  0.76684696  1
  O2-  O177  1  0.92383312  0.81738536  0.09832493  1
  O2-  O178  1  0.93045633  0.82473824  0.43113332  1
  O2-  O179  1  0.92821201  0.82181284  0.76395969  1
  O2-  O180  1  0.32191332  0.06988655  0.23551142  1
  O2-  O181  1  0.32745782  0.06798317  0.57667378  1
  O2-  O182  1  0.32356883  0.06687790  0.90084972  1
  O2-  O183  1  0.32299660  0.57097834  0.24229354  1
  O2-  O184  1  0.32273970  0.56956934  0.56667715  1
  O2-  O185  1  0.32559528  0.56462651  0.90312161  1
  O2-  O186  1  0.82051467  0.07249541  0.24284918  1
  O2-  O187  1  0.81670567  0.07409958  0.57641973  1
  O2-  O188  1  0.81532643  0.07852394  0.91051877  1
  O2-  O189  1  0.81869039  0.56999525  0.23520398  1
  O2-  O190  1  0.81760351  0.57151218  0.57848422  1
  O2-  O191  1  0.81672966  0.57033731  0.90816568  1
  O2-  O192  1  0.04928401  0.08445438  0.27316383  1
  O2-  O193  1  0.04238959  0.08890042  0.60225260  1
  O2-  O194  1  0.03503249  0.08802888  0.93242473  1
  O2-  O195  1  0.04535935  0.58068603  0.26238047  1
  O2-  O196  1  0.04501910  0.58185201  0.60212494  1
  O2-  O197  1  0.04047964  0.58184247  0.92952608  1
  O2-  O198  1  0.53914845  0.08402606  0.26478067  1
  O2-  O199  1  0.54410929  0.07988968  0.59837395  1
  O2-  O200  1  0.54409213  0.07995150  0.93111655  1
  O2-  O201  1  0.54806813  0.57956004  0.27571919  1
  O2-  O202  1  0.54583408  0.57736468  0.59830804  1
  O2-  O203  1  0.54198913  0.57925513  0.93608573  1
  O2-  O204  1  0.16849819  0.20552173  0.27523693  1
  O2-  O205  1  0.17248637  0.19593282  0.61002747  1
  O2-  O206  1  0.16845669  0.20810291  0.93299543  1
  O2-  O207  1  0.16888858  0.70811454  0.26323820  1
  O2-  O208  1  0.17370129  0.70925924  0.60232158  1
  O2-  O209  1  0.17446005  0.70327357  0.93536434  1
  O2-  O210  1  0.66576407  0.20951813  0.26399389  1
  O2-  O211  1  0.66433164  0.21261110  0.59773136  1
  O2-  O212  1  0.66419662  0.21324084  0.92914041  1
  O2-  O213  1  0.66441906  0.70293609  0.27424488  1
  O2-  O214  1  0.66417857  0.71110624  0.59575815  1
  O2-  O215  1  0.66147215  0.71245800  0.93221311  1
  O2-  O216  1  0.07937938  0.45191388  0.06171895  1
  O2-  O217  1  0.08625311  0.45499489  0.39049770  1
  O2-  O218  1  0.07477958  0.45017010  0.73370832  1
  O2-  O219  1  0.07597842  0.96182121  0.06926998  1
  O2-  O220  1  0.08449379  0.95309738  0.39670565  1
  O2-  O221  1  0.08180943  0.96323712  0.73391464  1
  O2-  O222  1  0.58806543  0.45319675  0.06223263  1
  O2-  O223  1  0.57896227  0.44915867  0.40348562  1
  O2-  O224  1  0.58770363  0.44961335  0.72889995  1
  O2-  O225  1  0.58848291  0.95524913  0.06203680  1
  O2-  O226  1  0.58951022  0.96222260  0.39738815  1
  O2-  O227  1  0.58911936  0.95784548  0.73176053  1
  O2-  O228  1  0.20258442  0.33602522  0.06485525  1
  O2-  O229  1  0.20780171  0.33932271  0.39804621  1
  O2-  O230  1  0.20651973  0.33039104  0.73605984  1
  O2-  O231  1  0.20121174  0.83118129  0.07154848  1
  O2-  O232  1  0.20894929  0.83516775  0.39485348  1
  O2-  O233  1  0.21218037  0.83814730  0.73628162  1
  O2-  O234  1  0.70869700  0.33587810  0.06163854  1
  O2-  O235  1  0.71118258  0.32795466  0.40126388  1
  O2-  O236  1  0.71375633  0.33585909  0.73086405  1
  O2-  O237  1  0.70838378  0.83643413  0.06310428  1
  O2-  O238  1  0.70070491  0.83663380  0.39692141  1
  O2-  O239  1  0.70511341  0.83471577  0.72943959  1
  O2-  O240  1  0.45055883  0.41740014  0.27107630  1
  O2-  O241  1  0.45861197  0.41161526  0.59929157  1
  O2-  O242  1  0.46134450  0.41214554  0.93372546  1
  O2-  O243  1  0.46669364  0.91323035  0.26357630  1
  O2-  O244  1  0.46277217  0.91097027  0.60104421  1
  O2-  O245  1  0.46054632  0.91142299  0.93435698  1
  O2-  O246  1  0.95946387  0.41471792  0.26237385  1
  O2-  O247  1  0.95434962  0.41847544  0.59865550  1
  O2-  O248  1  0.94670533  0.41757959  0.93926440  1
  O2-  O249  1  0.95427105  0.92223938  0.26520401  1
  O2-  O250  1  0.95286564  0.92508469  0.60135000  1
  O2-  O251  1  0.94470393  0.92498269  0.93733980  1
  O2-  O252  1  0.33228194  0.29692752  0.27014466  1
  O2-  O253  1  0.33197132  0.30127840  0.60455751  1
  O2-  O254  1  0.33187121  0.30450944  0.93832731  1
  O2-  O255  1  0.33493176  0.79327592  0.26275042  1
  O2-  O256  1  0.33536951  0.80052010  0.60602500  1
  O2-  O257  1  0.33106890  0.80298986  0.94321493  1
  O2-  O258  1  0.83538398  0.28628226  0.26369719  1
  O2-  O259  1  0.83783859  0.28288272  0.59735975  1
  O2-  O260  1  0.83522695  0.29189952  0.93628537  1
  O2-  O261  1  0.82585205  0.79815449  0.26848799  1
  O2-  O262  1  0.83015382  0.79625406  0.59925936  1
  O2-  O263  1  0.83123350  0.78902926  0.93035921  1
  O2-  O264  1  0.42179761  0.04075835  0.06596021  1
  O2-  O265  1  0.41846185  0.03499573  0.40097680  1
  O2-  O266  1  0.41823136  0.03860291  0.72822082  1
  O2-  O267  1  0.41620056  0.53410535  0.07142650  1
  O2-  O268  1  0.41172244  0.54498645  0.39627926  1
  O2-  O269  1  0.42034294  0.53576189  0.73214090  1
  O2-  O270  1  0.91015335  0.05116743  0.06412125  1
  O2-  O271  1  0.91505592  0.04711571  0.39601211  1
  O2-  O272  1  0.91228513  0.05116953  0.72899000  1
  O2-  O273  1  0.91124169  0.54594635  0.06053168  1
  O2-  O274  1  0.92097844  0.54050987  0.39939052  1
  O2-  O275  1  0.91028030  0.54340506  0.73047463  1
  O2-  O276  1  0.29819908  0.17227595  0.06479421  1
  O2-  O277  1  0.29600842  0.16756017  0.40419817  1
  O2-  O278  1  0.31138593  0.16777259  0.72568768  1
  O2-  O279  1  0.29643808  0.66789502  0.06943171  1
  O2-  O280  1  0.29410848  0.66578792  0.39293436  1
  O2-  O281  1  0.30254998  0.67130556  0.73402742  1
  O2-  O282  1  0.78605843  0.16430666  0.06444600  1
  O2-  O283  1  0.79015014  0.16069148  0.39622279  1
  O2-  O284  1  0.78459976  0.16148283  0.73038406  1
  O2-  O285  1  0.78642619  0.66193693  0.06053804  1
  O2-  O286  1  0.79396822  0.67028127  0.40361680  1
  O2-  O287  1  0.78846445  0.66422446  0.72931161  1
