# generated using pymatgen
data_Ca2Al2SiO7
_symmetry_space_group_name_H-M   'P 1'
_cell_length_a   15.46625501
_cell_length_b   15.46795459
_cell_length_c   15.28909324
_cell_angle_alpha   90.03022509
_cell_angle_beta   89.99969345
_cell_angle_gamma   89.99676456
_symmetry_Int_Tables_number   1
_chemical_formula_structural   Ca2Al2SiO7
_chemical_formula_sum   'Ca48 Al48 Si24 O168'
_cell_volume   3657.62959988
_cell_formula_units_Z   24
loop_
 _symmetry_equiv_pos_site_id
 _symmetry_equiv_pos_as_xyz
  1  'x, y, z'
loop_
 _atom_type_symbol
 _atom_type_oxidation_number
  Ca2+  2.0
  Al0+  0.0
  Si0+  0.0
  O2-  -2.0
loop_
 _atom_site_type_symbol
 _atom_site_label
 _atom_site_symmetry_multiplicity
 _atom_site_fract_x
 _atom_site_fract_y
 _atom_site_fract_z
 _atom_site_occupancy
  Ca2+  Ca0  1  0.17662934  0.07494941  0.17868030  1
  Ca2+  Ca1  1  0.16824691  0.08026139  0.50357735  1
  Ca2+  Ca2  1  0.16206530  0.08266512  0.83001070  1
  Ca2+  Ca3  1  0.17024698  0.58084344  0.18045165  1
  Ca2+  Ca4  1  0.16608051  0.58039803  0.49167397  1
  Ca2+  Ca5  1  0.16813467  0.58107135  0.83550773  1
  Ca2+  Ca6  1  0.66617512  0.07958789  0.17559901  1
  Ca2+  Ca7  1  0.66751836  0.07818953  0.49467517  1
  Ca2+  Ca8  1  0.66516503  0.07513374  0.83852657  1
  Ca2+  Ca9  1  0.66560818  0.56839564  0.17193636  1
  Ca2+  Ca10  1  0.66419886  0.57548325  0.49955309  1
  Ca2+  Ca11  1  0.67009809  0.57297353  0.84068535  1
  Ca2+  Ca12  1  0.07347848  0.33798953  0.16634112  1
  Ca2+  Ca13  1  0.07404670  0.33173860  0.49314283  1
  Ca2+  Ca14  1  0.07334761  0.32603211  0.82396015  1
  Ca2+  Ca15  1  0.08580221  0.82812339  0.16521954  1
  Ca2+  Ca16  1  0.08535045  0.83472404  0.49359772  1
  Ca2+  Ca17  1  0.06970477  0.83926928  0.82616870  1
  Ca2+  Ca18  1  0.59017647  0.32151347  0.16621119  1
  Ca2+  Ca19  1  0.57442035  0.32898758  0.48691703  1
  Ca2+  Ca20  1  0.58539169  0.32564793  0.83058977  1
  Ca2+  Ca21  1  0.57284672  0.84620903  0.16405007  1
  Ca2+  Ca22  1  0.58074417  0.83830694  0.49085807  1
  Ca2+  Ca23  1  0.58064164  0.84124513  0.83120353  1
  Ca2+  Ca24  1  0.32666770  0.42324981  0.18336349  1
  Ca2+  Ca25  1  0.33848258  0.41817469  0.50195870  1
  Ca2+  Ca26  1  0.33511805  0.41367757  0.83547846  1
  Ca2+  Ca27  1  0.33419186  0.91913012  0.17985543  1
  Ca2+  Ca28  1  0.32512664  0.92003355  0.49597965  1
  Ca2+  Ca29  1  0.32725769  0.91588668  0.83745273  1
  Ca2+  Ca30  1  0.82646488  0.40733605  0.17328736  1
  Ca2+  Ca31  1  0.83139877  0.40889051  0.49847991  1
  Ca2+  Ca32  1  0.83433638  0.41358782  0.84204865  1
  Ca2+  Ca33  1  0.82247329  0.92158072  0.17549634  1
  Ca2+  Ca34  1  0.82686650  0.92084771  0.50666077  1
  Ca2+  Ca35  1  0.82561738  0.91258322  0.84028240  1
  Ca2+  Ca36  1  0.42846331  0.16167087  0.16832796  1
  Ca2+  Ca37  1  0.42009589  0.17334374  0.48934381  1
  Ca2+  Ca38  1  0.42525340  0.17082434  0.82961709  1
  Ca2+  Ca39  1  0.41164896  0.67735400  0.16835959  1
  Ca2+  Ca40  1  0.41407542  0.67381131  0.49023053  1
  Ca2+  Ca41  1  0.41952872  0.67304263  0.83365747  1
  Ca2+  Ca42  1  0.90668042  0.17491704  0.16849287  1
  Ca2+  Ca43  1  0.91803512  0.17121740  0.49507021  1
  Ca2+  Ca44  1  0.91838395  0.17740617  0.82646447  1
  Ca2+  Ca45  1  0.92244224  0.67253076  0.16595433  1
  Ca2+  Ca46  1  0.92256190  0.67566115  0.49402123  1
  Ca2+  Ca47  1  0.91121992  0.67948823  0.83073612  1
  Al0+  Al48  1  0.00107334  -0.00027531  -0.00167190  1
  Al0+  Al49  1  -0.00249260  0.00125198  0.33828638  1
  Al0+  Al50  1  -0.00069311  0.00090295  0.66420191  1
  Al0+  Al51  1  0.00120831  0.50050588  -0.00430953  1
  Al0+  Al52  1  0.00043940  0.50275466  0.32828221  1
  Al0+  Al53  1  0.00068351  0.50196257  0.66585281  1
  Al0+  Al54  1  0.49899921  0.00093388  -0.00772573  1
  Al0+  Al55  1  0.49897036  0.00090070  0.33476015  1
  Al0+  Al56  1  0.49862861  0.00036411  0.67012922  1
  Al0+  Al57  1  0.49952837  0.50116725  0.00501075  1
  Al0+  Al58  1  0.49977384  0.50171607  0.33778417  1
  Al0+  Al59  1  0.50093905  0.50200415  0.66727028  1
  Al0+  Al60  1  0.25038373  0.24925655  0.00101324  1
  Al0+  Al61  1  0.24712423  0.25036818  0.33635801  1
  Al0+  Al62  1  0.25099001  0.25111297  0.66282567  1
  Al0+  Al63  1  0.25096198  0.74906004  -0.00612945  1
  Al0+  Al64  1  0.25006632  0.74845669  0.33286625  1
  Al0+  Al65  1  0.25101851  0.74993407  0.67344454  1
  Al0+  Al66  1  0.74997292  0.24844413  -0.00729646  1
  Al0+  Al67  1  0.74920312  0.24928662  0.33588831  1
  Al0+  Al68  1  0.74858232  0.24778436  0.66389357  1
  Al0+  Al69  1  0.74922130  0.74767538  0.00274317  1
  Al0+  Al70  1  0.74912639  0.74743443  0.33467792  1
  Al0+  Al71  1  0.74963875  0.74773565  0.66703984  1
  Al0+  Al72  1  0.68041223  0.42924948  0.34748858  1
  Al0+  Al73  1  0.92743890  0.32320568  0.65006025  1
  Al0+  Al74  1  0.92863631  0.82055321  0.98874139  1
  Al0+  Al75  1  0.92783417  0.81993598  0.65268735  1
  Al0+  Al76  1  0.82063916  0.07219178  0.34886665  1
  Al0+  Al77  1  0.06944098  0.68315588  0.32024814  1
  Al0+  Al78  1  0.17582430  0.42841207  0.34822098  1
  Al0+  Al79  1  0.42555028  0.32398382  0.31801209  1
  Al0+  Al80  1  0.68069777  0.42706580  0.01290370  1
  Al0+  Al81  1  0.17905849  0.92934611  0.68221041  1
  Al0+  Al82  1  0.56928401  0.18070570  0.31864959  1
  Al0+  Al83  1  0.93089198  0.31950729  0.31915812  1
  Al0+  Al84  1  0.32152444  0.07277799  0.34797644  1
  Al0+  Al85  1  0.57072776  0.17964717  0.98445934  1
  Al0+  Al86  1  0.07102121  0.17898249  0.65020577  1
  Al0+  Al87  1  0.43180899  0.81926604  0.32247695  1
  Al0+  Al88  1  0.67840079  0.92761156  0.34720509  1
  Al0+  Al89  1  0.43008301  0.82074806  0.98461896  1
  Al0+  Al90  1  0.67947091  0.92792598  0.68181193  1
  Al0+  Al91  1  0.17832598  0.92767435  0.34574091  1
  Al0+  Al92  1  0.32106672  0.57024292  0.34899716  1
  Al0+  Al93  1  0.93064406  0.31935285  0.98674245  1
  Al0+  Al94  1  0.43227909  0.32245317  0.65438678  1
  Al0+  Al95  1  0.67824123  0.92861264  0.01378833  1
  Si0+  Si96  1  0.31991783  0.57203656  0.01511336  1
  Si0+  Si97  1  0.82436285  0.57138208  0.01767552  1
  Si0+  Si98  1  0.32116651  0.07395764  0.68594611  1
  Si0+  Si99  1  0.57052181  0.67939950  0.65257484  1
  Si0+  Si100  1  0.17924930  0.42894103  0.01316484  1
  Si0+  Si101  1  0.42868493  0.82089802  0.65206735  1
  Si0+  Si102  1  0.57094448  0.17536840  0.64808142  1
  Si0+  Si103  1  0.42684353  0.32342923  0.98568282  1
  Si0+  Si104  1  0.82327532  0.57221194  0.35036999  1
  Si0+  Si105  1  0.92458688  0.82462650  0.31745031  1
  Si0+  Si106  1  0.57515024  0.67644114  0.31572223  1
  Si0+  Si107  1  0.82337985  0.07091724  0.01443260  1
  Si0+  Si108  1  0.07638451  0.17786541  0.98399025  1
  Si0+  Si109  1  0.07228549  0.17443212  0.31549441  1
  Si0+  Si110  1  0.67894252  0.42938354  0.68108926  1
  Si0+  Si111  1  0.07482489  0.67910897  0.65015627  1
  Si0+  Si112  1  0.32071006  0.07040903  0.01338378  1
  Si0+  Si113  1  0.17888665  0.92808046  0.01362642  1
  Si0+  Si114  1  0.82194987  0.57008298  0.68203194  1
  Si0+  Si115  1  0.32317666  0.57080320  0.68537607  1
  Si0+  Si116  1  0.17937518  0.42941237  0.68261638  1
  Si0+  Si117  1  0.82148019  0.07212067  0.68549910  1
  Si0+  Si118  1  0.57141074  0.67487026  0.98363016  1
  Si0+  Si119  1  0.07278761  0.67862342  0.98085416  1
  O2-  O120  1  0.25017581  -0.00149997  0.05482662  1
  O2-  O121  1  0.24534142  0.00397724  0.39625705  1
  O2-  O122  1  0.25247070  0.00502928  0.73089519  1
  O2-  O123  1  0.25066046  0.49908422  0.05534816  1
  O2-  O124  1  0.25494917  0.49263584  0.39923448  1
  O2-  O125  1  0.25189637  0.49916256  0.72658093  1
  O2-  O126  1  0.75635729  0.00040273  0.05812647  1
  O2-  O127  1  0.75372438  -0.00511816  0.39809021  1
  O2-  O128  1  0.75432267  0.00183792  0.73017113  1
  O2-  O129  1  0.75777686  0.49984630  0.05985515  1
  O2-  O130  1  0.75455435  0.50410415  0.39533347  1
  O2-  O131  1  0.75612520  0.49356843  0.72417942  1
  O2-  O132  1  0.00517262  0.24480459  0.27087438  1
  O2-  O133  1  -0.00096240  0.25109667  0.60094630  1
  O2-  O134  1  0.00616574  0.24562171  0.94082711  1
  O2-  O135  1  -0.00274402  0.76004537  0.27325348  1
  O2-  O136  1  0.00785601  0.75002219  0.60776749  1
  O2-  O137  1  0.00322657  0.74678253  0.93822634  1
  O2-  O138  1  0.49712169  0.25237290  0.26695918  1
  O2-  O139  1  0.50474258  0.24731712  0.60688468  1
  O2-  O140  1  0.49774446  0.25797274  0.94021590  1
  O2-  O141  1  0.50916008  0.74831120  0.27308395  1
  O2-  O142  1  0.50381354  0.75424748  0.61097837  1
  O2-  O143  1  0.50782808  0.74818619  0.93829956  1
  O2-  O144  1  0.08183011  0.17894417  0.08874054  1
  O2-  O145  1  0.07023490  0.17391392  0.42074245  1
  O2-  O146  1  0.06967112  0.18265112  0.76489009  1
  O2-  O147  1  0.07549765  0.67835550  0.08600824  1
  O2-  O148  1  0.06753600  0.68308872  0.43345080  1
  O2-  O149  1  0.07372543  0.67721337  0.75618963  1
  O2-  O150  1  0.57050306  0.17783898  0.09664470  1
  O2-  O151  1  0.56890368  0.18168755  0.43225871  1
  O2-  O152  1  0.57042761  0.17612623  0.75433398  1
  O2-  O153  1  0.56757844  0.66975886  0.08827469  1
  O2-  O154  1  0.57532936  0.67651220  0.42180690  1
  O2-  O155  1  0.56790015  0.67559483  0.75781760  1
  O2-  O156  1  0.17404544  0.43481119  0.23379575  1
  O2-  O157  1  0.17832616  0.43215939  0.57847971  1
  O2-  O158  1  0.18058141  0.43000013  0.90754896  1
  O2-  O159  1  0.18171084  0.92731627  0.23120577  1
  O2-  O160  1  0.18371931  0.92568008  0.57012403  1
  O2-  O161  1  0.17860871  0.92915198  0.90839699  1
  O2-  O162  1  0.68304599  0.42914266  0.23414030  1
  O2-  O163  1  0.67601856  0.43419332  0.57664436  1
  O2-  O164  1  0.68131915  0.42998678  0.89888546  1
  O2-  O165  1  0.67844458  0.92960271  0.23333720  1
  O2-  O166  1  0.67907478  0.92723015  0.56954156  1
  O2-  O167  1  0.67940853  0.93061532  0.90021726  1
  O2-  O168  1  0.42266305  0.32220504  0.09005822  1
  O2-  O169  1  0.43134074  0.32340195  0.43194175  1
  O2-  O170  1  0.43541629  0.32294669  0.76841627  1
  O2-  O171  1  0.42635306  0.81964760  0.09711263  1
  O2-  O172  1  0.43141730  0.81734942  0.43597181  1
  O2-  O173  1  0.42850952  0.81812070  0.75760976  1
  O2-  O174  1  0.93091076  0.31965090  0.09941945  1
  O2-  O175  1  0.93153221  0.31946595  0.43182145  1
  O2-  O176  1  0.92945632  0.32339095  0.76432658  1
  O2-  O177  1  0.93220729  0.81872946  0.10126354  1
  O2-  O178  1  0.92280256  0.81987788  0.42299984  1
  O2-  O179  1  0.92658365  0.81622384  0.76636190  1
  O2-  O180  1  0.32268881  0.06803765  0.23339759  1
  O2-  O181  1  0.32292755  0.07253786  0.58116976  1
  O2-  O182  1  0.31886741  0.07160077  0.90811438  1
  O2-  O183  1  0.31677915  0.57352249  0.23489725  1
  O2-  O184  1  0.32566723  0.57292922  0.58121998  1
  O2-  O185  1  0.31954677  0.57208707  0.90936836  1
  O2-  O186  1  0.81850003  0.07204703  0.23456630  1
  O2-  O187  1  0.81955470  0.07285345  0.58050918  1
  O2-  O188  1  0.82363268  0.07020443  0.90865755  1
  O2-  O189  1  0.82228111  0.57296562  0.24469013  1
  O2-  O190  1  0.81988811  0.57303981  0.57755177  1
  O2-  O191  1  0.82324520  0.57167490  0.91143867  1
  O2-  O192  1  0.04570528  0.08088960  0.26862768  1
  O2-  O193  1  0.04530331  0.08033352  0.59848022  1
  O2-  O194  1  0.05145086  0.08376721  0.93830248  1
  O2-  O195  1  0.03644723  0.58923305  0.26189589  1
  O2-  O196  1  0.04700918  0.58656610  0.60414638  1
  O2-  O197  1  0.04811742  0.58502244  0.93352612  1
  O2-  O198  1  0.53973997  0.08247688  0.26575091  1
  O2-  O199  1  0.54133942  0.08266790  0.60339711  1
  O2-  O200  1  0.53513286  0.08670468  0.92613082  1
  O2-  O201  1  0.54577846  0.58420523  0.26980659  1
  O2-  O202  1  0.53844541  0.58996048  0.60341154  1
  O2-  O203  1  0.53954174  0.58382488  0.93354622  1
  O2-  O204  1  0.16686458  0.19715570  0.27047613  1
  O2-  O205  1  0.17002960  0.20620444  0.59965375  1
  O2-  O206  1  0.16823668  0.20558950  0.93396811  1
  O2-  O207  1  0.16526026  0.71209029  0.26377382  1
  O2-  O208  1  0.17007799  0.70283719  0.60757897  1
  O2-  O209  1  0.16548964  0.70360554  0.93228257  1
  O2-  O210  1  0.66709951  0.21106335  0.26589506  1
  O2-  O211  1  0.66554815  0.19735664  0.60435124  1
  O2-  O212  1  0.66564161  0.20925520  0.92619322  1
  O2-  O213  1  0.66995717  0.69571705  0.26927118  1
  O2-  O214  1  0.66332180  0.70119045  0.60570912  1
  O2-  O215  1  0.66726404  0.69448086  0.93965487  1
  O2-  O216  1  0.08723044  0.45789329  0.05912407  1
  O2-  O217  1  0.08109909  0.46835683  0.40132686  1
  O2-  O218  1  0.08837187  0.46041386  0.73165469  1
  O2-  O219  1  0.08721488  0.95436389  0.06143379  1
  O2-  O220  1  0.07806235  0.94879848  0.39682392  1
  O2-  O221  1  0.08107923  0.95996142  0.73508857  1
  O2-  O222  1  0.58428845  0.45915542  0.06640407  1
  O2-  O223  1  0.58518621  0.46195156  0.40270924  1
  O2-  O224  1  0.59044914  0.46489647  0.73120346  1
  O2-  O225  1  0.58016696  0.96252659  0.06218953  1
  O2-  O226  1  0.58198893  0.95946541  0.40100609  1
  O2-  O227  1  0.58177408  0.95930441  0.73530799  1
  O2-  O228  1  0.20436268  0.33647079  0.05978768  1
  O2-  O229  1  0.19089635  0.32713896  0.39800082  1
  O2-  O230  1  0.20724292  0.33766987  0.73058451  1
  O2-  O231  1  0.20677184  0.83440138  0.05671209  1
  O2-  O232  1  0.21189387  0.83211399  0.39987554  1
  O2-  O233  1  0.21132992  0.83340800  0.73908888  1
  O2-  O234  1  0.71148154  0.32942682  0.06343681  1
  O2-  O235  1  0.71166140  0.33478040  0.40326203  1
  O2-  O236  1  0.69923979  0.33406876  0.72490421  1
  O2-  O237  1  0.70240482  0.82938906  0.06526474  1
  O2-  O238  1  0.70067438  0.82641902  0.39770121  1
  O2-  O239  1  0.70796035  0.82932725  0.73463091  1
  O2-  O240  1  0.45258266  0.42473625  0.26928406  1
  O2-  O241  1  0.46299656  0.41960867  0.60201730  1
  O2-  O242  1  0.44944762  0.41893928  0.94133005  1
  O2-  O243  1  0.45987659  0.91584105  0.26751296  1
  O2-  O244  1  0.45195071  0.91481768  0.60836527  1
  O2-  O245  1  0.45750697  0.91622710  0.92722102  1
  O2-  O246  1  0.96016253  0.41645623  0.26476301  1
  O2-  O247  1  0.95537315  0.42297985  0.60042410  1
  O2-  O248  1  0.95965368  0.41699044  0.93234553  1
  O2-  O249  1  0.94442128  0.92018694  0.27436982  1
  O2-  O250  1  0.95296572  0.91795592  0.60157444  1
  O2-  O251  1  0.95904857  0.91698255  0.93302251  1
  O2-  O252  1  0.32413780  0.30064108  0.26918617  1
  O2-  O253  1  0.33416673  0.29757794  0.60285184  1
  O2-  O254  1  0.33438316  0.29450408  0.93678663  1
  O2-  O255  1  0.33690996  0.78508533  0.26719985  1
  O2-  O256  1  0.33807402  0.78701579  0.60731547  1
  O2-  O257  1  0.33533831  0.78543884  0.92763279  1
  O2-  O258  1  0.83407015  0.28673085  0.26690757  1
  O2-  O259  1  0.82748588  0.29597183  0.60052014  1
  O2-  O260  1  0.83592403  0.28872651  0.92930844  1
  O2-  O261  1  0.83301458  0.79272259  0.27011488  1
  O2-  O262  1  0.83323383  0.78309251  0.59914435  1
  O2-  O263  1  0.83183326  0.78753002  0.93457129  1
  O2-  O264  1  0.41241711  0.04127536  0.05839333  1
  O2-  O265  1  0.41677234  0.04006231  0.40339225  1
  O2-  O266  1  0.41405660  0.04630987  0.73368329  1
  O2-  O267  1  0.41223045  0.54935330  0.06248431  1
  O2-  O268  1  0.42081785  0.55100252  0.40315501  1
  O2-  O269  1  0.41446129  0.54199076  0.73474645  1
  O2-  O270  1  0.91831660  0.04946439  0.06013051  1
  O2-  O271  1  0.91946832  0.04989272  0.40299618  1
  O2-  O272  1  0.91616042  0.04971953  0.73018697  1
  O2-  O273  1  0.92012116  0.54884883  0.06063867  1
  O2-  O274  1  0.91632916  0.54654927  0.39582306  1
  O2-  O275  1  0.91551207  0.54877614  0.73002943  1
  O2-  O276  1  0.29372490  0.16211036  0.06139517  1
  O2-  O277  1  0.29720852  0.17161703  0.40076165  1
  O2-  O278  1  0.29577770  0.16819398  0.73224837  1
  O2-  O279  1  0.28908961  0.66367609  0.06095915  1
  O2-  O280  1  0.28526586  0.66542023  0.40367053  1
  O2-  O281  1  0.29388109  0.66107242  0.73593206  1
  O2-  O282  1  0.79437125  0.16423233  0.05807724  1
  O2-  O283  1  0.78745749  0.16721160  0.40470319  1
  O2-  O284  1  0.79297956  0.16584514  0.73220489  1
  O2-  O285  1  0.79733991  0.66332963  0.06542956  1
  O2-  O286  1  0.79736217  0.66489803  0.39854740  1
  O2-  O287  1  0.78753689  0.65845838  0.73307640  1
