# generated using pymatgen
data_Ca2Al2SiO7
_symmetry_space_group_name_H-M   'P 1'
_cell_length_a   15.45978793
_cell_length_b   15.46047132
_cell_length_c   15.28552704
_cell_angle_alpha   89.99758480
_cell_angle_beta   89.99389354
_cell_angle_gamma   90.00883291
_symmetry_Int_Tables_number   1
_chemical_formula_structural   Ca2Al2SiO7
_chemical_formula_sum   'Ca48 Al48 Si24 O168'
_cell_volume   3653.47947216
_cell_formula_units_Z   24
loop_
 _symmetry_equiv_pos_site_id
 _symmetry_equiv_pos_as_xyz
  1  'x, y, z'
loop_
 _atom_type_symbol
 _atom_type_oxidation_number
  Ca2+  2.0
  Al0+  0.0
  Si0+  0.0
  O2-  -2.0
loop_
 _atom_site_type_symbol
 _atom_site_label
 _atom_site_symmetry_multiplicity
 _atom_site_fract_x
 _atom_site_fract_y
 _atom_site_fract_z
 _atom_site_occupancy
  Ca2+  Ca0  1  0.17587669  0.07747888  0.17568869  1
  Ca2+  Ca1  1  0.17435935  0.08983264  0.50245219  1
  Ca2+  Ca2  1  0.17651792  0.08351375  0.84015026  1
  Ca2+  Ca3  1  0.16225526  0.58476960  0.17099335  1
  Ca2+  Ca4  1  0.16855475  0.57667022  0.50588727  1
  Ca2+  Ca5  1  0.16864215  0.57946448  0.83356816  1
  Ca2+  Ca6  1  0.67020928  0.08713819  0.16922475  1
  Ca2+  Ca7  1  0.67068381  0.07910383  0.50214119  1
  Ca2+  Ca8  1  0.67824184  0.09312705  0.83866942  1
  Ca2+  Ca9  1  0.67107562  0.57153108  0.17669909  1
  Ca2+  Ca10  1  0.67136741  0.57759773  0.49776176  1
  Ca2+  Ca11  1  0.66815590  0.57454566  0.84127974  1
  Ca2+  Ca12  1  0.07861304  0.32470931  0.16979680  1
  Ca2+  Ca13  1  0.08118255  0.32384516  0.49450556  1
  Ca2+  Ca14  1  0.07693856  0.32569986  0.82015683  1
  Ca2+  Ca15  1  0.09593343  0.82571388  0.16366754  1
  Ca2+  Ca16  1  0.08844231  0.82570243  0.49009552  1
  Ca2+  Ca17  1  0.09141336  0.83128862  0.83553592  1
  Ca2+  Ca18  1  0.57590089  0.33500176  0.15931540  1
  Ca2+  Ca19  1  0.57585960  0.33228074  0.49115208  1
  Ca2+  Ca20  1  0.58020064  0.33034459  0.83777529  1
  Ca2+  Ca21  1  0.57817491  0.84201411  0.16815802  1
  Ca2+  Ca22  1  0.57161633  0.83860037  0.49228480  1
  Ca2+  Ca23  1  0.57453053  0.83285556  0.82455443  1
  Ca2+  Ca24  1  0.33771290  0.41435731  0.17235032  1
  Ca2+  Ca25  1  0.32656987  0.41951530  0.50834218  1
  Ca2+  Ca26  1  0.32845068  0.41655531  0.83483167  1
  Ca2+  Ca27  1  0.32862196  0.92698503  0.17412517  1
  Ca2+  Ca28  1  0.33301588  0.92457676  0.50116442  1
  Ca2+  Ca29  1  0.33100021  0.92714015  0.83721107  1
  Ca2+  Ca30  1  0.82266561  0.41653274  0.17696639  1
  Ca2+  Ca31  1  0.83715083  0.41190794  0.49792239  1
  Ca2+  Ca32  1  0.82747231  0.40981833  0.83885317  1
  Ca2+  Ca33  1  0.82684471  0.92275314  0.17163840  1
  Ca2+  Ca34  1  0.82780120  0.92080592  0.50312305  1
  Ca2+  Ca35  1  0.83573448  0.93159317  0.83785473  1
  Ca2+  Ca36  1  0.41809016  0.17244256  0.16131257  1
  Ca2+  Ca37  1  0.41095340  0.16962180  0.49123965  1
  Ca2+  Ca38  1  0.41720695  0.16370583  0.83325233  1
  Ca2+  Ca39  1  0.41520347  0.67626954  0.16562864  1
  Ca2+  Ca40  1  0.40851962  0.67883607  0.49608107  1
  Ca2+  Ca41  1  0.41413470  0.67309097  0.82443027  1
  Ca2+  Ca42  1  0.91750498  0.16568724  0.16485704  1
  Ca2+  Ca43  1  0.92677458  0.17265644  0.49661959  1
  Ca2+  Ca44  1  0.92111225  0.16628163  0.82134279  1
  Ca2+  Ca45  1  0.92564586  0.66349004  0.16578124  1
  Ca2+  Ca46  1  0.92304796  0.66436005  0.48837825  1
  Ca2+  Ca47  1  0.92356890  0.66826434  0.83184669  1
  Al0+  Al48  1  -0.00064643  -0.00203591  0.00794909  1
  Al0+  Al49  1  0.00097797  -0.00301616  0.33302563  1
  Al0+  Al50  1  -0.00043455  -0.00164987  0.66540637  1
  Al0+  Al51  1  0.00159700  0.50122429  -0.00595772  1
  Al0+  Al52  1  0.00012335  0.49956044  0.32806384  1
  Al0+  Al53  1  -0.00232957  0.50034437  0.66856203  1
  Al0+  Al54  1  0.50100979  0.00157476  -0.00319168  1
  Al0+  Al55  1  0.49997855  0.00145650  0.33570911  1
  Al0+  Al56  1  0.49876285  -0.00167079  0.66607823  1
  Al0+  Al57  1  0.49863805  0.50071112  -0.00114725  1
  Al0+  Al58  1  0.50097777  0.50157236  0.33520330  1
  Al0+  Al59  1  0.50195174  0.50049796  0.67037661  1
  Al0+  Al60  1  0.24863566  0.25259534  0.00014287  1
  Al0+  Al61  1  0.24968605  0.25086621  0.32758924  1
  Al0+  Al62  1  0.25038645  0.24967154  0.67276184  1
  Al0+  Al63  1  0.25045130  0.74780520  -0.00371444  1
  Al0+  Al64  1  0.25112350  0.75137236  0.32712470  1
  Al0+  Al65  1  0.25091883  0.75029429  0.66572974  1
  Al0+  Al66  1  0.74801027  0.25106948  0.00642522  1
  Al0+  Al67  1  0.74947498  0.25020508  0.33637066  1
  Al0+  Al68  1  0.74919926  0.24969245  0.66516759  1
  Al0+  Al69  1  0.75228546  0.75077699  -0.00208549  1
  Al0+  Al70  1  0.75009654  0.74897921  0.34107147  1
  Al0+  Al71  1  0.74883075  0.74740575  0.66770264  1
  Al0+  Al72  1  0.07157562  0.17586598  0.31636610  1
  Al0+  Al73  1  0.32149006  0.07124847  0.68117878  1
  Al0+  Al74  1  0.42660427  0.32301487  0.98220142  1
  Al0+  Al75  1  0.82269481  0.56865160  0.34816897  1
  Al0+  Al76  1  0.07039309  0.68020087  0.32025556  1
  Al0+  Al77  1  0.42952237  0.32319573  0.32253826  1
  Al0+  Al78  1  0.57145177  0.17925659  0.98468534  1
  Al0+  Al79  1  0.92667118  0.32155305  0.65191821  1
  Al0+  Al80  1  0.17729038  0.42900987  0.68149427  1
  Al0+  Al81  1  0.07360111  0.17707269  0.65289936  1
  Al0+  Al82  1  0.32259704  0.07367139  0.01642294  1
  Al0+  Al83  1  0.67906087  0.43156274  0.01418210  1
  Al0+  Al84  1  0.07118884  0.67933868  0.98261968  1
  Al0+  Al85  1  0.17918687  0.92656555  0.34926651  1
  Al0+  Al86  1  0.82026501  0.07146352  0.01427194  1
  Al0+  Al87  1  0.42964958  0.82011256  0.65145602  1
  Al0+  Al88  1  0.67904062  0.92996452  0.34663594  1
  Al0+  Al89  1  0.31919632  0.07262261  0.34858275  1
  Al0+  Al90  1  0.92847264  0.31963225  0.31671019  1
  Al0+  Al91  1  0.43056912  0.82239716  0.31779691  1
  Al0+  Al92  1  0.81948382  0.06927815  0.67821619  1
  Al0+  Al93  1  0.32102962  0.57189241  0.68110420  1
  Al0+  Al94  1  0.67726902  0.42723430  0.35099501  1
  Al0+  Al95  1  0.18108316  0.92744284  0.01507287  1
  Si0+  Si96  1  0.17720156  0.92662046  0.68241419  1
  Si0+  Si97  1  0.57309274  0.67904173  0.31701406  1
  Si0+  Si98  1  0.82382693  0.57316119  0.01549184  1
  Si0+  Si99  1  0.06923991  0.68040594  0.65152282  1
  Si0+  Si100  1  0.43004027  0.32156338  0.65313359  1
  Si0+  Si101  1  0.17681306  0.43026645  0.01643857  1
  Si0+  Si102  1  0.92674190  0.82328191  0.98200405  1
  Si0+  Si103  1  0.57360460  0.67569567  0.64859959  1
  Si0+  Si104  1  0.82399225  0.07275211  0.35164282  1
  Si0+  Si105  1  0.57238566  0.67892989  0.98639224  1
  Si0+  Si106  1  0.43058327  0.82044476  0.98415135  1
  Si0+  Si107  1  0.06929572  0.17704530  0.98614849  1
  Si0+  Si108  1  0.67763547  0.92696051  0.68368905  1
  Si0+  Si109  1  0.92439309  0.82159700  0.31708997  1
  Si0+  Si110  1  0.92935003  0.31961891  0.98642944  1
  Si0+  Si111  1  0.67778705  0.92525019  0.01410122  1
  Si0+  Si112  1  0.32022696  0.57020602  0.01578071  1
  Si0+  Si113  1  0.17974552  0.43011406  0.34527339  1
  Si0+  Si114  1  0.57161074  0.17820105  0.31891450  1
  Si0+  Si115  1  0.32172289  0.57240326  0.34585420  1
  Si0+  Si116  1  0.57083188  0.17917675  0.65142272  1
  Si0+  Si117  1  0.67924889  0.42862580  0.68350583  1
  Si0+  Si118  1  0.92630668  0.82054434  0.65167712  1
  Si0+  Si119  1  0.82108749  0.57278718  0.68410735  1
  O2-  O120  1  0.25010103  0.00170754  0.06508265  1
  O2-  O121  1  0.24592219  0.00250058  0.40008434  1
  O2-  O122  1  0.24249359  -0.00077819  0.72519924  1
  O2-  O123  1  0.25109823  0.49810749  0.05873884  1
  O2-  O124  1  0.25252163  0.49964851  0.38721560  1
  O2-  O125  1  0.25045851  0.49977175  0.73301197  1
  O2-  O126  1  0.74424829  -0.00385063  0.05758223  1
  O2-  O127  1  0.75517121  0.00274165  0.39411135  1
  O2-  O128  1  0.74618072  -0.00535031  0.72867542  1
  O2-  O129  1  0.75363689  0.50686784  0.05943743  1
  O2-  O130  1  0.75291841  0.49575760  0.40083939  1
  O2-  O131  1  0.75185494  0.49921982  0.72500166  1
  O2-  O132  1  -0.00485481  0.24338354  0.26571130  1
  O2-  O133  1  0.00267844  0.25195945  0.60507395  1
  O2-  O134  1  -0.00258775  0.24683968  0.94271089  1
  O2-  O135  1  -0.00361514  0.75595698  0.27343792  1
  O2-  O136  1  -0.00215088  0.75044321  0.60893656  1
  O2-  O137  1  -0.00298912  0.75562426  0.93753273  1
  O2-  O138  1  0.50591523  0.25030404  0.27640438  1
  O2-  O139  1  0.49716900  0.24765268  0.60955794  1
  O2-  O140  1  0.49603195  0.24752215  0.93318187  1
  O2-  O141  1  0.50711863  0.74910881  0.27066432  1
  O2-  O142  1  0.50425804  0.74399657  0.60558096  1
  O2-  O143  1  0.50583949  0.75305092  0.94250200  1
  O2-  O144  1  0.06836283  0.17923554  0.09084746  1
  O2-  O145  1  0.07374062  0.18083757  0.42980450  1
  O2-  O146  1  0.07044940  0.17647936  0.76736743  1
  O2-  O147  1  0.06975318  0.67786845  0.09530265  1
  O2-  O148  1  0.07041639  0.67910442  0.43382861  1
  O2-  O149  1  0.06827203  0.68181343  0.75681385  1
  O2-  O150  1  0.57359569  0.18162164  0.09798955  1
  O2-  O151  1  0.57002740  0.17763183  0.42514768  1
  O2-  O152  1  0.57351744  0.18194984  0.75616953  1
  O2-  O153  1  0.57105248  0.67853168  0.09111657  1
  O2-  O154  1  0.57041037  0.67839528  0.42259795  1
  O2-  O155  1  0.57568327  0.67725346  0.75478033  1
  O2-  O156  1  0.18010254  0.43194411  0.23977545  1
  O2-  O157  1  0.17897093  0.43118144  0.56742783  1
  O2-  O158  1  0.17487991  0.43234627  0.91151206  1
  O2-  O159  1  0.18507470  0.92440310  0.23605661  1
  O2-  O160  1  0.17860587  0.92195123  0.57741000  1
  O2-  O161  1  0.18347940  0.92805291  0.90077426  1
  O2-  O162  1  0.67531608  0.43158253  0.23750752  1
  O2-  O163  1  0.67604637  0.42978917  0.57904062  1
  O2-  O164  1  0.68165491  0.43278983  0.90030019  1
  O2-  O165  1  0.68032304  0.93163772  0.23317474  1
  O2-  O166  1  0.67852447  0.92732942  0.57823632  1
  O2-  O167  1  0.68034718  0.92070348  0.90854788  1
  O2-  O168  1  0.43049434  0.32675652  0.09554473  1
  O2-  O169  1  0.42874182  0.32363416  0.43631048  1
  O2-  O170  1  0.43305274  0.32316589  0.75785761  1
  O2-  O171  1  0.43099392  0.81850471  0.08911096  1
  O2-  O172  1  0.43046735  0.81977620  0.43080918  1
  O2-  O173  1  0.43243367  0.81856864  0.76522122  1
  O2-  O174  1  0.93182834  0.32069623  0.09105669  1
  O2-  O175  1  0.93312226  0.31979365  0.43009033  1
  O2-  O176  1  0.92477935  0.31861023  0.76645325  1
  O2-  O177  1  0.92019119  0.82078062  0.08671383  1
  O2-  O178  1  0.92320004  0.81869519  0.42312190  1
  O2-  O179  1  0.92499276  0.81874855  0.75683679  1
  O2-  O180  1  0.32115195  0.07222515  0.23531641  1
  O2-  O181  1  0.32433386  0.07135106  0.56865087  1
  O2-  O182  1  0.32107985  0.07017407  0.90232044  1
  O2-  O183  1  0.32181046  0.57232511  0.24032415  1
  O2-  O184  1  0.31857220  0.57145772  0.56722269  1
  O2-  O185  1  0.31929094  0.57179473  0.91076601  1
  O2-  O186  1  0.82126957  0.07234136  0.24579384  1
  O2-  O187  1  0.81616709  0.06613237  0.56566934  1
  O2-  O188  1  0.82106915  0.07119305  0.90078857  1
  O2-  O189  1  0.82063351  0.56891607  0.23429319  1
  O2-  O190  1  0.82092864  0.57710607  0.57990552  1
  O2-  O191  1  0.82221801  0.57256527  0.90933045  1
  O2-  O192  1  0.04792862  0.07512324  0.26593707  1
  O2-  O193  1  0.04432147  0.07873703  0.60026689  1
  O2-  O194  1  0.04275758  0.08361273  0.94162476  1
  O2-  O195  1  0.03931552  0.58523402  0.26318427  1
  O2-  O196  1  0.04127024  0.58811349  0.60602453  1
  O2-  O197  1  0.03809888  0.58433173  0.92546990  1
  O2-  O198  1  0.54445593  0.08636179  0.27103942  1
  O2-  O199  1  0.54659703  0.08551832  0.60649385  1
  O2-  O200  1  0.55019033  0.07907100  0.92998063  1
  O2-  O201  1  0.54418685  0.58684955  0.26994758  1
  O2-  O202  1  0.54951444  0.58131417  0.60388589  1
  O2-  O203  1  0.54078663  0.58975126  0.93603969  1
  O2-  O204  1  0.16632842  0.21209753  0.26066186  1
  O2-  O205  1  0.17282492  0.20663111  0.60211847  1
  O2-  O206  1  0.16075915  0.20685437  0.93944958  1
  O2-  O207  1  0.16630026  0.70929133  0.26356964  1
  O2-  O208  1  0.16136459  0.70738147  0.60505921  1
  O2-  O209  1  0.16797155  0.70913990  0.92742057  1
  O2-  O210  1  0.66685382  0.19930986  0.27502297  1
  O2-  O211  1  0.66048358  0.20963698  0.60177314  1
  O2-  O212  1  0.66926022  0.21447653  0.93187833  1
  O2-  O213  1  0.66812876  0.70207096  0.27335826  1
  O2-  O214  1  0.66738467  0.70110782  0.60253639  1
  O2-  O215  1  0.66603827  0.70156058  0.93863250  1
  O2-  O216  1  0.08628111  0.46351843  0.06314500  1
  O2-  O217  1  0.08936238  0.46059124  0.39241514  1
  O2-  O218  1  0.07914683  0.45909751  0.73529953  1
  O2-  O219  1  0.08047809  0.94702567  0.06633265  1
  O2-  O220  1  0.07656863  0.94382380  0.39807126  1
  O2-  O221  1  0.08172189  0.94601431  0.72745454  1
  O2-  O222  1  0.58225680  0.46432613  0.06585081  1
  O2-  O223  1  0.58067658  0.46171558  0.40548791  1
  O2-  O224  1  0.58917304  0.45836547  0.73373958  1
  O2-  O225  1  0.58324844  0.94867139  0.05799422  1
  O2-  O226  1  0.58446777  0.96287433  0.40300286  1
  O2-  O227  1  0.58433473  0.95264638  0.72924960  1
  O2-  O228  1  0.20051186  0.33774447  0.06353889  1
  O2-  O229  1  0.20723586  0.33872450  0.39222481  1
  O2-  O230  1  0.20541253  0.33206700  0.73697056  1
  O2-  O231  1  0.21258801  0.82820791  0.06458977  1
  O2-  O232  1  0.21297033  0.82861055  0.40105321  1
  O2-  O233  1  0.20761638  0.83498901  0.73050196  1
  O2-  O234  1  0.70911414  0.33679060  0.06984686  1
  O2-  O235  1  0.70106053  0.32772195  0.40361723  1
  O2-  O236  1  0.70744331  0.33694754  0.73058644  1
  O2-  O237  1  0.70497379  0.83255054  0.06225387  1
  O2-  O238  1  0.70581250  0.83344741  0.40298849  1
  O2-  O239  1  0.70151045  0.83190902  0.72856228  1
  O2-  O240  1  0.45850078  0.42070484  0.26837328  1
  O2-  O241  1  0.46074984  0.41332364  0.60667143  1
  O2-  O242  1  0.45881598  0.42114393  0.92873870  1
  O2-  O243  1  0.46369957  0.91854288  0.26461949  1
  O2-  O244  1  0.46250967  0.91577677  0.59687806  1
  O2-  O245  1  0.45525539  0.91266372  0.93617887  1
  O2-  O246  1  0.96055280  0.41599086  0.26204835  1
  O2-  O247  1  0.94954479  0.42304991  0.60290064  1
  O2-  O248  1  0.95792376  0.41091288  0.93759270  1
  O2-  O249  1  0.94444205  0.91641548  0.27206371  1
  O2-  O250  1  0.95129760  0.91213065  0.60365922  1
  O2-  O251  1  0.95370100  0.91721049  0.93668968  1
  O2-  O252  1  0.33449050  0.29448277  0.26544705  1
  O2-  O253  1  0.33635576  0.29742919  0.60889189  1
  O2-  O254  1  0.32581025  0.29930828  0.93126229  1
  O2-  O255  1  0.33744412  0.78682574  0.26093243  1
  O2-  O256  1  0.33329212  0.78836171  0.59759057  1
  O2-  O257  1  0.34165948  0.78618013  0.93566997  1
  O2-  O258  1  0.82699566  0.29564599  0.26757075  1
  O2-  O259  1  0.82946814  0.29087230  0.59795571  1
  O2-  O260  1  0.83569286  0.29455799  0.94213508  1
  O2-  O261  1  0.83164065  0.79253399  0.27070526  1
  O2-  O262  1  0.83403082  0.79177057  0.60521078  1
  O2-  O263  1  0.83458490  0.79642268  0.93142528  1
  O2-  O264  1  0.42284973  0.04549506  0.06513232  1
  O2-  O265  1  0.41749712  0.04361459  0.40099512  1
  O2-  O266  1  0.41729735  0.03598070  0.73529986  1
  O2-  O267  1  0.41274392  0.54566683  0.06291640  1
  O2-  O268  1  0.41350626  0.54890875  0.39443038  1
  O2-  O269  1  0.42099022  0.54688525  0.73350251  1
  O2-  O270  1  0.91448145  0.03932027  0.07113013  1
  O2-  O271  1  0.91757152  0.04670832  0.39635428  1
  O2-  O272  1  0.91610316  0.03778638  0.73290190  1
  O2-  O273  1  0.91777206  0.54559599  0.05866030  1
  O2-  O274  1  0.92194721  0.54062969  0.40013998  1
  O2-  O275  1  0.91308214  0.54839989  0.73269817  1
  O2-  O276  1  0.29515977  0.17375226  0.06574664  1
  O2-  O277  1  0.29048150  0.17258549  0.39939863  1
  O2-  O278  1  0.29565537  0.16775238  0.73742315  1
  O2-  O279  1  0.29056964  0.66135839  0.06303110  1
  O2-  O280  1  0.29052736  0.66297826  0.39249989  1
  O2-  O281  1  0.29043083  0.66952976  0.73500539  1
  O2-  O282  1  0.78901091  0.16624657  0.07047729  1
  O2-  O283  1  0.79739870  0.16540328  0.39820154  1
  O2-  O284  1  0.78691892  0.16574560  0.73224418  1
  O2-  O285  1  0.80141641  0.66820490  0.05946249  1
  O2-  O286  1  0.79405631  0.66582693  0.40413872  1
  O2-  O287  1  0.79073081  0.66315486  0.73466327  1
