# generated using pymatgen
data_Ca2Al2SiO7
_symmetry_space_group_name_H-M   'P 1'
_cell_length_a   15.45401151
_cell_length_b   15.45382461
_cell_length_c   15.28017409
_cell_angle_alpha   89.99499434
_cell_angle_beta   90.00028487
_cell_angle_gamma   90.00313346
_symmetry_Int_Tables_number   1
_chemical_formula_structural   Ca2Al2SiO7
_chemical_formula_sum   'Ca48 Al48 Si24 O168'
_cell_volume   3649.26591118
_cell_formula_units_Z   24
loop_
 _symmetry_equiv_pos_site_id
 _symmetry_equiv_pos_as_xyz
  1  'x, y, z'
loop_
 _atom_type_symbol
 _atom_type_oxidation_number
  Ca2+  2.0
  Al0+  0.0
  Si0+  0.0
  O2-  -2.0
loop_
 _atom_site_type_symbol
 _atom_site_label
 _atom_site_symmetry_multiplicity
 _atom_site_fract_x
 _atom_site_fract_y
 _atom_site_fract_z
 _atom_site_occupancy
  Ca2+  Ca0  1  0.17739943  0.08115108  0.17092958  1
  Ca2+  Ca1  1  0.16831845  0.08498187  0.50447762  1
  Ca2+  Ca2  1  0.16749442  0.07224090  0.83929329  1
  Ca2+  Ca3  1  0.17855484  0.58755784  0.17348228  1
  Ca2+  Ca4  1  0.17692318  0.59225617  0.50104952  1
  Ca2+  Ca5  1  0.18010715  0.58826923  0.83722336  1
  Ca2+  Ca6  1  0.66919318  0.08812249  0.17126868  1
  Ca2+  Ca7  1  0.66577853  0.07708943  0.50499896  1
  Ca2+  Ca8  1  0.67194772  0.07459410  0.83756912  1
  Ca2+  Ca9  1  0.66342949  0.57161291  0.17226898  1
  Ca2+  Ca10  1  0.65631627  0.57427563  0.50528968  1
  Ca2+  Ca11  1  0.66522999  0.57711129  0.83733661  1
  Ca2+  Ca12  1  0.08102725  0.33031954  0.16534111  1
  Ca2+  Ca13  1  0.07842102  0.32312100  0.49016163  1
  Ca2+  Ca14  1  0.08174400  0.32346927  0.82533057  1
  Ca2+  Ca15  1  0.09013503  0.82880159  0.16467458  1
  Ca2+  Ca16  1  0.08058268  0.83410579  0.50026454  1
  Ca2+  Ca17  1  0.08019010  0.84030229  0.82668345  1
  Ca2+  Ca18  1  0.58312486  0.33232859  0.16355607  1
  Ca2+  Ca19  1  0.58732451  0.33036260  0.49314330  1
  Ca2+  Ca20  1  0.58284347  0.33974640  0.83471767  1
  Ca2+  Ca21  1  0.57497288  0.82496734  0.16074676  1
  Ca2+  Ca22  1  0.58280621  0.82166794  0.49723312  1
  Ca2+  Ca23  1  0.57118037  0.82924258  0.82190764  1
  Ca2+  Ca24  1  0.34122931  0.42611003  0.16946918  1
  Ca2+  Ca25  1  0.33759490  0.43123160  0.50317539  1
  Ca2+  Ca26  1  0.33920333  0.42867881  0.83888153  1
  Ca2+  Ca27  1  0.33493496  0.92293725  0.16719396  1
  Ca2+  Ca28  1  0.32968841  0.92154378  0.50686172  1
  Ca2+  Ca29  1  0.32525489  0.91342472  0.84094094  1
  Ca2+  Ca30  1  0.82450895  0.41630532  0.17183550  1
  Ca2+  Ca31  1  0.82422154  0.41080106  0.50184679  1
  Ca2+  Ca32  1  0.82109824  0.42297031  0.84180167  1
  Ca2+  Ca33  1  0.83313461  0.92409128  0.16670987  1
  Ca2+  Ca34  1  0.82814214  0.91416290  0.50876126  1
  Ca2+  Ca35  1  0.82911180  0.91588002  0.83494253  1
  Ca2+  Ca36  1  0.41833837  0.16728721  0.15966433  1
  Ca2+  Ca37  1  0.42233879  0.16727599  0.49028240  1
  Ca2+  Ca38  1  0.40874797  0.17442608  0.83393149  1
  Ca2+  Ca39  1  0.41814980  0.66452219  0.16077537  1
  Ca2+  Ca40  1  0.42083600  0.66726021  0.49919681  1
  Ca2+  Ca41  1  0.41529037  0.67433041  0.82651254  1
  Ca2+  Ca42  1  0.91722604  0.17090278  0.16553383  1
  Ca2+  Ca43  1  0.92963817  0.16890516  0.49242586  1
  Ca2+  Ca44  1  0.92144322  0.16095835  0.82828283  1
  Ca2+  Ca45  1  0.92386725  0.66073328  0.16263581  1
  Ca2+  Ca46  1  0.92099362  0.67425266  0.49379708  1
  Ca2+  Ca47  1  0.91671429  0.67061838  0.82789388  1
  Al0+  Al48  1  -0.00068426  -0.00213509  0.00918811  1
  Al0+  Al49  1  -0.00016346  0.00091119  0.32934258  1
  Al0+  Al50  1  0.00160506  0.00048136  0.65982783  1
  Al0+  Al51  1  -0.00009022  0.49897000  -0.00182919  1
  Al0+  Al52  1  -0.00079664  0.50181946  0.32621615  1
  Al0+  Al53  1  -0.00006714  0.49884369  0.66532686  1
  Al0+  Al54  1  0.49982148  -0.00135818  -0.00312392  1
  Al0+  Al55  1  0.49982152  0.00048829  0.33350849  1
  Al0+  Al56  1  0.49991519  0.00167476  0.66849392  1
  Al0+  Al57  1  0.50071731  0.49769083  0.00334122  1
  Al0+  Al58  1  0.50085648  0.50081265  0.33895677  1
  Al0+  Al59  1  0.49963267  0.49987652  0.67249800  1
  Al0+  Al60  1  0.25021974  0.24892130  -0.00372094  1
  Al0+  Al61  1  0.25011436  0.25074763  0.33368955  1
  Al0+  Al62  1  0.25063350  0.25199299  0.66025473  1
  Al0+  Al63  1  0.24994550  0.74868631  0.00376189  1
  Al0+  Al64  1  0.24840088  0.75279752  0.33519019  1
  Al0+  Al65  1  0.25026355  0.75283343  0.67071890  1
  Al0+  Al66  1  0.75048962  0.24888081  0.00411165  1
  Al0+  Al67  1  0.75005343  0.24937635  0.33142874  1
  Al0+  Al68  1  0.74956803  0.25100142  0.67280828  1
  Al0+  Al69  1  0.75229438  0.74910596  0.00350325  1
  Al0+  Al70  1  0.74862595  0.74923428  0.32665735  1
  Al0+  Al71  1  0.74976409  0.74937427  0.66269903  1
  Al0+  Al72  1  0.17975327  0.93240498  0.67898400  1
  Al0+  Al73  1  0.07120739  0.68175790  0.31982916  1
  Al0+  Al74  1  0.42629120  0.82385167  0.65064141  1
  Al0+  Al75  1  0.56981515  0.17776677  0.32091887  1
  Al0+  Al76  1  0.07084465  0.17961929  0.65324287  1
  Al0+  Al77  1  0.68177482  0.42964650  0.34938306  1
  Al0+  Al78  1  0.82005820  0.06902514  0.01366889  1
  Al0+  Al79  1  0.67951528  0.43027864  0.01795187  1
  Al0+  Al80  1  0.17875728  0.92799035  0.01734362  1
  Al0+  Al81  1  0.68011558  0.42869821  0.68213577  1
  Al0+  Al82  1  0.82347879  0.57290993  0.01572780  1
  Al0+  Al83  1  0.07376245  0.17805582  0.31420937  1
  Al0+  Al84  1  0.42971908  0.32022212  0.98638395  1
  Al0+  Al85  1  0.31950405  0.56907892  0.01382072  1
  Al0+  Al86  1  0.42878072  0.82008076  0.98616374  1
  Al0+  Al87  1  0.32021935  0.57189663  0.34837033  1
  Al0+  Al88  1  0.67774596  0.92657923  0.67881736  1
  Al0+  Al89  1  0.32179848  0.07245155  0.01344061  1
  Al0+  Al90  1  0.92913629  0.82018527  0.65433576  1
  Al0+  Al91  1  0.56940095  0.67795147  0.65276032  1
  Al0+  Al92  1  0.92844595  0.32062758  0.31715351  1
  Al0+  Al93  1  0.56928776  0.67738968  0.31813883  1
  Al0+  Al94  1  0.32165549  0.07222811  0.34781709  1
  Al0+  Al95  1  0.31864598  0.57045906  0.68138910  1
  Si0+  Si96  1  0.17710896  0.93007880  0.35235010  1
  Si0+  Si97  1  0.82070661  0.07008328  0.34950203  1
  Si0+  Si98  1  0.17658259  0.42610029  0.68166058  1
  Si0+  Si99  1  0.67647234  0.92677119  0.01679850  1
  Si0+  Si100  1  0.82512657  0.57273891  0.68087437  1
  Si0+  Si101  1  0.92783415  0.32046086  0.98263621  1
  Si0+  Si102  1  0.32360801  0.07557923  0.68294913  1
  Si0+  Si103  1  0.92960790  0.82191378  0.98557329  1
  Si0+  Si104  1  0.82141494  0.07005632  0.68047088  1
  Si0+  Si105  1  0.57445592  0.17716254  0.98121163  1
  Si0+  Si106  1  0.17695279  0.42583087  0.01434914  1
  Si0+  Si107  1  0.82354964  0.57389774  0.35086302  1
  Si0+  Si108  1  0.07104307  0.67839247  0.98392491  1
  Si0+  Si109  1  0.42912655  0.32279744  0.31915904  1
  Si0+  Si110  1  0.57275845  0.17968138  0.65380121  1
  Si0+  Si111  1  0.17532150  0.42884230  0.34905807  1
  Si0+  Si112  1  0.07290395  0.67651816  0.65205023  1
  Si0+  Si113  1  0.67919759  0.92749582  0.34712007  1
  Si0+  Si114  1  0.42796743  0.82220773  0.31711838  1
  Si0+  Si115  1  0.57296116  0.67759416  0.98422274  1
  Si0+  Si116  1  0.43038602  0.32155272  0.65088512  1
  Si0+  Si117  1  0.92567985  0.82266593  0.31373443  1
  Si0+  Si118  1  0.06924168  0.17771791  0.98487415  1
  Si0+  Si119  1  0.92626041  0.32236457  0.65183771  1
  O2-  O120  1  0.25235313  -0.00073281  0.06507126  1
  O2-  O121  1  0.24400715  0.00104135  0.39547678  1
  O2-  O122  1  0.25643858  0.00495817  0.72583712  1
  O2-  O123  1  0.24575891  0.49322201  0.06002965  1
  O2-  O124  1  0.24376173  0.49763846  0.39415291  1
  O2-  O125  1  0.24133588  0.49740054  0.72726640  1
  O2-  O126  1  0.74240977  -0.00213279  0.06175059  1
  O2-  O127  1  0.75154175  -0.00296622  0.39086959  1
  O2-  O128  1  0.75315085  0.00131138  0.72510982  1
  O2-  O129  1  0.75102244  0.50299359  0.06728139  1
  O2-  O130  1  0.75589105  0.50524929  0.39670597  1
  O2-  O131  1  0.75587143  0.50437640  0.72483060  1
  O2-  O132  1  0.00259948  0.25146170  0.26515552  1
  O2-  O133  1  -0.00232739  0.25666430  0.60800273  1
  O2-  O134  1  -0.00115861  0.24897932  0.94067301  1
  O2-  O135  1  -0.00485229  0.75419575  0.27083009  1
  O2-  O136  1  0.00169902  0.74295645  0.60846967  1
  O2-  O137  1  -0.00156322  0.74870898  0.94302428  1
  O2-  O138  1  0.49354319  0.25049044  0.27458947  1
  O2-  O139  1  0.50060262  0.24900602  0.61040878  1
  O2-  O140  1  0.50341417  0.24425490  0.93785321  1
  O2-  O141  1  0.49311323  0.75050682  0.27196554  1
  O2-  O142  1  0.49957172  0.75228320  0.60188522  1
  O2-  O143  1  0.50591653  0.74742403  0.93974145  1
  O2-  O144  1  0.06864745  0.18037515  0.08947423  1
  O2-  O145  1  0.07079083  0.17794540  0.42820928  1
  O2-  O146  1  0.06807854  0.17900941  0.76697041  1
  O2-  O147  1  0.07124995  0.67878851  0.08904599  1
  O2-  O148  1  0.07048419  0.68508571  0.43325957  1
  O2-  O149  1  0.07139639  0.67581667  0.75788380  1
  O2-  O150  1  0.57544283  0.17805607  0.08690230  1
  O2-  O151  1  0.57039130  0.17770818  0.43470913  1
  O2-  O152  1  0.57446080  0.18018432  0.75865794  1
  O2-  O153  1  0.57087001  0.67897589  0.09017912  1
  O2-  O154  1  0.56967149  0.67831307  0.43100782  1
  O2-  O155  1  0.56817719  0.67807902  0.76655478  1
  O2-  O156  1  0.17681469  0.42954663  0.24330069  1
  O2-  O157  1  0.17813454  0.42462305  0.57626183  1
  O2-  O158  1  0.17607879  0.42737802  0.90842054  1
  O2-  O159  1  0.17879299  0.92852231  0.24691779  1
  O2-  O160  1  0.17830800  0.93467380  0.56599676  1
  O2-  O161  1  0.17484673  0.93048881  0.90354381  1
  O2-  O162  1  0.68105103  0.42938821  0.23690867  1
  O2-  O163  1  0.68127491  0.42483822  0.56911432  1
  O2-  O164  1  0.68106527  0.43157354  0.90393304  1
  O2-  O165  1  0.68056902  0.92908209  0.24192916  1
  O2-  O166  1  0.68001171  0.92930287  0.56529437  1
  O2-  O167  1  0.67924007  0.92650812  0.91105892  1
  O2-  O168  1  0.43065795  0.32045101  0.09933696  1
  O2-  O169  1  0.43219175  0.32270344  0.42530260  1
  O2-  O170  1  0.42885317  0.32116262  0.75601975  1
  O2-  O171  1  0.43077595  0.81877939  0.09957438  1
  O2-  O172  1  0.43043722  0.82318225  0.42260955  1
  O2-  O173  1  0.42586816  0.82136776  0.76440912  1
  O2-  O174  1  0.92891124  0.32037497  0.08730983  1
  O2-  O175  1  0.92863162  0.31624982  0.43143805  1
  O2-  O176  1  0.92686486  0.32111475  0.75766347  1
  O2-  O177  1  0.93036038  0.82288212  0.09053500  1
  O2-  O178  1  0.92424949  0.82277329  0.41954732  1
  O2-  O179  1  0.93056111  0.82116005  0.76775874  1
  O2-  O180  1  0.32384267  0.06927094  0.23509625  1
  O2-  O181  1  0.32307632  0.07668552  0.57713581  1
  O2-  O182  1  0.31621376  0.07463050  0.89979808  1
  O2-  O183  1  0.32009975  0.57028108  0.23520928  1
  O2-  O184  1  0.31833599  0.56896383  0.56813964  1
  O2-  O185  1  0.31805696  0.56991400  0.90063937  1
  O2-  O186  1  0.81951994  0.06936382  0.24426565  1
  O2-  O187  1  0.81924002  0.07115469  0.57474847  1
  O2-  O188  1  0.82167226  0.06585528  0.90011444  1
  O2-  O189  1  0.82209669  0.57311439  0.24542977  1
  O2-  O190  1  0.82937695  0.57101027  0.57556926  1
  O2-  O191  1  0.82430665  0.57191832  0.90159670  1
  O2-  O192  1  0.04316964  0.07999345  0.26228264  1
  O2-  O193  1  0.03756147  0.08662241  0.59477685  1
  O2-  O194  1  0.03738103  0.08516268  0.94100420  1
  O2-  O195  1  0.04482267  0.58528928  0.26358510  1
  O2-  O196  1  0.05190050  0.58167082  0.60558367  1
  O2-  O197  1  0.04536474  0.58610799  0.93552954  1
  O2-  O198  1  0.54226094  0.08107816  0.26531779  1
  O2-  O199  1  0.54733176  0.08764561  0.60569558  1
  O2-  O200  1  0.55255568  0.08222876  0.93617937  1
  O2-  O201  1  0.53772549  0.58048811  0.26583751  1
  O2-  O202  1  0.53691334  0.57963100  0.60107129  1
  O2-  O203  1  0.54686351  0.58347051  0.94066620  1
  O2-  O204  1  0.17305539  0.20632763  0.26319422  1
  O2-  O205  1  0.16702689  0.20972223  0.59758542  1
  O2-  O206  1  0.16034350  0.20426785  0.93560302  1
  O2-  O207  1  0.16687447  0.71522446  0.26460432  1
  O2-  O208  1  0.16485909  0.70684236  0.60645079  1
  O2-  O209  1  0.16211256  0.70821362  0.93673305  1
  O2-  O210  1  0.66556029  0.20880001  0.26653991  1
  O2-  O211  1  0.66479770  0.20857660  0.60667411  1
  O2-  O212  1  0.66783609  0.20514795  0.93500767  1
  O2-  O213  1  0.66521869  0.70818538  0.26257805  1
  O2-  O214  1  0.66863076  0.70217646  0.59923962  1
  O2-  O215  1  0.66862411  0.70102246  0.94102465  1
  O2-  O216  1  0.08343571  0.45102376  0.05998564  1
  O2-  O217  1  0.08086635  0.45403679  0.39364287  1
  O2-  O218  1  0.08090183  0.44582985  0.72685201  1
  O2-  O219  1  0.08187980  0.95581265  0.07286359  1
  O2-  O220  1  0.08114901  0.95354011  0.39529450  1
  O2-  O221  1  0.08279847  0.96558480  0.73220550  1
  O2-  O222  1  0.58156900  0.45700633  0.07161063  1
  O2-  O223  1  0.58530076  0.45990241  0.40415607  1
  O2-  O224  1  0.58437137  0.45960965  0.73702322  1
  O2-  O225  1  0.58229409  0.94970995  0.06185163  1
  O2-  O226  1  0.58843376  0.95662260  0.39505282  1
  O2-  O227  1  0.58273557  0.95991120  0.73470379  1
  O2-  O228  1  0.20077444  0.33177137  0.05905021  1
  O2-  O229  1  0.20003030  0.33497270  0.39518540  1
  O2-  O230  1  0.20582065  0.33343948  0.72840044  1
  O2-  O231  1  0.20723607  0.82993984  0.06990250  1
  O2-  O232  1  0.20378385  0.83759848  0.39990407  1
  O2-  O233  1  0.20497673  0.83539753  0.73482309  1
  O2-  O234  1  0.70829808  0.33115849  0.06811109  1
  O2-  O235  1  0.71350408  0.33187307  0.40205741  1
  O2-  O236  1  0.71076906  0.33329905  0.73968686  1
  O2-  O237  1  0.70504562  0.83466378  0.06411163  1
  O2-  O238  1  0.70706952  0.83487336  0.39313021  1
  O2-  O239  1  0.70935032  0.83060818  0.73302273  1
  O2-  O240  1  0.45947748  0.41484183  0.27342701  1
  O2-  O241  1  0.46087892  0.41253796  0.60444987  1
  O2-  O242  1  0.46316723  0.41629618  0.93140517  1
  O2-  O243  1  0.45881903  0.91376325  0.26996785  1
  O2-  O244  1  0.45298552  0.92432612  0.60079626  1
  O2-  O245  1  0.45577976  0.91750643  0.93107104  1
  O2-  O246  1  0.95181179  0.42009345  0.26425023  1
  O2-  O247  1  0.94761050  0.41670239  0.60514776  1
  O2-  O248  1  0.95587178  0.41202017  0.93401433  1
  O2-  O249  1  0.95110822  0.91654824  0.26861079  1
  O2-  O250  1  0.96123550  0.91452857  0.59638195  1
  O2-  O251  1  0.95954467  0.91343283  0.93845117  1
  O2-  O252  1  0.33366426  0.30401803  0.27518142  1
  O2-  O253  1  0.33891030  0.29705271  0.60100676  1
  O2-  O254  1  0.33278295  0.29173871  0.92936446  1
  O2-  O255  1  0.33270440  0.80094898  0.27374943  1
  O2-  O256  1  0.32760693  0.79488640  0.59864488  1
  O2-  O257  1  0.33167589  0.78678731  0.93418672  1
  O2-  O258  1  0.83260059  0.28638898  0.26296758  1
  O2-  O259  1  0.83329027  0.29311110  0.60647916  1
  O2-  O260  1  0.83607269  0.29081752  0.93609371  1
  O2-  O261  1  0.83291969  0.79826179  0.26559799  1
  O2-  O262  1  0.83356424  0.79190129  0.59705522  1
  O2-  O263  1  0.83638865  0.79689599  0.93855684  1
  O2-  O264  1  0.42250182  0.04712578  0.06323172  1
  O2-  O265  1  0.41803416  0.03960348  0.40260010  1
  O2-  O266  1  0.41805606  0.05554726  0.72899545  1
  O2-  O267  1  0.41578002  0.53847648  0.06740242  1
  O2-  O268  1  0.41482258  0.53847137  0.40432877  1
  O2-  O269  1  0.41276258  0.53561418  0.73680151  1
  O2-  O270  1  0.91297922  0.03568778  0.07254610  1
  O2-  O271  1  0.91376973  0.04329095  0.39531138  1
  O2-  O272  1  0.91496673  0.04304743  0.72495575  1
  O2-  O273  1  0.92249806  0.54253588  0.06669485  1
  O2-  O274  1  0.91885483  0.55093007  0.39473833  1
  O2-  O275  1  0.91874623  0.54795821  0.72917496  1
  O2-  O276  1  0.29214730  0.17072667  0.06615602  1
  O2-  O277  1  0.29530188  0.17079900  0.40132656  1
  O2-  O278  1  0.29546445  0.16988926  0.72663754  1
  O2-  O279  1  0.28678406  0.66340702  0.06968748  1
  O2-  O280  1  0.28812563  0.66890694  0.40115969  1
  O2-  O281  1  0.28846381  0.66688665  0.73569573  1
  O2-  O282  1  0.79247385  0.16553124  0.06863403  1
  O2-  O283  1  0.79116102  0.16068652  0.39714763  1
  O2-  O284  1  0.79633520  0.16266934  0.72930975  1
  O2-  O285  1  0.80243539  0.67291326  0.06878986  1
  O2-  O286  1  0.79777426  0.66928119  0.39365373  1
  O2-  O287  1  0.80027912  0.66661288  0.72620475  1
