# generated using pymatgen
data_Ca2Al2SiO7
_symmetry_space_group_name_H-M   'P 1'
_cell_length_a   15.46800022
_cell_length_b   15.46508962
_cell_length_c   15.29008678
_cell_angle_alpha   89.99065038
_cell_angle_beta   90.01129073
_cell_angle_gamma   90.02911902
_symmetry_Int_Tables_number   1
_chemical_formula_structural   Ca2Al2SiO7
_chemical_formula_sum   'Ca48 Al48 Si24 O168'
_cell_volume   3657.60237391
_cell_formula_units_Z   24
loop_
 _symmetry_equiv_pos_site_id
 _symmetry_equiv_pos_as_xyz
  1  'x, y, z'
loop_
 _atom_type_symbol
 _atom_type_oxidation_number
  Ca2+  2.0
  Al0+  0.0
  Si0+  0.0
  O2-  -2.0
loop_
 _atom_site_type_symbol
 _atom_site_label
 _atom_site_symmetry_multiplicity
 _atom_site_fract_x
 _atom_site_fract_y
 _atom_site_fract_z
 _atom_site_occupancy
  Ca2+  Ca0  1  0.16985412  0.07701694  0.16885834  1
  Ca2+  Ca1  1  0.16844858  0.07032260  0.50638227  1
  Ca2+  Ca2  1  0.17205826  0.07352476  0.84253216  1
  Ca2+  Ca3  1  0.16663058  0.58148203  0.17547657  1
  Ca2+  Ca4  1  0.16065794  0.58152887  0.50022748  1
  Ca2+  Ca5  1  0.16885721  0.57978464  0.84462187  1
  Ca2+  Ca6  1  0.67103134  0.07692742  0.16484414  1
  Ca2+  Ca7  1  0.67600437  0.08216421  0.50692304  1
  Ca2+  Ca8  1  0.67925286  0.08029258  0.84090495  1
  Ca2+  Ca9  1  0.67398320  0.58715001  0.17075759  1
  Ca2+  Ca10  1  0.67507160  0.58207970  0.50672862  1
  Ca2+  Ca11  1  0.65843240  0.58099405  0.83654244  1
  Ca2+  Ca12  1  0.08578832  0.33397052  0.16201818  1
  Ca2+  Ca13  1  0.07873046  0.33176992  0.48946863  1
  Ca2+  Ca14  1  0.09063017  0.32493826  0.83499802  1
  Ca2+  Ca15  1  0.08882396  0.82819634  0.16306791  1
  Ca2+  Ca16  1  0.08608366  0.82716708  0.49349690  1
  Ca2+  Ca17  1  0.09749102  0.82508548  0.83086826  1
  Ca2+  Ca18  1  0.57870526  0.32967368  0.16205824  1
  Ca2+  Ca19  1  0.57826076  0.33614229  0.50104832  1
  Ca2+  Ca20  1  0.57379971  0.33363786  0.82229005  1
  Ca2+  Ca21  1  0.57930717  0.82919011  0.15553741  1
  Ca2+  Ca22  1  0.58211457  0.82912353  0.49631389  1
  Ca2+  Ca23  1  0.58567354  0.82554539  0.83195769  1
  Ca2+  Ca24  1  0.31923833  0.42796747  0.16735376  1
  Ca2+  Ca25  1  0.33025713  0.41993830  0.49851481  1
  Ca2+  Ca26  1  0.32969513  0.42057491  0.84017081  1
  Ca2+  Ca27  1  0.31990173  0.92108971  0.17125260  1
  Ca2+  Ca28  1  0.32213993  0.92370427  0.50344791  1
  Ca2+  Ca29  1  0.32583225  0.92434091  0.83843566  1
  Ca2+  Ca30  1  0.83722858  0.42408904  0.17562507  1
  Ca2+  Ca31  1  0.83283871  0.42145773  0.50157952  1
  Ca2+  Ca32  1  0.82406600  0.41713349  0.83445881  1
  Ca2+  Ca33  1  0.83246317  0.91279263  0.16681756  1
  Ca2+  Ca34  1  0.83849083  0.91896978  0.50375834  1
  Ca2+  Ca35  1  0.83010445  0.92498785  0.84000884  1
  Ca2+  Ca36  1  0.40777651  0.16379709  0.16097438  1
  Ca2+  Ca37  1  0.40792882  0.16773703  0.49786202  1
  Ca2+  Ca38  1  0.40792154  0.17110975  0.82561879  1
  Ca2+  Ca39  1  0.41975709  0.65830734  0.15873480  1
  Ca2+  Ca40  1  0.42214598  0.66216440  0.49713553  1
  Ca2+  Ca41  1  0.42463855  0.66213121  0.82959149  1
  Ca2+  Ca42  1  0.92277457  0.17363296  0.15882119  1
  Ca2+  Ca43  1  0.91529275  0.17194332  0.49415013  1
  Ca2+  Ca44  1  0.92059531  0.15779309  0.83367939  1
  Ca2+  Ca45  1  0.92825445  0.66853788  0.16793905  1
  Ca2+  Ca46  1  0.92697982  0.67120733  0.48905572  1
  Ca2+  Ca47  1  0.93153933  0.66985676  0.82959157  1
  Al0+  Al48  1  -0.00083261  0.00224480  0.00367540  1
  Al0+  Al49  1  -0.00193775  0.00081132  0.33310652  1
  Al0+  Al50  1  0.00041780  -0.00140947  0.67477973  1
  Al0+  Al51  1  -0.00381313  0.50012806  -0.00386952  1
  Al0+  Al52  1  -0.00217109  0.50067876  0.33469985  1
  Al0+  Al53  1  -0.00071554  0.49963836  0.66511039  1
  Al0+  Al54  1  0.50288488  0.00049949  0.00336012  1
  Al0+  Al55  1  0.50212220  -0.00112517  0.33674994  1
  Al0+  Al56  1  0.50104146  0.00013252  0.66820365  1
  Al0+  Al57  1  0.49919527  0.49771995  0.00007142  1
  Al0+  Al58  1  0.49938299  0.49636964  0.33341454  1
  Al0+  Al59  1  0.50030066  0.49809775  0.66002576  1
  Al0+  Al60  1  0.24767488  0.25274410  0.00184317  1
  Al0+  Al61  1  0.25110249  0.25271389  0.33730948  1
  Al0+  Al62  1  0.24851947  0.25129828  0.66159886  1
  Al0+  Al63  1  0.25444974  0.75186989  0.00096766  1
  Al0+  Al64  1  0.25417376  0.75094938  0.33754599  1
  Al0+  Al65  1  0.25282358  0.74821525  0.66403895  1
  Al0+  Al66  1  0.74810469  0.25064630  0.00269696  1
  Al0+  Al67  1  0.74803141  0.24907816  0.32771388  1
  Al0+  Al68  1  0.74878196  0.25142559  0.67464264  1
  Al0+  Al69  1  0.74933305  0.74864703  -0.00327967  1
  Al0+  Al70  1  0.75084469  0.74890468  0.33510961  1
  Al0+  Al71  1  0.75286986  0.74936773  0.66339613  1
  Al0+  Al72  1  0.07306331  0.67996963  0.98722987  1
  Al0+  Al73  1  0.17881127  0.92724064  0.01585267  1
  Al0+  Al74  1  0.57015527  0.67825661  0.98671627  1
  Al0+  Al75  1  0.17723431  0.43171684  0.34970326  1
  Al0+  Al76  1  0.06990789  0.18060099  0.98673215  1
  Al0+  Al77  1  0.17566131  0.43153249  0.01282881  1
  Al0+  Al78  1  0.42721348  0.31933716  0.65071183  1
  Al0+  Al79  1  0.57178474  0.67909843  0.65120893  1
  Al0+  Al80  1  0.92795433  0.32057805  0.32064667  1
  Al0+  Al81  1  0.17594183  0.92932633  0.34922622  1
  Al0+  Al82  1  0.68095594  0.92691386  0.01465719  1
  Al0+  Al83  1  0.18008591  0.92636512  0.68329248  1
  Al0+  Al84  1  0.82171697  0.07261902  0.01863137  1
  Al0+  Al85  1  0.82032395  0.07136388  0.67999251  1
  Al0+  Al86  1  0.32290278  0.07091114  0.34881801  1
  Al0+  Al87  1  0.32030022  0.07350978  0.68141065  1
  Al0+  Al88  1  0.32215463  0.57100164  0.01142261  1
  Al0+  Al89  1  0.32373610  0.57187326  0.34983145  1
  Al0+  Al90  1  0.81943552  0.57104195  0.34721218  1
  Al0+  Al91  1  0.07273550  0.67826093  0.65276128  1
  Al0+  Al92  1  0.32098926  0.07333999  0.01329676  1
  Al0+  Al93  1  0.92717510  0.82341052  0.31805219  1
  Al0+  Al94  1  0.67886969  0.43251620  0.67987502  1
  Al0+  Al95  1  0.07327317  0.68142180  0.31866058  1
  Si0+  Si96  1  0.92956645  0.82291499  0.65166903  1
  Si0+  Si97  1  0.82332077  0.57276656  0.68517916  1
  Si0+  Si98  1  0.57265308  0.17794757  0.98385005  1
  Si0+  Si99  1  0.57045545  0.17744521  0.31722163  1
  Si0+  Si100  1  0.32183848  0.56835105  0.68017137  1
  Si0+  Si101  1  0.67713343  0.42935936  0.01553937  1
  Si0+  Si102  1  0.92664202  0.31991633  0.65308159  1
  Si0+  Si103  1  0.67790552  0.92501990  0.68226130  1
  Si0+  Si104  1  0.68028512  0.92823685  0.34924273  1
  Si0+  Si105  1  0.42821470  0.32049328  0.31470477  1
  Si0+  Si106  1  0.92396349  0.32322957  0.98075282  1
  Si0+  Si107  1  0.81981431  0.57033273  0.01365709  1
  Si0+  Si108  1  0.57353940  0.17835242  0.65116293  1
  Si0+  Si109  1  0.17589749  0.42964569  0.68132976  1
  Si0+  Si110  1  0.92797232  0.82165382  0.98296209  1
  Si0+  Si111  1  0.43225876  0.82235897  0.31854258  1
  Si0+  Si112  1  0.67795629  0.42530397  0.34917116  1
  Si0+  Si113  1  0.07282215  0.17917622  0.31806622  1
  Si0+  Si114  1  0.06893403  0.17842825  0.65231882  1
  Si0+  Si115  1  0.42958441  0.82308741  0.64841701  1
  Si0+  Si116  1  0.42986548  0.82533791  0.98254367  1
  Si0+  Si117  1  0.43048204  0.31799769  0.98545433  1
  Si0+  Si118  1  0.81905213  0.07288580  0.34721156  1
  Si0+  Si119  1  0.57032877  0.67772993  0.31884597  1
  O2-  O120  1  0.25025110  0.00110873  0.06371984  1
  O2-  O121  1  0.24676379  0.00361153  0.39813408  1
  O2-  O122  1  0.25067444  0.00055311  0.73172238  1
  O2-  O123  1  0.23996155  0.51116420  0.06136179  1
  O2-  O124  1  0.24722433  0.50526818  0.40108140  1
  O2-  O125  1  0.24656659  0.50167277  0.72220744  1
  O2-  O126  1  0.75305076  -0.00302764  0.06771615  1
  O2-  O127  1  0.75347829  -0.00261077  0.39075171  1
  O2-  O128  1  0.74507704  -0.00406516  0.72443616  1
  O2-  O129  1  0.74970670  0.49826175  0.05681904  1
  O2-  O130  1  0.74536181  0.49482485  0.39293227  1
  O2-  O131  1  0.75034047  0.50866090  0.72990473  1
  O2-  O132  1  0.00503683  0.24915297  0.27414039  1
  O2-  O133  1  -0.00319151  0.24863446  0.61027156  1
  O2-  O134  1  -0.00672267  0.25428254  0.93812052  1
  O2-  O135  1  0.00429068  0.75676428  0.26867076  1
  O2-  O136  1  -0.00129328  0.75472142  0.60843068  1
  O2-  O137  1  0.00245359  0.75885399  0.93885152  1
  O2-  O138  1  0.49578754  0.24468177  0.27441402  1
  O2-  O139  1  0.49992609  0.24074836  0.60529376  1
  O2-  O140  1  0.49736327  0.24381199  0.94174603  1
  O2-  O141  1  0.49747811  0.74562410  0.27584412  1
  O2-  O142  1  0.50071511  0.75637124  0.60356354  1
  O2-  O143  1  0.49586643  0.75267013  0.93934631  1
  O2-  O144  1  0.07015809  0.18465615  0.09971550  1
  O2-  O145  1  0.06887508  0.17930795  0.42433909  1
  O2-  O146  1  0.06961083  0.18050322  0.75720748  1
  O2-  O147  1  0.06929634  0.67686059  0.09956910  1
  O2-  O148  1  0.06882233  0.68089602  0.43242997  1
  O2-  O149  1  0.07149893  0.67586380  0.76616650  1
  O2-  O150  1  0.57536247  0.18164236  0.08913212  1
  O2-  O151  1  0.57512122  0.17925300  0.42217409  1
  O2-  O152  1  0.57580722  0.18252219  0.75653450  1
  O2-  O153  1  0.57029844  0.67723543  0.10016776  1
  O2-  O154  1  0.57106711  0.67976305  0.42401402  1
  O2-  O155  1  0.56847753  0.67836584  0.76430477  1
  O2-  O156  1  0.17909764  0.43067040  0.23639033  1
  O2-  O157  1  0.17354012  0.42911422  0.57662998  1
  O2-  O158  1  0.18071005  0.42897033  0.89853567  1
  O2-  O159  1  0.17764559  0.93040625  0.23602542  1
  O2-  O160  1  0.17850274  0.92845827  0.56990662  1
  O2-  O161  1  0.18236119  0.92730832  0.90234847  1
  O2-  O162  1  0.67725754  0.42545142  0.24323371  1
  O2-  O163  1  0.68210076  0.43153951  0.56690077  1
  O2-  O164  1  0.67553269  0.42993240  0.91045535  1
  O2-  O165  1  0.67781683  0.92870601  0.24468252  1
  O2-  O166  1  0.67870841  0.92553658  0.57618656  1
  O2-  O167  1  0.68296100  0.92777251  0.90080689  1
  O2-  O168  1  0.43512019  0.31883333  0.09047652  1
  O2-  O169  1  0.43126332  0.32274462  0.41971520  1
  O2-  O170  1  0.42899165  0.32131994  0.76419402  1
  O2-  O171  1  0.43323174  0.82722826  0.08821184  1
  O2-  O172  1  0.43869586  0.82528140  0.42354847  1
  O2-  O173  1  0.43006055  0.82186370  0.75378115  1
  O2-  O174  1  0.92127917  0.32350846  0.08621222  1
  O2-  O175  1  0.92437831  0.31585996  0.43436876  1
  O2-  O176  1  0.92681188  0.32128726  0.75787924  1
  O2-  O177  1  0.92396428  0.81614575  0.08806487  1
  O2-  O178  1  0.92378148  0.82076942  0.43182642  1
  O2-  O179  1  0.92562859  0.82113039  0.75705820  1
  O2-  O180  1  0.32471217  0.06734101  0.23561663  1
  O2-  O181  1  0.31652589  0.07254139  0.56812343  1
  O2-  O182  1  0.32001269  0.07360583  0.89985560  1
  O2-  O183  1  0.32901978  0.56649820  0.23672651  1
  O2-  O184  1  0.32287482  0.56600703  0.57538110  1
  O2-  O185  1  0.32641920  0.56452694  0.89748528  1
  O2-  O186  1  0.81407500  0.07650166  0.24307719  1
  O2-  O187  1  0.81867564  0.07281719  0.56621873  1
  O2-  O188  1  0.81768153  0.07307860  0.90480618  1
  O2-  O189  1  0.81632841  0.57047793  0.23370391  1
  O2-  O190  1  0.82321130  0.56978295  0.57979893  1
  O2-  O191  1  0.81930377  0.56858143  0.90848127  1
  O2-  O192  1  0.04536026  0.08654221  0.27224404  1
  O2-  O193  1  0.04020737  0.08572619  0.60732154  1
  O2-  O194  1  0.03959356  0.08346817  0.93234019  1
  O2-  O195  1  0.03856431  0.58365506  0.26813983  1
  O2-  O196  1  0.03838250  0.58198084  0.59925877  1
  O2-  O197  1  0.03688757  0.58465248  0.93161124  1
  O2-  O198  1  0.54702250  0.08373500  0.27156412  1
  O2-  O199  1  0.55686182  0.08174688  0.60721974  1
  O2-  O200  1  0.55275863  0.08386640  0.93826644  1
  O2-  O201  1  0.54653179  0.58370157  0.27341741  1
  O2-  O202  1  0.53927664  0.58408889  0.59573668  1
  O2-  O203  1  0.53816197  0.58094293  0.93324182  1
  O2-  O204  1  0.16720097  0.20489491  0.27436957  1
  O2-  O205  1  0.15854174  0.20810019  0.60236525  1
  O2-  O206  1  0.16513697  0.21562119  0.93094911  1
  O2-  O207  1  0.17532372  0.70377743  0.27039085  1
  O2-  O208  1  0.17057501  0.70438122  0.59942712  1
  O2-  O209  1  0.17238821  0.70593287  0.93487793  1
  O2-  O210  1  0.65888167  0.20968496  0.26545701  1
  O2-  O211  1  0.66517842  0.21131831  0.60403912  1
  O2-  O212  1  0.66234645  0.21165356  0.93542493  1
  O2-  O213  1  0.66151374  0.70792640  0.27235165  1
  O2-  O214  1  0.67053609  0.70612754  0.59855113  1
  O2-  O215  1  0.66636783  0.70722076  0.93020572  1
  O2-  O216  1  0.07312507  0.44943157  0.06049555  1
  O2-  O217  1  0.07790025  0.45566284  0.40272002  1
  O2-  O218  1  0.08404633  0.45524637  0.72969356  1
  O2-  O219  1  0.07946097  0.95313887  0.06594799  1
  O2-  O220  1  0.07625606  0.95627116  0.40175947  1
  O2-  O221  1  0.08166519  0.95201310  0.73671763  1
  O2-  O222  1  0.58706793  0.45812585  0.06509626  1
  O2-  O223  1  0.58445060  0.44976940  0.39469230  1
  O2-  O224  1  0.58122827  0.46186212  0.73278316  1
  O2-  O225  1  0.58422580  0.95726333  0.06965418  1
  O2-  O226  1  0.59118485  0.95923986  0.39989020  1
  O2-  O227  1  0.58376308  0.94700381  0.72775565  1
  O2-  O228  1  0.21156065  0.33738664  0.06802403  1
  O2-  O229  1  0.20792698  0.33388105  0.40334139  1
  O2-  O230  1  0.20578274  0.33766303  0.72653365  1
  O2-  O231  1  0.21005863  0.83027056  0.06964028  1
  O2-  O232  1  0.20874433  0.83253234  0.40218769  1
  O2-  O233  1  0.21297151  0.82780741  0.73354569  1
  O2-  O234  1  0.70200348  0.33728390  0.06331070  1
  O2-  O235  1  0.70453025  0.33181648  0.39478263  1
  O2-  O236  1  0.71002270  0.33787127  0.73749626  1
  O2-  O237  1  0.70714763  0.82729876  0.06668234  1
  O2-  O238  1  0.70582156  0.83640374  0.39746148  1
  O2-  O239  1  0.70592909  0.83194370  0.72806445  1
  O2-  O240  1  0.46248930  0.40954558  0.26547688  1
  O2-  O241  1  0.46416808  0.41238108  0.59388809  1
  O2-  O242  1  0.46390902  0.40742351  0.93640428  1
  O2-  O243  1  0.46728080  0.91138298  0.26989186  1
  O2-  O244  1  0.45418780  0.91751172  0.60234686  1
  O2-  O245  1  0.46090186  0.91712145  0.93483591  1
  O2-  O246  1  0.95478071  0.41794382  0.26750375  1
  O2-  O247  1  0.95466406  0.41147304  0.60512221  1
  O2-  O248  1  0.94605281  0.41668116  0.93277344  1
  O2-  O249  1  0.94531218  0.92526058  0.26783241  1
  O2-  O250  1  0.95374497  0.91773340  0.60685514  1
  O2-  O251  1  0.94524389  0.91899837  0.94219134  1
  O2-  O252  1  0.33510192  0.29709227  0.26830672  1
  O2-  O253  1  0.33051691  0.29259998  0.59415913  1
  O2-  O254  1  0.33748545  0.29510509  0.93873837  1
  O2-  O255  1  0.33857477  0.80120060  0.27349919  1
  O2-  O256  1  0.33824076  0.79358576  0.60043911  1
  O2-  O257  1  0.33616107  0.80346855  0.93605757  1
  O2-  O258  1  0.83217809  0.28904006  0.26435299  1
  O2-  O259  1  0.83441891  0.29176141  0.60670339  1
  O2-  O260  1  0.82952878  0.29634681  0.93564135  1
  O2-  O261  1  0.82970308  0.78894901  0.26509605  1
  O2-  O262  1  0.83627361  0.79888995  0.60322580  1
  O2-  O263  1  0.83725661  0.78956182  0.93371169  1
  O2-  O264  1  0.42203614  0.05070012  0.06298945  1
  O2-  O265  1  0.42111897  0.04021437  0.40243390  1
  O2-  O266  1  0.42248452  0.05124573  0.72997889  1
  O2-  O267  1  0.41585962  0.53112419  0.06747719  1
  O2-  O268  1  0.42058931  0.53531280  0.40343709  1
  O2-  O269  1  0.41233993  0.53557982  0.72655194  1
  O2-  O270  1  0.92062452  0.05037619  0.07069740  1
  O2-  O271  1  0.91212751  0.05180567  0.39449940  1
  O2-  O272  1  0.91516052  0.04093317  0.73650534  1
  O2-  O273  1  0.91052499  0.54224011  0.06203219  1
  O2-  O274  1  0.91382194  0.53948717  0.40330848  1
  O2-  O275  1  0.91463344  0.54046152  0.73222147  1
  O2-  O276  1  0.29159228  0.17107215  0.06649635  1
  O2-  O277  1  0.30157222  0.17234523  0.39726357  1
  O2-  O278  1  0.29050350  0.17316261  0.73099971  1
  O2-  O279  1  0.31103526  0.67348659  0.05928831  1
  O2-  O280  1  0.30780394  0.67305471  0.40068472  1
  O2-  O281  1  0.30100571  0.66218473  0.72551413  1
  O2-  O282  1  0.78764758  0.17025786  0.07035064  1
  O2-  O283  1  0.78428915  0.16245101  0.39581442  1
  O2-  O284  1  0.78900787  0.16602628  0.73676050  1
  O2-  O285  1  0.78930200  0.66066281  0.06072161  1
  O2-  O286  1  0.78592311  0.66549596  0.40395947  1
  O2-  O287  1  0.80249714  0.66832337  0.72842346  1
