# generated using pymatgen
data_Ca2Al2SiO7
_symmetry_space_group_name_H-M   'P 1'
_cell_length_a   15.45845113
_cell_length_b   15.45818442
_cell_length_c   15.28441559
_cell_angle_alpha   90.00363627
_cell_angle_beta   89.99551262
_cell_angle_gamma   89.99882268
_symmetry_Int_Tables_number   1
_chemical_formula_structural   Ca2Al2SiO7
_chemical_formula_sum   'Ca48 Al48 Si24 O168'
_cell_volume   3652.35763834
_cell_formula_units_Z   24
loop_
 _symmetry_equiv_pos_site_id
 _symmetry_equiv_pos_as_xyz
  1  'x, y, z'
loop_
 _atom_type_symbol
 _atom_type_oxidation_number
  Ca2+  2.0
  Al0+  0.0
  Si0+  0.0
  O2-  -2.0
loop_
 _atom_site_type_symbol
 _atom_site_label
 _atom_site_symmetry_multiplicity
 _atom_site_fract_x
 _atom_site_fract_y
 _atom_site_fract_z
 _atom_site_occupancy
  Ca2+  Ca0  1  0.17186247  0.08626769  0.17117883  1
  Ca2+  Ca1  1  0.17980314  0.07930083  0.50775937  1
  Ca2+  Ca2  1  0.17140898  0.08124600  0.83468143  1
  Ca2+  Ca3  1  0.17290939  0.58443050  0.17500881  1
  Ca2+  Ca4  1  0.17170372  0.58374124  0.50087740  1
  Ca2+  Ca5  1  0.16533568  0.57617356  0.83574716  1
  Ca2+  Ca6  1  0.65881700  0.07618146  0.16831267  1
  Ca2+  Ca7  1  0.66026689  0.07165550  0.50096612  1
  Ca2+  Ca8  1  0.66716066  0.07324617  0.84273400  1
  Ca2+  Ca9  1  0.67686454  0.57603866  0.17402762  1
  Ca2+  Ca10  1  0.66774077  0.58244210  0.49971738  1
  Ca2+  Ca11  1  0.66846622  0.58527809  0.83954626  1
  Ca2+  Ca12  1  0.07752688  0.32560551  0.15730446  1
  Ca2+  Ca13  1  0.08687901  0.33581707  0.49867143  1
  Ca2+  Ca14  1  0.08130800  0.32910383  0.83459369  1
  Ca2+  Ca15  1  0.06934623  0.82839580  0.16357503  1
  Ca2+  Ca16  1  0.07821999  0.83305486  0.49034452  1
  Ca2+  Ca17  1  0.07633134  0.83877582  0.83065337  1
  Ca2+  Ca18  1  0.58002351  0.32559132  0.16252571  1
  Ca2+  Ca19  1  0.57793787  0.32422672  0.48439406  1
  Ca2+  Ca20  1  0.58171887  0.32622236  0.83330771  1
  Ca2+  Ca21  1  0.58121486  0.83776225  0.16107283  1
  Ca2+  Ca22  1  0.58403401  0.83424233  0.50086063  1
  Ca2+  Ca23  1  0.57864890  0.83759715  0.82730482  1
  Ca2+  Ca24  1  0.33816207  0.41797757  0.17414401  1
  Ca2+  Ca25  1  0.33343194  0.42148465  0.50140131  1
  Ca2+  Ca26  1  0.33036337  0.41348499  0.83739415  1
  Ca2+  Ca27  1  0.33500850  0.92275813  0.17259428  1
  Ca2+  Ca28  1  0.33376416  0.92808110  0.50928882  1
  Ca2+  Ca29  1  0.33541042  0.91531153  0.83442918  1
  Ca2+  Ca30  1  0.83368918  0.42385233  0.17209404  1
  Ca2+  Ca31  1  0.82789567  0.42071508  0.49868258  1
  Ca2+  Ca32  1  0.83491976  0.42490315  0.84376673  1
  Ca2+  Ca33  1  0.82488650  0.91542361  0.16893981  1
  Ca2+  Ca34  1  0.82265867  0.90853775  0.49965779  1
  Ca2+  Ca35  1  0.82160717  0.91785083  0.84519853  1
  Ca2+  Ca36  1  0.42505973  0.17292719  0.16458209  1
  Ca2+  Ca37  1  0.41663680  0.16744846  0.49060374  1
  Ca2+  Ca38  1  0.41973869  0.16541663  0.83454921  1
  Ca2+  Ca39  1  0.41713910  0.67138482  0.16027441  1
  Ca2+  Ca40  1  0.41837097  0.67124648  0.49716396  1
  Ca2+  Ca41  1  0.42592528  0.68037117  0.82557485  1
  Ca2+  Ca42  1  0.91946731  0.17050614  0.15269274  1
  Ca2+  Ca43  1  0.92066618  0.16725985  0.49476827  1
  Ca2+  Ca44  1  0.91620392  0.16475682  0.83741168  1
  Ca2+  Ca45  1  0.90868986  0.67260776  0.16612987  1
  Ca2+  Ca46  1  0.92414165  0.67150455  0.48728520  1
  Ca2+  Ca47  1  0.90913215  0.67303525  0.83419531  1
  Al0+  Al48  1  0.00016929  -0.00226220  -0.00489085  1
  Al0+  Al49  1  -0.00176206  -0.00086539  0.32847960  1
  Al0+  Al50  1  0.00144420  0.00264743  0.66620772  1
  Al0+  Al51  1  0.00190851  0.49918183  0.00249587  1
  Al0+  Al52  1  0.00193985  0.49992077  0.33384988  1
  Al0+  Al53  1  -0.00025203  0.50060424  0.66982844  1
  Al0+  Al54  1  0.49736988  0.00064846  -0.00295415  1
  Al0+  Al55  1  0.50007862  0.00019289  0.33852085  1
  Al0+  Al56  1  0.50110554  0.00115585  0.67083478  1
  Al0+  Al57  1  0.49885249  0.50051830  -0.00383281  1
  Al0+  Al58  1  0.49877693  0.50087223  0.33845130  1
  Al0+  Al59  1  0.50140742  0.49982328  0.66420070  1
  Al0+  Al60  1  0.24900175  0.24942057  -0.00591216  1
  Al0+  Al61  1  0.25077733  0.25032547  0.33387130  1
  Al0+  Al62  1  0.24929318  0.25063994  0.67421113  1
  Al0+  Al63  1  0.24973298  0.74937849  -0.00416193  1
  Al0+  Al64  1  0.24876046  0.74900237  0.33365570  1
  Al0+  Al65  1  0.24999043  0.75049723  0.66710862  1
  Al0+  Al66  1  0.74975855  0.25005066  -0.00642811  1
  Al0+  Al67  1  0.75067979  0.24773269  0.33314244  1
  Al0+  Al68  1  0.75054439  0.25252452  0.66467678  1
  Al0+  Al69  1  0.75015537  0.74840752  0.00495428  1
  Al0+  Al70  1  0.74914072  0.75012122  0.33757612  1
  Al0+  Al71  1  0.75039052  0.74979558  0.66597514  1
  Al0+  Al72  1  0.31939974  0.07053842  0.34493106  1
  Al0+  Al73  1  0.67914849  0.92982172  0.34831502  1
  Al0+  Al74  1  0.92784741  0.81805686  0.98533723  1
  Al0+  Al75  1  0.07124627  0.17652626  0.98321919  1
  Al0+  Al76  1  0.42897001  0.82279943  0.64917488  1
  Al0+  Al77  1  0.07266105  0.67768665  0.31804445  1
  Al0+  Al78  1  0.82208225  0.57040870  0.35034011  1
  Al0+  Al79  1  0.68263107  0.92955386  0.68123811  1
  Al0+  Al80  1  0.42812758  0.32255019  0.32005667  1
  Al0+  Al81  1  0.42783720  0.82107317  0.98790546  1
  Al0+  Al82  1  0.32190806  0.07084746  0.68499775  1
  Al0+  Al83  1  0.92621003  0.82070562  0.31715270  1
  Al0+  Al84  1  0.42905773  0.32298383  0.98357829  1
  Al0+  Al85  1  0.17922481  0.43153932  0.68186810  1
  Al0+  Al86  1  0.92838640  0.32270718  0.98524340  1
  Al0+  Al87  1  0.17732161  0.92707647  0.68171481  1
  Al0+  Al88  1  0.82215718  0.07157638  0.01405457  1
  Al0+  Al89  1  0.57293675  0.67833366  0.64957127  1
  Al0+  Al90  1  0.82173671  0.56967034  0.01444126  1
  Al0+  Al91  1  0.67894659  0.42669292  0.34758325  1
  Al0+  Al92  1  0.67672573  0.93014545  0.01620908  1
  Al0+  Al93  1  0.57176995  0.17636175  0.31881958  1
  Al0+  Al94  1  0.57115564  0.17833563  0.98332624  1
  Al0+  Al95  1  0.32175509  0.57336037  0.34658907  1
  Si0+  Si96  1  0.06954416  0.67709556  0.65325827  1
  Si0+  Si97  1  0.67543078  0.42781381  0.01464908  1
  Si0+  Si98  1  0.82551675  0.07230247  0.34970079  1
  Si0+  Si99  1  0.57207824  0.18099595  0.65075523  1
  Si0+  Si100  1  0.17906521  0.42746031  0.34860601  1
  Si0+  Si101  1  0.32459171  0.57230184  0.68509694  1
  Si0+  Si102  1  0.07150215  0.18085771  0.64979101  1
  Si0+  Si103  1  0.82010678  0.56908248  0.68155579  1
  Si0+  Si104  1  0.67826637  0.42760383  0.68229295  1
  Si0+  Si105  1  0.07332201  0.67802548  0.98165588  1
  Si0+  Si106  1  0.92912345  0.32047053  0.32000437  1
  Si0+  Si107  1  0.32025193  0.57095346  0.01314894  1
  Si0+  Si108  1  0.57044988  0.67852277  0.31830334  1
  Si0+  Si109  1  0.07150621  0.17925020  0.32064645  1
  Si0+  Si110  1  0.18072286  0.42800749  0.01644289  1
  Si0+  Si111  1  0.57178366  0.67858968  0.98638342  1
  Si0+  Si112  1  0.42745107  0.32024137  0.65116288  1
  Si0+  Si113  1  0.17858453  0.92609206  0.01596509  1
  Si0+  Si114  1  0.17641575  0.92867408  0.34687689  1
  Si0+  Si115  1  0.93017595  0.82235689  0.65225824  1
  Si0+  Si116  1  0.92976785  0.32334768  0.64988680  1
  Si0+  Si117  1  0.82306622  0.07575300  0.68199615  1
  Si0+  Si118  1  0.31858029  0.07124816  0.01640421  1
  Si0+  Si119  1  0.42924579  0.82088339  0.32015937  1
  O2-  O120  1  0.24785323  -0.00090149  0.05824454  1
  O2-  O121  1  0.24456549  -0.00345801  0.39229255  1
  O2-  O122  1  0.25225930  -0.00486777  0.73334288  1
  O2-  O123  1  0.25270363  0.49791650  0.05775844  1
  O2-  O124  1  0.24728307  0.49722443  0.39172815  1
  O2-  O125  1  0.25506866  0.50445152  0.72996164  1
  O2-  O126  1  0.74835666  0.00294338  0.06623769  1
  O2-  O127  1  0.75589324  0.00429386  0.39337188  1
  O2-  O128  1  0.75720677  0.00498303  0.72578165  1
  O2-  O129  1  0.74870301  0.49190688  0.05834353  1
  O2-  O130  1  0.74966960  0.49890825  0.40079109  1
  O2-  O131  1  0.74657792  0.50109920  0.72431085  1
  O2-  O132  1  -0.00124424  0.24800468  0.27863094  1
  O2-  O133  1  -0.00072011  0.25091773  0.60689940  1
  O2-  O134  1  -0.00369168  0.24698892  0.93430647  1
  O2-  O135  1  -0.00260716  0.74638894  0.26883080  1
  O2-  O136  1  0.00543111  0.75469605  0.61164689  1
  O2-  O137  1  0.00203123  0.74334918  0.93666106  1
  O2-  O138  1  0.50287635  0.25294247  0.27145564  1
  O2-  O139  1  0.49925033  0.25047779  0.60869011  1
  O2-  O140  1  0.50091419  0.25208153  0.93224394  1
  O2-  O141  1  0.49887990  0.74924345  0.27635780  1
  O2-  O142  1  0.49977569  0.74930519  0.59916027  1
  O2-  O143  1  0.50656894  0.75033560  0.94245675  1
  O2-  O144  1  0.07463126  0.18096928  0.09754866  1
  O2-  O145  1  0.07142780  0.18066776  0.42614670  1
  O2-  O146  1  0.07022027  0.18098985  0.75420023  1
  O2-  O147  1  0.07822328  0.68072728  0.08663679  1
  O2-  O148  1  0.07310888  0.68015744  0.43248540  1
  O2-  O149  1  0.06426527  0.67253451  0.75819757  1
  O2-  O150  1  0.56715243  0.17758810  0.09667238  1
  O2-  O151  1  0.56841714  0.17598032  0.43319765  1
  O2-  O152  1  0.57470600  0.18437548  0.75544755  1
  O2-  O153  1  0.56793648  0.67513209  0.09201884  1
  O2-  O154  1  0.56993136  0.67935543  0.42326632  1
  O2-  O155  1  0.57331879  0.67760313  0.76344633  1
  O2-  O156  1  0.17884064  0.42509219  0.24317828  1
  O2-  O157  1  0.17875673  0.43304936  0.56870659  1
  O2-  O158  1  0.17979470  0.43039482  0.91114129  1
  O2-  O159  1  0.17742774  0.93050096  0.24105909  1
  O2-  O160  1  0.17327141  0.93238964  0.56790307  1
  O2-  O161  1  0.18072052  0.92467016  0.91104394  1
  O2-  O162  1  0.68134444  0.42793210  0.23395418  1
  O2-  O163  1  0.68091395  0.42407403  0.57774980  1
  O2-  O164  1  0.67374226  0.43281837  0.90845841  1
  O2-  O165  1  0.67638859  0.92978658  0.23586616  1
  O2-  O166  1  0.68397084  0.93002200  0.56797995  1
  O2-  O167  1  0.67811460  0.92891515  0.90244985  1
  O2-  O168  1  0.42927273  0.32441322  0.09675998  1
  O2-  O169  1  0.42565671  0.31939857  0.43424274  1
  O2-  O170  1  0.42965414  0.32082052  0.75611690  1
  O2-  O171  1  0.42499403  0.81803408  0.10158321  1
  O2-  O172  1  0.42967673  0.82039624  0.42491354  1
  O2-  O173  1  0.43133887  0.82044750  0.76289801  1
  O2-  O174  1  0.93388608  0.32481824  0.09915931  1
  O2-  O175  1  0.93087844  0.31984782  0.42581380  1
  O2-  O176  1  0.92959015  0.32485646  0.75430096  1
  O2-  O177  1  0.92833817  0.81671823  0.09780600  1
  O2-  O178  1  0.93005579  0.82152265  0.43167208  1
  O2-  O179  1  0.92830255  0.82000402  0.75731032  1
  O2-  O180  1  0.31741213  0.06968436  0.23163631  1
  O2-  O181  1  0.31868972  0.07364848  0.57100145  1
  O2-  O182  1  0.31769189  0.07084205  0.91150459  1
  O2-  O183  1  0.32043220  0.57462633  0.23310506  1
  O2-  O184  1  0.32318622  0.57071653  0.57946410  1
  O2-  O185  1  0.31734290  0.57072105  0.90820268  1
  O2-  O186  1  0.83036043  0.07307893  0.24496074  1
  O2-  O187  1  0.82283722  0.07819052  0.57619966  1
  O2-  O188  1  0.82127724  0.06672222  0.89996832  1
  O2-  O189  1  0.82049110  0.56783021  0.23690398  1
  O2-  O190  1  0.82309376  0.56612639  0.57699497  1
  O2-  O191  1  0.81924590  0.57020298  0.90041572  1
  O2-  O192  1  0.04779304  0.08703492  0.27277872  1
  O2-  O193  1  0.04447614  0.08940873  0.60039736  1
  O2-  O194  1  0.04748572  0.07785678  0.92937458  1
  O2-  O195  1  0.05008423  0.57695634  0.26701434  1
  O2-  O196  1  0.03515678  0.58819933  0.60352964  1
  O2-  O197  1  0.05018608  0.58263477  0.93878442  1
  O2-  O198  1  0.53709757  0.07968423  0.26657597  1
  O2-  O199  1  0.54566378  0.08803445  0.60623465  1
  O2-  O200  1  0.53766548  0.08214334  0.92911487  1
  O2-  O201  1  0.54274652  0.58673338  0.27165200  1
  O2-  O202  1  0.54627675  0.57839082  0.59734155  1
  O2-  O203  1  0.54335193  0.58748964  0.93633207  1
  O2-  O204  1  0.16165225  0.20949397  0.27197038  1
  O2-  O205  1  0.16306810  0.21244185  0.60380149  1
  O2-  O206  1  0.16646225  0.21040996  0.92754723  1
  O2-  O207  1  0.16997885  0.70815095  0.26339589  1
  O2-  O208  1  0.16465569  0.69625810  0.60928061  1
  O2-  O209  1  0.16466848  0.70576954  0.93177409  1
  O2-  O210  1  0.67224376  0.19969975  0.26803894  1
  O2-  O211  1  0.66349795  0.21061398  0.60264045  1
  O2-  O212  1  0.66929270  0.20338358  0.92806682  1
  O2-  O213  1  0.66232926  0.70654466  0.27224554  1
  O2-  O214  1  0.67165574  0.70741549  0.59669999  1
  O2-  O215  1  0.66625366  0.70031559  0.94154505  1
  O2-  O216  1  0.09008776  0.45633294  0.06535121  1
  O2-  O217  1  0.08604330  0.45174773  0.39673849  1
  O2-  O218  1  0.08330340  0.46442449  0.73704684  1
  O2-  O219  1  0.08596384  0.95206807  0.06164321  1
  O2-  O220  1  0.08242267  0.95411900  0.39233699  1
  O2-  O221  1  0.07976893  0.96049773  0.73514065  1
  O2-  O222  1  0.58341907  0.45839854  0.06153174  1
  O2-  O223  1  0.58114800  0.45485294  0.40163106  1
  O2-  O224  1  0.58534023  0.45262656  0.72877318  1
  O2-  O225  1  0.57670439  0.95846286  0.06707042  1
  O2-  O226  1  0.58432004  0.96192705  0.40527271  1
  O2-  O227  1  0.58628984  0.96029315  0.73412488  1
  O2-  O228  1  0.20717781  0.33506965  0.06185446  1
  O2-  O229  1  0.20530847  0.33516525  0.39765737  1
  O2-  O230  1  0.20754115  0.33551302  0.73714561  1
  O2-  O231  1  0.20908539  0.83472470  0.06296525  1
  O2-  O232  1  0.20053364  0.83500800  0.39255626  1
  O2-  O233  1  0.19829415  0.82623457  0.73348584  1
  O2-  O234  1  0.69574354  0.33188994  0.05602130  1
  O2-  O235  1  0.70896064  0.32836322  0.40160230  1
  O2-  O236  1  0.71006495  0.33745451  0.73105714  1
  O2-  O237  1  0.70469466  0.83108545  0.06771966  1
  O2-  O238  1  0.70951322  0.83394422  0.40409615  1
  O2-  O239  1  0.71333279  0.83235068  0.73417433  1
  O2-  O240  1  0.45224379  0.42323098  0.27016062  1
  O2-  O241  1  0.45323432  0.41322622  0.60523072  1
  O2-  O242  1  0.45501921  0.42176321  0.92857580  1
  O2-  O243  1  0.45858512  0.91223094  0.27339567  1
  O2-  O244  1  0.45918445  0.92241489  0.59940692  1
  O2-  O245  1  0.45335229  0.91763420  0.93323735  1
  O2-  O246  1  0.95849396  0.41158272  0.27310767  1
  O2-  O247  1  0.96110032  0.41414870  0.60210287  1
  O2-  O248  1  0.96347997  0.41954619  0.93121948  1
  O2-  O249  1  0.95574914  0.91844986  0.26299599  1
  O2-  O250  1  0.95404251  0.91578098  0.60569525  1
  O2-  O251  1  0.95947021  0.91303368  0.92963748  1
  O2-  O252  1  0.33027450  0.29237311  0.26616402  1
  O2-  O253  1  0.33430407  0.29254910  0.60669304  1
  O2-  O254  1  0.33125569  0.29342350  0.93063611  1
  O2-  O255  1  0.33662510  0.79516298  0.27346089  1
  O2-  O256  1  0.32811132  0.79662763  0.59880117  1
  O2-  O257  1  0.33402001  0.78597165  0.93081049  1
  O2-  O258  1  0.83757993  0.29498418  0.27244914  1
  O2-  O259  1  0.83762878  0.29649393  0.60175610  1
  O2-  O260  1  0.82917617  0.30264575  0.93062345  1
  O2-  O261  1  0.82731248  0.79161761  0.26630996  1
  O2-  O262  1  0.84048522  0.78974316  0.60422826  1
  O2-  O263  1  0.83133325  0.78468568  0.93186228  1
  O2-  O264  1  0.40996304  0.04282658  0.06313179  1
  O2-  O265  1  0.41363389  0.03882235  0.40175421  1
  O2-  O266  1  0.42096763  0.04636587  0.73719089  1
  O2-  O267  1  0.41345852  0.54655401  0.05958610  1
  O2-  O268  1  0.41648955  0.54490611  0.40468274  1
  O2-  O269  1  0.41817121  0.54481137  0.73032136  1
  O2-  O270  1  0.92233842  0.04342872  0.06411514  1
  O2-  O271  1  0.91891727  0.04583242  0.39799132  1
  O2-  O272  1  0.91821216  0.05371922  0.72537179  1
  O2-  O273  1  0.91961963  0.54155498  0.06745361  1
  O2-  O274  1  0.92130445  0.54108115  0.40231021  1
  O2-  O275  1  0.90982680  0.53821807  0.73126152  1
  O2-  O276  1  0.28849374  0.16338517  0.06197353  1
  O2-  O277  1  0.28761104  0.16637335  0.40045398  1
  O2-  O278  1  0.28883384  0.16735120  0.73889955  1
  O2-  O279  1  0.28949084  0.66196902  0.06090034  1
  O2-  O280  1  0.28835931  0.66825754  0.40353585  1
  O2-  O281  1  0.29968925  0.66633724  0.72975630  1
  O2-  O282  1  0.80057040  0.17428072  0.06125418  1
  O2-  O283  1  0.80244799  0.16608481  0.39700455  1
  O2-  O284  1  0.79656451  0.16963890  0.72761362  1
  O2-  O285  1  0.78847823  0.66360886  0.07079321  1
  O2-  O286  1  0.79373027  0.66832423  0.40330750  1
  O2-  O287  1  0.79447089  0.66184543  0.72788671  1
