# generated using pymatgen
data_Ca2Al2SiO7
_symmetry_space_group_name_H-M   'P 1'
_cell_length_a   15.45810633
_cell_length_b   15.45776062
_cell_length_c   15.28381739
_cell_angle_alpha   90.00349828
_cell_angle_beta   89.99776539
_cell_angle_gamma   90.01219233
_symmetry_Int_Tables_number   1
_chemical_formula_structural   Ca2Al2SiO7
_chemical_formula_sum   'Ca48 Al48 Si24 O168'
_cell_volume   3652.03303062
_cell_formula_units_Z   24
loop_
 _symmetry_equiv_pos_site_id
 _symmetry_equiv_pos_as_xyz
  1  'x, y, z'
loop_
 _atom_type_symbol
 _atom_type_oxidation_number
  Ca2+  2.0
  Al0+  0.0
  Si0+  0.0
  O2-  -2.0
loop_
 _atom_site_type_symbol
 _atom_site_label
 _atom_site_symmetry_multiplicity
 _atom_site_fract_x
 _atom_site_fract_y
 _atom_site_fract_z
 _atom_site_occupancy
  Ca2+  Ca0  1  0.17353303  0.06859412  0.17460696  1
  Ca2+  Ca1  1  0.17199733  0.08307279  0.50210044  1
  Ca2+  Ca2  1  0.16637585  0.07631907  0.83997164  1
  Ca2+  Ca3  1  0.17018441  0.58913870  0.16673133  1
  Ca2+  Ca4  1  0.17049370  0.58456267  0.50331625  1
  Ca2+  Ca5  1  0.17676906  0.58797282  0.83924385  1
  Ca2+  Ca6  1  0.65896353  0.07546868  0.16461943  1
  Ca2+  Ca7  1  0.66126402  0.07931357  0.50251652  1
  Ca2+  Ca8  1  0.66543590  0.08272292  0.84164757  1
  Ca2+  Ca9  1  0.67950780  0.58203703  0.17514065  1
  Ca2+  Ca10  1  0.67213801  0.57292477  0.50692273  1
  Ca2+  Ca11  1  0.67538453  0.58031911  0.83565404  1
  Ca2+  Ca12  1  0.07978407  0.33149229  0.16240541  1
  Ca2+  Ca13  1  0.08611777  0.32751977  0.49826103  1
  Ca2+  Ca14  1  0.08129432  0.32454199  0.82792726  1
  Ca2+  Ca15  1  0.09049569  0.82471165  0.16157861  1
  Ca2+  Ca16  1  0.07569067  0.82758962  0.49322293  1
  Ca2+  Ca17  1  0.07813098  0.82975676  0.83034773  1
  Ca2+  Ca18  1  0.57558087  0.33190623  0.15947977  1
  Ca2+  Ca19  1  0.57869102  0.33970832  0.49658679  1
  Ca2+  Ca20  1  0.58088958  0.32620285  0.82641593  1
  Ca2+  Ca21  1  0.57987218  0.83921269  0.15949086  1
  Ca2+  Ca22  1  0.57868342  0.83466895  0.49675873  1
  Ca2+  Ca23  1  0.57196008  0.83782418  0.82973445  1
  Ca2+  Ca24  1  0.34113771  0.41944533  0.16791650  1
  Ca2+  Ca25  1  0.33935909  0.42012903  0.50798562  1
  Ca2+  Ca26  1  0.34282834  0.42445404  0.83488227  1
  Ca2+  Ca27  1  0.32592801  0.91648402  0.17112146  1
  Ca2+  Ca28  1  0.32962096  0.92006342  0.50212712  1
  Ca2+  Ca29  1  0.32967741  0.91198344  0.84225405  1
  Ca2+  Ca30  1  0.82648256  0.42534720  0.17365214  1
  Ca2+  Ca31  1  0.82405452  0.42619095  0.50691535  1
  Ca2+  Ca32  1  0.82961033  0.42450207  0.83706760  1
  Ca2+  Ca33  1  0.82088649  0.92070154  0.16708873  1
  Ca2+  Ca34  1  0.82719300  0.91052339  0.50388247  1
  Ca2+  Ca35  1  0.82764030  0.92100143  0.84205410  1
  Ca2+  Ca36  1  0.41826616  0.17487466  0.15990966  1
  Ca2+  Ca37  1  0.42024142  0.17750186  0.49467781  1
  Ca2+  Ca38  1  0.42846742  0.17574951  0.82677648  1
  Ca2+  Ca39  1  0.41907891  0.67228859  0.15608664  1
  Ca2+  Ca40  1  0.41328682  0.66968834  0.50057525  1
  Ca2+  Ca41  1  0.40873497  0.67486788  0.83001655  1
  Ca2+  Ca42  1  0.91333849  0.16520335  0.16121466  1
  Ca2+  Ca43  1  0.92365847  0.16565649  0.49980879  1
  Ca2+  Ca44  1  0.92122776  0.16043699  0.82714801  1
  Ca2+  Ca45  1  0.92620504  0.65909988  0.16127186  1
  Ca2+  Ca46  1  0.91500913  0.66557837  0.49468981  1
  Ca2+  Ca47  1  0.91646648  0.66795752  0.82955438  1
  Al0+  Al48  1  -0.00067630  -0.00218719  0.00969102  1
  Al0+  Al49  1  -0.00042351  -0.00193277  0.33485252  1
  Al0+  Al50  1  -0.00019887  -0.00293755  0.65687822  1
  Al0+  Al51  1  0.00253407  0.49911138  -0.00258151  1
  Al0+  Al52  1  0.00218066  0.50007636  0.33293864  1
  Al0+  Al53  1  0.00180811  0.49874746  0.67070135  1
  Al0+  Al54  1  0.49836998  0.00160859  -0.00457417  1
  Al0+  Al55  1  0.49922823  0.00220125  0.34067951  1
  Al0+  Al56  1  0.49760299  0.00104800  0.65896165  1
  Al0+  Al57  1  0.50025663  0.50219788  0.00057119  1
  Al0+  Al58  1  0.50067318  0.50164096  0.33129856  1
  Al0+  Al59  1  0.50070218  0.50138320  0.67337114  1
  Al0+  Al60  1  0.24816734  0.25146246  -0.00480977  1
  Al0+  Al61  1  0.25092071  0.25047530  0.33035602  1
  Al0+  Al62  1  0.25132834  0.24833644  0.66093818  1
  Al0+  Al63  1  0.24991483  0.74754542  0.00011767  1
  Al0+  Al64  1  0.24815664  0.75054097  0.33425512  1
  Al0+  Al65  1  0.24791166  0.75042221  0.66474659  1
  Al0+  Al66  1  0.75092567  0.25112365  -0.00003617  1
  Al0+  Al67  1  0.74926181  0.24891195  0.33591997  1
  Al0+  Al68  1  0.75161904  0.24849948  0.66548149  1
  Al0+  Al69  1  0.75134248  0.75006833  0.00843315  1
  Al0+  Al70  1  0.75056873  0.75238196  0.33956269  1
  Al0+  Al71  1  0.74874723  0.75083921  0.66768274  1
  Al0+  Al72  1  0.42974817  0.32280810  0.31743627  1
  Al0+  Al73  1  0.82389595  0.57022766  0.34897766  1
  Al0+  Al74  1  0.82330730  0.57052872  0.01486281  1
  Al0+  Al75  1  0.57410440  0.17875897  0.64861431  1
  Al0+  Al76  1  0.92756237  0.81867234  0.65400107  1
  Al0+  Al77  1  0.17883140  0.92660521  0.35166054  1
  Al0+  Al78  1  0.82248645  0.57296557  0.68354759  1
  Al0+  Al79  1  0.42626450  0.82052273  0.65109899  1
  Al0+  Al80  1  0.06980074  0.67949604  0.31858752  1
  Al0+  Al81  1  0.57148177  0.18011486  0.98540435  1
  Al0+  Al82  1  0.82157727  0.07296017  0.01372334  1
  Al0+  Al83  1  0.31995893  0.07294152  0.34911509  1
  Al0+  Al84  1  0.67550154  0.92990974  0.01229651  1
  Al0+  Al85  1  0.43201508  0.32307287  0.65063095  1
  Al0+  Al86  1  0.67740083  0.42894983  0.34743071  1
  Al0+  Al87  1  0.67916228  0.42688660  0.68440431  1
  Al0+  Al88  1  0.17988276  0.92780206  0.01239858  1
  Al0+  Al89  1  0.31881781  0.57165830  0.67999932  1
  Al0+  Al90  1  0.07100629  0.17757283  0.65283971  1
  Al0+  Al91  1  0.67889879  0.93071072  0.34924171  1
  Al0+  Al92  1  0.07047022  0.67874016  0.98441707  1
  Al0+  Al93  1  0.42992043  0.81965624  0.98863975  1
  Al0+  Al94  1  0.32093280  0.56920026  0.01449208  1
  Al0+  Al95  1  0.42709647  0.32406961  0.98282227  1
  Si0+  Si96  1  0.92739829  0.82198403  0.98588262  1
  Si0+  Si97  1  0.32097087  0.57107740  0.34687975  1
  Si0+  Si98  1  0.17873090  0.42413717  0.68343355  1
  Si0+  Si99  1  0.82297080  0.06804646  0.67854276  1
  Si0+  Si100  1  0.17834472  0.93063099  0.68138198  1
  Si0+  Si101  1  0.42969051  0.82148307  0.31934827  1
  Si0+  Si102  1  0.07124518  0.17775371  0.31625628  1
  Si0+  Si103  1  0.07122546  0.67698317  0.65056925  1
  Si0+  Si104  1  0.82322244  0.07298982  0.35253427  1
  Si0+  Si105  1  0.92972978  0.32109228  0.98567292  1
  Si0+  Si106  1  0.67622989  0.93050910  0.68148165  1
  Si0+  Si107  1  0.92536716  0.82304773  0.31336892  1
  Si0+  Si108  1  0.32071577  0.07103615  0.68264615  1
  Si0+  Si109  1  0.57147953  0.68068812  0.31971568  1
  Si0+  Si110  1  0.32046244  0.07434644  0.01332927  1
  Si0+  Si111  1  0.92973011  0.31948022  0.31944040  1
  Si0+  Si112  1  0.17928858  0.42826590  0.34701604  1
  Si0+  Si113  1  0.17797257  0.42599140  0.01669493  1
  Si0+  Si114  1  0.92938783  0.32304445  0.64976163  1
  Si0+  Si115  1  0.06903246  0.17608216  0.98780202  1
  Si0+  Si116  1  0.57231471  0.17694113  0.31540232  1
  Si0+  Si117  1  0.57594573  0.67856678  0.98494706  1
  Si0+  Si118  1  0.57168127  0.67983871  0.65091591  1
  Si0+  Si119  1  0.67892234  0.42875685  0.01696672  1
  O2-  O120  1  0.25410416  0.00365692  0.05797401  1
  O2-  O121  1  0.24838237  0.00093074  0.40127363  1
  O2-  O122  1  0.25052602  -0.00076140  0.72563092  1
  O2-  O123  1  0.24993596  0.49080668  0.06140341  1
  O2-  O124  1  0.25213412  0.49757191  0.38854248  1
  O2-  O125  1  0.24644983  0.49403690  0.72642423  1
  O2-  O126  1  0.74619306  0.00384651  0.06225188  1
  O2-  O127  1  0.75475556  0.00423282  0.39655663  1
  O2-  O128  1  0.74719711  0.00279981  0.72169358  1
  O2-  O129  1  0.74592657  0.49894208  0.06158958  1
  O2-  O130  1  0.75044917  0.49959321  0.39767710  1
  O2-  O131  1  0.75263576  0.49870778  0.73312770  1
  O2-  O132  1  -0.00263749  0.24600124  0.27430866  1
  O2-  O133  1  -0.00072933  0.25512155  0.60542830  1
  O2-  O134  1  -0.00311357  0.24537544  0.94442649  1
  O2-  O135  1  -0.00565353  0.75359462  0.27098461  1
  O2-  O136  1  -0.00365236  0.73858342  0.60687672  1
  O2-  O137  1  -0.00619762  0.75218895  0.93966796  1
  O2-  O138  1  0.50574382  0.24837534  0.27250145  1
  O2-  O139  1  0.50592796  0.25440219  0.59868279  1
  O2-  O140  1  0.50057823  0.25278631  0.93494164  1
  O2-  O141  1  0.50215203  0.75286438  0.27622232  1
  O2-  O142  1  0.50145165  0.74636416  0.60463910  1
  O2-  O143  1  0.50775177  0.74824170  0.94117078  1
  O2-  O144  1  0.06949672  0.17878131  0.09292058  1
  O2-  O145  1  0.07121115  0.18028025  0.42144585  1
  O2-  O146  1  0.06772124  0.17560066  0.76649098  1
  O2-  O147  1  0.07059742  0.67946496  0.09759736  1
  O2-  O148  1  0.07059609  0.67927162  0.43181432  1
  O2-  O149  1  0.07424701  0.68121562  0.75591640  1
  O2-  O150  1  0.56953276  0.18050775  0.09926006  1
  O2-  O151  1  0.57152556  0.17639885  0.42071171  1
  O2-  O152  1  0.57163593  0.17589285  0.76198558  1
  O2-  O153  1  0.57400520  0.67846481  0.09108789  1
  O2-  O154  1  0.56799692  0.68008508  0.42477978  1
  O2-  O155  1  0.57351862  0.68440618  0.75641290  1
  O2-  O156  1  0.17677605  0.42765254  0.24210574  1
  O2-  O157  1  0.17723565  0.42476914  0.57738621  1
  O2-  O158  1  0.17430485  0.42464128  0.91144051  1
  O2-  O159  1  0.18267592  0.92581513  0.23789593  1
  O2-  O160  1  0.17923551  0.93182818  0.57660844  1
  O2-  O161  1  0.17787589  0.93077972  0.89869177  1
  O2-  O162  1  0.67922241  0.43117950  0.23362985  1
  O2-  O163  1  0.68020580  0.42970239  0.57067770  1
  O2-  O164  1  0.68238958  0.42824805  0.91165307  1
  O2-  O165  1  0.67693576  0.93160981  0.23643838  1
  O2-  O166  1  0.67771888  0.93002532  0.57622626  1
  O2-  O167  1  0.67707012  0.92939389  0.89842382  1
  O2-  O168  1  0.42754673  0.32136009  0.09684732  1
  O2-  O169  1  0.42889604  0.32461308  0.43003828  1
  O2-  O170  1  0.43060911  0.31977368  0.76373344  1
  O2-  O171  1  0.42952017  0.81838221  0.10226192  1
  O2-  O172  1  0.42943060  0.81819930  0.42453178  1
  O2-  O173  1  0.42563114  0.82087659  0.76421601  1
  O2-  O174  1  0.93263420  0.32219324  0.09113698  1
  O2-  O175  1  0.93379427  0.31836916  0.42436216  1
  O2-  O176  1  0.93074544  0.32144334  0.75562594  1
  O2-  O177  1  0.92834491  0.82230988  0.09119915  1
  O2-  O178  1  0.92612649  0.82246744  0.41936787  1
  O2-  O179  1  0.93123928  0.82372389  0.76703981  1
  O2-  O180  1  0.31810574  0.07162169  0.23505268  1
  O2-  O181  1  0.31815366  0.07080554  0.57778286  1
  O2-  O182  1  0.31680316  0.07414791  0.90746709  1
  O2-  O183  1  0.32034265  0.57215625  0.24199606  1
  O2-  O184  1  0.31547472  0.57268701  0.56611741  1
  O2-  O185  1  0.31714934  0.57179602  0.90166754  1
  O2-  O186  1  0.82389177  0.07364217  0.24722117  1
  O2-  O187  1  0.82536958  0.06451752  0.57352264  1
  O2-  O188  1  0.82623132  0.06919645  0.89983118  1
  O2-  O189  1  0.82418440  0.56684386  0.23521059  1
  O2-  O190  1  0.82131143  0.57124822  0.57007688  1
  O2-  O191  1  0.82279470  0.56872523  0.90202087  1
  O2-  O192  1  0.04533239  0.08424349  0.27113698  1
  O2-  O193  1  0.03679145  0.08462361  0.59421758  1
  O2-  O194  1  0.04166767  0.08344538  0.94179428  1
  O2-  O195  1  0.04265323  0.58132377  0.26447330  1
  O2-  O196  1  0.05453733  0.57967510  0.60822092  1
  O2-  O197  1  0.04347199  0.58110961  0.93049126  1
  O2-  O198  1  0.54226386  0.08367814  0.27051439  1
  O2-  O199  1  0.54017169  0.08258586  0.59423151  1
  O2-  O200  1  0.54341399  0.08250782  0.93046931  1
  O2-  O201  1  0.54285088  0.59064699  0.26956630  1
  O2-  O202  1  0.54640406  0.58565057  0.60693446  1
  O2-  O203  1  0.55031791  0.58549060  0.93881671  1
  O2-  O204  1  0.16100056  0.20904292  0.26764722  1
  O2-  O205  1  0.16649543  0.20734436  0.59659867  1
  O2-  O206  1  0.15924804  0.20424764  0.93735579  1
  O2-  O207  1  0.16700203  0.71167683  0.26488510  1
  O2-  O208  1  0.16097525  0.70962215  0.60106957  1
  O2-  O209  1  0.16562767  0.71263817  0.93046345  1
  O2-  O210  1  0.66833696  0.19764862  0.27177877  1
  O2-  O211  1  0.67585691  0.19835560  0.59832258  1
  O2-  O212  1  0.67173232  0.20603781  0.93374710  1
  O2-  O213  1  0.66478707  0.70766062  0.27477938  1
  O2-  O214  1  0.66370888  0.70741840  0.60270750  1
  O2-  O215  1  0.67050121  0.70275748  0.94050222  1
  O2-  O216  1  0.08618700  0.45516579  0.06480441  1
  O2-  O217  1  0.08935790  0.45731211  0.39724768  1
  O2-  O218  1  0.08481772  0.44654036  0.73055903  1
  O2-  O219  1  0.08543755  0.95726158  0.07055199  1
  O2-  O220  1  0.07846526  0.95300787  0.40106164  1
  O2-  O221  1  0.08635008  0.96144080  0.72664240  1
  O2-  O222  1  0.58448602  0.45265375  0.06128653  1
  O2-  O223  1  0.58024796  0.46207661  0.40045659  1
  O2-  O224  1  0.58226786  0.45686981  0.73860806  1
  O2-  O225  1  0.57683863  0.95859446  0.06606657  1
  O2-  O226  1  0.58319180  0.96055401  0.40514662  1
  O2-  O227  1  0.58311225  0.95834951  0.72593894  1
  O2-  O228  1  0.19856270  0.33070576  0.06285575  1
  O2-  O229  1  0.20441177  0.33591700  0.39413285  1
  O2-  O230  1  0.20380994  0.32975788  0.72840999  1
  O2-  O231  1  0.21355880  0.83297334  0.06678029  1
  O2-  O232  1  0.20950028  0.82935772  0.40554275  1
  O2-  O233  1  0.20418499  0.83787637  0.72736120  1
  O2-  O234  1  0.70689609  0.33632235  0.06381374  1
  O2-  O235  1  0.70339959  0.32947692  0.39896441  1
  O2-  O236  1  0.70938090  0.32733995  0.73493588  1
  O2-  O237  1  0.70433424  0.83323875  0.06896078  1
  O2-  O238  1  0.70813203  0.83474069  0.40565489  1
  O2-  O239  1  0.70365725  0.83913232  0.72863976  1
  O2-  O240  1  0.45981192  0.42027165  0.26346407  1
  O2-  O241  1  0.45651254  0.42453193  0.60149602  1
  O2-  O242  1  0.45432919  0.42421832  0.93362693  1
  O2-  O243  1  0.45596735  0.91511812  0.27551110  1
  O2-  O244  1  0.45662944  0.91593877  0.59561354  1
  O2-  O245  1  0.45433357  0.91697139  0.93287029  1
  O2-  O246  1  0.96190030  0.40940966  0.27082365  1
  O2-  O247  1  0.95596261  0.41658031  0.60378015  1
  O2-  O248  1  0.96338499  0.40907392  0.93493120  1
  O2-  O249  1  0.95040498  0.91776553  0.26917459  1
  O2-  O250  1  0.96269300  0.91073956  0.59381635  1
  O2-  O251  1  0.95565574  0.91576154  0.94083889  1
  O2-  O252  1  0.33221190  0.29279924  0.26360505  1
  O2-  O253  1  0.33329041  0.29324979  0.59811805  1
  O2-  O254  1  0.32741250  0.29768791  0.93075891  1
  O2-  O255  1  0.33810571  0.79151289  0.27316544  1
  O2-  O256  1  0.33038152  0.78823372  0.59618977  1
  O2-  O257  1  0.33530945  0.78464357  0.93345833  1
  O2-  O258  1  0.83679938  0.29410277  0.27258679  1
  O2-  O259  1  0.83738719  0.29553663  0.60261123  1
  O2-  O260  1  0.83738183  0.29854453  0.93802859  1
  O2-  O261  1  0.83033491  0.79909282  0.26966842  1
  O2-  O262  1  0.82942168  0.79341008  0.59983080  1
  O2-  O263  1  0.83270656  0.79812020  0.94103816  1
  O2-  O264  1  0.41453666  0.05124123  0.05781042  1
  O2-  O265  1  0.41704971  0.04596681  0.40405092  1
  O2-  O266  1  0.41313784  0.04243558  0.72769441  1
  O2-  O267  1  0.41936758  0.54498306  0.06914334  1
  O2-  O268  1  0.41328435  0.54617947  0.39388713  1
  O2-  O269  1  0.41619530  0.54766551  0.73473291  1
  O2-  O270  1  0.91693324  0.04256063  0.07238228  1
  O2-  O271  1  0.91751955  0.04809097  0.39768897  1
  O2-  O272  1  0.91366717  0.03498537  0.72570004  1
  O2-  O273  1  0.91968284  0.53488667  0.06630265  1
  O2-  O274  1  0.92181033  0.53916577  0.40146407  1
  O2-  O275  1  0.92277566  0.54648788  0.73458900  1
  O2-  O276  1  0.29179474  0.16712069  0.05960615  1
  O2-  O277  1  0.28815897  0.17104989  0.40149519  1
  O2-  O278  1  0.29120580  0.16264707  0.72914973  1
  O2-  O279  1  0.28576297  0.66354965  0.07004181  1
  O2-  O280  1  0.29021153  0.66131508  0.39543515  1
  O2-  O281  1  0.28348687  0.66763200  0.73379504  1
  O2-  O282  1  0.79939015  0.17325406  0.06620627  1
  O2-  O283  1  0.79966308  0.16676196  0.39923954  1
  O2-  O284  1  0.80443856  0.16250426  0.72409594  1
  O2-  O285  1  0.79727245  0.66715753  0.07076689  1
  O2-  O286  1  0.79795255  0.66978232  0.39917843  1
  O2-  O287  1  0.79151954  0.67130628  0.73603877  1
