# generated using pymatgen
data_Ca2Al2SiO7
_symmetry_space_group_name_H-M   'P 1'
_cell_length_a   15.46555622
_cell_length_b   15.46422079
_cell_length_c   15.28974132
_cell_angle_alpha   90.00610566
_cell_angle_beta   89.98337268
_cell_angle_gamma   89.99959103
_symmetry_Int_Tables_number   1
_chemical_formula_structural   Ca2Al2SiO7
_chemical_formula_sum   'Ca48 Al48 Si24 O168'
_cell_volume   3656.73680617
_cell_formula_units_Z   24
loop_
 _symmetry_equiv_pos_site_id
 _symmetry_equiv_pos_as_xyz
  1  'x, y, z'
loop_
 _atom_type_symbol
 _atom_type_oxidation_number
  Ca2+  2.0
  Al0+  0.0
  Si0+  0.0
  O2-  -2.0
loop_
 _atom_site_type_symbol
 _atom_site_label
 _atom_site_symmetry_multiplicity
 _atom_site_fract_x
 _atom_site_fract_y
 _atom_site_fract_z
 _atom_site_occupancy
  Ca2+  Ca0  1  0.17781395  0.06987383  0.16808241  1
  Ca2+  Ca1  1  0.17426644  0.07283661  0.49993018  1
  Ca2+  Ca2  1  0.17481572  0.07872274  0.83892671  1
  Ca2+  Ca3  1  0.16529734  0.57477340  0.16979004  1
  Ca2+  Ca4  1  0.16488207  0.58532462  0.50437291  1
  Ca2+  Ca5  1  0.17511372  0.58129972  0.83705124  1
  Ca2+  Ca6  1  0.66890725  0.07961258  0.17031869  1
  Ca2+  Ca7  1  0.67353060  0.07791839  0.50860045  1
  Ca2+  Ca8  1  0.67439381  0.08365491  0.83128732  1
  Ca2+  Ca9  1  0.66321724  0.59347680  0.16805006  1
  Ca2+  Ca10  1  0.67201842  0.58248801  0.51081845  1
  Ca2+  Ca11  1  0.66966732  0.58388170  0.83483687  1
  Ca2+  Ca12  1  0.09339072  0.33442032  0.16243502  1
  Ca2+  Ca13  1  0.07950045  0.33676608  0.49622761  1
  Ca2+  Ca14  1  0.08327825  0.33308688  0.82642885  1
  Ca2+  Ca15  1  0.07829954  0.84494869  0.16387993  1
  Ca2+  Ca16  1  0.07768001  0.82315114  0.49390163  1
  Ca2+  Ca17  1  0.07926040  0.83244382  0.82686441  1
  Ca2+  Ca18  1  0.57291533  0.32799160  0.15807451  1
  Ca2+  Ca19  1  0.57801860  0.33678059  0.50330044  1
  Ca2+  Ca20  1  0.57185002  0.33619861  0.82686429  1
  Ca2+  Ca21  1  0.57000231  0.82535060  0.16351702  1
  Ca2+  Ca22  1  0.57769688  0.82567296  0.49034645  1
  Ca2+  Ca23  1  0.57571558  0.82789497  0.83723760  1
  Ca2+  Ca24  1  0.32783546  0.42101574  0.16534781  1
  Ca2+  Ca25  1  0.32816928  0.42457613  0.50739435  1
  Ca2+  Ca26  1  0.33580517  0.42497596  0.84037214  1
  Ca2+  Ca27  1  0.33359234  0.91925386  0.17561174  1
  Ca2+  Ca28  1  0.33595613  0.92225259  0.50481199  1
  Ca2+  Ca29  1  0.32824893  0.92557595  0.84555931  1
  Ca2+  Ca30  1  0.82864328  0.42223827  0.17249538  1
  Ca2+  Ca31  1  0.82611825  0.42400761  0.51415309  1
  Ca2+  Ca32  1  0.83202406  0.42095906  0.83074916  1
  Ca2+  Ca33  1  0.83650170  0.90945955  0.16943334  1
  Ca2+  Ca34  1  0.83629852  0.91381680  0.50701175  1
  Ca2+  Ca35  1  0.84184407  0.91659624  0.83661474  1
  Ca2+  Ca36  1  0.40372668  0.17011317  0.16081058  1
  Ca2+  Ca37  1  0.40439678  0.17105750  0.49970863  1
  Ca2+  Ca38  1  0.40482368  0.17684762  0.82918829  1
  Ca2+  Ca39  1  0.42077298  0.67256233  0.15841857  1
  Ca2+  Ca40  1  0.42122254  0.66914033  0.49380285  1
  Ca2+  Ca41  1  0.41096896  0.66577405  0.83126702  1
  Ca2+  Ca42  1  0.92295002  0.16964737  0.16109340  1
  Ca2+  Ca43  1  0.91229336  0.17142844  0.50151552  1
  Ca2+  Ca44  1  0.91940673  0.17182454  0.82203889  1
  Ca2+  Ca45  1  0.92805801  0.67669835  0.16517738  1
  Ca2+  Ca46  1  0.92461048  0.66921215  0.49618791  1
  Ca2+  Ca47  1  0.92588189  0.67439737  0.82295536  1
  Al0+  Al48  1  0.00121495  0.00450678  -0.00088585  1
  Al0+  Al49  1  0.00287394  0.00432778  0.33380948  1
  Al0+  Al50  1  -0.00015939  0.00037659  0.66582654  1
  Al0+  Al51  1  -0.00306884  0.50172531  0.00406646  1
  Al0+  Al52  1  -0.00343125  0.50100429  0.33315850  1
  Al0+  Al53  1  -0.00171586  0.49905501  0.66324073  1
  Al0+  Al54  1  0.50520079  0.00007170  -0.00039838  1
  Al0+  Al55  1  0.50410952  0.00209075  0.33591130  1
  Al0+  Al56  1  0.50103000  0.00188026  0.67262383  1
  Al0+  Al57  1  0.50211464  0.49748169  -0.00190170  1
  Al0+  Al58  1  0.50007187  0.49576868  0.32943360  1
  Al0+  Al59  1  0.49790569  0.49834855  0.66818103  1
  Al0+  Al60  1  0.24872283  0.24857106  0.00052430  1
  Al0+  Al61  1  0.24758683  0.25118703  0.34061625  1
  Al0+  Al62  1  0.24929693  0.24894304  0.66261559  1
  Al0+  Al63  1  0.24789993  0.74950715  0.00401923  1
  Al0+  Al64  1  0.24938942  0.74780170  0.33012307  1
  Al0+  Al65  1  0.24929871  0.74975141  0.66590512  1
  Al0+  Al66  1  0.74991433  0.25107156  0.00083797  1
  Al0+  Al67  1  0.74850722  0.25131884  0.33235031  1
  Al0+  Al68  1  0.74853228  0.24762443  0.67033285  1
  Al0+  Al69  1  0.75103277  0.75146484  -0.00707468  1
  Al0+  Al70  1  0.75180165  0.75065084  0.32825395  1
  Al0+  Al71  1  0.74793938  0.74984671  0.66950018  1
  Al0+  Al72  1  0.82206657  0.57261118  0.68272667  1
  Al0+  Al73  1  0.07257660  0.67856809  0.65226565  1
  Al0+  Al74  1  0.82166556  0.06806719  0.67970185  1
  Al0+  Al75  1  0.42875459  0.31647984  0.98686281  1
  Al0+  Al76  1  0.67789240  0.42861779  0.68275192  1
  Al0+  Al77  1  0.17815822  0.92532262  0.35008431  1
  Al0+  Al78  1  0.32335943  0.06925970  0.35007884  1
  Al0+  Al79  1  0.17778998  0.92863340  0.01286234  1
  Al0+  Al80  1  0.93310833  0.82201723  0.98510825  1
  Al0+  Al81  1  0.17725464  0.42990581  0.01249786  1
  Al0+  Al82  1  0.42808058  0.32077557  0.65117212  1
  Al0+  Al83  1  0.31971333  0.57138936  0.67834969  1
  Al0+  Al84  1  0.92748783  0.82184465  0.65208839  1
  Al0+  Al85  1  0.42889569  0.82278511  0.32164487  1
  Al0+  Al86  1  0.93251235  0.82368039  0.31806583  1
  Al0+  Al87  1  0.92755075  0.31972027  0.65328446  1
  Al0+  Al88  1  0.07237592  0.67599497  0.31629888  1
  Al0+  Al89  1  0.32388064  0.06939232  0.01373098  1
  Al0+  Al90  1  0.57002781  0.67856977  0.98256039  1
  Al0+  Al91  1  0.42535376  0.82187676  0.98512169  1
  Al0+  Al92  1  0.32125941  0.07130276  0.68207060  1
  Al0+  Al93  1  0.57123715  0.67648458  0.32067049  1
  Al0+  Al94  1  0.17791992  0.43153610  0.34896459  1
  Al0+  Al95  1  0.32387725  0.57150622  0.01590678  1
  Si0+  Si96  1  0.67651463  0.92635739  0.68568203  1
  Si0+  Si97  1  0.82110589  0.07277011  0.01585891  1
  Si0+  Si98  1  0.68231205  0.92797775  0.01651703  1
  Si0+  Si99  1  0.17690625  0.42740115  0.68057060  1
  Si0+  Si100  1  0.07142534  0.67400961  0.98300258  1
  Si0+  Si101  1  0.81880068  0.57276564  0.01679454  1
  Si0+  Si102  1  0.67803446  0.42640983  0.34823630  1
  Si0+  Si103  1  0.81715620  0.57113553  0.34747494  1
  Si0+  Si104  1  0.68291215  0.92959125  0.34754212  1
  Si0+  Si105  1  0.42966935  0.82300704  0.65417950  1
  Si0+  Si106  1  0.57408097  0.18018030  0.31881206  1
  Si0+  Si107  1  0.92597145  0.32318371  0.98569946  1
  Si0+  Si108  1  0.42732091  0.31751425  0.31819802  1
  Si0+  Si109  1  0.07207329  0.17792604  0.64689344  1
  Si0+  Si110  1  0.06858792  0.18276005  0.98440161  1
  Si0+  Si111  1  0.07131617  0.18258046  0.31689961  1
  Si0+  Si112  1  0.68026033  0.42799713  0.01711182  1
  Si0+  Si113  1  0.17941363  0.92825879  0.68249743  1
  Si0+  Si114  1  0.57715589  0.17723304  0.98167558  1
  Si0+  Si115  1  0.32497259  0.57026282  0.34880974  1
  Si0+  Si116  1  0.57120227  0.17715111  0.64943911  1
  Si0+  Si117  1  0.82170499  0.07454641  0.34704661  1
  Si0+  Si118  1  0.56887366  0.67843072  0.65335668  1
  Si0+  Si119  1  0.92653073  0.32051020  0.31766681  1
  O2-  O120  1  0.26073499  -0.01103156  0.06260839  1
  O2-  O121  1  0.25736393  -0.00894845  0.39920595  1
  O2-  O122  1  0.24858661  -0.00440869  0.72775728  1
  O2-  O123  1  0.24832339  0.50165043  0.06433896  1
  O2-  O124  1  0.25065560  0.50814298  0.39444913  1
  O2-  O125  1  0.24449654  0.49656151  0.72411693  1
  O2-  O126  1  0.75245495  0.00069858  0.05926715  1
  O2-  O127  1  0.75657949  -0.00158398  0.38911655  1
  O2-  O128  1  0.75143062  -0.00988975  0.72796210  1
  O2-  O129  1  0.74763575  0.50179646  0.06039719  1
  O2-  O130  1  0.74294996  0.50287867  0.38893606  1
  O2-  O131  1  0.75001500  0.50029807  0.73327524  1
  O2-  O132  1  -0.00024584  0.25344455  0.27356717  1
  O2-  O133  1  0.00283494  0.24716781  0.60353580  1
  O2-  O134  1  0.00053913  0.25704677  0.94332856  1
  O2-  O135  1  0.00859227  0.75650361  0.26708860  1
  O2-  O136  1  -0.00281525  0.74798651  0.60295101  1
  O2-  O137  1  0.00970280  0.74963495  0.93978925  1
  O2-  O138  1  0.49699157  0.24420089  0.27678874  1
  O2-  O139  1  0.50140333  0.24402794  0.60410772  1
  O2-  O140  1  0.50190304  0.23940165  0.94015584  1
  O2-  O141  1  0.49550036  0.74504154  0.27221678  1
  O2-  O142  1  0.49985825  0.75124052  0.61141852  1
  O2-  O143  1  0.49168279  0.74449766  0.93328957  1
  O2-  O144  1  0.06523444  0.18226727  0.08972590  1
  O2-  O145  1  0.06885038  0.18327600  0.42172217  1
  O2-  O146  1  0.07158056  0.17916082  0.75288011  1
  O2-  O147  1  0.06407227  0.66663112  0.08787285  1
  O2-  O148  1  0.06434325  0.67178390  0.42934422  1
  O2-  O149  1  0.07427323  0.68087059  0.76599068  1
  O2-  O150  1  0.58612947  0.18231597  0.08734589  1
  O2-  O151  1  0.58261050  0.18393642  0.42294046  1
  O2-  O152  1  0.57256701  0.17706978  0.75476776  1
  O2-  O153  1  0.57216283  0.68337635  0.09616668  1
  O2-  O154  1  0.57304911  0.67828210  0.43483673  1
  O2-  O155  1  0.56851152  0.67873898  0.75797126  1
  O2-  O156  1  0.18113104  0.42818806  0.23611193  1
  O2-  O157  1  0.17876429  0.42732144  0.57478676  1
  O2-  O158  1  0.17455917  0.42932440  0.89914186  1
  O2-  O159  1  0.17443948  0.93451812  0.23710708  1
  O2-  O160  1  0.18106882  0.92863821  0.57708794  1
  O2-  O161  1  0.17308686  0.93644795  0.89936779  1
  O2-  O162  1  0.68197553  0.42018775  0.24322745  1
  O2-  O163  1  0.67834229  0.43153342  0.56820925  1
  O2-  O164  1  0.68385735  0.42352471  0.91286738  1
  O2-  O165  1  0.68267899  0.93240672  0.24243999  1
  O2-  O166  1  0.67323816  0.92877623  0.57972187  1
  O2-  O167  1  0.68347281  0.92913532  0.91163456  1
  O2-  O168  1  0.43102665  0.31479817  0.10071788  1
  O2-  O169  1  0.42980360  0.31915404  0.42311342  1
  O2-  O170  1  0.42864926  0.31979501  0.76399315  1
  O2-  O171  1  0.43217562  0.82532174  0.09834979  1
  O2-  O172  1  0.43569761  0.82427019  0.43595312  1
  O2-  O173  1  0.43059691  0.82311148  0.75888193  1
  O2-  O174  1  0.92166846  0.31897611  0.09114131  1
  O2-  O175  1  0.92309604  0.31725328  0.42227349  1
  O2-  O176  1  0.92986930  0.31754805  0.76677917  1
  O2-  O177  1  0.93172806  0.82152378  0.09813150  1
  O2-  O178  1  0.92721914  0.82075275  0.43094206  1
  O2-  O179  1  0.93251171  0.82323920  0.76571090  1
  O2-  O180  1  0.32138489  0.07200433  0.23676894  1
  O2-  O181  1  0.32076198  0.06870741  0.56911597  1
  O2-  O182  1  0.31699648  0.07305560  0.90041152  1
  O2-  O183  1  0.33029899  0.56311060  0.24395092  1
  O2-  O184  1  0.32204677  0.57066252  0.56512352  1
  O2-  O185  1  0.32285543  0.56718207  0.90208421  1
  O2-  O186  1  0.81717088  0.07957043  0.24179178  1
  O2-  O187  1  0.81731983  0.06991335  0.56621242  1
  O2-  O188  1  0.82035455  0.07488044  0.91118256  1
  O2-  O189  1  0.81664237  0.56818380  0.24200578  1
  O2-  O190  1  0.81810370  0.57175535  0.56849089  1
  O2-  O191  1  0.81967846  0.56967417  0.91224602  1
  O2-  O192  1  0.04230828  0.09239327  0.26748593  1
  O2-  O193  1  0.04438518  0.08521890  0.60094075  1
  O2-  O194  1  0.03566963  0.09434701  0.93417262  1
  O2-  O195  1  0.03201684  0.58095818  0.26180151  1
  O2-  O196  1  0.04644915  0.57929890  0.60019007  1
  O2-  O197  1  0.03672636  0.58371736  0.93456954  1
  O2-  O198  1  0.55419829  0.08627637  0.27268539  1
  O2-  O199  1  0.54777239  0.08232307  0.60402357  1
  O2-  O200  1  0.56238273  0.08083638  0.93898267  1
  O2-  O201  1  0.55039699  0.57546158  0.26861073  1
  O2-  O202  1  0.54030170  0.58748873  0.60525936  1
  O2-  O203  1  0.55322268  0.57611440  0.93444801  1
  O2-  O204  1  0.16231305  0.21368934  0.27029125  1
  O2-  O205  1  0.16418553  0.20388296  0.59883123  1
  O2-  O206  1  0.16002884  0.20784313  0.93594887  1
  O2-  O207  1  0.17500895  0.68861668  0.26818117  1
  O2-  O208  1  0.16970859  0.70905211  0.59662809  1
  O2-  O209  1  0.16832412  0.69095944  0.94238031  1
  O2-  O210  1  0.66226284  0.21397529  0.26604202  1
  O2-  O211  1  0.66421380  0.20386524  0.60253199  1
  O2-  O212  1  0.66782810  0.21061625  0.93291012  1
  O2-  O213  1  0.66758852  0.70905593  0.26599406  1
  O2-  O214  1  0.66130063  0.70489840  0.60631060  1
  O2-  O215  1  0.66579207  0.71461308  0.92831137  1
  O2-  O216  1  0.07734578  0.45462620  0.06733149  1
  O2-  O217  1  0.07780647  0.45712711  0.39926654  1
  O2-  O218  1  0.08206964  0.44846351  0.72491848  1
  O2-  O219  1  0.08441204  0.97263982  0.06784258  1
  O2-  O220  1  0.08266464  0.96541918  0.40398369  1
  O2-  O221  1  0.08605976  0.95636027  0.72717737  1
  O2-  O222  1  0.58792541  0.45124795  0.06489932  1
  O2-  O223  1  0.58367205  0.44698380  0.39320636  1
  O2-  O224  1  0.58019262  0.45780822  0.73502283  1
  O2-  O225  1  0.59160781  0.95615204  0.06587894  1
  O2-  O226  1  0.59393643  0.96051713  0.39846917  1
  O2-  O227  1  0.58732365  0.95980996  0.73593380  1
  O2-  O228  1  0.20632450  0.33133745  0.06544725  1
  O2-  O229  1  0.20890591  0.33616793  0.40487079  1
  O2-  O230  1  0.20236514  0.33316033  0.72482139  1
  O2-  O231  1  0.18711025  0.82590374  0.06148311  1
  O2-  O232  1  0.19549504  0.82247255  0.39774946  1
  O2-  O233  1  0.20375487  0.83491968  0.72847508  1
  O2-  O234  1  0.71248903  0.33767631  0.06704584  1
  O2-  O235  1  0.71196993  0.33753924  0.39801654  1
  O2-  O236  1  0.70487821  0.32989299  0.73465332  1
  O2-  O237  1  0.71386882  0.83738556  0.06350035  1
  O2-  O238  1  0.70908673  0.83710510  0.39446724  1
  O2-  O239  1  0.69518399  0.83178451  0.73122202  1
  O2-  O240  1  0.45796559  0.40706226  0.26841894  1
  O2-  O241  1  0.46177283  0.41622541  0.59578903  1
  O2-  O242  1  0.46337283  0.41166015  0.93356765  1
  O2-  O243  1  0.46548937  0.91985203  0.26951458  1
  O2-  O244  1  0.46038237  0.91485268  0.60827808  1
  O2-  O245  1  0.46264182  0.91914298  0.93234347  1
  O2-  O246  1  0.94950667  0.41341837  0.27116746  1
  O2-  O247  1  0.95432519  0.41594063  0.59725874  1
  O2-  O248  1  0.94841404  0.41711217  0.94150126  1
  O2-  O249  1  0.95432843  0.92586738  0.26775495  1
  O2-  O250  1  0.95455398  0.92105744  0.59985414  1
  O2-  O251  1  0.95940738  0.92179427  0.93447447  1
  O2-  O252  1  0.33470192  0.28972627  0.27312584  1
  O2-  O253  1  0.33195051  0.28996364  0.59567287  1
  O2-  O254  1  0.33175601  0.28750214  0.93282089  1
  O2-  O255  1  0.32838066  0.80369996  0.27130925  1
  O2-  O256  1  0.33812707  0.79655072  0.60667342  1
  O2-  O257  1  0.32364585  0.80139682  0.93525735  1
  O2-  O258  1  0.83622672  0.28901331  0.26781623  1
  O2-  O259  1  0.83104298  0.28569098  0.60010688  1
  O2-  O260  1  0.83646959  0.29038844  0.93719331  1
  O2-  O261  1  0.83508532  0.79161376  0.26392121  1
  O2-  O262  1  0.82546297  0.79847265  0.60357897  1
  O2-  O263  1  0.83707271  0.79119927  0.93122910  1
  O2-  O264  1  0.42807089  0.05571478  0.06095331  1
  O2-  O265  1  0.42566314  0.05099214  0.40102387  1
  O2-  O266  1  0.41909042  0.04612345  0.73556879  1
  O2-  O267  1  0.42206013  0.53828759  0.06754070  1
  O2-  O268  1  0.41665647  0.53699639  0.39670443  1
  O2-  O269  1  0.41452150  0.53884141  0.73344876  1
  O2-  O270  1  0.91313799  0.04757490  0.06363891  1
  O2-  O271  1  0.91555089  0.05540046  0.39220679  1
  O2-  O272  1  0.91973800  0.04427094  0.73451155  1
  O2-  O273  1  0.90857673  0.54317142  0.06720037  1
  O2-  O274  1  0.90666077  0.53896639  0.39553722  1
  O2-  O275  1  0.92009592  0.54152220  0.73470751  1
  O2-  O276  1  0.28466435  0.16408187  0.06758217  1
  O2-  O277  1  0.28615459  0.16537902  0.40300091  1
  O2-  O278  1  0.28688461  0.16827818  0.73280083  1
  O2-  O279  1  0.30121421  0.67144004  0.06719375  1
  O2-  O280  1  0.30847091  0.66701267  0.39071950  1
  O2-  O281  1  0.29078864  0.66819633  0.73311829  1
  O2-  O282  1  0.79141924  0.16402241  0.06479673  1
  O2-  O283  1  0.78687901  0.16391913  0.39580715  1
  O2-  O284  1  0.78730278  0.16231967  0.73635939  1
  O2-  O285  1  0.78908554  0.66488070  0.06206236  1
  O2-  O286  1  0.79199650  0.66384492  0.39382177  1
  O2-  O287  1  0.79271943  0.67036402  0.73637459  1
