# generated using pymatgen
data_Ca2Al2SiO7
_symmetry_space_group_name_H-M   'P 1'
_cell_length_a   15.46187334
_cell_length_b   15.46016797
_cell_length_c   15.28638123
_cell_angle_alpha   90.00429355
_cell_angle_beta   90.00895707
_cell_angle_gamma   89.99807382
_symmetry_Int_Tables_number   1
_chemical_formula_structural   Ca2Al2SiO7
_chemical_formula_sum   'Ca48 Al48 Si24 O168'
_cell_volume   3654.10479850
_cell_formula_units_Z   24
loop_
 _symmetry_equiv_pos_site_id
 _symmetry_equiv_pos_as_xyz
  1  'x, y, z'
loop_
 _atom_type_symbol
 _atom_type_oxidation_number
  Ca2+  2.0
  Al0+  0.0
  Si0+  0.0
  O2-  -2.0
loop_
 _atom_site_type_symbol
 _atom_site_label
 _atom_site_symmetry_multiplicity
 _atom_site_fract_x
 _atom_site_fract_y
 _atom_site_fract_z
 _atom_site_occupancy
  Ca2+  Ca0  1  0.17547305  0.08130487  0.17627431  1
  Ca2+  Ca1  1  0.17206799  0.07317951  0.50000297  1
  Ca2+  Ca2  1  0.16563301  0.07868056  0.83860363  1
  Ca2+  Ca3  1  0.17052696  0.57650576  0.16756361  1
  Ca2+  Ca4  1  0.17462621  0.58613927  0.51003816  1
  Ca2+  Ca5  1  0.17289216  0.58117290  0.83524257  1
  Ca2+  Ca6  1  0.65260136  0.07382486  0.17025462  1
  Ca2+  Ca7  1  0.65610688  0.07968280  0.50011835  1
  Ca2+  Ca8  1  0.66241525  0.08239731  0.84045679  1
  Ca2+  Ca9  1  0.65985881  0.57630896  0.17362869  1
  Ca2+  Ca10  1  0.67246349  0.58353200  0.49937323  1
  Ca2+  Ca11  1  0.67090439  0.58159333  0.84045400  1
  Ca2+  Ca12  1  0.08340390  0.32834848  0.15654551  1
  Ca2+  Ca13  1  0.08035773  0.33456798  0.49557708  1
  Ca2+  Ca14  1  0.09018915  0.32974315  0.83557075  1
  Ca2+  Ca15  1  0.07683902  0.83946647  0.16718372  1
  Ca2+  Ca16  1  0.07720461  0.83497635  0.49780031  1
  Ca2+  Ca17  1  0.07746332  0.82708198  0.81917400  1
  Ca2+  Ca18  1  0.57589534  0.33127397  0.15922256  1
  Ca2+  Ca19  1  0.57484875  0.32759684  0.48955401  1
  Ca2+  Ca20  1  0.58091101  0.32874969  0.82714813  1
  Ca2+  Ca21  1  0.58888704  0.82597010  0.16011851  1
  Ca2+  Ca22  1  0.58728129  0.82580178  0.48990258  1
  Ca2+  Ca23  1  0.57920804  0.83346676  0.83731304  1
  Ca2+  Ca24  1  0.33242186  0.40538816  0.16784639  1
  Ca2+  Ca25  1  0.34060458  0.41998937  0.50502395  1
  Ca2+  Ca26  1  0.33764195  0.41764876  0.83691286  1
  Ca2+  Ca27  1  0.33302592  0.92375376  0.17671408  1
  Ca2+  Ca28  1  0.32512539  0.92000676  0.50465170  1
  Ca2+  Ca29  1  0.32911364  0.91413762  0.83876343  1
  Ca2+  Ca30  1  0.81565624  0.42190546  0.17481232  1
  Ca2+  Ca31  1  0.82681109  0.42809437  0.50289410  1
  Ca2+  Ca32  1  0.82770816  0.42425644  0.84010277  1
  Ca2+  Ca33  1  0.82281207  0.91646761  0.17290644  1
  Ca2+  Ca34  1  0.83098396  0.91000637  0.49953865  1
  Ca2+  Ca35  1  0.82758095  0.91513125  0.83714732  1
  Ca2+  Ca36  1  0.42437975  0.17122654  0.16406523  1
  Ca2+  Ca37  1  0.42182898  0.17491199  0.49363850  1
  Ca2+  Ca38  1  0.42810090  0.17837073  0.82924647  1
  Ca2+  Ca39  1  0.42940313  0.67532746  0.16064605  1
  Ca2+  Ca40  1  0.42082968  0.66508715  0.49463128  1
  Ca2+  Ca41  1  0.42036787  0.66587995  0.83314966  1
  Ca2+  Ca42  1  0.92598691  0.16398947  0.16198375  1
  Ca2+  Ca43  1  0.91895556  0.16666403  0.49736512  1
  Ca2+  Ca44  1  0.92240294  0.16677413  0.83269775  1
  Ca2+  Ca45  1  0.91012163  0.66976910  0.16943761  1
  Ca2+  Ca46  1  0.91323616  0.67313078  0.49571196  1
  Ca2+  Ca47  1  0.92210056  0.67039665  0.82133670  1
  Al0+  Al48  1  -0.00037169  0.00041516  -0.00394685  1
  Al0+  Al49  1  -0.00103111  -0.00158171  0.33250407  1
  Al0+  Al50  1  -0.00197706  -0.00051301  0.66726871  1
  Al0+  Al51  1  0.00227492  0.50104569  0.00474003  1
  Al0+  Al52  1  -0.00015107  0.50146590  0.33491392  1
  Al0+  Al53  1  0.00102832  0.49951710  0.66787071  1
  Al0+  Al54  1  0.49871358  -0.00010141  -0.00356903  1
  Al0+  Al55  1  0.49811568  0.00158566  0.34194107  1
  Al0+  Al56  1  0.49846880  -0.00028221  0.66545348  1
  Al0+  Al57  1  0.50086354  0.50352211  -0.00296758  1
  Al0+  Al58  1  0.49806631  0.49933531  0.32885680  1
  Al0+  Al59  1  0.49988891  0.49992048  0.66838785  1
  Al0+  Al60  1  0.24967126  0.24874835  -0.00498454  1
  Al0+  Al61  1  0.24954443  0.24881797  0.33666067  1
  Al0+  Al62  1  0.25113559  0.24839324  0.66247311  1
  Al0+  Al63  1  0.24811021  0.74972087  -0.00013951  1
  Al0+  Al64  1  0.24694418  0.74746499  0.33518936  1
  Al0+  Al65  1  0.24970633  0.74844173  0.67252305  1
  Al0+  Al66  1  0.75351919  0.25181142  0.00169591  1
  Al0+  Al67  1  0.75006624  0.24902182  0.33346681  1
  Al0+  Al68  1  0.75130707  0.24691011  0.66370608  1
  Al0+  Al69  1  0.75116922  0.75233087  -0.00109227  1
  Al0+  Al70  1  0.75165684  0.75130409  0.33133833  1
  Al0+  Al71  1  0.75020523  0.75037547  0.66909628  1
  Al0+  Al72  1  0.82109651  0.57144931  0.68120649  1
  Al0+  Al73  1  0.82038321  0.57139137  0.34840730  1
  Al0+  Al74  1  0.43011247  0.32231468  0.64991419  1
  Al0+  Al75  1  0.17886047  0.93070568  0.68223197  1
  Al0+  Al76  1  0.42880869  0.32176790  0.98397212  1
  Al0+  Al77  1  0.17715579  0.92721495  0.34804885  1
  Al0+  Al78  1  0.42796169  0.32089930  0.31646123  1
  Al0+  Al79  1  0.32254492  0.56990281  0.68124004  1
  Al0+  Al80  1  0.07061663  0.17891724  0.98659618  1
  Al0+  Al81  1  0.67527454  0.42740161  0.34897960  1
  Al0+  Al82  1  0.93083530  0.82023474  0.31717695  1
  Al0+  Al83  1  0.18225268  0.42884054  0.01323706  1
  Al0+  Al84  1  0.92775754  0.82075126  0.65027603  1
  Al0+  Al85  1  0.07233658  0.67759284  0.65147726  1
  Al0+  Al86  1  0.67944226  0.93050062  0.34651545  1
  Al0+  Al87  1  0.67920322  0.93185248  0.01277877  1
  Al0+  Al88  1  0.57074939  0.68110528  0.32122070  1
  Al0+  Al89  1  0.57291444  0.17738227  0.64951256  1
  Al0+  Al90  1  0.57379550  0.17926879  0.98553453  1
  Al0+  Al91  1  0.67842404  0.42962876  0.01254809  1
  Al0+  Al92  1  0.32149921  0.07231130  0.35057084  1
  Al0+  Al93  1  0.57306889  0.68031844  0.98335870  1
  Al0+  Al94  1  0.57272011  0.17689581  0.31689348  1
  Al0+  Al95  1  0.42660089  0.82195161  0.98639048  1
  Si0+  Si96  1  0.92905389  0.32420185  0.31851240  1
  Si0+  Si97  1  0.67762489  0.92893726  0.68219090  1
  Si0+  Si98  1  0.31960366  0.57014783  0.34638360  1
  Si0+  Si99  1  0.93065337  0.82069707  0.98415884  1
  Si0+  Si100  1  0.82420644  0.07207422  0.34973121  1
  Si0+  Si101  1  0.42787317  0.82036163  0.65202490  1
  Si0+  Si102  1  0.17810690  0.42814939  0.34784931  1
  Si0+  Si103  1  0.92932078  0.32084918  0.65208477  1
  Si0+  Si104  1  0.17758315  0.42500374  0.68262048  1
  Si0+  Si105  1  0.32168745  0.07175030  0.68694444  1
  Si0+  Si106  1  0.07087375  0.17792688  0.65050611  1
  Si0+  Si107  1  0.17631243  0.92768962  0.01495915  1
  Si0+  Si108  1  0.31869342  0.06911343  0.01304968  1
  Si0+  Si109  1  0.68049705  0.42728802  0.68246546  1
  Si0+  Si110  1  0.32241316  0.57423248  0.01875600  1
  Si0+  Si111  1  0.82313638  0.57324898  0.01670745  1
  Si0+  Si112  1  0.42492666  0.82157755  0.32158330  1
  Si0+  Si113  1  0.07093102  0.67748169  0.98497965  1
  Si0+  Si114  1  0.07375364  0.67546767  0.31371865  1
  Si0+  Si115  1  0.82452332  0.07234156  0.01630615  1
  Si0+  Si116  1  0.06853079  0.18036364  0.32018358  1
  Si0+  Si117  1  0.57101598  0.68033385  0.65242464  1
  Si0+  Si118  1  0.93000545  0.32432527  0.98407313  1
  Si0+  Si119  1  0.82122344  0.07203737  0.68276074  1
  O2-  O120  1  0.24989946  -0.00444168  0.05645873  1
  O2-  O121  1  0.25248780  -0.00467500  0.39799334  1
  O2-  O122  1  0.25259616  0.00417088  0.73276791  1
  O2-  O123  1  0.25895800  0.49987426  0.06276066  1
  O2-  O124  1  0.24938046  0.49829270  0.38926329  1
  O2-  O125  1  0.24777884  0.49295864  0.72491152  1
  O2-  O126  1  0.75036179  0.01026507  0.06002551  1
  O2-  O127  1  0.75069838  0.00868450  0.39378581  1
  O2-  O128  1  0.74741070  0.00273396  0.72261220  1
  O2-  O129  1  0.75205703  0.50655640  0.05876276  1
  O2-  O130  1  0.74790059  0.49973507  0.39827203  1
  O2-  O131  1  0.74797428  0.49617132  0.72865380  1
  O2-  O132  1  -0.00106074  0.25173299  0.27626368  1
  O2-  O133  1  0.00291717  0.25228132  0.60886644  1
  O2-  O134  1  -0.00274395  0.25454647  0.93869360  1
  O2-  O135  1  0.00586346  0.74542642  0.27010393  1
  O2-  O136  1  -0.00055148  0.74803015  0.60083301  1
  O2-  O137  1  0.00081769  0.74902721  0.94276718  1
  O2-  O138  1  0.50337062  0.25182869  0.26789533  1
  O2-  O139  1  0.50270960  0.25109890  0.60065514  1
  O2-  O140  1  0.50713410  0.25591538  0.93494170  1
  O2-  O141  1  0.49769544  0.75867279  0.27619807  1
  O2-  O142  1  0.49972173  0.75072806  0.60932542  1
  O2-  O143  1  0.49803037  0.75017738  0.93434973  1
  O2-  O144  1  0.06916817  0.17828681  0.09997812  1
  O2-  O145  1  0.06619182  0.18192561  0.42561799  1
  O2-  O146  1  0.06922817  0.17755682  0.75563885  1
  O2-  O147  1  0.07136023  0.67714876  0.09003316  1
  O2-  O148  1  0.07580324  0.67252071  0.41863985  1
  O2-  O149  1  0.07032062  0.67909777  0.76582084  1
  O2-  O150  1  0.56899086  0.17633801  0.09832540  1
  O2-  O151  1  0.57034146  0.17853278  0.43033037  1
  O2-  O152  1  0.57377038  0.17861764  0.76319522  1
  O2-  O153  1  0.57327105  0.68262859  0.09696070  1
  O2-  O154  1  0.56863806  0.68170516  0.43508294  1
  O2-  O155  1  0.57142674  0.68217280  0.75726387  1
  O2-  O156  1  0.17667018  0.42745299  0.24273824  1
  O2-  O157  1  0.17554860  0.42471611  0.57676346  1
  O2-  O158  1  0.17950768  0.43231168  0.90045465  1
  O2-  O159  1  0.17720669  0.93140311  0.23373688  1
  O2-  O160  1  0.17968317  0.93288988  0.56953790  1
  O2-  O161  1  0.17423629  0.92932553  0.90991980  1
  O2-  O162  1  0.67651607  0.42936550  0.23526690  1
  O2-  O163  1  0.68245051  0.42816197  0.57719289  1
  O2-  O164  1  0.68384921  0.42961119  0.89904403  1
  O2-  O165  1  0.68151593  0.92934242  0.23346445  1
  O2-  O166  1  0.67827519  0.92682988  0.57721654  1
  O2-  O167  1  0.68330239  0.93097900  0.89924861  1
  O2-  O168  1  0.42563682  0.31586454  0.09703394  1
  O2-  O169  1  0.42626567  0.32138024  0.42979581  1
  O2-  O170  1  0.43128221  0.32173540  0.76334466  1
  O2-  O171  1  0.42440421  0.82137313  0.10008606  1
  O2-  O172  1  0.42320565  0.81591667  0.42745943  1
  O2-  O173  1  0.42968967  0.82122138  0.75698811  1
  O2-  O174  1  0.93254488  0.32373737  0.08963779  1
  O2-  O175  1  0.93307246  0.32427045  0.42405730  1
  O2-  O176  1  0.92846501  0.31860579  0.75712218  1
  O2-  O177  1  0.93194958  0.82222642  0.08915287  1
  O2-  O178  1  0.93177061  0.82069787  0.42971941  1
  O2-  O179  1  0.92835628  0.82044367  0.76457542  1
  O2-  O180  1  0.31797282  0.07302404  0.23614647  1
  O2-  O181  1  0.31949190  0.06981524  0.58167891  1
  O2-  O182  1  0.31494564  0.06783147  0.90798387  1
  O2-  O183  1  0.31636893  0.57313485  0.24164742  1
  O2-  O184  1  0.32223306  0.57042123  0.56763674  1
  O2-  O185  1  0.31757249  0.57679907  0.91332303  1
  O2-  O186  1  0.83194086  0.06867446  0.24457110  1
  O2-  O187  1  0.82551231  0.07372694  0.57812849  1
  O2-  O188  1  0.82946899  0.06814035  0.91064946  1
  O2-  O189  1  0.82178906  0.56774290  0.23468489  1
  O2-  O190  1  0.81839700  0.57101859  0.56863173  1
  O2-  O191  1  0.82554535  0.57160316  0.91085255  1
  O2-  O192  1  0.03988992  0.08939721  0.27206231  1
  O2-  O193  1  0.03705956  0.08867843  0.60272041  1
  O2-  O194  1  0.03704931  0.08408934  0.92959609  1
  O2-  O195  1  0.04582600  0.58230197  0.26662324  1
  O2-  O196  1  0.04892463  0.57683887  0.60104972  1
  O2-  O197  1  0.04295330  0.58577738  0.93760386  1
  O2-  O198  1  0.53911632  0.07750534  0.26794701  1
  O2-  O199  1  0.54176879  0.07845209  0.59890822  1
  O2-  O200  1  0.54104136  0.08269386  0.93126851  1
  O2-  O201  1  0.53685128  0.58649045  0.26632476  1
  O2-  O202  1  0.54421999  0.58797504  0.60658157  1
  O2-  O203  1  0.54675140  0.58251006  0.92876309  1
  O2-  O204  1  0.16029082  0.20775569  0.27370036  1
  O2-  O205  1  0.16296754  0.20204377  0.60252334  1
  O2-  O206  1  0.16449678  0.20949488  0.92864875  1
  O2-  O207  1  0.16716419  0.70033425  0.26609300  1
  O2-  O208  1  0.17132590  0.70761119  0.60091942  1
  O2-  O209  1  0.16240680  0.70453835  0.93739370  1
  O2-  O210  1  0.67535610  0.19563662  0.26801617  1
  O2-  O211  1  0.67394676  0.19916946  0.59864179  1
  O2-  O212  1  0.67660520  0.20027495  0.93712491  1
  O2-  O213  1  0.66673593  0.71069052  0.26680609  1
  O2-  O214  1  0.66199367  0.71038343  0.60535362  1
  O2-  O215  1  0.67113984  0.71148805  0.93026480  1
  O2-  O216  1  0.08633897  0.46118315  0.06975697  1
  O2-  O217  1  0.08679855  0.45614010  0.39622241  1
  O2-  O218  1  0.08453183  0.44959977  0.73040612  1
  O2-  O219  1  0.08530348  0.95990112  0.06168917  1
  O2-  O220  1  0.08087301  0.96191320  0.40111812  1
  O2-  O221  1  0.08150119  0.96260256  0.73529361  1
  O2-  O222  1  0.58115797  0.45986649  0.06508578  1
  O2-  O223  1  0.57663315  0.45745711  0.40001582  1
  O2-  O224  1  0.58703701  0.45325225  0.72750580  1
  O2-  O225  1  0.58024071  0.95716622  0.06472371  1
  O2-  O226  1  0.58246911  0.95446508  0.40321774  1
  O2-  O227  1  0.58468472  0.95480370  0.72875068  1
  O2-  O228  1  0.20815854  0.32973422  0.06548736  1
  O2-  O229  1  0.20205243  0.33633937  0.39665254  1
  O2-  O230  1  0.20152093  0.32988520  0.72702781  1
  O2-  O231  1  0.19835404  0.83420738  0.06135920  1
  O2-  O232  1  0.19968905  0.82671462  0.39919402  1
  O2-  O233  1  0.20897858  0.83417726  0.73646959  1
  O2-  O234  1  0.71190319  0.33400984  0.06780763  1
  O2-  O235  1  0.70659391  0.32906490  0.40072170  1
  O2-  O236  1  0.70898594  0.33320813  0.72669684  1
  O2-  O237  1  0.71520872  0.83632957  0.06629441  1
  O2-  O238  1  0.71496553  0.83566626  0.40086861  1
  O2-  O239  1  0.70805824  0.83900476  0.73156627  1
  O2-  O240  1  0.45044052  0.42023850  0.26310793  1
  O2-  O241  1  0.45747965  0.42202147  0.59870053  1
  O2-  O242  1  0.44853720  0.42390940  0.93635545  1
  O2-  O243  1  0.44470417  0.91819356  0.28157037  1
  O2-  O244  1  0.45312021  0.91270751  0.60486270  1
  O2-  O245  1  0.45460162  0.91856749  0.92988665  1
  O2-  O246  1  0.95966806  0.41435076  0.27011365  1
  O2-  O247  1  0.95636738  0.41236312  0.60414541  1
  O2-  O248  1  0.95851829  0.41747678  0.93826406  1
  O2-  O249  1  0.96245026  0.91666598  0.26184897  1
  O2-  O250  1  0.95545533  0.92023806  0.59936564  1
  O2-  O251  1  0.95866313  0.91186105  0.93568559  1
  O2-  O252  1  0.32791109  0.28957249  0.26679254  1
  O2-  O253  1  0.33033107  0.29473945  0.59826947  1
  O2-  O254  1  0.33244045  0.28874932  0.92934010  1
  O2-  O255  1  0.33268439  0.79273086  0.27379875  1
  O2-  O256  1  0.33647871  0.79064465  0.60630653  1
  O2-  O257  1  0.32723016  0.79373584  0.93338304  1
  O2-  O258  1  0.83711812  0.29778869  0.27188865  1
  O2-  O259  1  0.84006559  0.28945819  0.60229071  1
  O2-  O260  1  0.83735666  0.29963276  0.93633906  1
  O2-  O261  1  0.83555204  0.78871175  0.26141167  1
  O2-  O262  1  0.82859720  0.79206051  0.59907785  1
  O2-  O263  1  0.83931733  0.79422092  0.93608929  1
  O2-  O264  1  0.41059650  0.04288581  0.06004594  1
  O2-  O265  1  0.41804328  0.04762191  0.40747792  1
  O2-  O266  1  0.41536135  0.04427354  0.73191589  1
  O2-  O267  1  0.41869501  0.55684268  0.06065548  1
  O2-  O268  1  0.41103297  0.54341776  0.39404804  1
  O2-  O269  1  0.41889117  0.54085282  0.73742066  1
  O2-  O270  1  0.91590788  0.03933234  0.06440088  1
  O2-  O271  1  0.91494885  0.04121939  0.39950435  1
  O2-  O272  1  0.91158618  0.04242758  0.73271473  1
  O2-  O273  1  0.91610271  0.54722630  0.06406722  1
  O2-  O274  1  0.91938084  0.54247222  0.40130066  1
  O2-  O275  1  0.91831487  0.54026499  0.73463680  1
  O2-  O276  1  0.28625936  0.15929341  0.06006200  1
  O2-  O277  1  0.28450667  0.16718330  0.40619310  1
  O2-  O278  1  0.29471268  0.16616887  0.73052068  1
  O2-  O279  1  0.28854008  0.66500491  0.06681817  1
  O2-  O280  1  0.29122139  0.66060398  0.39684459  1
  O2-  O281  1  0.29076227  0.66456251  0.73835272  1
  O2-  O282  1  0.81086611  0.16915920  0.05941610  1
  O2-  O283  1  0.80655165  0.16800384  0.39437567  1
  O2-  O284  1  0.79675019  0.16427454  0.73217976  1
  O2-  O285  1  0.79994385  0.66825843  0.06026681  1
  O2-  O286  1  0.79243357  0.66991621  0.39987821  1
  O2-  O287  1  0.78987148  0.66760345  0.73634710  1
