# generated using pymatgen
data_Ca2Al2SiO7
_symmetry_space_group_name_H-M   'P 1'
_cell_length_a   15.45927831
_cell_length_b   15.45838779
_cell_length_c   15.28493515
_cell_angle_alpha   89.99758653
_cell_angle_beta   89.99702522
_cell_angle_gamma   90.00277014
_symmetry_Int_Tables_number   1
_chemical_formula_structural   Ca2Al2SiO7
_chemical_formula_sum   'Ca48 Al48 Si24 O168'
_cell_volume   3652.72529707
_cell_formula_units_Z   24
loop_
 _symmetry_equiv_pos_site_id
 _symmetry_equiv_pos_as_xyz
  1  'x, y, z'
loop_
 _atom_type_symbol
 _atom_type_oxidation_number
  Ca2+  2.0
  Al0+  0.0
  Si0+  0.0
  O2-  -2.0
loop_
 _atom_site_type_symbol
 _atom_site_label
 _atom_site_symmetry_multiplicity
 _atom_site_fract_x
 _atom_site_fract_y
 _atom_site_fract_z
 _atom_site_occupancy
  Ca2+  Ca0  1  0.16840213  0.08128862  0.16697463  1
  Ca2+  Ca1  1  0.17210556  0.08449875  0.50581297  1
  Ca2+  Ca2  1  0.18239138  0.07896002  0.84038530  1
  Ca2+  Ca3  1  0.18063797  0.58456495  0.17036426  1
  Ca2+  Ca4  1  0.17036171  0.57871347  0.50664488  1
  Ca2+  Ca5  1  0.17088037  0.57983587  0.83598254  1
  Ca2+  Ca6  1  0.67154538  0.07704468  0.17146209  1
  Ca2+  Ca7  1  0.66611199  0.08187156  0.50172702  1
  Ca2+  Ca8  1  0.66507421  0.08009092  0.84360785  1
  Ca2+  Ca9  1  0.66909891  0.57655388  0.18150309  1
  Ca2+  Ca10  1  0.66505440  0.58610245  0.49757766  1
  Ca2+  Ca11  1  0.66178299  0.58482350  0.83483067  1
  Ca2+  Ca12  1  0.07633650  0.32876883  0.16948257  1
  Ca2+  Ca13  1  0.08065723  0.32969206  0.49157755  1
  Ca2+  Ca14  1  0.08433778  0.33482337  0.82736621  1
  Ca2+  Ca15  1  0.07686876  0.83660800  0.15792880  1
  Ca2+  Ca16  1  0.08535098  0.82551393  0.49632611  1
  Ca2+  Ca17  1  0.08186092  0.83444453  0.83397003  1
  Ca2+  Ca18  1  0.58348900  0.32908903  0.15850441  1
  Ca2+  Ca19  1  0.58225900  0.33068956  0.49839103  1
  Ca2+  Ca20  1  0.56959626  0.32029937  0.83033209  1
  Ca2+  Ca21  1  0.58788750  0.83266838  0.16807095  1
  Ca2+  Ca22  1  0.57401650  0.82747780  0.49369229  1
  Ca2+  Ca23  1  0.57932234  0.83069460  0.82532180  1
  Ca2+  Ca24  1  0.34363929  0.42862895  0.16949939  1
  Ca2+  Ca25  1  0.33055813  0.41991942  0.50702980  1
  Ca2+  Ca26  1  0.33682128  0.41739498  0.83635764  1
  Ca2+  Ca27  1  0.33238822  0.91979058  0.16866033  1
  Ca2+  Ca28  1  0.34181657  0.91943491  0.50423151  1
  Ca2+  Ca29  1  0.33591864  0.92529258  0.83829646  1
  Ca2+  Ca30  1  0.82646462  0.42039137  0.18006813  1
  Ca2+  Ca31  1  0.82891627  0.41518176  0.49590353  1
  Ca2+  Ca32  1  0.82941812  0.42015389  0.83653466  1
  Ca2+  Ca33  1  0.82357640  0.92203549  0.16981438  1
  Ca2+  Ca34  1  0.82580433  0.91872649  0.49804602  1
  Ca2+  Ca35  1  0.82600580  0.92228388  0.84664137  1
  Ca2+  Ca36  1  0.42398000  0.17387888  0.15417481  1
  Ca2+  Ca37  1  0.41770396  0.16914498  0.50125733  1
  Ca2+  Ca38  1  0.42177736  0.16378051  0.82685739  1
  Ca2+  Ca39  1  0.41748337  0.66745215  0.16640714  1
  Ca2+  Ca40  1  0.42121554  0.67537442  0.49006097  1
  Ca2+  Ca41  1  0.41843897  0.67401654  0.82577584  1
  Ca2+  Ca42  1  0.91399219  0.16145422  0.16663658  1
  Ca2+  Ca43  1  0.92431840  0.17052021  0.48517258  1
  Ca2+  Ca44  1  0.91688030  0.16363169  0.83273021  1
  Ca2+  Ca45  1  0.91201405  0.67300960  0.16118609  1
  Ca2+  Ca46  1  0.92335638  0.65998623  0.49519161  1
  Ca2+  Ca47  1  0.92256018  0.67688986  0.82786624  1
  Al0+  Al48  1  -0.00059073  0.00056263  -0.00025325  1
  Al0+  Al49  1  0.00234750  -0.00189820  0.33419821  1
  Al0+  Al50  1  -0.00103578  0.00045009  0.66665051  1
  Al0+  Al51  1  0.00168037  0.49965684  -0.00050092  1
  Al0+  Al52  1  0.00116229  0.49788670  0.32998219  1
  Al0+  Al53  1  -0.00035416  0.50115493  0.66872907  1
  Al0+  Al54  1  0.50020032  -0.00205969  0.00511790  1
  Al0+  Al55  1  0.49832060  0.00024723  0.33250259  1
  Al0+  Al56  1  0.50178788  -0.00012876  0.66349471  1
  Al0+  Al57  1  0.50019215  0.49941712  -0.00134096  1
  Al0+  Al58  1  0.50015936  0.50177054  0.34043187  1
  Al0+  Al59  1  0.50114263  0.49854702  0.66258608  1
  Al0+  Al60  1  0.24671577  0.25281538  0.00143672  1
  Al0+  Al61  1  0.24968906  0.24921061  0.32681172  1
  Al0+  Al62  1  0.24933585  0.24955074  0.67225096  1
  Al0+  Al63  1  0.25033509  0.74745552  0.00597390  1
  Al0+  Al64  1  0.25089576  0.75138003  0.33322937  1
  Al0+  Al65  1  0.24702878  0.75006270  0.65989566  1
  Al0+  Al66  1  0.74994533  0.25079570  -0.00228891  1
  Al0+  Al67  1  0.75079618  0.25088411  0.33753026  1
  Al0+  Al68  1  0.75006077  0.25146563  0.66559600  1
  Al0+  Al69  1  0.75166461  0.75088238  -0.00327085  1
  Al0+  Al70  1  0.75031285  0.74954897  0.33940049  1
  Al0+  Al71  1  0.75082276  0.75123310  0.66457681  1
  Al0+  Al72  1  0.57039204  0.17697355  0.98684996  1
  Al0+  Al73  1  0.07245384  0.17620111  0.31657664  1
  Al0+  Al74  1  0.92936942  0.82156967  0.98654288  1
  Al0+  Al75  1  0.32233810  0.07341034  0.01623625  1
  Al0+  Al76  1  0.06891059  0.67904073  0.65318104  1
  Al0+  Al77  1  0.42728244  0.32295962  0.98589418  1
  Al0+  Al78  1  0.17868851  0.42975721  0.67988277  1
  Al0+  Al79  1  0.32103571  0.06836510  0.67894718  1
  Al0+  Al80  1  0.82342440  0.57170628  0.34808759  1
  Al0+  Al81  1  0.67754506  0.92596450  0.01446808  1
  Al0+  Al82  1  0.57102873  0.67942709  0.31707961  1
  Al0+  Al83  1  0.67748582  0.42792522  0.34971681  1
  Al0+  Al84  1  0.32030181  0.57216392  0.34949648  1
  Al0+  Al85  1  0.67663489  0.92943165  0.35159481  1
  Al0+  Al86  1  0.32152635  0.56845150  0.01224357  1
  Al0+  Al87  1  0.42827516  0.82248043  0.31378156  1
  Al0+  Al88  1  0.92810402  0.32008381  0.31754304  1
  Al0+  Al89  1  0.57315359  0.67780424  0.65139024  1
  Al0+  Al90  1  0.57221965  0.17877817  0.65016913  1
  Al0+  Al91  1  0.18006848  0.92903710  0.01412328  1
  Al0+  Al92  1  0.82014577  0.07339098  0.01420763  1
  Al0+  Al93  1  0.42808572  0.82098757  0.65336053  1
  Al0+  Al94  1  0.42591230  0.31934274  0.65073005  1
  Al0+  Al95  1  0.82220445  0.06995751  0.34972989  1
  Si0+  Si96  1  0.07318724  0.67748796  0.98371680  1
  Si0+  Si97  1  0.93008947  0.81944643  0.31926356  1
  Si0+  Si98  1  0.17928314  0.92890446  0.34959481  1
  Si0+  Si99  1  0.92897938  0.32310560  0.98306148  1
  Si0+  Si100  1  0.07204716  0.67759476  0.31704706  1
  Si0+  Si101  1  0.68103247  0.43166693  0.01191098  1
  Si0+  Si102  1  0.67835624  0.42729506  0.68487740  1
  Si0+  Si103  1  0.06953395  0.17926866  0.65439620  1
  Si0+  Si104  1  0.31976697  0.07288711  0.34781437  1
  Si0+  Si105  1  0.82264391  0.57105526  0.01170349  1
  Si0+  Si106  1  0.92843884  0.82390472  0.64800869  1
  Si0+  Si107  1  0.82059862  0.57103003  0.68344817  1
  Si0+  Si108  1  0.17381762  0.42780251  0.01997618  1
  Si0+  Si109  1  0.42700878  0.81916661  0.98643189  1
  Si0+  Si110  1  0.57084434  0.17967730  0.31897186  1
  Si0+  Si111  1  0.07003524  0.17903807  0.98240027  1
  Si0+  Si112  1  0.92899347  0.32219685  0.65265336  1
  Si0+  Si113  1  0.18035264  0.42739544  0.34824505  1
  Si0+  Si114  1  0.42854758  0.32147404  0.31937440  1
  Si0+  Si115  1  0.68135053  0.92996419  0.68179848  1
  Si0+  Si116  1  0.57187060  0.67875882  0.98631630  1
  Si0+  Si117  1  0.32218849  0.57290638  0.68182703  1
  Si0+  Si118  1  0.82214979  0.07279423  0.68172470  1
  Si0+  Si119  1  0.17477194  0.92627285  0.68240465  1
  O2-  O120  1  0.25102906  0.00051257  0.06665841  1
  O2-  O121  1  0.24986246  0.00072486  0.39041703  1
  O2-  O122  1  0.24790459  -0.00912312  0.72454266  1
  O2-  O123  1  0.24832948  0.49203345  0.06036054  1
  O2-  O124  1  0.24658780  0.49620544  0.39510485  1
  O2-  O125  1  0.25536172  0.50254962  0.72691603  1
  O2-  O126  1  0.74659092  0.00225843  0.06207743  1
  O2-  O127  1  0.74782494  0.00249122  0.40248023  1
  O2-  O128  1  0.75119911  0.00232777  0.72420996  1
  O2-  O129  1  0.75240410  0.50122203  0.05503010  1
  O2-  O130  1  0.75035895  0.50087636  0.39844598  1
  O2-  O131  1  0.74595783  0.50346014  0.72614380  1
  O2-  O132  1  -0.00401014  0.24426003  0.26717594  1
  O2-  O133  1  -0.00157904  0.24947428  0.61162992  1
  O2-  O134  1  -0.00069826  0.25153191  0.94039991  1
  O2-  O135  1  -0.00262769  0.74495075  0.27594666  1
  O2-  O136  1  -0.00286296  0.75535131  0.60397519  1
  O2-  O137  1  0.00532129  0.74738876  0.94004644  1
  O2-  O138  1  0.50195625  0.25304641  0.27734579  1
  O2-  O139  1  0.49958382  0.24990888  0.59942511  1
  O2-  O140  1  0.49156146  0.24279641  0.93767218  1
  O2-  O141  1  0.50098074  0.75106653  0.26366926  1
  O2-  O142  1  0.49588132  0.74490642  0.60360957  1
  O2-  O143  1  0.50178415  0.75118733  0.94512184  1
  O2-  O144  1  0.06948766  0.17920790  0.08705939  1
  O2-  O145  1  0.07507148  0.17951251  0.43102715  1
  O2-  O146  1  0.06676791  0.17881998  0.75955450  1
  O2-  O147  1  0.07082661  0.67548746  0.08927754  1
  O2-  O148  1  0.07180175  0.67883843  0.42242469  1
  O2-  O149  1  0.06639521  0.67863762  0.76631896  1
  O2-  O150  1  0.57402384  0.18328385  0.10061738  1
  O2-  O151  1  0.56785154  0.17929751  0.42408126  1
  O2-  O152  1  0.57386514  0.17856334  0.76359500  1
  O2-  O153  1  0.57343876  0.67557892  0.09066326  1
  O2-  O154  1  0.56793101  0.68073931  0.43031152  1
  O2-  O155  1  0.57419883  0.68176991  0.76616183  1
  O2-  O156  1  0.18169826  0.42858853  0.24266392  1
  O2-  O157  1  0.17590372  0.43098306  0.56692209  1
  O2-  O158  1  0.16678937  0.43129140  0.91450606  1
  O2-  O159  1  0.17751064  0.92785315  0.24480847  1
  O2-  O160  1  0.16895892  0.93023281  0.57693589  1
  O2-  O161  1  0.18210082  0.92952202  0.90008357  1
  O2-  O162  1  0.67818396  0.42851374  0.23516739  1
  O2-  O163  1  0.68238971  0.42315751  0.58062646  1
  O2-  O164  1  0.68283518  0.43390244  0.90651630  1
  O2-  O165  1  0.67963734  0.93045195  0.23816566  1
  O2-  O166  1  0.68377476  0.92979275  0.57721521  1
  O2-  O167  1  0.68032429  0.92295383  0.90015969  1
  O2-  O168  1  0.43586773  0.32719422  0.09971277  1
  O2-  O169  1  0.42423003  0.31736461  0.42417098  1
  O2-  O170  1  0.42736120  0.31790158  0.76414688  1
  O2-  O171  1  0.42412017  0.81639791  0.09085028  1
  O2-  O172  1  0.42686633  0.82143126  0.42732907  1
  O2-  O173  1  0.43007036  0.82104130  0.76786361  1
  O2-  O174  1  0.92949566  0.32748956  0.08721329  1
  O2-  O175  1  0.93324951  0.32129992  0.43171378  1
  O2-  O176  1  0.92882922  0.32217352  0.75836405  1
  O2-  O177  1  0.92873207  0.81729228  0.09963888  1
  O2-  O178  1  0.93477780  0.82040607  0.42461391  1
  O2-  O179  1  0.92841572  0.82362880  0.75372027  1
  O2-  O180  1  0.31839137  0.07407552  0.24311013  1
  O2-  O181  1  0.31679023  0.06969577  0.56549464  1
  O2-  O182  1  0.32145674  0.07040884  0.90228026  1
  O2-  O183  1  0.31947250  0.57024653  0.23598476  1
  O2-  O184  1  0.31838698  0.57228068  0.57654149  1
  O2-  O185  1  0.31998435  0.57034294  0.89899366  1
  O2-  O186  1  0.82132376  0.06695313  0.23645568  1
  O2-  O187  1  0.82520278  0.07169911  0.57724723  1
  O2-  O188  1  0.82006525  0.07198427  0.89968306  1
  O2-  O189  1  0.82300625  0.57064831  0.23367863  1
  O2-  O190  1  0.82428011  0.56854125  0.57913500  1
  O2-  O191  1  0.82263526  0.56914393  0.90616659  1
  O2-  O192  1  0.04752760  0.07613136  0.26575856  1
  O2-  O193  1  0.04264817  0.08737584  0.60595778  1
  O2-  O194  1  0.04142915  0.08843437  0.93332003  1
  O2-  O195  1  0.05015064  0.58461545  0.26987110  1
  O2-  O196  1  0.03414969  0.58367959  0.59874752  1
  O2-  O197  1  0.04537028  0.58452478  0.93646686  1
  O2-  O198  1  0.54084928  0.08913760  0.27140431  1
  O2-  O199  1  0.54516839  0.08090193  0.59695996  1
  O2-  O200  1  0.54773457  0.07560878  0.93673521  1
  O2-  O201  1  0.54202324  0.57904027  0.26729096  1
  O2-  O202  1  0.55489211  0.57637612  0.60251124  1
  O2-  O203  1  0.54240466  0.58824815  0.93680101  1
  O2-  O204  1  0.16790202  0.20962631  0.25993690  1
  O2-  O205  1  0.16093236  0.20719039  0.60783458  1
  O2-  O206  1  0.16163349  0.20764612  0.93468634  1
  O2-  O207  1  0.16174166  0.71083662  0.26970272  1
  O2-  O208  1  0.16436748  0.70578920  0.59545361  1
  O2-  O209  1  0.16695508  0.70272546  0.93809800  1
  O2-  O210  1  0.66396588  0.20554726  0.27444391  1
  O2-  O211  1  0.67082795  0.20971707  0.59798748  1
  O2-  O212  1  0.66700405  0.21123408  0.93185686  1
  O2-  O213  1  0.67268067  0.70480685  0.26837979  1
  O2-  O214  1  0.67109274  0.70866614  0.59920129  1
  O2-  O215  1  0.66372224  0.70434439  0.93707138  1
  O2-  O216  1  0.08286058  0.45964605  0.06900561  1
  O2-  O217  1  0.08599231  0.45146417  0.39290874  1
  O2-  O218  1  0.08279238  0.46280681  0.73624693  1
  O2-  O219  1  0.08149637  0.95825770  0.06583923  1
  O2-  O220  1  0.08843204  0.95485672  0.39972918  1
  O2-  O221  1  0.08262296  0.95623885  0.73064118  1
  O2-  O222  1  0.59012155  0.45968441  0.05958316  1
  O2-  O223  1  0.58068443  0.45537751  0.40544957  1
  O2-  O224  1  0.58520871  0.45184587  0.73136102  1
  O2-  O225  1  0.57880142  0.94684399  0.06807250  1
  O2-  O226  1  0.57731600  0.95869868  0.40236030  1
  O2-  O227  1  0.58906133  0.95630274  0.72828269  1
  O2-  O228  1  0.19132043  0.33239856  0.06401573  1
  O2-  O229  1  0.20692648  0.33326396  0.39300758  1
  O2-  O230  1  0.20528590  0.33333959  0.73648398  1
  O2-  O231  1  0.20405067  0.82993669  0.06753298  1
  O2-  O232  1  0.20762314  0.83771048  0.39803232  1
  O2-  O233  1  0.19447112  0.83013939  0.72531379  1
  O2-  O234  1  0.70903670  0.34017307  0.05861278  1
  O2-  O235  1  0.70757594  0.33133411  0.40539979  1
  O2-  O236  1  0.71293954  0.33813492  0.73441831  1
  O2-  O237  1  0.71270086  0.82910526  0.06742751  1
  O2-  O238  1  0.70816777  0.83241197  0.40493071  1
  O2-  O239  1  0.71055835  0.83816152  0.72945164  1
  O2-  O240  1  0.45498623  0.41506649  0.27611554  1
  O2-  O241  1  0.45228243  0.41875837  0.59963131  1
  O2-  O242  1  0.46396911  0.41776485  0.92937010  1
  O2-  O243  1  0.45417049  0.92251157  0.26300044  1
  O2-  O244  1  0.46097269  0.91668196  0.59854788  1
  O2-  O245  1  0.45168540  0.91243045  0.94096726  1
  O2-  O246  1  0.96062278  0.41682648  0.26183229  1
  O2-  O247  1  0.95820194  0.41328192  0.60628109  1
  O2-  O248  1  0.95841065  0.41460329  0.93372447  1
  O2-  O249  1  0.96261821  0.90913028  0.27142617  1
  O2-  O250  1  0.95386951  0.91768266  0.60200154  1
  O2-  O251  1  0.95944824  0.91770053  0.93085079  1
  O2-  O252  1  0.33882479  0.29272699  0.26857142  1
  O2-  O253  1  0.32688444  0.28974388  0.59921040  1
  O2-  O254  1  0.32334327  0.30778006  0.93974516  1
  O2-  O255  1  0.32895101  0.79252097  0.26274513  1
  O2-  O256  1  0.32757763  0.80115709  0.60092283  1
  O2-  O257  1  0.33664030  0.78706762  0.93822830  1
  O2-  O258  1  0.82776445  0.29635955  0.26663535  1
  O2-  O259  1  0.83724601  0.29646545  0.60555684  1
  O2-  O260  1  0.83746759  0.29670140  0.93386096  1
  O2-  O261  1  0.83709877  0.79453376  0.27408624  1
  O2-  O262  1  0.83557159  0.79730185  0.60249860  1
  O2-  O263  1  0.83532805  0.78731977  0.92808178  1
  O2-  O264  1  0.42021790  0.04649918  0.06951872  1
  O2-  O265  1  0.41145884  0.04622783  0.39528319  1
  O2-  O266  1  0.41873342  0.03888326  0.73182720  1
  O2-  O267  1  0.41824777  0.53794193  0.06713912  1
  O2-  O268  1  0.41563030  0.54303944  0.40449892  1
  O2-  O269  1  0.41754816  0.54984348  0.72586956  1
  O2-  O270  1  0.91844943  0.04452868  0.06511863  1
  O2-  O271  1  0.92115646  0.03899312  0.40179834  1
  O2-  O272  1  0.91395146  0.04429928  0.73028320  1
  O2-  O273  1  0.91486846  0.54471137  0.05852515  1
  O2-  O274  1  0.92273159  0.54081080  0.39950968  1
  O2-  O275  1  0.90985348  0.53905616  0.73393229  1
  O2-  O276  1  0.29274646  0.17282921  0.06672038  1
  O2-  O277  1  0.28954104  0.16437703  0.39495691  1
  O2-  O278  1  0.28679816  0.16245943  0.73550100  1
  O2-  O279  1  0.28882990  0.66220867  0.07020232  1
  O2-  O280  1  0.28632146  0.66830293  0.40185100  1
  O2-  O281  1  0.29309359  0.66671051  0.72649672  1
  O2-  O282  1  0.79542786  0.17346073  0.06565148  1
  O2-  O283  1  0.79886889  0.16992527  0.40099904  1
  O2-  O284  1  0.79739594  0.16617098  0.72795779  1
  O2-  O285  1  0.79610370  0.66307665  0.05749146  1
  O2-  O286  1  0.79994150  0.66953474  0.40372788  1
  O2-  O287  1  0.79587966  0.66493864  0.72950914  1
