# generated using pymatgen
data_Ca2Al2SiO7
_symmetry_space_group_name_H-M   'P 1'
_cell_length_a   15.46377591
_cell_length_b   15.46435990
_cell_length_c   15.28797679
_cell_angle_alpha   89.99682528
_cell_angle_beta   90.01812448
_cell_angle_gamma   89.99684656
_symmetry_Int_Tables_number   1
_chemical_formula_structural   Ca2Al2SiO7
_chemical_formula_sum   'Ca48 Al48 Si24 O168'
_cell_volume   3655.92676745
_cell_formula_units_Z   24
loop_
 _symmetry_equiv_pos_site_id
 _symmetry_equiv_pos_as_xyz
  1  'x, y, z'
loop_
 _atom_type_symbol
 _atom_type_oxidation_number
  Ca2+  2.0
  Al0+  0.0
  Si0+  0.0
  O2-  -2.0
loop_
 _atom_site_type_symbol
 _atom_site_label
 _atom_site_symmetry_multiplicity
 _atom_site_fract_x
 _atom_site_fract_y
 _atom_site_fract_z
 _atom_site_occupancy
  Ca2+  Ca0  1  0.17703692  0.09179529  0.16873859  1
  Ca2+  Ca1  1  0.17083421  0.09277777  0.49787593  1
  Ca2+  Ca2  1  0.17107010  0.08599404  0.84500829  1
  Ca2+  Ca3  1  0.16681983  0.56854834  0.17225453  1
  Ca2+  Ca4  1  0.16810652  0.57508634  0.50159843  1
  Ca2+  Ca5  1  0.17263561  0.57417675  0.84500863  1
  Ca2+  Ca6  1  0.67066820  0.08888761  0.17692374  1
  Ca2+  Ca7  1  0.67283986  0.08415410  0.50337659  1
  Ca2+  Ca8  1  0.66196546  0.07691827  0.84034296  1
  Ca2+  Ca9  1  0.66168149  0.57585095  0.16650789  1
  Ca2+  Ca10  1  0.65441570  0.57392568  0.50113870  1
  Ca2+  Ca11  1  0.66365458  0.57638967  0.84063059  1
  Ca2+  Ca12  1  0.08996310  0.32635944  0.16175687  1
  Ca2+  Ca13  1  0.08342942  0.32323550  0.49203049  1
  Ca2+  Ca14  1  0.09095650  0.32260476  0.83178640  1
  Ca2+  Ca15  1  0.07201640  0.84033859  0.15985882  1
  Ca2+  Ca16  1  0.07606809  0.83095413  0.49062629  1
  Ca2+  Ca17  1  0.07758754  0.84005938  0.83430980  1
  Ca2+  Ca18  1  0.57633082  0.32908517  0.16011665  1
  Ca2+  Ca19  1  0.57540994  0.33572745  0.49105683  1
  Ca2+  Ca20  1  0.57442404  0.33945231  0.83096538  1
  Ca2+  Ca21  1  0.58829355  0.82018457  0.16124117  1
  Ca2+  Ca22  1  0.59625089  0.82189840  0.49770999  1
  Ca2+  Ca23  1  0.58943161  0.82211594  0.82853851  1
  Ca2+  Ca24  1  0.32697218  0.40211487  0.16862822  1
  Ca2+  Ca25  1  0.33368539  0.40634923  0.49721490  1
  Ca2+  Ca26  1  0.33324071  0.40984469  0.83914334  1
  Ca2+  Ca27  1  0.33203367  0.93190355  0.16997655  1
  Ca2+  Ca28  1  0.33807480  0.92764339  0.50215192  1
  Ca2+  Ca29  1  0.32420109  0.92619879  0.84737943  1
  Ca2+  Ca30  1  0.81782638  0.41546428  0.17102341  1
  Ca2+  Ca31  1  0.81615430  0.41422993  0.50447859  1
  Ca2+  Ca32  1  0.81925690  0.42239368  0.84456991  1
  Ca2+  Ca33  1  0.83780418  0.91999561  0.17148312  1
  Ca2+  Ca34  1  0.83175006  0.92090233  0.49806967  1
  Ca2+  Ca35  1  0.82921854  0.91472194  0.83629202  1
  Ca2+  Ca36  1  0.42092257  0.17168485  0.16222178  1
  Ca2+  Ca37  1  0.42329672  0.17562671  0.49079261  1
  Ca2+  Ca38  1  0.41774403  0.17530908  0.83631750  1
  Ca2+  Ca39  1  0.42761562  0.66380359  0.16326155  1
  Ca2+  Ca40  1  0.42784699  0.66975347  0.49468914  1
  Ca2+  Ca41  1  0.42973749  0.66236530  0.83046849  1
  Ca2+  Ca42  1  0.92782824  0.16085618  0.16367625  1
  Ca2+  Ca43  1  0.92682767  0.16044494  0.49286983  1
  Ca2+  Ca44  1  0.92994780  0.16659898  0.83233954  1
  Ca2+  Ca45  1  0.90911172  0.67760772  0.15906277  1
  Ca2+  Ca46  1  0.91318896  0.67488650  0.49263286  1
  Ca2+  Ca47  1  0.91019200  0.66824722  0.83799441  1
  Al0+  Al48  1  -0.00200101  -0.00068287  -0.00799291  1
  Al0+  Al49  1  -0.00053002  -0.00045642  0.33053220  1
  Al0+  Al50  1  0.00110021  -0.00063396  0.66137817  1
  Al0+  Al51  1  -0.00150749  0.50264892  0.00749266  1
  Al0+  Al52  1  -0.00048234  0.49988900  0.34025713  1
  Al0+  Al53  1  0.00027949  0.49956006  0.66717491  1
  Al0+  Al54  1  0.49912704  -0.00090307  0.00176970  1
  Al0+  Al55  1  0.49994273  -0.00219370  0.33808034  1
  Al0+  Al56  1  0.49968788  0.00091628  0.67356426  1
  Al0+  Al57  1  0.49944107  0.50017154  -0.00426433  1
  Al0+  Al58  1  0.49748466  0.50135122  0.32857868  1
  Al0+  Al59  1  0.49828781  0.50119300  0.66183970  1
  Al0+  Al60  1  0.25178067  0.24957926  -0.00089240  1
  Al0+  Al61  1  0.24994129  0.24860411  0.33655932  1
  Al0+  Al62  1  0.25080787  0.24936828  0.65891720  1
  Al0+  Al63  1  0.24758154  0.74996109  0.00558884  1
  Al0+  Al64  1  0.24932751  0.74878572  0.33358895  1
  Al0+  Al65  1  0.25052954  0.75036701  0.66688780  1
  Al0+  Al66  1  0.75079886  0.24801350  -0.00056968  1
  Al0+  Al67  1  0.75192133  0.24996801  0.34326177  1
  Al0+  Al68  1  0.75157264  0.25026315  0.67508761  1
  Al0+  Al69  1  0.75051800  0.75086400  -0.00611444  1
  Al0+  Al70  1  0.75102240  0.74965581  0.32430338  1
  Al0+  Al71  1  0.75144077  0.75096455  0.66498622  1
  Al0+  Al72  1  0.57491002  0.17591133  0.98516086  1
  Al0+  Al73  1  0.43085935  0.31938025  0.98421785  1
  Al0+  Al74  1  0.93072308  0.82029767  0.98289563  1
  Al0+  Al75  1  0.81880064  0.57318223  0.01576322  1
  Al0+  Al76  1  0.17922532  0.42835664  0.34946832  1
  Al0+  Al77  1  0.43166355  0.31956434  0.65078308  1
  Al0+  Al78  1  0.56885848  0.68134290  0.98441312  1
  Al0+  Al79  1  0.32125354  0.07095026  0.01600620  1
  Al0+  Al80  1  0.17476850  0.92884522  0.01507236  1
  Al0+  Al81  1  0.43012320  0.31931112  0.31702469  1
  Al0+  Al82  1  0.17991524  0.42908943  0.01194569  1
  Al0+  Al83  1  0.67677021  0.42731296  0.01589293  1
  Al0+  Al84  1  0.06890233  0.18110453  0.31814303  1
  Al0+  Al85  1  0.68076930  0.92995295  0.68047439  1
  Al0+  Al86  1  0.56927471  0.68089175  0.31761064  1
  Al0+  Al87  1  0.67723340  0.43029013  0.34728463  1
  Al0+  Al88  1  0.57069566  0.68170858  0.65172006  1
  Al0+  Al89  1  0.67675943  0.43021854  0.68131339  1
  Al0+  Al90  1  0.32217844  0.07020167  0.34994655  1
  Al0+  Al91  1  0.93164618  0.81870056  0.31868285  1
  Al0+  Al92  1  0.57485086  0.17681679  0.32275806  1
  Al0+  Al93  1  0.82172935  0.07061084  0.34628505  1
  Al0+  Al94  1  0.06907724  0.18009934  0.65090386  1
  Al0+  Al95  1  0.06963596  0.18245948  0.98710499  1
  Si0+  Si96  1  0.31914152  0.07213533  0.68258963  1
  Si0+  Si97  1  0.32292105  0.57338194  0.01644125  1
  Si0+  Si98  1  0.93109144  0.81896426  0.64923416  1
  Si0+  Si99  1  0.07340577  0.67504996  0.31681936  1
  Si0+  Si100  1  0.42417095  0.82334056  0.31664513  1
  Si0+  Si101  1  0.82556103  0.07105380  0.68545469  1
  Si0+  Si102  1  0.31936539  0.57264752  0.68119051  1
  Si0+  Si103  1  0.67897617  0.92536352  0.34743218  1
  Si0+  Si104  1  0.42642058  0.82400195  0.65165855  1
  Si0+  Si105  1  0.07432376  0.67716009  0.65224974  1
  Si0+  Si106  1  0.82001224  0.57384780  0.35015635  1
  Si0+  Si107  1  0.92644577  0.32393843  0.65096245  1
  Si0+  Si108  1  0.82390564  0.57245758  0.68252526  1
  Si0+  Si109  1  0.57434555  0.17529768  0.65218844  1
  Si0+  Si110  1  0.67922329  0.92886371  0.01413701  1
  Si0+  Si111  1  0.92669910  0.32550265  0.98504756  1
  Si0+  Si112  1  0.17901272  0.92758282  0.68027104  1
  Si0+  Si113  1  0.18004610  0.42856334  0.68087869  1
  Si0+  Si114  1  0.17792567  0.92808668  0.35025550  1
  Si0+  Si115  1  0.92693737  0.32470844  0.31876173  1
  Si0+  Si116  1  0.82086622  0.07005010  0.01289287  1
  Si0+  Si117  1  0.32137166  0.57401343  0.35175153  1
  Si0+  Si118  1  0.42486018  0.82262825  0.98468998  1
  Si0+  Si119  1  0.07309476  0.67556837  0.98402316  1
  O2-  O120  1  0.24832592  -0.00145280  0.06482596  1
  O2-  O121  1  0.24855592  -0.00686628  0.39703844  1
  O2-  O122  1  0.24944602  -0.00152437  0.72266347  1
  O2-  O123  1  0.25303447  0.50531396  0.05898631  1
  O2-  O124  1  0.25301184  0.50463837  0.39607132  1
  O2-  O125  1  0.24838904  0.50159807  0.72333629  1
  O2-  O126  1  0.74393231  0.00555919  0.05516935  1
  O2-  O127  1  0.74169728  -0.00007283  0.39145670  1
  O2-  O128  1  0.75175938  0.00760196  0.72925021  1
  O2-  O129  1  0.75034522  0.49833737  0.06546744  1
  O2-  O130  1  0.75252437  0.50507955  0.39544614  1
  O2-  O131  1  0.75563512  0.50281201  0.72497378  1
  O2-  O132  1  -0.00438339  0.25747225  0.27249573  1
  O2-  O133  1  -0.00754254  0.25343388  0.60536628  1
  O2-  O134  1  -0.00177494  0.26012960  0.93930024  1
  O2-  O135  1  0.00576400  0.74366955  0.27228631  1
  O2-  O136  1  0.00193541  0.74652154  0.60907981  1
  O2-  O137  1  0.00716299  0.74609403  0.93736721  1
  O2-  O138  1  0.50462650  0.24847097  0.27011752  1
  O2-  O139  1  0.51094335  0.24801531  0.60730830  1
  O2-  O140  1  0.50639335  0.25078278  0.93419401  1
  O2-  O141  1  0.49482699  0.75694525  0.27258788  1
  O2-  O142  1  0.49840983  0.75983410  0.60591780  1
  O2-  O143  1  0.49185575  0.75407357  0.93765417  1
  O2-  O144  1  0.06861836  0.18207575  0.09970426  1
  O2-  O145  1  0.06740843  0.18107507  0.43173729  1
  O2-  O146  1  0.07061867  0.18072121  0.76405094  1
  O2-  O147  1  0.07235679  0.67472234  0.08911053  1
  O2-  O148  1  0.07263250  0.67722848  0.42339660  1
  O2-  O149  1  0.07701601  0.67744234  0.75682963  1
  O2-  O150  1  0.57540815  0.17499285  0.09833014  1
  O2-  O151  1  0.57349496  0.17811403  0.43701857  1
  O2-  O152  1  0.57002777  0.17235789  0.75734034  1
  O2-  O153  1  0.56850715  0.68267593  0.09736535  1
  O2-  O154  1  0.56931944  0.68280352  0.43119876  1
  O2-  O155  1  0.56925540  0.68198176  0.76452320  1
  O2-  O156  1  0.17947843  0.42941050  0.23659002  1
  O2-  O157  1  0.17982178  0.43062462  0.57602399  1
  O2-  O158  1  0.18174884  0.43016861  0.89785671  1
  O2-  O159  1  0.17816763  0.92897049  0.24534898  1
  O2-  O160  1  0.17936173  0.92453460  0.57535480  1
  O2-  O161  1  0.17641020  0.93162471  0.90025030  1
  O2-  O162  1  0.67778350  0.43019264  0.23490033  1
  O2-  O163  1  0.67647012  0.43256577  0.56805658  1
  O2-  O164  1  0.67693042  0.43112952  0.90180008  1
  O2-  O165  1  0.68183816  0.92269747  0.24194636  1
  O2-  O166  1  0.68541502  0.92821593  0.56741020  1
  O2-  O167  1  0.68220537  0.92755727  0.90859170  1
  O2-  O168  1  0.42866328  0.31737879  0.09705327  1
  O2-  O169  1  0.43172690  0.31825589  0.43115559  1
  O2-  O170  1  0.42749983  0.31836461  0.76339662  1
  O2-  O171  1  0.42814666  0.82186796  0.09013375  1
  O2-  O172  1  0.42200060  0.82094781  0.42266024  1
  O2-  O173  1  0.42229283  0.82014205  0.75675634  1
  O2-  O174  1  0.92549303  0.32191155  0.09040869  1
  O2-  O175  1  0.92915162  0.32373529  0.42479880  1
  O2-  O176  1  0.92989409  0.32570076  0.75639055  1
  O2-  O177  1  0.92983058  0.82073488  0.09554399  1
  O2-  O178  1  0.93218023  0.81745281  0.43265977  1
  O2-  O179  1  0.93149803  0.82024211  0.75402612  1
  O2-  O180  1  0.32119007  0.07040625  0.23765515  1
  O2-  O181  1  0.31901084  0.07085808  0.57748104  1
  O2-  O182  1  0.31829984  0.07057066  0.90146739  1
  O2-  O183  1  0.31913112  0.57840598  0.24665059  1
  O2-  O184  1  0.31650050  0.57666976  0.57649428  1
  O2-  O185  1  0.32112199  0.57483262  0.91015189  1
  O2-  O186  1  0.82493983  0.06681342  0.23327195  1
  O2-  O187  1  0.82806965  0.06774392  0.57991504  1
  O2-  O188  1  0.82356125  0.06632520  0.90754079  1
  O2-  O189  1  0.81934699  0.57439367  0.24522407  1
  O2-  O190  1  0.82667526  0.57322733  0.57698687  1
  O2-  O191  1  0.81671288  0.57224377  0.90135050  1
  O2-  O192  1  0.03686076  0.08494044  0.26581145  1
  O2-  O193  1  0.04035481  0.08269306  0.59642642  1
  O2-  O194  1  0.03519112  0.08807117  0.93051635  1
  O2-  O195  1  0.04784174  0.58050898  0.27394442  1
  O2-  O196  1  0.04825005  0.58453680  0.60489662  1
  O2-  O197  1  0.04511227  0.58296115  0.93581683  1
  O2-  O198  1  0.55027378  0.07543230  0.27427729  1
  O2-  O199  1  0.54561614  0.08213940  0.60623084  1
  O2-  O200  1  0.54302776  0.07717458  0.93276712  1
  O2-  O201  1  0.53569133  0.58640165  0.26283189  1
  O2-  O202  1  0.53405361  0.58807576  0.59662381  1
  O2-  O203  1  0.53796684  0.58548246  0.92936463  1
  O2-  O204  1  0.16605236  0.21205323  0.26786044  1
  O2-  O205  1  0.16385116  0.21343389  0.59559417  1
  O2-  O206  1  0.16579171  0.21227203  0.93186038  1
  O2-  O207  1  0.16777370  0.69779176  0.27206367  1
  O2-  O208  1  0.16466639  0.70706735  0.60257604  1
  O2-  O209  1  0.16837702  0.69799790  0.93881193  1
  O2-  O210  1  0.67613516  0.20163718  0.27481869  1
  O2-  O211  1  0.67242659  0.19463966  0.61302511  1
  O2-  O212  1  0.67571926  0.19627988  0.93257794  1
  O2-  O213  1  0.66462095  0.71164514  0.26224788  1
  O2-  O214  1  0.66815087  0.71170477  0.59842465  1
  O2-  O215  1  0.66337933  0.71583351  0.92918281  1
  O2-  O216  1  0.08344283  0.45712837  0.06722518  1
  O2-  O217  1  0.08276515  0.45881520  0.40627309  1
  O2-  O218  1  0.08717844  0.45361831  0.72768600  1
  O2-  O219  1  0.07540471  0.95857479  0.06370599  1
  O2-  O220  1  0.08544598  0.95675622  0.39729903  1
  O2-  O221  1  0.08609725  0.95528661  0.72538683  1
  O2-  O222  1  0.57851955  0.45927661  0.06591893  1
  O2-  O223  1  0.58036719  0.46511931  0.39918820  1
  O2-  O224  1  0.58037084  0.46573773  0.73256370  1
  O2-  O225  1  0.58516874  0.94692401  0.06003544  1
  O2-  O226  1  0.58347200  0.93951921  0.39366330  1
  O2-  O227  1  0.58244466  0.95399384  0.73551262  1
  O2-  O228  1  0.21251505  0.33390497  0.06587589  1
  O2-  O229  1  0.21178194  0.33339271  0.40514562  1
  O2-  O230  1  0.21156231  0.33673396  0.72561187  1
  O2-  O231  1  0.19620888  0.82853061  0.06708497  1
  O2-  O232  1  0.19889150  0.83194574  0.39507751  1
  O2-  O233  1  0.20517207  0.83575484  0.72916848  1
  O2-  O234  1  0.70610716  0.32779014  0.06607396  1
  O2-  O235  1  0.70880948  0.33575164  0.40559334  1
  O2-  O236  1  0.70388163  0.33258101  0.73587859  1
  O2-  O237  1  0.71430784  0.83961249  0.06083884  1
  O2-  O238  1  0.71471080  0.83462371  0.39458033  1
  O2-  O239  1  0.71670644  0.83432522  0.73439891  1
  O2-  O240  1  0.45108522  0.41966137  0.26622054  1
  O2-  O241  1  0.45669862  0.41768601  0.59715199  1
  O2-  O242  1  0.45409643  0.41912934  0.93042502  1
  O2-  O243  1  0.44795405  0.91776481  0.27318098  1
  O2-  O244  1  0.44920215  0.91974857  0.60894522  1
  O2-  O245  1  0.45016008  0.91570375  0.93793289  1
  O2-  O246  1  0.95037809  0.41968859  0.27510541  1
  O2-  O247  1  0.95284416  0.41720660  0.60385146  1
  O2-  O248  1  0.94871982  0.42113447  0.94177523  1
  O2-  O249  1  0.96352040  0.91407585  0.26448994  1
  O2-  O250  1  0.96057106  0.90967849  0.60062613  1
  O2-  O251  1  0.96056868  0.91481625  0.92369559  1
  O2-  O252  1  0.33161186  0.28749674  0.26821229  1
  O2-  O253  1  0.33669474  0.28556027  0.59536702  1
  O2-  O254  1  0.33387156  0.28734857  0.92930663  1
  O2-  O255  1  0.33108945  0.79662123  0.27012727  1
  O2-  O256  1  0.33427595  0.79528092  0.60285671  1
  O2-  O257  1  0.32929383  0.79930229  0.94068650  1
  O2-  O258  1  0.83307039  0.29812682  0.27567125  1
  O2-  O259  1  0.83102613  0.29986661  0.60762696  1
  O2-  O260  1  0.83552252  0.29583494  0.93604643  1
  O2-  O261  1  0.83648381  0.78966773  0.26207634  1
  O2-  O262  1  0.84023575  0.79089905  0.60067596  1
  O2-  O263  1  0.83585717  0.78738488  0.92624676  1
  O2-  O264  1  0.41905933  0.04086488  0.06959871  1
  O2-  O265  1  0.41804072  0.03873359  0.40733049  1
  O2-  O266  1  0.41106484  0.04771909  0.73108650  1
  O2-  O267  1  0.41609382  0.54710202  0.06109197  1
  O2-  O268  1  0.41470255  0.54770575  0.39738651  1
  O2-  O269  1  0.41076281  0.54333763  0.72741841  1
  O2-  O270  1  0.91009103  0.03448567  0.05973046  1
  O2-  O271  1  0.91577636  0.03189932  0.40230166  1
  O2-  O272  1  0.91752154  0.03726760  0.73095064  1
  O2-  O273  1  0.91906967  0.55422241  0.06824588  1
  O2-  O274  1  0.91451256  0.55252276  0.39745771  1
  O2-  O275  1  0.91845725  0.54936270  0.72954379  1
  O2-  O276  1  0.28989151  0.16784899  0.06821688  1
  O2-  O277  1  0.28706238  0.16426079  0.40586375  1
  O2-  O278  1  0.28591546  0.16298685  0.72791523  1
  O2-  O279  1  0.30009923  0.66670544  0.06432280  1
  O2-  O280  1  0.29514257  0.66710546  0.40082694  1
  O2-  O281  1  0.29195955  0.66390657  0.73081167  1
  O2-  O282  1  0.80262067  0.16348928  0.06025654  1
  O2-  O283  1  0.79885298  0.16629668  0.40645561  1
  O2-  O284  1  0.80905308  0.16678520  0.73038295  1
  O2-  O285  1  0.78669820  0.67168925  0.06609229  1
  O2-  O286  1  0.79284351  0.66800796  0.39534477  1
  O2-  O287  1  0.79806367  0.66643352  0.72717658  1
