# generated using pymatgen
data_Ca2Al2SiO7
_symmetry_space_group_name_H-M   'P 1'
_cell_length_a   15.46965705
_cell_length_b   15.46699344
_cell_length_c   15.29177735
_cell_angle_alpha   90.00501067
_cell_angle_beta   89.98930620
_cell_angle_gamma   89.99670241
_symmetry_Int_Tables_number   1
_chemical_formula_structural   Ca2Al2SiO7
_chemical_formula_sum   'Ca48 Al48 Si24 O168'
_cell_volume   3658.84947771
_cell_formula_units_Z   24
loop_
 _symmetry_equiv_pos_site_id
 _symmetry_equiv_pos_as_xyz
  1  'x, y, z'
loop_
 _atom_type_symbol
 _atom_type_oxidation_number
  Ca2+  2.0
  Al0+  0.0
  Si0+  0.0
  O2-  -2.0
loop_
 _atom_site_type_symbol
 _atom_site_label
 _atom_site_symmetry_multiplicity
 _atom_site_fract_x
 _atom_site_fract_y
 _atom_site_fract_z
 _atom_site_occupancy
  Ca2+  Ca0  1  0.16517861  0.07597685  0.17480173  1
  Ca2+  Ca1  1  0.16637729  0.07415263  0.51352549  1
  Ca2+  Ca2  1  0.16167652  0.08093591  0.82872437  1
  Ca2+  Ca3  1  0.17437943  0.58890679  0.16700124  1
  Ca2+  Ca4  1  0.17081954  0.58830983  0.50933671  1
  Ca2+  Ca5  1  0.17653342  0.59776869  0.83033103  1
  Ca2+  Ca6  1  0.67272599  0.08494555  0.16877925  1
  Ca2+  Ca7  1  0.67015910  0.08722674  0.50941004  1
  Ca2+  Ca8  1  0.67742974  0.08444373  0.83304951  1
  Ca2+  Ca9  1  0.68076530  0.57253204  0.17074551  1
  Ca2+  Ca10  1  0.67125318  0.57303219  0.50542181  1
  Ca2+  Ca11  1  0.66957197  0.57350076  0.83763078  1
  Ca2+  Ca12  1  0.06857505  0.33639161  0.16199203  1
  Ca2+  Ca13  1  0.07225564  0.33029380  0.49802890  1
  Ca2+  Ca14  1  0.06842471  0.32853624  0.82370909  1
  Ca2+  Ca15  1  0.07413216  0.83514281  0.16574678  1
  Ca2+  Ca16  1  0.07816400  0.83614473  0.50214487  1
  Ca2+  Ca17  1  0.07522489  0.82952752  0.82423615  1
  Ca2+  Ca18  1  0.59529345  0.33258889  0.16729661  1
  Ca2+  Ca19  1  0.59218847  0.32482909  0.49877004  1
  Ca2+  Ca20  1  0.58947456  0.33196913  0.82465738  1
  Ca2+  Ca21  1  0.58177953  0.82900090  0.16184682  1
  Ca2+  Ca22  1  0.57845608  0.82912032  0.50115182  1
  Ca2+  Ca23  1  0.57590682  0.82200869  0.81983001  1
  Ca2+  Ca24  1  0.33198985  0.42212072  0.16709352  1
  Ca2+  Ca25  1  0.32970739  0.42143718  0.50948984  1
  Ca2+  Ca26  1  0.33258991  0.42948448  0.83578769  1
  Ca2+  Ca27  1  0.32306487  0.91804623  0.17569609  1
  Ca2+  Ca28  1  0.32216818  0.91782696  0.51273366  1
  Ca2+  Ca29  1  0.32898300  0.91491482  0.82817833  1
  Ca2+  Ca30  1  0.83081421  0.41982901  0.17332761  1
  Ca2+  Ca31  1  0.82736412  0.41101770  0.50423019  1
  Ca2+  Ca32  1  0.82587576  0.41484425  0.83942325  1
  Ca2+  Ca33  1  0.84328304  0.92169152  0.16857903  1
  Ca2+  Ca34  1  0.83993148  0.92242579  0.50829444  1
  Ca2+  Ca35  1  0.84895770  0.92807343  0.83466681  1
  Ca2+  Ca36  1  0.42586371  0.16799723  0.16533396  1
  Ca2+  Ca37  1  0.42956984  0.15526660  0.50026701  1
  Ca2+  Ca38  1  0.42387704  0.16758589  0.82228330  1
  Ca2+  Ca39  1  0.41828188  0.66454087  0.16038601  1
  Ca2+  Ca40  1  0.41978602  0.66485857  0.50634297  1
  Ca2+  Ca41  1  0.41975508  0.66519232  0.82024879  1
  Ca2+  Ca42  1  0.91012102  0.17883609  0.16164434  1
  Ca2+  Ca43  1  0.91364586  0.17569816  0.50425789  1
  Ca2+  Ca44  1  0.91192053  0.17408831  0.82519391  1
  Ca2+  Ca45  1  0.90568530  0.67493316  0.16112697  1
  Ca2+  Ca46  1  0.91436824  0.67777562  0.49422633  1
  Ca2+  Ca47  1  0.91485058  0.67649764  0.82499195  1
  Al0+  Al48  1  0.00124045  -0.00053574  0.00330028  1
  Al0+  Al49  1  0.00096328  -0.00132672  0.33467815  1
  Al0+  Al50  1  0.00062588  0.00135563  0.66943382  1
  Al0+  Al51  1  0.00227263  0.50151352  -0.00343798  1
  Al0+  Al52  1  0.00316431  0.50262343  0.33153709  1
  Al0+  Al53  1  -0.00187788  0.50143279  0.65950819  1
  Al0+  Al54  1  0.49884469  0.00036381  0.00058440  1
  Al0+  Al55  1  0.50086516  0.00010034  0.32522541  1
  Al0+  Al56  1  0.49930496  -0.00096039  0.66372321  1
  Al0+  Al57  1  0.49906854  0.49868980  0.00916256  1
  Al0+  Al58  1  0.50110175  0.49947209  0.33536294  1
  Al0+  Al59  1  0.49980707  0.49837671  0.66975236  1
  Al0+  Al60  1  0.25256578  0.24950657  0.00136930  1
  Al0+  Al61  1  0.25368550  0.25081826  0.33278970  1
  Al0+  Al62  1  0.24884214  0.24997257  0.66857368  1
  Al0+  Al63  1  0.24923738  0.75192168  0.00662086  1
  Al0+  Al64  1  0.24936337  0.75182540  0.33693924  1
  Al0+  Al65  1  0.24933026  0.75119151  0.66798854  1
  Al0+  Al66  1  0.75041432  0.24641436  0.00339826  1
  Al0+  Al67  1  0.75032374  0.24867686  0.32785318  1
  Al0+  Al68  1  0.74811605  0.24887754  0.66769077  1
  Al0+  Al69  1  0.74675583  0.75053001  -0.00423712  1
  Al0+  Al70  1  0.74881571  0.75077475  0.33092891  1
  Al0+  Al71  1  0.74772345  0.74861840  0.65740463  1
  Al0+  Al72  1  0.17902898  0.93122135  0.34950416  1
  Al0+  Al73  1  0.82109172  0.06733732  0.01525764  1
  Al0+  Al74  1  0.92805914  0.82186923  0.65164887  1
  Al0+  Al75  1  0.82364678  0.57355235  0.34941416  1
  Al0+  Al76  1  0.92875794  0.32122889  0.98603964  1
  Al0+  Al77  1  0.07198389  0.17958106  0.65284100  1
  Al0+  Al78  1  0.82366211  0.57410048  0.01150092  1
  Al0+  Al79  1  0.42878654  0.82042588  0.65173466  1
  Al0+  Al80  1  0.81901650  0.06832220  0.67900565  1
  Al0+  Al81  1  0.57109398  0.67400566  0.65047403  1
  Al0+  Al82  1  0.68105177  0.42758395  0.01596669  1
  Al0+  Al83  1  0.32321464  0.07264322  0.68224387  1
  Al0+  Al84  1  0.92850986  0.82022789  0.98593077  1
  Al0+  Al85  1  0.92886214  0.82065422  0.31784052  1
  Al0+  Al86  1  0.31895771  0.57098120  0.01428830  1
  Al0+  Al87  1  0.07098548  0.67928600  0.65193135  1
  Al0+  Al88  1  0.31803498  0.56844376  0.67887945  1
  Al0+  Al89  1  0.93126858  0.32100890  0.31865859  1
  Al0+  Al90  1  0.56925306  0.17969163  0.65570480  1
  Al0+  Al91  1  0.57048013  0.17945465  0.31718203  1
  Al0+  Al92  1  0.17854983  0.92956727  0.68539745  1
  Al0+  Al93  1  0.68185662  0.42774311  0.35103950  1
  Al0+  Al94  1  0.92581282  0.32140136  0.65227345  1
  Al0+  Al95  1  0.68175642  0.42960464  0.68007422  1
  Si0+  Si96  1  0.67656578  0.92483006  0.68103874  1
  Si0+  Si97  1  0.42705740  0.82111140  0.98674444  1
  Si0+  Si98  1  0.82303313  0.57478516  0.68125975  1
  Si0+  Si99  1  0.42877406  0.81916540  0.31686850  1
  Si0+  Si100  1  0.32442027  0.07264519  0.01782286  1
  Si0+  Si101  1  0.67608160  0.92861756  0.34683725  1
  Si0+  Si102  1  0.07427907  0.17832495  0.31798450  1
  Si0+  Si103  1  0.18105810  0.93140931  0.01781412  1
  Si0+  Si104  1  0.07507272  0.67923723  0.31447098  1
  Si0+  Si105  1  0.07530791  0.67953789  0.98430728  1
  Si0+  Si106  1  0.32110281  0.57127299  0.34914976  1
  Si0+  Si107  1  0.07438210  0.17777000  0.98581733  1
  Si0+  Si108  1  0.42677735  0.32258497  0.65240292  1
  Si0+  Si109  1  0.67377112  0.92850384  0.01560127  1
  Si0+  Si110  1  0.17858251  0.42455141  0.01631849  1
  Si0+  Si111  1  0.81942082  0.06913277  0.34795823  1
  Si0+  Si112  1  0.17984824  0.42798930  0.34745093  1
  Si0+  Si113  1  0.56971479  0.17921748  0.98402908  1
  Si0+  Si114  1  0.42717250  0.32498445  0.31507531  1
  Si0+  Si115  1  0.17320406  0.42656908  0.68277037  1
  Si0+  Si116  1  0.42842986  0.32175822  0.98488825  1
  Si0+  Si117  1  0.57005496  0.67750508  0.31557864  1
  Si0+  Si118  1  0.56740669  0.67786552  0.98618490  1
  Si0+  Si119  1  0.32408198  0.07216132  0.34887534  1
  O2-  O120  1  0.25119663  0.00401013  0.05969643  1
  O2-  O121  1  0.25183594  0.00881605  0.39315130  1
  O2-  O122  1  0.25045898  0.00285650  0.73482313  1
  O2-  O123  1  0.24391274  0.49689873  0.06150142  1
  O2-  O124  1  0.25108327  0.49899623  0.38940229  1
  O2-  O125  1  0.24087327  0.49684234  0.72692863  1
  O2-  O126  1  0.74716817  -0.00892702  0.06157302  1
  O2-  O127  1  0.74870904  -0.00274602  0.38900016  1
  O2-  O128  1  0.74887949  -0.01125105  0.72623310  1
  O2-  O129  1  0.75771921  0.49669716  0.06302947  1
  O2-  O130  1  0.75573888  0.49800845  0.40009424  1
  O2-  O131  1  0.75638141  0.50444848  0.72587750  1
  O2-  O132  1  0.00786144  0.24749518  0.27145271  1
  O2-  O133  1  0.00201354  0.25304387  0.60302723  1
  O2-  O134  1  0.00663115  0.24754660  0.94300859  1
  O2-  O135  1  0.00113683  0.74274046  0.27105654  1
  O2-  O136  1  -0.00300886  0.74777576  0.60055739  1
  O2-  O137  1  -0.00139204  0.73988268  0.94219829  1
  O2-  O138  1  0.49686460  0.25651580  0.27154224  1
  O2-  O139  1  0.49065546  0.24981849  0.60806709  1
  O2-  O140  1  0.50158020  0.25330845  0.94293396  1
  O2-  O141  1  0.49823052  0.74814944  0.27226355  1
  O2-  O142  1  0.50121978  0.74907655  0.60105632  1
  O2-  O143  1  0.49681667  0.74976731  0.94449024  1
  O2-  O144  1  0.07543499  0.17802850  0.09194364  1
  O2-  O145  1  0.07471588  0.17990884  0.42273525  1
  O2-  O146  1  0.06984410  0.18158000  0.76693585  1
  O2-  O147  1  0.08278009  0.68521169  0.08970740  1
  O2-  O148  1  0.08091103  0.68171039  0.41909439  1
  O2-  O149  1  0.07130011  0.68200867  0.76597608  1
  O2-  O150  1  0.56663473  0.17720534  0.08936598  1
  O2-  O151  1  0.56894134  0.17615117  0.42970172  1
  O2-  O152  1  0.57085637  0.18226101  0.76905754  1
  O2-  O153  1  0.56529918  0.68061268  0.09177030  1
  O2-  O154  1  0.56769524  0.67781442  0.42002550  1
  O2-  O155  1  0.56812431  0.67412981  0.76482454  1
  O2-  O156  1  0.18199769  0.42796535  0.24213033  1
  O2-  O157  1  0.17742915  0.42575855  0.57676337  1
  O2-  O158  1  0.18327737  0.41918412  0.91169845  1
  O2-  O159  1  0.18159252  0.93187248  0.23531123  1
  O2-  O160  1  0.17968567  0.93044442  0.57187535  1
  O2-  O161  1  0.18222271  0.92953618  0.91358899  1
  O2-  O162  1  0.68269732  0.42996680  0.23735881  1
  O2-  O163  1  0.68178526  0.42768146  0.56734422  1
  O2-  O164  1  0.67755236  0.42914516  0.90261360  1
  O2-  O165  1  0.67371252  0.92989865  0.24138064  1
  O2-  O166  1  0.67521509  0.92828898  0.57508666  1
  O2-  O167  1  0.66513987  0.93279981  0.91118212  1
  O2-  O168  1  0.42506435  0.31913740  0.09008845  1
  O2-  O169  1  0.42261001  0.32662496  0.41981554  1
  O2-  O170  1  0.42988824  0.32443236  0.75835688  1
  O2-  O171  1  0.42811717  0.82030434  0.09253740  1
  O2-  O172  1  0.42987717  0.81969600  0.42107608  1
  O2-  O173  1  0.43059811  0.81833838  0.76620422  1
  O2-  O174  1  0.92979286  0.31928536  0.09963980  1
  O2-  O175  1  0.93069656  0.31762107  0.43097791  1
  O2-  O176  1  0.92487933  0.31890270  0.76603497  1
  O2-  O177  1  0.93263696  0.82228180  0.09930838  1
  O2-  O178  1  0.92992954  0.82374898  0.42992464  1
  O2-  O179  1  0.92983173  0.82109275  0.76554736  1
  O2-  O180  1  0.32371129  0.06935499  0.24241465  1
  O2-  O181  1  0.32424200  0.06895739  0.56846859  1
  O2-  O182  1  0.32892965  0.07252804  0.91371556  1
  O2-  O183  1  0.32025210  0.57205394  0.24355095  1
  O2-  O184  1  0.31838976  0.56569872  0.56542535  1
  O2-  O185  1  0.31967767  0.57217140  0.90193986  1
  O2-  O186  1  0.81864247  0.06822145  0.24241790  1
  O2-  O187  1  0.81592170  0.07010775  0.56553964  1
  O2-  O188  1  0.81980415  0.06839346  0.90267085  1
  O2-  O189  1  0.81971079  0.57422067  0.23550673  1
  O2-  O190  1  0.82111392  0.57539781  0.57590829  1
  O2-  O191  1  0.81770683  0.57654344  0.89836625  1
  O2-  O192  1  0.04664223  0.08499226  0.27219578  1
  O2-  O193  1  0.04206873  0.08216140  0.60068582  1
  O2-  O194  1  0.04814715  0.08401424  0.94179802  1
  O2-  O195  1  0.05851278  0.58353729  0.26891786  1
  O2-  O196  1  0.05129799  0.57952689  0.59814855  1
  O2-  O197  1  0.06408716  0.58241793  0.94151250  1
  O2-  O198  1  0.53752331  0.08445506  0.25864752  1
  O2-  O199  1  0.54282731  0.08295573  0.59981866  1
  O2-  O200  1  0.53771803  0.08812238  0.93802144  1
  O2-  O201  1  0.54026300  0.58610717  0.26816679  1
  O2-  O202  1  0.53567605  0.57827084  0.59684053  1
  O2-  O203  1  0.53694738  0.58552152  0.94249366  1
  O2-  O204  1  0.16991182  0.20059794  0.27246747  1
  O2-  O205  1  0.17178202  0.20381694  0.60006952  1
  O2-  O206  1  0.16958625  0.20022415  0.94127860  1
  O2-  O207  1  0.16717435  0.71178194  0.26656299  1
  O2-  O208  1  0.16877304  0.70960083  0.59942867  1
  O2-  O209  1  0.16590483  0.71577947  0.93728870  1
  O2-  O210  1  0.66627885  0.20854593  0.26078869  1
  O2-  O211  1  0.66282546  0.21387955  0.59931746  1
  O2-  O212  1  0.66291329  0.20296393  0.93927492  1
  O2-  O213  1  0.66003571  0.70843935  0.26677660  1
  O2-  O214  1  0.66759208  0.70026127  0.59398628  1
  O2-  O215  1  0.65783710  0.70444931  0.93675050  1
  O2-  O216  1  0.08417042  0.44870232  0.06074064  1
  O2-  O217  1  0.08860623  0.45465123  0.39479251  1
  O2-  O218  1  0.07850198  0.45070811  0.72651293  1
  O2-  O219  1  0.09039656  0.95980838  0.06717996  1
  O2-  O220  1  0.08239189  0.96021065  0.40285943  1
  O2-  O221  1  0.08149468  0.95987848  0.73964501  1
  O2-  O222  1  0.58332366  0.45705609  0.07089375  1
  O2-  O223  1  0.58140709  0.45581788  0.40013675  1
  O2-  O224  1  0.58467924  0.45881768  0.73425767  1
  O2-  O225  1  0.58252705  0.95848028  0.06690624  1
  O2-  O226  1  0.58409316  0.95841046  0.39261267  1
  O2-  O227  1  0.58449398  0.95321681  0.72819182  1
  O2-  O228  1  0.20874512  0.33341964  0.06667937  1
  O2-  O229  1  0.20854756  0.33628932  0.39494397  1
  O2-  O230  1  0.19913387  0.33421407  0.73051108  1
  O2-  O231  1  0.21153346  0.84179528  0.06862641  1
  O2-  O232  1  0.21325888  0.83565917  0.40197346  1
  O2-  O233  1  0.21044638  0.83258088  0.73901436  1
  O2-  O234  1  0.70578584  0.32796559  0.06757968  1
  O2-  O235  1  0.70867373  0.32660412  0.39893212  1
  O2-  O236  1  0.71225298  0.33377044  0.73530902  1
  O2-  O237  1  0.69380518  0.83252262  0.05864732  1
  O2-  O238  1  0.69920784  0.83567732  0.39247021  1
  O2-  O239  1  0.69545064  0.82821117  0.72351482  1
  O2-  O240  1  0.45239398  0.41883087  0.26816751  1
  O2-  O241  1  0.45589478  0.41353672  0.60397294  1
  O2-  O242  1  0.45367830  0.41576082  0.94125256  1
  O2-  O243  1  0.45652313  0.91006706  0.26651520  1
  O2-  O244  1  0.45674321  0.91760084  0.59689162  1
  O2-  O245  1  0.45367903  0.91365946  0.94112780  1
  O2-  O246  1  0.96308907  0.41837825  0.26549562  1
  O2-  O247  1  0.94879889  0.42020055  0.59872774  1
  O2-  O248  1  0.95645085  0.41909546  0.93270922  1
  O2-  O249  1  0.96448995  0.91690800  0.26387529  1
  O2-  O250  1  0.95940903  0.91999611  0.60105454  1
  O2-  O251  1  0.96640564  0.91605661  0.93493366  1
  O2-  O252  1  0.33466555  0.29783814  0.26537203  1
  O2-  O253  1  0.33125287  0.30368520  0.60825966  1
  O2-  O254  1  0.33764103  0.29243828  0.93661690  1
  O2-  O255  1  0.33664989  0.79054507  0.26962708  1
  O2-  O256  1  0.33164812  0.79043001  0.59919829  1
  O2-  O257  1  0.33447498  0.79423377  0.94211035  1
  O2-  O258  1  0.83648067  0.28645216  0.26355778  1
  O2-  O259  1  0.83119045  0.28414354  0.59828011  1
  O2-  O260  1  0.83253709  0.28517933  0.93505466  1
  O2-  O261  1  0.82992410  0.79535265  0.26408158  1
  O2-  O262  1  0.82869630  0.79953230  0.59799284  1
  O2-  O263  1  0.82873592  0.79890410  0.93393529  1
  O2-  O264  1  0.41411459  0.04098470  0.06820688  1
  O2-  O265  1  0.41717133  0.04081952  0.39159441  1
  O2-  O266  1  0.42153969  0.04194241  0.73536135  1
  O2-  O267  1  0.41288238  0.53854356  0.07291416  1
  O2-  O268  1  0.41324024  0.54483471  0.39515067  1
  O2-  O269  1  0.41285364  0.53523883  0.73498991  1
  O2-  O270  1  0.91788972  0.03819850  0.07080610  1
  O2-  O271  1  0.91160650  0.04205599  0.39352505  1
  O2-  O272  1  0.91562505  0.04254985  0.73476322  1
  O2-  O273  1  0.92664456  0.55665097  0.06013860  1
  O2-  O274  1  0.92655215  0.55411915  0.39580031  1
  O2-  O275  1  0.91839352  0.55327034  0.72510033  1
  O2-  O276  1  0.29952675  0.16526808  0.06574215  1
  O2-  O277  1  0.30758810  0.16886469  0.39104733  1
  O2-  O278  1  0.29829512  0.17245378  0.73523994  1
  O2-  O279  1  0.28875795  0.66722915  0.07154119  1
  O2-  O280  1  0.29238830  0.66266679  0.39556524  1
  O2-  O281  1  0.29046033  0.66546112  0.73331299  1
  O2-  O282  1  0.78640955  0.16152748  0.07144046  1
  O2-  O283  1  0.78952866  0.16049084  0.39319669  1
  O2-  O284  1  0.78200720  0.16199665  0.73452383  1
  O2-  O285  1  0.78716119  0.67089487  0.06528823  1
  O2-  O286  1  0.78946190  0.67164314  0.39974579  1
  O2-  O287  1  0.79468391  0.66856008  0.72594988  1
