# generated using pymatgen
data_Ca2Al2SiO7
_symmetry_space_group_name_H-M   'P 1'
_cell_length_a   15.45694240
_cell_length_b   15.45618579
_cell_length_c   15.28243918
_cell_angle_alpha   89.98885455
_cell_angle_beta   89.99066658
_cell_angle_gamma   89.98493306
_symmetry_Int_Tables_number   1
_chemical_formula_structural   Ca2Al2SiO7
_chemical_formula_sum   'Ca48 Al48 Si24 O168'
_cell_volume   3651.05659561
_cell_formula_units_Z   24
loop_
 _symmetry_equiv_pos_site_id
 _symmetry_equiv_pos_as_xyz
  1  'x, y, z'
loop_
 _atom_type_symbol
 _atom_type_oxidation_number
  Ca2+  2.0
  Al0+  0.0
  Si0+  0.0
  O2-  -2.0
loop_
 _atom_site_type_symbol
 _atom_site_label
 _atom_site_symmetry_multiplicity
 _atom_site_fract_x
 _atom_site_fract_y
 _atom_site_fract_z
 _atom_site_occupancy
  Ca2+  Ca0  1  0.16923344  0.08216202  0.16812180  1
  Ca2+  Ca1  1  0.16388324  0.07505807  0.50223693  1
  Ca2+  Ca2  1  0.17303487  0.08505055  0.84319528  1
  Ca2+  Ca3  1  0.17494104  0.58578834  0.16754041  1
  Ca2+  Ca4  1  0.17402133  0.58199589  0.51092144  1
  Ca2+  Ca5  1  0.17735435  0.59140568  0.83633016  1
  Ca2+  Ca6  1  0.66820754  0.08691725  0.17298362  1
  Ca2+  Ca7  1  0.67438778  0.08331405  0.50550104  1
  Ca2+  Ca8  1  0.66751112  0.07814698  0.83677816  1
  Ca2+  Ca9  1  0.66552277  0.58234660  0.16373033  1
  Ca2+  Ca10  1  0.66851156  0.58577831  0.50814755  1
  Ca2+  Ca11  1  0.67117448  0.58299204  0.84165311  1
  Ca2+  Ca12  1  0.07038014  0.32928370  0.15883618  1
  Ca2+  Ca13  1  0.07378724  0.33177432  0.49392033  1
  Ca2+  Ca14  1  0.08170573  0.33030133  0.83529924  1
  Ca2+  Ca15  1  0.07827177  0.83823036  0.16171070  1
  Ca2+  Ca16  1  0.08187109  0.82980659  0.50085202  1
  Ca2+  Ca17  1  0.07007592  0.82736522  0.82791567  1
  Ca2+  Ca18  1  0.58458028  0.32289892  0.16318515  1
  Ca2+  Ca19  1  0.57232863  0.33260699  0.49318227  1
  Ca2+  Ca20  1  0.58398370  0.33193190  0.83390212  1
  Ca2+  Ca21  1  0.58112126  0.82191326  0.15706947  1
  Ca2+  Ca22  1  0.59495785  0.82269435  0.50136546  1
  Ca2+  Ca23  1  0.58135296  0.82377796  0.83001129  1
  Ca2+  Ca24  1  0.33908075  0.42085807  0.16738781  1
  Ca2+  Ca25  1  0.33827489  0.41758040  0.50802011  1
  Ca2+  Ca26  1  0.33879402  0.42611391  0.83708556  1
  Ca2+  Ca27  1  0.33213877  0.91948939  0.16704001  1
  Ca2+  Ca28  1  0.32668488  0.91415715  0.50144447  1
  Ca2+  Ca29  1  0.33341148  0.91912834  0.84507187  1
  Ca2+  Ca30  1  0.83018971  0.41327294  0.16598025  1
  Ca2+  Ca31  1  0.83071769  0.42084183  0.50630396  1
  Ca2+  Ca32  1  0.82988261  0.42905954  0.84480183  1
  Ca2+  Ca33  1  0.83476633  0.92347521  0.17157487  1
  Ca2+  Ca34  1  0.82843711  0.92781792  0.51133897  1
  Ca2+  Ca35  1  0.83102048  0.91262284  0.83282131  1
  Ca2+  Ca36  1  0.42577744  0.16544894  0.15869941  1
  Ca2+  Ca37  1  0.42366544  0.17819976  0.49278021  1
  Ca2+  Ca38  1  0.42165995  0.16915295  0.83088973  1
  Ca2+  Ca39  1  0.42547031  0.67044086  0.15796714  1
  Ca2+  Ca40  1  0.42958497  0.66161871  0.49748263  1
  Ca2+  Ca41  1  0.42502555  0.65973040  0.82987607  1
  Ca2+  Ca42  1  0.91615355  0.17538975  0.15928028  1
  Ca2+  Ca43  1  0.90828905  0.16940817  0.49314863  1
  Ca2+  Ca44  1  0.91715162  0.17028156  0.83352494  1
  Ca2+  Ca45  1  0.91690991  0.67417293  0.15488977  1
  Ca2+  Ca46  1  0.91514956  0.67070171  0.50313590  1
  Ca2+  Ca47  1  0.91031677  0.67319199  0.82581645  1
  Al0+  Al48  1  -0.00007972  -0.00035508  -0.00821766  1
  Al0+  Al49  1  0.00043050  -0.00042143  0.34327610  1
  Al0+  Al50  1  0.00034273  0.00046672  0.66788469  1
  Al0+  Al51  1  0.00118515  0.50098334  0.00075196  1
  Al0+  Al52  1  0.00146675  0.50130802  0.32962880  1
  Al0+  Al53  1  0.00089809  0.49856523  0.66712887  1
  Al0+  Al54  1  0.49984939  -0.00016836  -0.00213527  1
  Al0+  Al55  1  0.49914018  -0.00233413  0.33438893  1
  Al0+  Al56  1  0.49992110  -0.00037874  0.66753424  1
  Al0+  Al57  1  0.50115993  0.49862235  0.00710880  1
  Al0+  Al58  1  0.50182549  0.50081578  0.32572109  1
  Al0+  Al59  1  0.49892833  0.49936217  0.66251328  1
  Al0+  Al60  1  0.25023059  0.24961851  0.00306118  1
  Al0+  Al61  1  0.24862073  0.25170740  0.33150840  1
  Al0+  Al62  1  0.24849335  0.24976099  0.66122238  1
  Al0+  Al63  1  0.24880810  0.75164132  0.00396105  1
  Al0+  Al64  1  0.25044096  0.74944369  0.33881398  1
  Al0+  Al65  1  0.24998038  0.74944735  0.66803925  1
  Al0+  Al66  1  0.74964122  0.25081972  -0.00602950  1
  Al0+  Al67  1  0.74857878  0.25282356  0.33207857  1
  Al0+  Al68  1  0.75045829  0.24840219  0.67097982  1
  Al0+  Al69  1  0.74935847  0.75026504  -0.00204660  1
  Al0+  Al70  1  0.75225943  0.75019759  0.32875518  1
  Al0+  Al71  1  0.74962960  0.75152642  0.66483920  1
  Al0+  Al72  1  0.17981051  0.92949684  0.34862855  1
  Al0+  Al73  1  0.67791551  0.92891204  0.68312723  1
  Al0+  Al74  1  0.56904815  0.67694953  0.98355596  1
  Al0+  Al75  1  0.07169896  0.17940415  0.98585634  1
  Al0+  Al76  1  0.57339376  0.68104157  0.31775701  1
  Al0+  Al77  1  0.92843241  0.82079309  0.98685782  1
  Al0+  Al78  1  0.56965940  0.68007834  0.65328296  1
  Al0+  Al79  1  0.67978453  0.42713504  0.01703974  1
  Al0+  Al80  1  0.42769718  0.82075839  0.98620462  1
  Al0+  Al81  1  0.56982142  0.17771088  0.31999214  1
  Al0+  Al82  1  0.82184758  0.57347362  0.01628905  1
  Al0+  Al83  1  0.82104771  0.56948878  0.67808234  1
  Al0+  Al84  1  0.82268155  0.07268734  0.68578941  1
  Al0+  Al85  1  0.81796406  0.07227529  0.34469664  1
  Al0+  Al86  1  0.43005893  0.31945728  0.65485565  1
  Al0+  Al87  1  0.07233157  0.67766670  0.65171075  1
  Al0+  Al88  1  0.57158418  0.17800989  0.98466422  1
  Al0+  Al89  1  0.32111913  0.56944613  0.67921209  1
  Al0+  Al90  1  0.92907666  0.32236535  0.32034607  1
  Al0+  Al91  1  0.42660151  0.32181712  0.31570328  1
  Al0+  Al92  1  0.32068355  0.57177597  0.01533065  1
  Al0+  Al93  1  0.92824832  0.32289917  0.98267595  1
  Al0+  Al94  1  0.92853227  0.82156078  0.64865576  1
  Al0+  Al95  1  0.32235658  0.07148719  0.01339670  1
  Si0+  Si96  1  0.17996248  0.92843212  0.68410820  1
  Si0+  Si97  1  0.92841041  0.31999302  0.65213168  1
  Si0+  Si98  1  0.42783195  0.32138492  0.98415072  1
  Si0+  Si99  1  0.07304062  0.67777339  0.98541558  1
  Si0+  Si100  1  0.07305811  0.67953353  0.31805373  1
  Si0+  Si101  1  0.07162321  0.17924756  0.64961632  1
  Si0+  Si102  1  0.17746295  0.42560759  0.68307477  1
  Si0+  Si103  1  0.42653675  0.82461647  0.64933256  1
  Si0+  Si104  1  0.67666056  0.42794154  0.68128091  1
  Si0+  Si105  1  0.67986059  0.43163106  0.34912413  1
  Si0+  Si106  1  0.82344160  0.57287878  0.34810823  1
  Si0+  Si107  1  0.57283521  0.17614613  0.64998646  1
  Si0+  Si108  1  0.17637080  0.92992759  0.01550817  1
  Si0+  Si109  1  0.17675260  0.42981120  0.34819490  1
  Si0+  Si110  1  0.31899191  0.07211669  0.67958029  1
  Si0+  Si111  1  0.42463763  0.81997256  0.31796449  1
  Si0+  Si112  1  0.82152100  0.06986072  0.01368039  1
  Si0+  Si113  1  0.32347321  0.07380940  0.35133738  1
  Si0+  Si114  1  0.67773691  0.92505300  0.34808373  1
  Si0+  Si115  1  0.67878710  0.92959212  0.01574203  1
  Si0+  Si116  1  0.93201658  0.82134965  0.31955566  1
  Si0+  Si117  1  0.17815783  0.42707917  0.01866411  1
  Si0+  Si118  1  0.07042234  0.17561869  0.31857049  1
  Si0+  Si119  1  0.32151881  0.56846520  0.34923278  1
  O2-  O120  1  0.24645940  -0.00267216  0.05962564  1
  O2-  O121  1  0.25447770  0.00489795  0.39585815  1
  O2-  O122  1  0.25267302  -0.00175808  0.72450027  1
  O2-  O123  1  0.24594259  0.49697654  0.06303135  1
  O2-  O124  1  0.25287512  0.49477329  0.39138467  1
  O2-  O125  1  0.24455320  0.49620297  0.72596051  1
  O2-  O126  1  0.75007283  0.00061052  0.05816504  1
  O2-  O127  1  0.74082008  -0.00047588  0.39098956  1
  O2-  O128  1  0.75013366  0.00050529  0.73414151  1
  O2-  O129  1  0.75249150  0.49938426  0.06744580  1
  O2-  O130  1  0.75110638  0.50316370  0.39070960  1
  O2-  O131  1  0.74672575  0.49499342  0.72463494  1
  O2-  O132  1  0.00207217  0.24471308  0.27551797  1
  O2-  O133  1  -0.00337436  0.24659557  0.60823603  1
  O2-  O134  1  0.00132268  0.25129080  0.93339025  1
  O2-  O135  1  0.00235469  0.75047957  0.27595326  1
  O2-  O136  1  0.00011189  0.74810050  0.59884645  1
  O2-  O137  1  -0.00107393  0.74068731  0.94276224  1
  O2-  O138  1  0.49338608  0.24398310  0.26822095  1
  O2-  O139  1  0.50517578  0.24608252  0.60682618  1
  O2-  O140  1  0.49615417  0.25296344  0.93938669  1
  O2-  O141  1  0.49900131  0.75781604  0.27451606  1
  O2-  O142  1  0.49580561  0.75622980  0.60546152  1
  O2-  O143  1  0.49418588  0.74589443  0.93371623  1
  O2-  O144  1  0.06878920  0.17827902  0.09987399  1
  O2-  O145  1  0.07028081  0.17721563  0.42467455  1
  O2-  O146  1  0.07701457  0.18185916  0.75401481  1
  O2-  O147  1  0.07479000  0.68130000  0.09181626  1
  O2-  O148  1  0.07349247  0.67812784  0.42281324  1
  O2-  O149  1  0.07486093  0.68138320  0.76486011  1
  O2-  O150  1  0.57120722  0.17673048  0.09781465  1
  O2-  O151  1  0.57036097  0.18203548  0.43387608  1
  O2-  O152  1  0.57072256  0.17537652  0.75539860  1
  O2-  O153  1  0.56895027  0.68093535  0.09751588  1
  O2-  O154  1  0.57339177  0.67998703  0.43122235  1
  O2-  O155  1  0.56745332  0.67705690  0.76538081  1
  O2-  O156  1  0.17325828  0.43418547  0.24367128  1
  O2-  O157  1  0.17782779  0.42419873  0.57692456  1
  O2-  O158  1  0.17964025  0.42564734  0.91307884  1
  O2-  O159  1  0.17872971  0.93010238  0.23582540  1
  O2-  O160  1  0.18049179  0.92957193  0.57849072  1
  O2-  O161  1  0.17678544  0.93045268  0.90997492  1
  O2-  O162  1  0.68113137  0.43002058  0.24469779  1
  O2-  O163  1  0.67780291  0.42796470  0.57492531  1
  O2-  O164  1  0.67998271  0.42824338  0.90299879  1
  O2-  O165  1  0.68167217  0.92214699  0.24248367  1
  O2-  O166  1  0.67906328  0.93149429  0.56867080  1
  O2-  O167  1  0.67883911  0.93002741  0.91101939  1
  O2-  O168  1  0.42744363  0.31863761  0.08965668  1
  O2-  O169  1  0.42916058  0.32310653  0.42980689  1
  O2-  O170  1  0.42922953  0.31763875  0.76759379  1
  O2-  O171  1  0.43005837  0.82091425  0.10042715  1
  O2-  O172  1  0.42007518  0.81602613  0.42347264  1
  O2-  O173  1  0.42524803  0.82583480  0.75438723  1
  O2-  O174  1  0.92917691  0.31923324  0.09675765  1
  O2-  O175  1  0.93071218  0.32358818  0.43407489  1
  O2-  O176  1  0.93117616  0.32051867  0.75645130  1
  O2-  O177  1  0.93238139  0.82459567  0.10100114  1
  O2-  O178  1  0.93186174  0.81936232  0.42407479  1
  O2-  O179  1  0.93073097  0.82017190  0.76207824  1
  O2-  O180  1  0.32310709  0.07254467  0.24604720  1
  O2-  O181  1  0.31507200  0.07207160  0.57430869  1
  O2-  O182  1  0.32025780  0.07097558  0.89968823  1
  O2-  O183  1  0.31802525  0.57050770  0.24426941  1
  O2-  O184  1  0.32172451  0.56644044  0.56548833  1
  O2-  O185  1  0.31963977  0.57011963  0.90217403  1
  O2-  O186  1  0.82087446  0.06933209  0.23137202  1
  O2-  O187  1  0.82007525  0.07536854  0.57149525  1
  O2-  O188  1  0.82125789  0.06753637  0.90904815  1
  O2-  O189  1  0.82491323  0.57410384  0.24360567  1
  O2-  O190  1  0.82028248  0.56629008  0.56391603  1
  O2-  O191  1  0.81978839  0.57391147  0.90262324  1
  O2-  O192  1  0.04534595  0.08119248  0.27503092  1
  O2-  O193  1  0.04758023  0.08583944  0.60395312  1
  O2-  O194  1  0.04440943  0.08268291  0.92962737  1
  O2-  O195  1  0.04613559  0.58872505  0.26894268  1
  O2-  O196  1  0.04739912  0.57727969  0.59957144  1
  O2-  O197  1  0.05751311  0.58188761  0.94168946  1
  O2-  O198  1  0.54865213  0.07563690  0.27026489  1
  O2-  O199  1  0.54565052  0.08349737  0.60274163  1
  O2-  O200  1  0.53897492  0.08287678  0.93002041  1
  O2-  O201  1  0.54109325  0.58612155  0.26329861  1
  O2-  O202  1  0.53742477  0.58454746  0.59670699  1
  O2-  O203  1  0.54276695  0.57634957  0.93519546  1
  O2-  O204  1  0.16462297  0.19977070  0.27351691  1
  O2-  O205  1  0.16042311  0.20988610  0.59703394  1
  O2-  O206  1  0.17071684  0.20825476  0.93333985  1
  O2-  O207  1  0.16512914  0.70862391  0.27177334  1
  O2-  O208  1  0.17051050  0.70869169  0.59756349  1
  O2-  O209  1  0.16415369  0.70948123  0.93841587  1
  O2-  O210  1  0.66604505  0.21152948  0.26633039  1
  O2-  O211  1  0.66769563  0.20136947  0.60630000  1
  O2-  O212  1  0.66649312  0.20826307  0.92847133  1
  O2-  O213  1  0.66995662  0.71076122  0.26293557  1
  O2-  O214  1  0.66548583  0.71073711  0.59733969  1
  O2-  O215  1  0.66667102  0.70883624  0.93277264  1
  O2-  O216  1  0.08457741  0.45243909  0.06517334  1
  O2-  O217  1  0.08715757  0.46266067  0.39834053  1
  O2-  O218  1  0.08382659  0.44814458  0.72945788  1
  O2-  O219  1  0.08333338  0.95894691  0.06190964  1
  O2-  O220  1  0.08554549  0.96011174  0.40805095  1
  O2-  O221  1  0.08876676  0.95819949  0.73025971  1
  O2-  O222  1  0.58210817  0.45330106  0.07253513  1
  O2-  O223  1  0.58732779  0.46112000  0.39507614  1
  O2-  O224  1  0.58358190  0.45429195  0.72640029  1
  O2-  O225  1  0.58753921  0.95782404  0.06362655  1
  O2-  O226  1  0.58102507  0.94084080  0.39216992  1
  O2-  O227  1  0.57829132  0.95596752  0.73525666  1
  O2-  O228  1  0.20417576  0.33455110  0.06697200  1
  O2-  O229  1  0.19687767  0.33501125  0.39430779  1
  O2-  O230  1  0.20538448  0.33220800  0.72850289  1
  O2-  O231  1  0.19908279  0.83689155  0.06437841  1
  O2-  O232  1  0.21160428  0.83323505  0.40482447  1
  O2-  O233  1  0.20588570  0.83658564  0.73118490  1
  O2-  O234  1  0.71057835  0.32785484  0.06870306  1
  O2-  O235  1  0.70762647  0.34078194  0.39868650  1
  O2-  O236  1  0.69949464  0.33362873  0.72664749  1
  O2-  O237  1  0.70756390  0.83832095  0.06349240  1
  O2-  O238  1  0.71168858  0.83422299  0.39592635  1
  O2-  O239  1  0.70675374  0.83064857  0.73492226  1
  O2-  O240  1  0.45965580  0.41789593  0.26243282  1
  O2-  O241  1  0.46061085  0.41416316  0.59686133  1
  O2-  O242  1  0.45452356  0.41528749  0.94047062  1
  O2-  O243  1  0.44241505  0.91689398  0.27609795  1
  O2-  O244  1  0.44979385  0.91881883  0.60191753  1
  O2-  O245  1  0.45793870  0.91752893  0.93230683  1
  O2-  O246  1  0.96328181  0.41729062  0.26513116  1
  O2-  O247  1  0.95842278  0.41035260  0.60275919  1
  O2-  O248  1  0.95778413  0.42212135  0.93210034  1
  O2-  O249  1  0.96198167  0.91372839  0.27444179  1
  O2-  O250  1  0.96022853  0.92068193  0.59789424  1
  O2-  O251  1  0.96250063  0.91362099  0.92882145  1
  O2-  O252  1  0.32450735  0.30241680  0.26641435  1
  O2-  O253  1  0.33365643  0.28885961  0.59838208  1
  O2-  O254  1  0.33379520  0.29711090  0.93901788  1
  O2-  O255  1  0.33332058  0.78882407  0.27002375  1
  O2-  O256  1  0.33288729  0.79805176  0.60379548  1
  O2-  O257  1  0.32584154  0.79956137  0.93747970  1
  O2-  O258  1  0.83247640  0.29394256  0.26715200  1
  O2-  O259  1  0.83503559  0.29435613  0.60563730  1
  O2-  O260  1  0.83192302  0.29348113  0.92827863  1
  O2-  O261  1  0.84100720  0.79495959  0.27024732  1
  O2-  O262  1  0.83048497  0.79428175  0.59499606  1
  O2-  O263  1  0.83178622  0.79360679  0.93296904  1
  O2-  O264  1  0.41773064  0.03813825  0.06859018  1
  O2-  O265  1  0.41664576  0.04782023  0.39921589  1
  O2-  O266  1  0.41298442  0.05041917  0.72443791  1
  O2-  O267  1  0.41561492  0.54040174  0.07152371  1
  O2-  O268  1  0.41529612  0.54184122  0.39324615  1
  O2-  O269  1  0.41626878  0.53446241  0.73298857  1
  O2-  O270  1  0.91379326  0.04017506  0.05968805  1
  O2-  O271  1  0.91312130  0.04112626  0.40180630  1
  O2-  O272  1  0.92278095  0.04611423  0.73572650  1
  O2-  O273  1  0.92327359  0.55010535  0.06671975  1
  O2-  O274  1  0.91574335  0.54413444  0.39468622  1
  O2-  O275  1  0.91807206  0.53993883  0.73164479  1
  O2-  O276  1  0.29190342  0.16711719  0.06964302  1
  O2-  O277  1  0.29692951  0.16835458  0.39598588  1
  O2-  O278  1  0.28634826  0.16258228  0.72662216  1
  O2-  O279  1  0.28771693  0.66770945  0.07119835  1
  O2-  O280  1  0.29131704  0.65891826  0.39785809  1
  O2-  O281  1  0.29259028  0.66681771  0.73294928  1
  O2-  O282  1  0.79486586  0.16294156  0.05812745  1
  O2-  O283  1  0.78875056  0.16958730  0.39938298  1
  O2-  O284  1  0.79507565  0.17123856  0.73910881  1
  O2-  O285  1  0.79175948  0.67205954  0.06959473  1
  O2-  O286  1  0.79589884  0.66553186  0.39459088  1
  O2-  O287  1  0.79192099  0.66703894  0.72854455  1
