# generated using pymatgen
data_Ca2Al2SiO7
_symmetry_space_group_name_H-M   'P 1'
_cell_length_a   15.45946999
_cell_length_b   15.46092366
_cell_length_c   15.28453986
_cell_angle_alpha   89.98441906
_cell_angle_beta   89.98715542
_cell_angle_gamma   90.01415466
_symmetry_Int_Tables_number   1
_chemical_formula_structural   Ca2Al2SiO7
_chemical_formula_sum   'Ca48 Al48 Si24 O168'
_cell_volume   3653.27500063
_cell_formula_units_Z   24
loop_
 _symmetry_equiv_pos_site_id
 _symmetry_equiv_pos_as_xyz
  1  'x, y, z'
loop_
 _atom_type_symbol
 _atom_type_oxidation_number
  Ca2+  2.0
  Al0+  0.0
  Si0+  0.0
  O2-  -2.0
loop_
 _atom_site_type_symbol
 _atom_site_label
 _atom_site_symmetry_multiplicity
 _atom_site_fract_x
 _atom_site_fract_y
 _atom_site_fract_z
 _atom_site_occupancy
  Ca2+  Ca0  1  0.17392809  0.08178765  0.17390845  1
  Ca2+  Ca1  1  0.17706157  0.09049486  0.50560818  1
  Ca2+  Ca2  1  0.17105473  0.09176747  0.83067704  1
  Ca2+  Ca3  1  0.17155041  0.57442822  0.16768477  1
  Ca2+  Ca4  1  0.17677575  0.57400564  0.50158617  1
  Ca2+  Ca5  1  0.17633023  0.57894516  0.84341842  1
  Ca2+  Ca6  1  0.67448860  0.09845043  0.16952547  1
  Ca2+  Ca7  1  0.67349437  0.08528425  0.50588964  1
  Ca2+  Ca8  1  0.67190228  0.08331348  0.83770456  1
  Ca2+  Ca9  1  0.66795168  0.57857708  0.16930486  1
  Ca2+  Ca10  1  0.66862299  0.57348128  0.50541846  1
  Ca2+  Ca11  1  0.67674518  0.58353092  0.83904419  1
  Ca2+  Ca12  1  0.07913259  0.34178027  0.16056689  1
  Ca2+  Ca13  1  0.07899955  0.33216872  0.50126593  1
  Ca2+  Ca14  1  0.07403847  0.33518512  0.82841619  1
  Ca2+  Ca15  1  0.08150134  0.82492940  0.15910225  1
  Ca2+  Ca16  1  0.08240319  0.83117376  0.49693231  1
  Ca2+  Ca17  1  0.08397983  0.82485442  0.83100242  1
  Ca2+  Ca18  1  0.58240187  0.32851170  0.16766266  1
  Ca2+  Ca19  1  0.57325227  0.33190424  0.49118434  1
  Ca2+  Ca20  1  0.57807755  0.32775399  0.83013798  1
  Ca2+  Ca21  1  0.58104341  0.82405910  0.15937415  1
  Ca2+  Ca22  1  0.58232597  0.83560338  0.50298928  1
  Ca2+  Ca23  1  0.58260240  0.82774614  0.82747757  1
  Ca2+  Ca24  1  0.32534187  0.42250772  0.17555911  1
  Ca2+  Ca25  1  0.33825498  0.42046935  0.50548531  1
  Ca2+  Ca26  1  0.32927334  0.42191418  0.83880960  1
  Ca2+  Ca27  1  0.33381444  0.92280040  0.17109051  1
  Ca2+  Ca28  1  0.34005637  0.92998088  0.50685464  1
  Ca2+  Ca29  1  0.33961566  0.92049828  0.82976665  1
  Ca2+  Ca30  1  0.82859716  0.41721145  0.16697013  1
  Ca2+  Ca31  1  0.82562271  0.41516666  0.50495399  1
  Ca2+  Ca32  1  0.84140557  0.42047818  0.83802064  1
  Ca2+  Ca33  1  0.83174736  0.93023753  0.17058490  1
  Ca2+  Ca34  1  0.82541940  0.92869290  0.50894419  1
  Ca2+  Ca35  1  0.83069505  0.92947074  0.83481009  1
  Ca2+  Ca36  1  0.42507098  0.16998668  0.16499534  1
  Ca2+  Ca37  1  0.41652525  0.17559305  0.49145716  1
  Ca2+  Ca38  1  0.41992775  0.17186352  0.82374970  1
  Ca2+  Ca39  1  0.41801484  0.66060732  0.15985768  1
  Ca2+  Ca40  1  0.40622922  0.67144640  0.49827135  1
  Ca2+  Ca41  1  0.41926964  0.66516271  0.82657819  1
  Ca2+  Ca42  1  0.91373926  0.17246005  0.15813131  1
  Ca2+  Ca43  1  0.91710817  0.16366033  0.49897841  1
  Ca2+  Ca44  1  0.91761937  0.17552517  0.82569015  1
  Ca2+  Ca45  1  0.92276908  0.66395364  0.15430583  1
  Ca2+  Ca46  1  0.91363251  0.66520750  0.49868572  1
  Ca2+  Ca47  1  0.92211317  0.65555770  0.82906956  1
  Al0+  Al48  1  0.00029080  0.00050422  0.00406373  1
  Al0+  Al49  1  -0.00118846  -0.00039073  0.33501467  1
  Al0+  Al50  1  0.00076759  -0.00254408  0.66620397  1
  Al0+  Al51  1  0.00053257  0.50090605  -0.00078406  1
  Al0+  Al52  1  0.00247522  0.50085128  0.33627413  1
  Al0+  Al53  1  0.00050446  0.49812702  0.66181352  1
  Al0+  Al54  1  0.50138441  -0.00071108  -0.00302564  1
  Al0+  Al55  1  0.50143426  -0.00154549  0.33090936  1
  Al0+  Al56  1  0.49955846  -0.00310285  0.67120031  1
  Al0+  Al57  1  0.50117674  0.50035215  -0.00250945  1
  Al0+  Al58  1  0.50036114  0.50156420  0.33687002  1
  Al0+  Al59  1  0.50182067  0.49966544  0.66782408  1
  Al0+  Al60  1  0.24961079  0.24968706  0.00546088  1
  Al0+  Al61  1  0.24743482  0.25007041  0.33507728  1
  Al0+  Al62  1  0.24908060  0.25025076  0.66476525  1
  Al0+  Al63  1  0.24902195  0.75196183  -0.00091986  1
  Al0+  Al64  1  0.24784327  0.74914017  0.33325481  1
  Al0+  Al65  1  0.25149751  0.74954651  0.66466835  1
  Al0+  Al66  1  0.74995988  0.25064118  -0.00597180  1
  Al0+  Al67  1  0.75096134  0.25238140  0.33917608  1
  Al0+  Al68  1  0.74978298  0.25057776  0.66689865  1
  Al0+  Al69  1  0.74900168  0.75248447  0.00001426  1
  Al0+  Al70  1  0.75019778  0.75355618  0.33060649  1
  Al0+  Al71  1  0.75086617  0.74839143  0.67261447  1
  Al0+  Al72  1  0.93088402  0.32027221  0.98809545  1
  Al0+  Al73  1  0.82146507  0.56808195  0.67923686  1
  Al0+  Al74  1  0.06955008  0.68030253  0.98566313  1
  Al0+  Al75  1  0.06983015  0.17690327  0.65118329  1
  Al0+  Al76  1  0.82042312  0.57180217  0.01286453  1
  Al0+  Al77  1  0.43005705  0.32139104  0.65436105  1
  Al0+  Al78  1  0.67816892  0.92887717  0.68333052  1
  Al0+  Al79  1  0.42969725  0.81920162  0.65201153  1
  Al0+  Al80  1  0.32209945  0.06938988  0.34533471  1
  Al0+  Al81  1  0.42634382  0.32338198  0.31722434  1
  Al0+  Al82  1  0.32151912  0.57091864  0.34916506  1
  Al0+  Al83  1  0.82002053  0.07167452  0.34717533  1
  Al0+  Al84  1  0.82251663  0.07262648  0.68339083  1
  Al0+  Al85  1  0.92739596  0.32152135  0.64844008  1
  Al0+  Al86  1  0.17668498  0.42734087  0.35144131  1
  Al0+  Al87  1  0.32294524  0.57237778  0.01400315  1
  Al0+  Al88  1  0.57205350  0.17912632  0.31976163  1
  Al0+  Al89  1  0.17907964  0.42843464  0.01417691  1
  Al0+  Al90  1  0.81952447  0.07202397  0.01402768  1
  Al0+  Al91  1  0.57157700  0.67756020  0.98580869  1
  Al0+  Al92  1  0.32132615  0.57129365  0.68152776  1
  Al0+  Al93  1  0.67983348  0.43070857  0.34618669  1
  Al0+  Al94  1  0.57019817  0.17964724  0.98483219  1
  Al0+  Al95  1  0.31933906  0.07201862  0.68020350  1
  Si0+  Si96  1  0.93005529  0.32172847  0.31808811  1
  Si0+  Si97  1  0.42565083  0.32097703  0.98415541  1
  Si0+  Si98  1  0.32283345  0.07032717  0.01470250  1
  Si0+  Si99  1  0.17840510  0.92920971  0.01510407  1
  Si0+  Si100  1  0.07205877  0.67848402  0.64951157  1
  Si0+  Si101  1  0.92836234  0.81915718  0.65164186  1
  Si0+  Si102  1  0.67836189  0.92494961  0.34957067  1
  Si0+  Si103  1  0.17876936  0.42842371  0.68381129  1
  Si0+  Si104  1  0.57075797  0.17625205  0.65117095  1
  Si0+  Si105  1  0.82222753  0.57465475  0.34706610  1
  Si0+  Si106  1  0.67660424  0.92932343  0.01921147  1
  Si0+  Si107  1  0.07409496  0.17518252  0.98585585  1
  Si0+  Si108  1  0.57414103  0.67817120  0.64891884  1
  Si0+  Si109  1  0.06947795  0.67979097  0.31701801  1
  Si0+  Si110  1  0.67783174  0.42754858  0.01551559  1
  Si0+  Si111  1  0.06973296  0.17673654  0.31729524  1
  Si0+  Si112  1  0.57274341  0.67972443  0.31944908  1
  Si0+  Si113  1  0.17790830  0.92577615  0.68316730  1
  Si0+  Si114  1  0.17789254  0.92804703  0.34951472  1
  Si0+  Si115  1  0.92861307  0.82231724  0.31725058  1
  Si0+  Si116  1  0.42752023  0.82205656  0.98287249  1
  Si0+  Si117  1  0.42785713  0.82030499  0.31799211  1
  Si0+  Si118  1  0.67713327  0.42727066  0.68531754  1
  Si0+  Si119  1  0.92799116  0.82468644  0.98274919  1
  O2-  O120  1  0.24961050  0.00063328  0.05617917  1
  O2-  O121  1  0.24671118  -0.00442206  0.39344717  1
  O2-  O122  1  0.24320598  -0.00210696  0.72712027  1
  O2-  O123  1  0.25359603  0.49823359  0.06385297  1
  O2-  O124  1  0.25572027  0.49316192  0.39937493  1
  O2-  O125  1  0.24796116  0.49620873  0.72815783  1
  O2-  O126  1  0.74384375  -0.00075469  0.06343984  1
  O2-  O127  1  0.74247576  -0.00132611  0.39131748  1
  O2-  O128  1  0.74740008  0.00355266  0.73293911  1
  O2-  O129  1  0.74388704  0.49954685  0.05968226  1
  O2-  O130  1  0.75361498  0.50741849  0.39184486  1
  O2-  O131  1  0.75007916  0.49205728  0.72820244  1
  O2-  O132  1  0.00064080  0.24994089  0.27539982  1
  O2-  O133  1  -0.00468489  0.24515450  0.59879676  1
  O2-  O134  1  0.00627591  0.24486715  0.94366037  1
  O2-  O135  1  -0.00364344  0.74878829  0.27436430  1
  O2-  O136  1  -0.00072249  0.74847915  0.60743265  1
  O2-  O137  1  -0.00780569  0.75219116  0.93764508  1
  O2-  O138  1  0.49795849  0.24927299  0.26885976  1
  O2-  O139  1  0.50275487  0.24502126  0.60693550  1
  O2-  O140  1  0.49286605  0.25146458  0.93886719  1
  O2-  O141  1  0.49774040  0.74751335  0.27731808  1
  O2-  O142  1  0.50347870  0.74433937  0.60340558  1
  O2-  O143  1  0.49306199  0.74946139  0.94089663  1
  O2-  O144  1  0.07362143  0.17187238  0.09165966  1
  O2-  O145  1  0.06703844  0.17225122  0.42181927  1
  O2-  O146  1  0.07067384  0.17972749  0.76519025  1
  O2-  O147  1  0.06850830  0.68380305  0.09915613  1
  O2-  O148  1  0.06895878  0.68255999  0.42230881  1
  O2-  O149  1  0.07203048  0.67967664  0.75455930  1
  O2-  O150  1  0.56954405  0.18131152  0.09790391  1
  O2-  O151  1  0.57153574  0.17905258  0.43317745  1
  O2-  O152  1  0.56873189  0.17818062  0.75713302  1
  O2-  O153  1  0.57232509  0.68045884  0.09969843  1
  O2-  O154  1  0.57863261  0.68354599  0.42399828  1
  O2-  O155  1  0.57427308  0.67974691  0.75444640  1
  O2-  O156  1  0.17106387  0.43398675  0.23825324  1
  O2-  O157  1  0.17825672  0.43058732  0.57827185  1
  O2-  O158  1  0.17982268  0.42889448  0.90058429  1
  O2-  O159  1  0.17786622  0.92792904  0.24345484  1
  O2-  O160  1  0.17898316  0.92309957  0.57748411  1
  O2-  O161  1  0.17658407  0.92766417  0.91039545  1
  O2-  O162  1  0.68243446  0.43143972  0.23284706  1
  O2-  O163  1  0.67579655  0.43049756  0.57949186  1
  O2-  O164  1  0.67802670  0.42745996  0.91008403  1
  O2-  O165  1  0.68199910  0.91647602  0.24454821  1
  O2-  O166  1  0.68092469  0.92860245  0.56910363  1
  O2-  O167  1  0.67643812  0.92940588  0.91407618  1
  O2-  O168  1  0.42496427  0.31905513  0.08952845  1
  O2-  O169  1  0.42944874  0.32207893  0.43097674  1
  O2-  O170  1  0.43120557  0.32002861  0.76786789  1
  O2-  O171  1  0.42868124  0.82520454  0.08901649  1
  O2-  O172  1  0.42759479  0.82137408  0.42276817  1
  O2-  O173  1  0.42907192  0.81703823  0.76499436  1
  O2-  O174  1  0.92957869  0.31891327  0.10195211  1
  O2-  O175  1  0.93040913  0.32190536  0.42271537  1
  O2-  O176  1  0.93215818  0.32492854  0.76192516  1
  O2-  O177  1  0.93220254  0.82578365  0.08884595  1
  O2-  O178  1  0.92925153  0.82159642  0.42239020  1
  O2-  O179  1  0.93083995  0.81905304  0.75650326  1
  O2-  O180  1  0.32007038  0.06517493  0.23152425  1
  O2-  O181  1  0.32000323  0.07032162  0.56718487  1
  O2-  O182  1  0.32223645  0.07028807  0.90973017  1
  O2-  O183  1  0.31805923  0.57520417  0.23582138  1
  O2-  O184  1  0.31771175  0.57222289  0.56865197  1
  O2-  O185  1  0.32088586  0.57194118  0.90035256  1
  O2-  O186  1  0.82158483  0.07039144  0.23381057  1
  O2-  O187  1  0.82150975  0.06851533  0.56946487  1
  O2-  O188  1  0.82047332  0.06982473  0.90173480  1
  O2-  O189  1  0.82192034  0.57509008  0.24153581  1
  O2-  O190  1  0.81796291  0.57032512  0.56557425  1
  O2-  O191  1  0.82105969  0.56875777  0.90005802  1
  O2-  O192  1  0.04095336  0.08466060  0.26894780  1
  O2-  O193  1  0.04807226  0.07556866  0.59939649  1
  O2-  O194  1  0.04908059  0.08156590  0.93953870  1
  O2-  O195  1  0.04239370  0.58770173  0.27032915  1
  O2-  O196  1  0.04438345  0.58769431  0.60076035  1
  O2-  O197  1  0.04014291  0.58461077  0.93075148  1
  O2-  O198  1  0.54844120  0.07865425  0.26646856  1
  O2-  O199  1  0.54649210  0.08156617  0.60805926  1
  O2-  O200  1  0.54169899  0.08185829  0.93210018  1
  O2-  O201  1  0.54818438  0.58749570  0.27248271  1
  O2-  O202  1  0.55082058  0.58359889  0.60482752  1
  O2-  O203  1  0.54690487  0.58023927  0.93026312  1
  O2-  O204  1  0.16252003  0.20047036  0.27037077  1
  O2-  O205  1  0.16712753  0.20865793  0.59761534  1
  O2-  O206  1  0.16891981  0.19918295  0.94118909  1
  O2-  O207  1  0.15978175  0.71102277  0.26836136  1
  O2-  O208  1  0.16173003  0.71036611  0.60068749  1
  O2-  O209  1  0.16488782  0.71546692  0.93124615  1
  O2-  O210  1  0.67041106  0.21367246  0.26830619  1
  O2-  O211  1  0.66531756  0.20052606  0.60709727  1
  O2-  O212  1  0.66471481  0.21219875  0.92881138  1
  O2-  O213  1  0.66302506  0.71087004  0.26887689  1
  O2-  O214  1  0.66738180  0.70657907  0.60288590  1
  O2-  O215  1  0.66738287  0.71231960  0.93174800  1
  O2-  O216  1  0.08255215  0.46194158  0.06780188  1
  O2-  O217  1  0.08162395  0.46456063  0.40724111  1
  O2-  O218  1  0.08523008  0.45698889  0.72762743  1
  O2-  O219  1  0.08776814  0.95579691  0.06617874  1
  O2-  O220  1  0.08413658  0.95259351  0.39554556  1
  O2-  O221  1  0.08317977  0.94552206  0.72887939  1
  O2-  O222  1  0.58376400  0.45073896  0.06144568  1
  O2-  O223  1  0.58493828  0.46170440  0.40251083  1
  O2-  O224  1  0.58625551  0.45703062  0.73407214  1
  O2-  O225  1  0.58184802  0.95238127  0.06470865  1
  O2-  O226  1  0.58271694  0.94508923  0.39256157  1
  O2-  O227  1  0.57941874  0.95155996  0.73754869  1
  O2-  O228  1  0.20210818  0.32889461  0.06910738  1
  O2-  O229  1  0.19392515  0.32560149  0.40024162  1
  O2-  O230  1  0.20257878  0.33472643  0.72909465  1
  O2-  O231  1  0.20706934  0.83882367  0.06531401  1
  O2-  O232  1  0.20141043  0.83405340  0.39506991  1
  O2-  O233  1  0.20828655  0.83423016  0.73079655  1
  O2-  O234  1  0.70862349  0.33583952  0.06188808  1
  O2-  O235  1  0.71273186  0.33752410  0.40432995  1
  O2-  O236  1  0.69758562  0.33208923  0.72929899  1
  O2-  O237  1  0.70394550  0.83639311  0.06615721  1
  O2-  O238  1  0.70954382  0.83450063  0.39999264  1
  O2-  O239  1  0.70986612  0.83156497  0.73664510  1
  O2-  O240  1  0.45706538  0.42266927  0.26684608  1
  O2-  O241  1  0.46310013  0.41748602  0.60009224  1
  O2-  O242  1  0.45228757  0.41423529  0.93839552  1
  O2-  O243  1  0.45690355  0.91023686  0.26726739  1
  O2-  O244  1  0.46162120  0.91615028  0.59837047  1
  O2-  O245  1  0.45696654  0.91374707  0.93494142  1
  O2-  O246  1  0.95827470  0.41479454  0.27223500  1
  O2-  O247  1  0.95934626  0.41844889  0.59278446  1
  O2-  O248  1  0.96234611  0.41593887  0.93335939  1
  O2-  O249  1  0.96008135  0.91261874  0.26837828  1
  O2-  O250  1  0.95641103  0.90980805  0.60191996  1
  O2-  O251  1  0.96040292  0.91626785  0.93638846  1
  O2-  O252  1  0.32619200  0.29591479  0.26683985  1
  O2-  O253  1  0.33290155  0.29337522  0.60132917  1
  O2-  O254  1  0.33163197  0.29457074  0.93883003  1
  O2-  O255  1  0.33455940  0.79508783  0.27101382  1
  O2-  O256  1  0.33299661  0.79013130  0.59608705  1
  O2-  O257  1  0.33223595  0.80297935  0.93820729  1
  O2-  O258  1  0.83796734  0.29413887  0.27185089  1
  O2-  O259  1  0.82634969  0.29792333  0.59824330  1
  O2-  O260  1  0.83566127  0.29106417  0.93164883  1
  O2-  O261  1  0.83620481  0.79878256  0.26863099  1
  O2-  O262  1  0.83714035  0.78903820  0.60413547  1
  O2-  O263  1  0.83224921  0.80580319  0.94025186  1
  O2-  O264  1  0.41344580  0.03839871  0.06198960  1
  O2-  O265  1  0.41830021  0.03640503  0.39830297  1
  O2-  O266  1  0.41396407  0.03801080  0.73553663  1
  O2-  O267  1  0.42334690  0.54748765  0.06445523  1
  O2-  O268  1  0.42220632  0.55318259  0.40086358  1
  O2-  O269  1  0.41982215  0.54349938  0.73244277  1
  O2-  O270  1  0.91636435  0.04037388  0.06876167  1
  O2-  O271  1  0.91523625  0.03576054  0.40084816  1
  O2-  O272  1  0.92042561  0.03885432  0.73420417  1
  O2-  O273  1  0.91608373  0.53989048  0.06743521  1
  O2-  O274  1  0.91564461  0.55008765  0.39309441  1
  O2-  O275  1  0.92025747  0.53991537  0.73024184  1
  O2-  O276  1  0.29692259  0.16144441  0.06388797  1
  O2-  O277  1  0.29134221  0.16568453  0.39806727  1
  O2-  O278  1  0.28801831  0.16785717  0.73572638  1
  O2-  O279  1  0.29356373  0.67196888  0.06479777  1
  O2-  O280  1  0.28528524  0.66839004  0.40135638  1
  O2-  O281  1  0.28908968  0.66814875  0.73370802  1
  O2-  O282  1  0.78782136  0.16940884  0.06616810  1
  O2-  O283  1  0.79326969  0.16779932  0.40223563  1
  O2-  O284  1  0.79761241  0.17283368  0.73339276  1
  O2-  O285  1  0.79410664  0.67076628  0.06544317  1
  O2-  O286  1  0.79808059  0.66967951  0.39157509  1
  O2-  O287  1  0.79257534  0.66376830  0.73512714  1
