# generated using pymatgen
data_Ca2Al2SiO7
_symmetry_space_group_name_H-M   'P 1'
_cell_length_a   15.45457137
_cell_length_b   15.45468195
_cell_length_c   15.28167426
_cell_angle_alpha   90.00715931
_cell_angle_beta   89.99321786
_cell_angle_gamma   89.99866401
_symmetry_Int_Tables_number   1
_chemical_formula_structural   Ca2Al2SiO7
_chemical_formula_sum   'Ca48 Al48 Si24 O168'
_cell_volume   3649.95884683
_cell_formula_units_Z   24
loop_
 _symmetry_equiv_pos_site_id
 _symmetry_equiv_pos_as_xyz
  1  'x, y, z'
loop_
 _atom_type_symbol
 _atom_type_oxidation_number
  Ca2+  2.0
  Al0+  0.0
  Si0+  0.0
  O2-  -2.0
loop_
 _atom_site_type_symbol
 _atom_site_label
 _atom_site_symmetry_multiplicity
 _atom_site_fract_x
 _atom_site_fract_y
 _atom_site_fract_z
 _atom_site_occupancy
  Ca2+  Ca0  1  0.16106524  0.08669444  0.17100280  1
  Ca2+  Ca1  1  0.16964973  0.08008138  0.50562034  1
  Ca2+  Ca2  1  0.17085622  0.08499504  0.83199823  1
  Ca2+  Ca3  1  0.16998444  0.57686190  0.17859447  1
  Ca2+  Ca4  1  0.17407818  0.58222288  0.50156221  1
  Ca2+  Ca5  1  0.17219878  0.58341361  0.83317220  1
  Ca2+  Ca6  1  0.68099084  0.07274154  0.17204177  1
  Ca2+  Ca7  1  0.66803595  0.07704864  0.50412589  1
  Ca2+  Ca8  1  0.66776675  0.07778266  0.83795165  1
  Ca2+  Ca9  1  0.67478416  0.58635247  0.16638215  1
  Ca2+  Ca10  1  0.66756219  0.57533630  0.50616242  1
  Ca2+  Ca11  1  0.67025166  0.57303027  0.83591425  1
  Ca2+  Ca12  1  0.08334925  0.32268716  0.16137156  1
  Ca2+  Ca13  1  0.08262689  0.32889226  0.49363152  1
  Ca2+  Ca14  1  0.07094993  0.32903352  0.83191215  1
  Ca2+  Ca15  1  0.06947606  0.83032326  0.16509834  1
  Ca2+  Ca16  1  0.08105924  0.83093260  0.49170323  1
  Ca2+  Ca17  1  0.07643592  0.83842493  0.83024396  1
  Ca2+  Ca18  1  0.57628805  0.33475772  0.16641860  1
  Ca2+  Ca19  1  0.57566945  0.33150633  0.50163523  1
  Ca2+  Ca20  1  0.58345961  0.32480378  0.81877377  1
  Ca2+  Ca21  1  0.58235240  0.83979416  0.16185600  1
  Ca2+  Ca22  1  0.57924430  0.84287772  0.50021906  1
  Ca2+  Ca23  1  0.57613833  0.84174545  0.82774268  1
  Ca2+  Ca24  1  0.32606599  0.42110222  0.18193882  1
  Ca2+  Ca25  1  0.33526591  0.42208493  0.50314315  1
  Ca2+  Ca26  1  0.34083556  0.42263129  0.83310943  1
  Ca2+  Ca27  1  0.33340120  0.91717835  0.16857795  1
  Ca2+  Ca28  1  0.32544646  0.92132270  0.51531040  1
  Ca2+  Ca29  1  0.33302004  0.91726298  0.83245216  1
  Ca2+  Ca30  1  0.84178908  0.42126673  0.16589784  1
  Ca2+  Ca31  1  0.82973276  0.41452342  0.50950154  1
  Ca2+  Ca32  1  0.83387076  0.41492168  0.83822351  1
  Ca2+  Ca33  1  0.83356111  0.92087452  0.17381151  1
  Ca2+  Ca34  1  0.82757088  0.91946635  0.50183530  1
  Ca2+  Ca35  1  0.82046133  0.92019502  0.84558527  1
  Ca2+  Ca36  1  0.41506150  0.17480072  0.16495928  1
  Ca2+  Ca37  1  0.41764109  0.17183449  0.50032714  1
  Ca2+  Ca38  1  0.42483650  0.16973287  0.81904688  1
  Ca2+  Ca39  1  0.41739218  0.67166206  0.16246288  1
  Ca2+  Ca40  1  0.41176752  0.66751369  0.49912215  1
  Ca2+  Ca41  1  0.41488344  0.67759432  0.82644722  1
  Ca2+  Ca42  1  0.92442699  0.16270009  0.15965358  1
  Ca2+  Ca43  1  0.91964680  0.16918245  0.49407661  1
  Ca2+  Ca44  1  0.91243555  0.17231897  0.83162385  1
  Ca2+  Ca45  1  0.91518846  0.67516787  0.16157869  1
  Ca2+  Ca46  1  0.92561430  0.67476884  0.48959595  1
  Ca2+  Ca47  1  0.91156088  0.66989861  0.83377785  1
  Al0+  Al48  1  0.00248308  -0.00202233  -0.00654066  1
  Al0+  Al49  1  -0.00049209  0.00134461  0.33062331  1
  Al0+  Al50  1  -0.00058778  0.00031435  0.66973204  1
  Al0+  Al51  1  0.00145832  0.49869403  0.00087082  1
  Al0+  Al52  1  0.00154206  0.49953733  0.33577623  1
  Al0+  Al53  1  0.00134037  0.50114585  0.66242236  1
  Al0+  Al54  1  0.49747883  0.00150623  0.00171294  1
  Al0+  Al55  1  0.50136524  0.00124038  0.33447008  1
  Al0+  Al56  1  0.49969528  0.00005468  0.66415689  1
  Al0+  Al57  1  0.50019010  0.50237782  0.00154514  1
  Al0+  Al58  1  0.50034729  0.50203336  0.33075409  1
  Al0+  Al59  1  0.50155183  0.50082645  0.67329861  1
  Al0+  Al60  1  0.24955060  0.25027176  -0.00512803  1
  Al0+  Al61  1  0.24929355  0.25131249  0.32920757  1
  Al0+  Al62  1  0.24854906  0.25118419  0.66821726  1
  Al0+  Al63  1  0.25118732  0.75076991  -0.00235841  1
  Al0+  Al64  1  0.25079609  0.74985679  0.33143715  1
  Al0+  Al65  1  0.24909664  0.74895154  0.67168960  1
  Al0+  Al66  1  0.74837606  0.24876007  0.00342475  1
  Al0+  Al67  1  0.74937445  0.24913829  0.33529650  1
  Al0+  Al68  1  0.74992851  0.24991747  0.66091664  1
  Al0+  Al69  1  0.74780452  0.74576096  0.00206480  1
  Al0+  Al70  1  0.74699140  0.75010469  0.33521421  1
  Al0+  Al71  1  0.75008570  0.75032572  0.66968404  1
  Al0+  Al72  1  0.67621077  0.92868645  0.01519139  1
  Al0+  Al73  1  0.32049797  0.07253100  0.68073469  1
  Al0+  Al74  1  0.06986181  0.18063316  0.32107996  1
  Al0+  Al75  1  0.92775015  0.81975770  0.31949961  1
  Al0+  Al76  1  0.32077579  0.56924003  0.68254058  1
  Al0+  Al77  1  0.07323691  0.67773718  0.31808954  1
  Al0+  Al78  1  0.42776678  0.32403847  0.65253870  1
  Al0+  Al79  1  0.67842706  0.92788545  0.35100533  1
  Al0+  Al80  1  0.68116222  0.42848863  0.67876851  1
  Al0+  Al81  1  0.67992083  0.92880640  0.68151266  1
  Al0+  Al82  1  0.92999140  0.32137618  0.65175564  1
  Al0+  Al83  1  0.43115104  0.32090741  0.31980587  1
  Al0+  Al84  1  0.92831623  0.32080592  0.98639864  1
  Al0+  Al85  1  0.82389461  0.07136759  0.35023992  1
  Al0+  Al86  1  0.82305600  0.07060717  0.01462980  1
  Al0+  Al87  1  0.82162055  0.56829563  0.01363113  1
  Al0+  Al88  1  0.92717960  0.81895498  0.98516398  1
  Al0+  Al89  1  0.57170197  0.17687431  0.64989655  1
  Al0+  Al90  1  0.17716540  0.92776829  0.68242088  1
  Al0+  Al91  1  0.17825031  0.42717902  0.34937180  1
  Al0+  Al92  1  0.43007459  0.82109700  0.98573952  1
  Al0+  Al93  1  0.07293238  0.17653884  0.98117277  1
  Al0+  Al94  1  0.42915725  0.81916767  0.65255915  1
  Al0+  Al95  1  0.32225157  0.57237130  0.34840055  1
  Si0+  Si96  1  0.18143992  0.42894653  0.01433296  1
  Si0+  Si97  1  0.67592743  0.42658958  0.01851939  1
  Si0+  Si98  1  0.56845112  0.18100900  0.98748016  1
  Si0+  Si99  1  0.18036871  0.92978824  0.34468084  1
  Si0+  Si100  1  0.92461050  0.32280973  0.31733536  1
  Si0+  Si101  1  0.31937865  0.07246639  0.01600569  1
  Si0+  Si102  1  0.82211574  0.07225268  0.68357942  1
  Si0+  Si103  1  0.17527698  0.42790530  0.68538300  1
  Si0+  Si104  1  0.57186604  0.67565893  0.98096370  1
  Si0+  Si105  1  0.57058663  0.67816046  0.31781902  1
  Si0+  Si106  1  0.82119448  0.57098653  0.34843406  1
  Si0+  Si107  1  0.92743107  0.82151278  0.65266210  1
  Si0+  Si108  1  0.57281539  0.17652639  0.31367708  1
  Si0+  Si109  1  0.07099531  0.67994389  0.65182904  1
  Si0+  Si110  1  0.32169885  0.07205053  0.34610155  1
  Si0+  Si111  1  0.32093813  0.57223075  0.01596157  1
  Si0+  Si112  1  0.42898460  0.32315253  0.98540325  1
  Si0+  Si113  1  0.67858214  0.42949701  0.34720169  1
  Si0+  Si114  1  0.07123029  0.17724500  0.64924161  1
  Si0+  Si115  1  0.07227929  0.67767703  0.98252979  1
  Si0+  Si116  1  0.42944189  0.82280670  0.31964994  1
  Si0+  Si117  1  0.57341409  0.67840783  0.65075404  1
  Si0+  Si118  1  0.18006343  0.92741742  0.01648063  1
  Si0+  Si119  1  0.82447409  0.57173445  0.68171811  1
  O2-  O120  1  0.24769137  0.00217766  0.05889666  1
  O2-  O121  1  0.25222313  -0.00058294  0.38732463  1
  O2-  O122  1  0.24962703  -0.00014727  0.73219747  1
  O2-  O123  1  0.25293613  0.49910462  0.05784104  1
  O2-  O124  1  0.24972915  0.50074185  0.39788799  1
  O2-  O125  1  0.24886193  0.49163787  0.73008901  1
  O2-  O126  1  0.75506400  -0.00616875  0.06420777  1
  O2-  O127  1  0.75110660  -0.00024300  0.39958794  1
  O2-  O128  1  0.75458106  0.00285369  0.72808761  1
  O2-  O129  1  0.74807552  0.49237425  0.06188607  1
  O2-  O130  1  0.75477767  0.49523651  0.38951284  1
  O2-  O131  1  0.75806078  0.50079482  0.72547824  1
  O2-  O132  1  -0.00640220  0.25408401  0.27450481  1
  O2-  O133  1  0.00418288  0.24694380  0.60452658  1
  O2-  O134  1  -0.00471561  0.24477871  0.93477710  1
  O2-  O135  1  -0.00232318  0.74574915  0.26831752  1
  O2-  O136  1  0.00041774  0.75218105  0.61086765  1
  O2-  O137  1  0.00223688  0.74434464  0.93719995  1
  O2-  O138  1  0.50447677  0.24630293  0.26981951  1
  O2-  O139  1  0.49710887  0.24907160  0.60304408  1
  O2-  O140  1  0.50217729  0.25557999  0.94356397  1
  O2-  O141  1  0.50096783  0.75201156  0.27781146  1
  O2-  O142  1  0.50554534  0.74674121  0.60442042  1
  O2-  O143  1  0.50673102  0.74849175  0.93894888  1
  O2-  O144  1  0.07714848  0.18107625  0.09480289  1
  O2-  O145  1  0.07120321  0.18039310  0.43402627  1
  O2-  O146  1  0.06946968  0.17773483  0.75458116  1
  O2-  O147  1  0.07340706  0.67928060  0.08786304  1
  O2-  O148  1  0.07306657  0.68207597  0.43213416  1
  O2-  O149  1  0.06904400  0.67748726  0.75712401  1
  O2-  O150  1  0.56428314  0.18282559  0.09269553  1
  O2-  O151  1  0.57126876  0.17602450  0.41880262  1
  O2-  O152  1  0.57235267  0.17907133  0.76450496  1
  O2-  O153  1  0.56816424  0.67006056  0.08673818  1
  O2-  O154  1  0.57153589  0.67344738  0.42253658  1
  O2-  O155  1  0.57325615  0.67884334  0.75625131  1
  O2-  O156  1  0.18154639  0.42660221  0.23495409  1
  O2-  O157  1  0.17235949  0.43121007  0.58016669  1
  O2-  O158  1  0.18293953  0.43060853  0.90926710  1
  O2-  O159  1  0.18240625  0.93000165  0.23924448  1
  O2-  O160  1  0.17687210  0.92788294  0.56795955  1
  O2-  O161  1  0.18321492  0.92432703  0.91184680  1
  O2-  O162  1  0.67706093  0.43219965  0.24186440  1
  O2-  O163  1  0.68146371  0.43216816  0.56520833  1
  O2-  O164  1  0.67221359  0.42814920  0.91324398  1
  O2-  O165  1  0.67663506  0.92898884  0.23751703  1
  O2-  O166  1  0.68365961  0.92707110  0.56876061  1
  O2-  O167  1  0.67411758  0.93374072  0.90163637  1
  O2-  O168  1  0.42814766  0.32258401  0.09082204  1
  O2-  O169  1  0.43301570  0.32125740  0.43209790  1
  O2-  O170  1  0.43295991  0.32355174  0.76694487  1
  O2-  O171  1  0.42782873  0.81820369  0.09957375  1
  O2-  O172  1  0.42807624  0.82312063  0.42436996  1
  O2-  O173  1  0.42977822  0.81785853  0.76573754  1
  O2-  O174  1  0.93413258  0.32437403  0.09974747  1
  O2-  O175  1  0.92418555  0.32226763  0.42301781  1
  O2-  O176  1  0.93021361  0.32215247  0.76470488  1
  O2-  O177  1  0.92925349  0.81794395  0.09805460  1
  O2-  O178  1  0.93048938  0.81828670  0.43368851  1
  O2-  O179  1  0.92634461  0.81880346  0.75779439  1
  O2-  O180  1  0.32250974  0.07024088  0.24037068  1
  O2-  O181  1  0.31707237  0.07100757  0.56644711  1
  O2-  O182  1  0.32130250  0.07291781  0.91148691  1
  O2-  O183  1  0.32276856  0.57092316  0.23403724  1
  O2-  O184  1  0.31829379  0.57108335  0.56988921  1
  O2-  O185  1  0.32079969  0.57154388  0.91091056  1
  O2-  O186  1  0.82423107  0.07012028  0.23668939  1
  O2-  O187  1  0.82470051  0.06976924  0.57811312  1
  O2-  O188  1  0.81711282  0.07268592  0.90096356  1
  O2-  O189  1  0.81921543  0.57162277  0.24315625  1
  O2-  O190  1  0.82345533  0.57252458  0.57586054  1
  O2-  O191  1  0.81954796  0.56684034  0.90051260  1
  O2-  O192  1  0.04168575  0.08430691  0.26473910  1
  O2-  O193  1  0.04494257  0.08309291  0.60380249  1
  O2-  O194  1  0.05407046  0.07617151  0.92968286  1
  O2-  O195  1  0.04822194  0.57714424  0.26808230  1
  O2-  O196  1  0.04328371  0.58957606  0.60157287  1
  O2-  O197  1  0.04866306  0.58346554  0.93707357  1
  O2-  O198  1  0.54429265  0.08400513  0.26662327  1
  O2-  O199  1  0.54265875  0.08005840  0.59514422  1
  O2-  O200  1  0.53591703  0.09115346  0.93981319  1
  O2-  O201  1  0.54151388  0.58922032  0.26509389  1
  O2-  O202  1  0.54649113  0.58480637  0.60580419  1
  O2-  O203  1  0.54138434  0.58355414  0.93292088  1
  O2-  O204  1  0.16549012  0.21062728  0.26354833  1
  O2-  O205  1  0.16562701  0.20149571  0.60466675  1
  O2-  O206  1  0.16930577  0.21173905  0.92660505  1
  O2-  O207  1  0.17059594  0.70812984  0.26350455  1
  O2-  O208  1  0.16259677  0.70785577  0.60531775  1
  O2-  O209  1  0.16531009  0.70572410  0.93607115  1
  O2-  O210  1  0.66643066  0.20385262  0.26851054  1
  O2-  O211  1  0.66805450  0.20756157  0.59482759  1
  O2-  O212  1  0.66137876  0.20419094  0.94087541  1
  O2-  O213  1  0.66202588  0.70542436  0.26908501  1
  O2-  O214  1  0.66809029  0.70177850  0.60476715  1
  O2-  O215  1  0.66703516  0.69376084  0.93659541  1
  O2-  O216  1  0.09037762  0.45654007  0.06241302  1
  O2-  O217  1  0.07928357  0.45284119  0.40303580  1
  O2-  O218  1  0.08429186  0.46206711  0.73279027  1
  O2-  O219  1  0.08692867  0.95178624  0.06207013  1
  O2-  O220  1  0.08915909  0.95774279  0.39199902  1
  O2-  O221  1  0.07898978  0.95653738  0.73626870  1
  O2-  O222  1  0.58374081  0.45831632  0.06639994  1
  O2-  O223  1  0.58954403  0.46435276  0.39475390  1
  O2-  O224  1  0.58767663  0.46119629  0.73741414  1
  O2-  O225  1  0.57940073  0.96294733  0.06932874  1
  O2-  O226  1  0.57958132  0.95913711  0.40279681  1
  O2-  O227  1  0.58212639  0.95868639  0.73205729  1
  O2-  O228  1  0.21035581  0.33673070  0.06071459  1
  O2-  O229  1  0.20951685  0.32932186  0.40140962  1
  O2-  O230  1  0.19389636  0.33267792  0.72996565  1
  O2-  O231  1  0.21260120  0.83702846  0.06483841  1
  O2-  O232  1  0.20769121  0.83819857  0.39238136  1
  O2-  O233  1  0.20445129  0.83027916  0.73706902  1
  O2-  O234  1  0.69585211  0.33248411  0.06518799  1
  O2-  O235  1  0.69944237  0.33588560  0.39344326  1
  O2-  O236  1  0.71034530  0.33117450  0.73171283  1
  O2-  O237  1  0.69453496  0.82559452  0.06191282  1
  O2-  O238  1  0.70240297  0.82804056  0.40351130  1
  O2-  O239  1  0.70916185  0.83158445  0.73624441  1
  O2-  O240  1  0.46367506  0.41692617  0.26390053  1
  O2-  O241  1  0.46089954  0.42212515  0.60183641  1
  O2-  O242  1  0.45407988  0.41712726  0.94108205  1
  O2-  O243  1  0.45676774  0.91473878  0.27106869  1
  O2-  O244  1  0.45686009  0.91583678  0.59809311  1
  O2-  O245  1  0.45665280  0.91984781  0.93418008  1
  O2-  O246  1  0.94977271  0.41761953  0.27394027  1
  O2-  O247  1  0.95932268  0.41876676  0.59758742  1
  O2-  O248  1  0.96153346  0.41796469  0.93207274  1
  O2-  O249  1  0.96015082  0.91639798  0.26618028  1
  O2-  O250  1  0.95400308  0.91424019  0.60686608  1
  O2-  O251  1  0.95887267  0.91386816  0.92933518  1
  O2-  O252  1  0.33580640  0.28904095  0.26350248  1
  O2-  O253  1  0.32675155  0.30046216  0.60295869  1
  O2-  O254  1  0.33854145  0.29478758  0.93724187  1
  O2-  O255  1  0.33861965  0.79521876  0.26988676  1
  O2-  O256  1  0.33147542  0.78653828  0.60129733  1
  O2-  O257  1  0.33464212  0.78717229  0.93096984  1
  O2-  O258  1  0.83011310  0.30046179  0.27122083  1
  O2-  O259  1  0.83426744  0.29184993  0.59652724  1
  O2-  O260  1  0.82610456  0.29840923  0.93754341  1
  O2-  O261  1  0.82840173  0.79117349  0.26870227  1
  O2-  O262  1  0.83670274  0.79120252  0.60458418  1
  O2-  O263  1  0.83007360  0.78579597  0.93307932  1
  O2-  O264  1  0.40946175  0.04361888  0.06641197  1
  O2-  O265  1  0.41375943  0.04663387  0.39305781  1
  O2-  O266  1  0.41906555  0.04401558  0.73238733  1
  O2-  O267  1  0.41419024  0.54762374  0.06246045  1
  O2-  O268  1  0.42132188  0.54400730  0.39961359  1
  O2-  O269  1  0.41729809  0.54225143  0.73914075  1
  O2-  O270  1  0.92493118  0.04498958  0.06171869  1
  O2-  O271  1  0.92229015  0.04242187  0.40331866  1
  O2-  O272  1  0.91572171  0.04892107  0.73025973  1
  O2-  O273  1  0.91901108  0.53980520  0.06845053  1
  O2-  O274  1  0.91445393  0.54903504  0.39543067  1
  O2-  O275  1  0.91870422  0.54847086  0.72716075  1
  O2-  O276  1  0.29200304  0.16551282  0.06255807  1
  O2-  O277  1  0.29214067  0.16311929  0.39203181  1
  O2-  O278  1  0.29334752  0.17116732  0.73522111  1
  O2-  O279  1  0.29154468  0.66378283  0.06278103  1
  O2-  O280  1  0.29460769  0.67174264  0.40027585  1
  O2-  O281  1  0.28501259  0.66320417  0.73882394  1
  O2-  O282  1  0.79225983  0.16810340  0.06931652  1
  O2-  O283  1  0.79512072  0.17079911  0.40175368  1
  O2-  O284  1  0.79463174  0.16611466  0.72704863  1
  O2-  O285  1  0.78757043  0.66256555  0.07072598  1
  O2-  O286  1  0.78835734  0.66022790  0.39726743  1
  O2-  O287  1  0.79634848  0.66378877  0.72958851  1
