# generated using pymatgen
data_Ca2Al2SiO7
_symmetry_space_group_name_H-M   'P 1'
_cell_length_a   15.45335033
_cell_length_b   15.45349040
_cell_length_c   15.28063196
_cell_angle_alpha   90.01111729
_cell_angle_beta   89.99344466
_cell_angle_gamma   89.99614753
_symmetry_Int_Tables_number   1
_chemical_formula_structural   Ca2Al2SiO7
_chemical_formula_sum   'Ca48 Al48 Si24 O168'
_cell_volume   3649.14012747
_cell_formula_units_Z   24
loop_
 _symmetry_equiv_pos_site_id
 _symmetry_equiv_pos_as_xyz
  1  'x, y, z'
loop_
 _atom_type_symbol
 _atom_type_oxidation_number
  Ca2+  2.0
  Al0+  0.0
  Si0+  0.0
  O2-  -2.0
loop_
 _atom_site_type_symbol
 _atom_site_label
 _atom_site_symmetry_multiplicity
 _atom_site_fract_x
 _atom_site_fract_y
 _atom_site_fract_z
 _atom_site_occupancy
  Ca2+  Ca0  1  0.16381201  0.07570215  0.17761426  1
  Ca2+  Ca1  1  0.16765178  0.07282700  0.50349304  1
  Ca2+  Ca2  1  0.17065101  0.07633933  0.83096993  1
  Ca2+  Ca3  1  0.16698955  0.57933050  0.17758960  1
  Ca2+  Ca4  1  0.16502879  0.57754572  0.49714332  1
  Ca2+  Ca5  1  0.16244013  0.58059872  0.83483981  1
  Ca2+  Ca6  1  0.67756178  0.09239921  0.16830591  1
  Ca2+  Ca7  1  0.67407151  0.07722562  0.50265284  1
  Ca2+  Ca8  1  0.66884767  0.07971938  0.83931253  1
  Ca2+  Ca9  1  0.67384298  0.57594241  0.17949728  1
  Ca2+  Ca10  1  0.66968965  0.58038186  0.49692874  1
  Ca2+  Ca11  1  0.67044357  0.58219857  0.83633296  1
  Ca2+  Ca12  1  0.08245160  0.32781483  0.16517476  1
  Ca2+  Ca13  1  0.08742310  0.32917920  0.49482843  1
  Ca2+  Ca14  1  0.07206602  0.33576602  0.82566685  1
  Ca2+  Ca15  1  0.08452783  0.82208825  0.16993944  1
  Ca2+  Ca16  1  0.07831062  0.83640539  0.48915966  1
  Ca2+  Ca17  1  0.08048820  0.82880191  0.82697620  1
  Ca2+  Ca18  1  0.57487364  0.33658047  0.16276879  1
  Ca2+  Ca19  1  0.57679504  0.33341014  0.49041136  1
  Ca2+  Ca20  1  0.57970546  0.32473089  0.83389274  1
  Ca2+  Ca21  1  0.57065430  0.83396109  0.16495300  1
  Ca2+  Ca22  1  0.57266298  0.84065736  0.49737669  1
  Ca2+  Ca23  1  0.57501515  0.84141526  0.82645557  1
  Ca2+  Ca24  1  0.33272705  0.42210224  0.18084023  1
  Ca2+  Ca25  1  0.32274551  0.41650672  0.49992842  1
  Ca2+  Ca26  1  0.32582131  0.41464350  0.83743337  1
  Ca2+  Ca27  1  0.33011168  0.91426757  0.17442654  1
  Ca2+  Ca28  1  0.32293524  0.91452998  0.50733426  1
  Ca2+  Ca29  1  0.33517346  0.91568014  0.83222980  1
  Ca2+  Ca30  1  0.82866264  0.41849843  0.17591046  1
  Ca2+  Ca31  1  0.83624293  0.42218580  0.50008626  1
  Ca2+  Ca32  1  0.83714813  0.41222010  0.83907449  1
  Ca2+  Ca33  1  0.83746788  0.92770035  0.17589513  1
  Ca2+  Ca34  1  0.83712669  0.91930333  0.50555166  1
  Ca2+  Ca35  1  0.82901026  0.91836013  0.83756670  1
  Ca2+  Ca36  1  0.42188199  0.18259106  0.16051889  1
  Ca2+  Ca37  1  0.41369437  0.16861837  0.49391400  1
  Ca2+  Ca38  1  0.41835332  0.16405197  0.83132911  1
  Ca2+  Ca39  1  0.40434050  0.67767528  0.16735532  1
  Ca2+  Ca40  1  0.41066170  0.67590848  0.49305876  1
  Ca2+  Ca41  1  0.41842389  0.67927786  0.82943464  1
  Ca2+  Ca42  1  0.91894850  0.16573844  0.16493539  1
  Ca2+  Ca43  1  0.92326030  0.16853078  0.49238964  1
  Ca2+  Ca44  1  0.91026934  0.17636918  0.83182431  1
  Ca2+  Ca45  1  0.92724016  0.66176685  0.16736054  1
  Ca2+  Ca46  1  0.92088538  0.67880667  0.49025784  1
  Ca2+  Ca47  1  0.92489626  0.67055119  0.82627861  1
  Al0+  Al48  1  0.00009786  -0.00146659  0.00390600  1
  Al0+  Al49  1  0.00023735  0.00183103  0.33351703  1
  Al0+  Al50  1  0.00138302  0.00199549  0.67089045  1
  Al0+  Al51  1  0.00092725  0.49970747  -0.00701614  1
  Al0+  Al52  1  -0.00125471  0.49983010  0.33845225  1
  Al0+  Al53  1  -0.00055936  0.50007883  0.66576906  1
  Al0+  Al54  1  0.49890067  0.00028886  -0.00446188  1
  Al0+  Al55  1  0.50231508  0.00173902  0.32595690  1
  Al0+  Al56  1  0.50225920  0.00060034  0.66825757  1
  Al0+  Al57  1  0.49867488  0.50212483  -0.00437991  1
  Al0+  Al58  1  0.50006809  0.50167459  0.33882618  1
  Al0+  Al59  1  0.50122066  0.49925349  0.66892748  1
  Al0+  Al60  1  0.24828030  0.24829966  -0.00277329  1
  Al0+  Al61  1  0.25102520  0.24940737  0.32591308  1
  Al0+  Al62  1  0.24982392  0.25079505  0.67691516  1
  Al0+  Al63  1  0.24887883  0.74819353  -0.00980741  1
  Al0+  Al64  1  0.24788149  0.75007882  0.33406276  1
  Al0+  Al65  1  0.25096447  0.74802574  0.66752778  1
  Al0+  Al66  1  0.74936290  0.24958145  -0.00292754  1
  Al0+  Al67  1  0.75036675  0.24830733  0.34400438  1
  Al0+  Al68  1  0.74920065  0.25184568  0.66113655  1
  Al0+  Al69  1  0.74942533  0.75012486  0.00385888  1
  Al0+  Al70  1  0.74767240  0.75198794  0.33196218  1
  Al0+  Al71  1  0.75089807  0.74900527  0.66843715  1
  Al0+  Al72  1  0.06883268  0.67931752  0.98452741  1
  Al0+  Al73  1  0.17891223  0.43056810  0.68251739  1
  Al0+  Al74  1  0.42994637  0.32174076  0.32235595  1
  Al0+  Al75  1  0.17854006  0.42546149  0.34596264  1
  Al0+  Al76  1  0.68164117  0.92903365  0.67969053  1
  Al0+  Al77  1  0.42618145  0.32431140  0.98315930  1
  Al0+  Al78  1  0.81946648  0.07059552  0.01367049  1
  Al0+  Al79  1  0.06940791  0.67772869  0.31996634  1
  Al0+  Al80  1  0.18098683  0.93000451  0.34435243  1
  Al0+  Al81  1  0.07143147  0.17972889  0.32092604  1
  Al0+  Al82  1  0.43099324  0.82068850  0.65121559  1
  Al0+  Al83  1  0.92619990  0.82330223  0.31776694  1
  Al0+  Al84  1  0.17730551  0.92612064  0.68310919  1
  Al0+  Al85  1  0.92833998  0.32126332  0.64995640  1
  Al0+  Al86  1  0.67844999  0.42834085  0.34894063  1
  Al0+  Al87  1  0.42833763  0.82117060  0.32093287  1
  Al0+  Al88  1  0.57044287  0.18137785  0.98470980  1
  Al0+  Al89  1  0.32192342  0.07036875  0.68120217  1
  Al0+  Al90  1  0.82177173  0.06958957  0.34896142  1
  Al0+  Al91  1  0.82231384  0.57336755  0.34872090  1
  Al0+  Al92  1  0.92990780  0.82213022  0.65518652  1
  Al0+  Al93  1  0.42981118  0.81967838  0.98480284  1
  Al0+  Al94  1  0.93172142  0.31822576  0.98918641  1
  Al0+  Al95  1  0.32048666  0.57270738  0.34815473  1
  Si0+  Si96  1  0.42810010  0.32112759  0.65229335  1
  Si0+  Si97  1  0.31955717  0.57068965  0.01304140  1
  Si0+  Si98  1  0.32458348  0.07178468  0.34472041  1
  Si0+  Si99  1  0.32448781  0.57132890  0.68618825  1
  Si0+  Si100  1  0.57166056  0.67771860  0.31689493  1
  Si0+  Si101  1  0.67547421  0.92712775  0.01880259  1
  Si0+  Si102  1  0.82285512  0.57103980  0.01361790  1
  Si0+  Si103  1  0.07353060  0.17995035  0.65163829  1
  Si0+  Si104  1  0.17764834  0.42900202  0.01417705  1
  Si0+  Si105  1  0.92672145  0.82319165  0.98443856  1
  Si0+  Si106  1  0.57053097  0.17946855  0.64947579  1
  Si0+  Si107  1  0.32175316  0.07103914  0.01711318  1
  Si0+  Si108  1  0.57535990  0.67814579  0.98343929  1
  Si0+  Si109  1  0.92673898  0.32102669  0.31909532  1
  Si0+  Si110  1  0.67907929  0.43049717  0.01256575  1
  Si0+  Si111  1  0.57310305  0.67549372  0.64938042  1
  Si0+  Si112  1  0.67559567  0.92857539  0.34844708  1
  Si0+  Si113  1  0.81971634  0.56940926  0.68340468  1
  Si0+  Si114  1  0.57450559  0.17873269  0.31714055  1
  Si0+  Si115  1  0.07197617  0.67817140  0.64837765  1
  Si0+  Si116  1  0.82232778  0.07425495  0.68378581  1
  Si0+  Si117  1  0.18084578  0.92713601  0.01561699  1
  Si0+  Si118  1  0.67791847  0.42755363  0.68469088  1
  Si0+  Si119  1  0.07277185  0.17305956  0.98162923  1
  O2-  O120  1  0.24979507  0.00046360  0.05859637  1
  O2-  O121  1  0.25896858  0.00174219  0.39018714  1
  O2-  O122  1  0.25251648  -0.00420726  0.73258609  1
  O2-  O123  1  0.25459658  0.49402539  0.05522969  1
  O2-  O124  1  0.24949814  0.49861285  0.39634572  1
  O2-  O125  1  0.25403195  0.50447239  0.73069872  1
  O2-  O126  1  0.74614435  -0.00570624  0.06165154  1
  O2-  O127  1  0.74921342  -0.00843960  0.39303825  1
  O2-  O128  1  0.75780171  0.00169478  0.72789807  1
  O2-  O129  1  0.74881132  0.50271028  0.05468449  1
  O2-  O130  1  0.75150254  0.49965030  0.39906475  1
  O2-  O131  1  0.75013694  0.49711625  0.72748651  1
  O2-  O132  1  -0.00242405  0.25566143  0.27392335  1
  O2-  O133  1  0.00296622  0.24596083  0.60611180  1
  O2-  O134  1  0.00477211  0.24334374  0.93924385  1
  O2-  O135  1  -0.00513287  0.74715885  0.26882312  1
  O2-  O136  1  0.00982956  0.75380652  0.60724314  1
  O2-  O137  1  -0.00708023  0.75330071  0.93894762  1
  O2-  O138  1  0.50720130  0.24976805  0.27513767  1
  O2-  O139  1  0.49780693  0.24958803  0.60889437  1
  O2-  O140  1  0.49552863  0.24976375  0.93273801  1
  O2-  O141  1  0.50129551  0.74487858  0.27282903  1
  O2-  O142  1  0.50409639  0.74362882  0.60553303  1
  O2-  O143  1  0.50983275  0.74951407  0.93930535  1
  O2-  O144  1  0.07331971  0.17307012  0.08728215  1
  O2-  O145  1  0.07166376  0.17912064  0.43400296  1
  O2-  O146  1  0.07204150  0.18151476  0.75758753  1
  O2-  O147  1  0.06975803  0.67708833  0.09699598  1
  O2-  O148  1  0.07012163  0.68041392  0.43325193  1
  O2-  O149  1  0.06747140  0.67617251  0.75469735  1
  O2-  O150  1  0.57120616  0.18656863  0.09818793  1
  O2-  O151  1  0.57193323  0.17569688  0.42293761  1
  O2-  O152  1  0.57292709  0.18156105  0.75457828  1
  O2-  O153  1  0.57665857  0.67567907  0.08850519  1
  O2-  O154  1  0.57271560  0.67907197  0.42245234  1
  O2-  O155  1  0.57227080  0.67393902  0.75546812  1
  O2-  O156  1  0.18042184  0.42553344  0.23169609  1
  O2-  O157  1  0.18122398  0.42885792  0.56996135  1
  O2-  O158  1  0.17606840  0.43261692  0.90896551  1
  O2-  O159  1  0.18255498  0.92981226  0.23054588  1
  O2-  O160  1  0.17671736  0.92842904  0.56974585  1
  O2-  O161  1  0.18108356  0.92815912  0.91061322  1
  O2-  O162  1  0.67928170  0.42893833  0.23435701  1
  O2-  O163  1  0.67508496  0.42838385  0.58034325  1
  O2-  O164  1  0.68067067  0.43167539  0.90700084  1
  O2-  O165  1  0.67204449  0.93206122  0.24292058  1
  O2-  O166  1  0.68045892  0.93240785  0.56681660  1
  O2-  O167  1  0.67713079  0.92638208  0.91292239  1
  O2-  O168  1  0.42888247  0.32693838  0.09668203  1
  O2-  O169  1  0.42907215  0.31729478  0.43591431  1
  O2-  O170  1  0.43123984  0.32167929  0.75739398  1
  O2-  O171  1  0.42765296  0.81729917  0.09791547  1
  O2-  O172  1  0.43035710  0.82281080  0.43374496  1
  O2-  O173  1  0.43396671  0.81898457  0.76470136  1
  O2-  O174  1  0.93256614  0.32052618  0.10191036  1
  O2-  O175  1  0.92692445  0.31808666  0.42465356  1
  O2-  O176  1  0.92736515  0.31979733  0.76372708  1
  O2-  O177  1  0.92787131  0.82337127  0.08947515  1
  O2-  O178  1  0.92928902  0.82400986  0.43169950  1
  O2-  O179  1  0.92789693  0.81683711  0.76887112  1
  O2-  O180  1  0.32328101  0.07042558  0.23883073  1
  O2-  O181  1  0.32027837  0.07222477  0.56743793  1
  O2-  O182  1  0.32138527  0.07005885  0.91209905  1
  O2-  O183  1  0.31928996  0.57207607  0.23361704  1
  O2-  O184  1  0.32709617  0.56996863  0.58115439  1
  O2-  O185  1  0.31787815  0.57113772  0.90785804  1
  O2-  O186  1  0.81917356  0.07242875  0.23557496  1
  O2-  O187  1  0.82068103  0.07447498  0.57833306  1
  O2-  O188  1  0.81736264  0.06987057  0.90034842  1
  O2-  O189  1  0.82078941  0.56916785  0.23410049  1
  O2-  O190  1  0.81762535  0.56957462  0.57905377  1
  O2-  O191  1  0.82174835  0.57065106  0.90806442  1
  O2-  O192  1  0.03755440  0.08570162  0.26405423  1
  O2-  O193  1  0.05029028  0.08507611  0.60748059  1
  O2-  O194  1  0.04604189  0.07954291  0.93618642  1
  O2-  O195  1  0.04237024  0.57777516  0.26735515  1
  O2-  O196  1  0.03899236  0.58719160  0.60266541  1
  O2-  O197  1  0.03663919  0.58474099  0.92676829  1
  O2-  O198  1  0.54948146  0.08751616  0.26609720  1
  O2-  O199  1  0.54416037  0.08786569  0.60213852  1
  O2-  O200  1  0.54461369  0.08205032  0.93232895  1
  O2-  O201  1  0.54868803  0.58323786  0.27177044  1
  O2-  O202  1  0.54834787  0.58085960  0.60436784  1
  O2-  O203  1  0.54715789  0.58651659  0.93398377  1
  O2-  O204  1  0.16651219  0.20750730  0.26152773  1
  O2-  O205  1  0.16702813  0.20901046  0.60796734  1
  O2-  O206  1  0.16648376  0.19697684  0.93559850  1
  O2-  O207  1  0.16621574  0.70923729  0.26504227  1
  O2-  O208  1  0.16930194  0.69362300  0.60782372  1
  O2-  O209  1  0.16301965  0.71038260  0.92638222  1
  O2-  O210  1  0.66921579  0.20475716  0.27419023  1
  O2-  O211  1  0.66087990  0.20948449  0.60050462  1
  O2-  O212  1  0.66630439  0.21308217  0.92808849  1
  O2-  O213  1  0.66381205  0.70395604  0.26767698  1
  O2-  O214  1  0.66708352  0.70073743  0.60520153  1
  O2-  O215  1  0.67039434  0.70034484  0.93699907  1
  O2-  O216  1  0.08744058  0.46247796  0.06079246  1
  O2-  O217  1  0.08006912  0.45004983  0.39967144  1
  O2-  O218  1  0.08173268  0.46341365  0.73589214  1
  O2-  O219  1  0.08811677  0.95210735  0.06266319  1
  O2-  O220  1  0.08651826  0.96492391  0.39859196  1
  O2-  O221  1  0.08071807  0.95824104  0.73979640  1
  O2-  O222  1  0.58613453  0.45826253  0.05820498  1
  O2-  O223  1  0.58215773  0.45888199  0.40508810  1
  O2-  O224  1  0.58700406  0.45641359  0.73446741  1
  O2-  O225  1  0.58122961  0.95397812  0.06270182  1
  O2-  O226  1  0.58428814  0.96177934  0.39622976  1
  O2-  O227  1  0.58729024  0.96383020  0.73557780  1
  O2-  O228  1  0.19728575  0.33308421  0.05710368  1
  O2-  O229  1  0.21150014  0.32775573  0.39843478  1
  O2-  O230  1  0.20866041  0.33580089  0.74067344  1
  O2-  O231  1  0.21223899  0.83464836  0.05922448  1
  O2-  O232  1  0.20852889  0.83441906  0.39984555  1
  O2-  O233  1  0.20369825  0.82619706  0.73469023  1
  O2-  O234  1  0.70790023  0.33955478  0.05931725  1
  O2-  O235  1  0.70363857  0.33091283  0.40486503  1
  O2-  O236  1  0.70635374  0.33504235  0.73062173  1
  O2-  O237  1  0.69749523  0.83203691  0.06454112  1
  O2-  O238  1  0.69207358  0.83289186  0.39266496  1
  O2-  O239  1  0.70817420  0.83126413  0.73509894  1
  O2-  O240  1  0.45970679  0.41964850  0.27015701  1
  O2-  O241  1  0.45800917  0.41308939  0.60654180  1
  O2-  O242  1  0.45561074  0.42208036  0.92884755  1
  O2-  O243  1  0.46073348  0.91652222  0.26382988  1
  O2-  O244  1  0.46440211  0.91738383  0.59967251  1
  O2-  O245  1  0.45688754  0.91700432  0.93098556  1
  O2-  O246  1  0.94687503  0.41652712  0.27562708  1
  O2-  O247  1  0.95922847  0.41843039  0.59852718  1
  O2-  O248  1  0.96243432  0.41309242  0.93072893  1
  O2-  O249  1  0.95984878  0.91987592  0.26498568  1
  O2-  O250  1  0.95393657  0.92247762  0.60569823  1
  O2-  O251  1  0.95414916  0.91611971  0.93790674  1
  O2-  O252  1  0.33698597  0.28976222  0.26245313  1
  O2-  O253  1  0.33478771  0.29391781  0.60895669  1
  O2-  O254  1  0.32674458  0.29595660  0.93217077  1
  O2-  O255  1  0.33250471  0.78982170  0.26599931  1
  O2-  O256  1  0.33254149  0.79060884  0.60078830  1
  O2-  O257  1  0.33664338  0.78399776  0.92774694  1
  O2-  O258  1  0.83297697  0.29167213  0.27510055  1
  O2-  O259  1  0.83094802  0.29370449  0.59617833  1
  O2-  O260  1  0.83531393  0.28906898  0.93318277  1
  O2-  O261  1  0.82520399  0.80208009  0.26657067  1
  O2-  O262  1  0.83421427  0.78730592  0.60193149  1
  O2-  O263  1  0.83093093  0.79968119  0.94095326  1
  O2-  O264  1  0.41416776  0.04329294  0.06305398  1
  O2-  O265  1  0.42001264  0.05046102  0.38898463  1
  O2-  O266  1  0.42078405  0.04359464  0.73465726  1
  O2-  O267  1  0.41442247  0.55046181  0.05833065  1
  O2-  O268  1  0.41899013  0.54876028  0.40206654  1
  O2-  O269  1  0.41785272  0.54408020  0.73358150  1
  O2-  O270  1  0.91730969  0.04230227  0.06756298  1
  O2-  O271  1  0.91806433  0.04101357  0.40351593  1
  O2-  O272  1  0.91719106  0.05573858  0.72963555  1
  O2-  O273  1  0.91376311  0.53878896  0.05921316  1
  O2-  O274  1  0.91894847  0.54638057  0.40493079  1
  O2-  O275  1  0.91155727  0.54157829  0.73085173  1
  O2-  O276  1  0.29512176  0.16456213  0.06264231  1
  O2-  O277  1  0.29750526  0.16483667  0.38980970  1
  O2-  O278  1  0.29265729  0.16670281  0.73932650  1
  O2-  O279  1  0.28578104  0.66145400  0.05885356  1
  O2-  O280  1  0.28939241  0.66911297  0.40273253  1
  O2-  O281  1  0.29951037  0.66500064  0.73248722  1
  O2-  O282  1  0.78641701  0.16728297  0.06708145  1
  O2-  O283  1  0.78965240  0.16313938  0.40774713  1
  O2-  O284  1  0.78957490  0.16718523  0.72805546  1
  O2-  O285  1  0.79892495  0.66373327  0.06133774  1
  O2-  O286  1  0.79106266  0.67200198  0.39993828  1
  O2-  O287  1  0.79039238  0.65964295  0.73378707  1
