# generated using pymatgen
data_Ca2Al2SiO7
_symmetry_space_group_name_H-M   'P 1'
_cell_length_a   15.46536457
_cell_length_b   15.46380732
_cell_length_c   15.28872482
_cell_angle_alpha   89.99832146
_cell_angle_beta   90.00557578
_cell_angle_gamma   89.99138117
_symmetry_Int_Tables_number   1
_chemical_formula_structural   Ca2Al2SiO7
_chemical_formula_sum   'Ca48 Al48 Si24 O168'
_cell_volume   3656.35073530
_cell_formula_units_Z   24
loop_
 _symmetry_equiv_pos_site_id
 _symmetry_equiv_pos_as_xyz
  1  'x, y, z'
loop_
 _atom_type_symbol
 _atom_type_oxidation_number
  Ca2+  2.0
  Al0+  0.0
  Si0+  0.0
  O2-  -2.0
loop_
 _atom_site_type_symbol
 _atom_site_label
 _atom_site_symmetry_multiplicity
 _atom_site_fract_x
 _atom_site_fract_y
 _atom_site_fract_z
 _atom_site_occupancy
  Ca2+  Ca0  1  0.15459522  0.07260803  0.16975351  1
  Ca2+  Ca1  1  0.15818307  0.07742493  0.49830657  1
  Ca2+  Ca2  1  0.16351092  0.07534165  0.84542424  1
  Ca2+  Ca3  1  0.17467532  0.58903783  0.17144479  1
  Ca2+  Ca4  1  0.16906056  0.59081497  0.50004041  1
  Ca2+  Ca5  1  0.16807214  0.58261537  0.84497225  1
  Ca2+  Ca6  1  0.66994341  0.08506388  0.16937824  1
  Ca2+  Ca7  1  0.66964880  0.07952791  0.50837080  1
  Ca2+  Ca8  1  0.67983917  0.07554632  0.83782754  1
  Ca2+  Ca9  1  0.67357970  0.57282373  0.17416005  1
  Ca2+  Ca10  1  0.67058928  0.57981962  0.50034783  1
  Ca2+  Ca11  1  0.66533353  0.58240639  0.83893465  1
  Ca2+  Ca12  1  0.08698874  0.32319457  0.16061051  1
  Ca2+  Ca13  1  0.07422401  0.32358920  0.48677265  1
  Ca2+  Ca14  1  0.09172922  0.32689128  0.83475310  1
  Ca2+  Ca15  1  0.08600520  0.82495040  0.15869959  1
  Ca2+  Ca16  1  0.07876070  0.82708224  0.49569805  1
  Ca2+  Ca17  1  0.07854061  0.82623716  0.83551238  1
  Ca2+  Ca18  1  0.57738472  0.34172471  0.16491237  1
  Ca2+  Ca19  1  0.58097832  0.32689069  0.48503794  1
  Ca2+  Ca20  1  0.57869357  0.33960394  0.83592976  1
  Ca2+  Ca21  1  0.57251873  0.83030494  0.15925846  1
  Ca2+  Ca22  1  0.59009152  0.82879253  0.50021803  1
  Ca2+  Ca23  1  0.57793522  0.83189419  0.82749977  1
  Ca2+  Ca24  1  0.33278290  0.42231312  0.16734303  1
  Ca2+  Ca25  1  0.33690298  0.42034850  0.49632962  1
  Ca2+  Ca26  1  0.32796895  0.42486571  0.84705055  1
  Ca2+  Ca27  1  0.32006421  0.91043550  0.17043985  1
  Ca2+  Ca28  1  0.32572568  0.91719093  0.49930143  1
  Ca2+  Ca29  1  0.32727599  0.91561096  0.84436932  1
  Ca2+  Ca30  1  0.82491739  0.41565063  0.17532703  1
  Ca2+  Ca31  1  0.83546335  0.41830561  0.49565159  1
  Ca2+  Ca32  1  0.82389007  0.42007994  0.84235639  1
  Ca2+  Ca33  1  0.84480364  0.92251280  0.16547401  1
  Ca2+  Ca34  1  0.83070268  0.92445303  0.51286026  1
  Ca2+  Ca35  1  0.84374187  0.92171998  0.83681056  1
  Ca2+  Ca36  1  0.42226343  0.17890422  0.16291194  1
  Ca2+  Ca37  1  0.42552200  0.17399738  0.48704229  1
  Ca2+  Ca38  1  0.41265966  0.17707657  0.83271814  1
  Ca2+  Ca39  1  0.41093970  0.66614935  0.15951743  1
  Ca2+  Ca40  1  0.42232553  0.66386697  0.49649446  1
  Ca2+  Ca41  1  0.41825434  0.66904674  0.83496630  1
  Ca2+  Ca42  1  0.92230594  0.17075756  0.16379906  1
  Ca2+  Ca43  1  0.91510783  0.17111654  0.49136080  1
  Ca2+  Ca44  1  0.91610419  0.16111394  0.83646864  1
  Ca2+  Ca45  1  0.92663959  0.66789551  0.16035445  1
  Ca2+  Ca46  1  0.92549630  0.66834603  0.49209300  1
  Ca2+  Ca47  1  0.92711025  0.67540697  0.82538072  1
  Al0+  Al48  1  0.00055231  0.00127083  0.00155341  1
  Al0+  Al49  1  -0.00147677  -0.00125196  0.33824134  1
  Al0+  Al50  1  0.00184880  -0.00019572  0.66797357  1
  Al0+  Al51  1  -0.00052087  0.49669278  -0.00060149  1
  Al0+  Al52  1  0.00052228  0.50051042  0.32928662  1
  Al0+  Al53  1  0.00042047  0.49754066  0.66422373  1
  Al0+  Al54  1  0.50202029  0.00086942  -0.00510046  1
  Al0+  Al55  1  0.49859177  -0.00046060  0.33020711  1
  Al0+  Al56  1  0.49893844  0.00266991  0.67089941  1
  Al0+  Al57  1  0.49978914  0.49940237  0.00254770  1
  Al0+  Al58  1  0.50037613  0.50040368  0.33866009  1
  Al0+  Al59  1  0.49794651  0.50217406  0.66334769  1
  Al0+  Al60  1  0.25220388  0.25037040  -0.00595138  1
  Al0+  Al61  1  0.25220264  0.24853657  0.32644506  1
  Al0+  Al62  1  0.24951572  0.25177207  0.66328740  1
  Al0+  Al63  1  0.25085628  0.75120369  -0.00212961  1
  Al0+  Al64  1  0.24897654  0.75077094  0.34238190  1
  Al0+  Al65  1  0.25195471  0.75061028  0.66474938  1
  Al0+  Al66  1  0.75001524  0.24801976  0.00728564  1
  Al0+  Al67  1  0.74988519  0.24774993  0.33056269  1
  Al0+  Al68  1  0.74908679  0.24979103  0.67213633  1
  Al0+  Al69  1  0.74931652  0.75196653  -0.00277434  1
  Al0+  Al70  1  0.74997736  0.75023927  0.33499406  1
  Al0+  Al71  1  0.74783867  0.74943369  0.66314962  1
  Al0+  Al72  1  0.92848791  0.32185106  0.31744149  1
  Al0+  Al73  1  0.42871465  0.82212081  0.98782251  1
  Al0+  Al74  1  0.67733649  0.92649237  0.68271081  1
  Al0+  Al75  1  0.17804757  0.93030734  0.34940703  1
  Al0+  Al76  1  0.82391247  0.57263541  0.34838628  1
  Al0+  Al77  1  0.07183320  0.67692763  0.65004336  1
  Al0+  Al78  1  0.92983087  0.82220789  0.65056470  1
  Al0+  Al79  1  0.31945598  0.57074349  0.34950627  1
  Al0+  Al80  1  0.07053862  0.17649131  0.31844551  1
  Al0+  Al81  1  0.43006578  0.32410304  0.31648840  1
  Al0+  Al82  1  0.07160026  0.67617898  0.98622838  1
  Al0+  Al83  1  0.07220879  0.68078261  0.31920284  1
  Al0+  Al84  1  0.82059823  0.06778628  0.01731155  1
  Al0+  Al85  1  0.31827003  0.57110833  0.01387614  1
  Al0+  Al86  1  0.92868751  0.82153930  0.98604380  1
  Al0+  Al87  1  0.57186189  0.17606995  0.31782900  1
  Al0+  Al88  1  0.82220511  0.07111876  0.68316670  1
  Al0+  Al89  1  0.17675384  0.42578857  0.01480328  1
  Al0+  Al90  1  0.43159093  0.32113150  0.98446851  1
  Al0+  Al91  1  0.68070029  0.42827698  0.35015890  1
  Al0+  Al92  1  0.06990223  0.18098211  0.98557955  1
  Al0+  Al93  1  0.67996402  0.43080142  0.01332447  1
  Al0+  Al94  1  0.18134412  0.93138597  0.01295560  1
  Al0+  Al95  1  0.56965784  0.67913442  0.65227931  1
  Si0+  Si96  1  0.57480503  0.17767392  0.97977113  1
  Si0+  Si97  1  0.92613628  0.31992891  0.65344439  1
  Si0+  Si98  1  0.82298403  0.57491825  0.01382164  1
  Si0+  Si99  1  0.32025732  0.07459276  0.68125558  1
  Si0+  Si100  1  0.81902347  0.06812857  0.34848992  1
  Si0+  Si101  1  0.57204727  0.67958595  0.31861822  1
  Si0+  Si102  1  0.42881661  0.81929879  0.32074590  1
  Si0+  Si103  1  0.42859575  0.32159387  0.65047835  1
  Si0+  Si104  1  0.32543171  0.07359174  0.01587188  1
  Si0+  Si105  1  0.17897078  0.42794551  0.67972760  1
  Si0+  Si106  1  0.42836656  0.82554271  0.64856414  1
  Si0+  Si107  1  0.92608707  0.82143903  0.31786929  1
  Si0+  Si108  1  0.32340975  0.07166904  0.34892615  1
  Si0+  Si109  1  0.18157896  0.92975654  0.68347084  1
  Si0+  Si110  1  0.17846269  0.42450943  0.34922039  1
  Si0+  Si111  1  0.67467246  0.92831201  0.34729564  1
  Si0+  Si112  1  0.67715815  0.43013253  0.68136359  1
  Si0+  Si113  1  0.57143293  0.67830573  0.98575375  1
  Si0+  Si114  1  0.92451530  0.32074151  0.98254499  1
  Si0+  Si115  1  0.32095009  0.57043167  0.68216022  1
  Si0+  Si116  1  0.07196572  0.18009829  0.65233813  1
  Si0+  Si117  1  0.57044961  0.18119366  0.65395088  1
  Si0+  Si118  1  0.67551030  0.92642474  0.01805339  1
  Si0+  Si119  1  0.82209271  0.56981951  0.68093955  1
  O2-  O120  1  0.25772594  0.00460522  0.06036317  1
  O2-  O121  1  0.25044744  0.00857257  0.39549194  1
  O2-  O122  1  0.25214046  0.00193516  0.72477125  1
  O2-  O123  1  0.24332580  0.50272461  0.06437177  1
  O2-  O124  1  0.24505476  0.49462627  0.39596863  1
  O2-  O125  1  0.24496401  0.50385587  0.72174946  1
  O2-  O126  1  0.74659094  -0.00839055  0.06340991  1
  O2-  O127  1  0.74580251  -0.00099696  0.38949512  1
  O2-  O128  1  0.75450139  -0.00629169  0.73181453  1
  O2-  O129  1  0.75633741  0.50427146  0.05789856  1
  O2-  O130  1  0.75372172  0.49908232  0.40065892  1
  O2-  O131  1  0.74832078  0.50107576  0.72351689  1
  O2-  O132  1  0.00436983  0.25341878  0.26853006  1
  O2-  O133  1  -0.00361796  0.24709880  0.61244746  1
  O2-  O134  1  -0.00221217  0.25755689  0.93661909  1
  O2-  O135  1  -0.00699283  0.75121057  0.27443954  1
  O2-  O136  1  -0.00111471  0.74792680  0.59962928  1
  O2-  O137  1  -0.00413878  0.74471269  0.93669664  1
  O2-  O138  1  0.50407906  0.25248500  0.26900288  1
  O2-  O139  1  0.50023906  0.25138107  0.60927562  1
  O2-  O140  1  0.50526896  0.24594189  0.93537409  1
  O2-  O141  1  0.49912407  0.74856534  0.27724673  1
  O2-  O142  1  0.49930718  0.75873727  0.60507234  1
  O2-  O143  1  0.50516115  0.74928120  0.94136700  1
  O2-  O144  1  0.06771150  0.17898177  0.09792230  1
  O2-  O145  1  0.06599585  0.17624849  0.43324462  1
  O2-  O146  1  0.07726274  0.18242914  0.75699684  1
  O2-  O147  1  0.07336799  0.68012405  0.09963101  1
  O2-  O148  1  0.07268593  0.68485386  0.43251644  1
  O2-  O149  1  0.07174665  0.67543140  0.76320377  1
  O2-  O150  1  0.57288850  0.17619490  0.08495869  1
  O2-  O151  1  0.56917260  0.17442207  0.43266382  1
  O2-  O152  1  0.56905542  0.18371980  0.75863146  1
  O2-  O153  1  0.57144550  0.67932615  0.09140919  1
  O2-  O154  1  0.57196279  0.68191595  0.42393077  1
  O2-  O155  1  0.56345864  0.67327635  0.76507155  1
  O2-  O156  1  0.18109941  0.42396410  0.24433408  1
  O2-  O157  1  0.18174268  0.42247820  0.57508522  1
  O2-  O158  1  0.18215716  0.42550088  0.89998797  1
  O2-  O159  1  0.17979435  0.92857063  0.23676819  1
  O2-  O160  1  0.18232782  0.93136757  0.57826022  1
  O2-  O161  1  0.18281080  0.93262255  0.89920704  1
  O2-  O162  1  0.67995788  0.43243486  0.23686809  1
  O2-  O163  1  0.67735362  0.42810712  0.57692188  1
  O2-  O164  1  0.67972330  0.43336011  0.89891868  1
  O2-  O165  1  0.67206387  0.92745196  0.24254843  1
  O2-  O166  1  0.67514656  0.93330073  0.56854222  1
  O2-  O167  1  0.67224081  0.92840334  0.91284261  1
  O2-  O168  1  0.43352127  0.32191526  0.09656963  1
  O2-  O169  1  0.43131984  0.32069415  0.43145620  1
  O2-  O170  1  0.42780451  0.32143214  0.75542255  1
  O2-  O171  1  0.42954513  0.82140062  0.10121412  1
  O2-  O172  1  0.43132676  0.82032416  0.42610770  1
  O2-  O173  1  0.42629104  0.82420410  0.75397454  1
  O2-  O174  1  0.92173010  0.31709047  0.08737193  1
  O2-  O175  1  0.92852220  0.31673335  0.43243555  1
  O2-  O176  1  0.92544387  0.32235322  0.75819637  1
  O2-  O177  1  0.93058237  0.82045055  0.09979271  1
  O2-  O178  1  0.92622001  0.82254536  0.42349392  1
  O2-  O179  1  0.93492010  0.82182336  0.76375446  1
  O2-  O180  1  0.32823575  0.06643467  0.24422152  1
  O2-  O181  1  0.31938386  0.07627337  0.57632891  1
  O2-  O182  1  0.32279009  0.07215620  0.90923908  1
  O2-  O183  1  0.31934756  0.57480973  0.23734878  1
  O2-  O184  1  0.32374843  0.56809092  0.57718893  1
  O2-  O185  1  0.32060394  0.56956687  0.89942625  1
  O2-  O186  1  0.82145319  0.06516321  0.24379364  1
  O2-  O187  1  0.81823655  0.07523418  0.56931865  1
  O2-  O188  1  0.81941062  0.06767778  0.90419023  1
  O2-  O189  1  0.81819945  0.57684334  0.23507859  1
  O2-  O190  1  0.82332619  0.56615030  0.57633049  1
  O2-  O191  1  0.81962259  0.57380680  0.90749643  1
  O2-  O192  1  0.03593033  0.07896976  0.26831652  1
  O2-  O193  1  0.04900066  0.08662197  0.60711357  1
  O2-  O194  1  0.03608929  0.08571875  0.93088307  1
  O2-  O195  1  0.04931983  0.58219645  0.26729986  1
  O2-  O196  1  0.04569678  0.57677220  0.59844533  1
  O2-  O197  1  0.04855429  0.57538070  0.93448819  1
  O2-  O198  1  0.53989132  0.07938975  0.26294293  1
  O2-  O199  1  0.54247686  0.08898826  0.60724857  1
  O2-  O200  1  0.55081145  0.08426663  0.93239238  1
  O2-  O201  1  0.54546561  0.58700663  0.27446669  1
  O2-  O202  1  0.53353283  0.58489263  0.59523012  1
  O2-  O203  1  0.54280226  0.58633174  0.93844202  1
  O2-  O204  1  0.17160804  0.19526624  0.26845991  1
  O2-  O205  1  0.16136106  0.21186098  0.60162206  1
  O2-  O206  1  0.16709058  0.20810928  0.92938041  1
  O2-  O207  1  0.16859727  0.71763038  0.26915307  1
  O2-  O208  1  0.17148781  0.70714457  0.59995461  1
  O2-  O209  1  0.16785350  0.70988724  0.93182860  1
  O2-  O210  1  0.67123992  0.19792566  0.26677550  1
  O2-  O211  1  0.66262339  0.20897353  0.60709792  1
  O2-  O212  1  0.66811384  0.20645118  0.93537279  1
  O2-  O213  1  0.66254065  0.70934182  0.27030530  1
  O2-  O214  1  0.66683808  0.70334106  0.59624759  1
  O2-  O215  1  0.66482279  0.70115238  0.93772456  1
  O2-  O216  1  0.07419011  0.44140742  0.06309382  1
  O2-  O217  1  0.08338429  0.44756968  0.39330209  1
  O2-  O218  1  0.08507885  0.44867766  0.72617140  1
  O2-  O219  1  0.08640743  0.96392185  0.06731969  1
  O2-  O220  1  0.08214233  0.96089791  0.40623175  1
  O2-  O221  1  0.09029107  0.95799674  0.73035916  1
  O2-  O222  1  0.58518900  0.46329710  0.06802531  1
  O2-  O223  1  0.58330863  0.45838259  0.40462057  1
  O2-  O224  1  0.58466396  0.45970349  0.72724801  1
  O2-  O225  1  0.58263270  0.95604641  0.06447460  1
  O2-  O226  1  0.58327676  0.95570632  0.39629069  1
  O2-  O227  1  0.57959136  0.95949556  0.73611626  1
  O2-  O228  1  0.21203396  0.32860585  0.06521207  1
  O2-  O229  1  0.20578515  0.33049740  0.39580671  1
  O2-  O230  1  0.21216723  0.33792487  0.72880653  1
  O2-  O231  1  0.21342410  0.83543642  0.06615864  1
  O2-  O232  1  0.21466223  0.83819404  0.40818706  1
  O2-  O233  1  0.21162290  0.83789702  0.72913111  1
  O2-  O234  1  0.70723775  0.33387913  0.06681095  1
  O2-  O235  1  0.70729784  0.32754189  0.40063634  1
  O2-  O236  1  0.70463199  0.33919730  0.73082279  1
  O2-  O237  1  0.69584515  0.83089196  0.06240662  1
  O2-  O238  1  0.70229117  0.83674368  0.39529156  1
  O2-  O239  1  0.69505151  0.82391870  0.73108156  1
  O2-  O240  1  0.45913150  0.42332878  0.26661953  1
  O2-  O241  1  0.45541750  0.41336771  0.60369403  1
  O2-  O242  1  0.46479070  0.41725798  0.92939300  1
  O2-  O243  1  0.45567432  0.91006130  0.27188550  1
  O2-  O244  1  0.44997721  0.92140252  0.60473795  1
  O2-  O245  1  0.45728661  0.91862509  0.93117188  1
  O2-  O246  1  0.94829481  0.42210375  0.26665323  1
  O2-  O247  1  0.95543994  0.40994461  0.60367837  1
  O2-  O248  1  0.94257665  0.41644155  0.93752358  1
  O2-  O249  1  0.95495815  0.91456056  0.27382989  1
  O2-  O250  1  0.96078009  0.92104683  0.59812528  1
  O2-  O251  1  0.96334636  0.91790778  0.93348883  1
  O2-  O252  1  0.33277554  0.29553048  0.26324800  1
  O2-  O253  1  0.33764768  0.29219129  0.60202422  1
  O2-  O254  1  0.33692292  0.28943521  0.92631871  1
  O2-  O255  1  0.33664052  0.79054479  0.27648517  1
  O2-  O256  1  0.33640960  0.79648463  0.60100563  1
  O2-  O257  1  0.33504216  0.79029315  0.92952912  1
  O2-  O258  1  0.83198145  0.28916377  0.26494282  1
  O2-  O259  1  0.83382493  0.29256203  0.60636587  1
  O2-  O260  1  0.83262918  0.28877268  0.93539585  1
  O2-  O261  1  0.83125788  0.80064094  0.27196163  1
  O2-  O262  1  0.82832971  0.80038523  0.60187551  1
  O2-  O263  1  0.82746926  0.80162584  0.93384079  1
  O2-  O264  1  0.42062535  0.05034150  0.05854938  1
  O2-  O265  1  0.41434309  0.03957960  0.39904286  1
  O2-  O266  1  0.41249781  0.05162250  0.72986579  1
  O2-  O267  1  0.41609324  0.54080234  0.06625948  1
  O2-  O268  1  0.41594654  0.54044793  0.40526301  1
  O2-  O269  1  0.41077160  0.53749825  0.73049112  1
  O2-  O270  1  0.91663143  0.03729437  0.07150426  1
  O2-  O271  1  0.90865196  0.03888920  0.39978258  1
  O2-  O272  1  0.92296268  0.04672056  0.73402174  1
  O2-  O273  1  0.91719378  0.55143703  0.05817131  1
  O2-  O274  1  0.92331700  0.54556080  0.40119147  1
  O2-  O275  1  0.91283592  0.53857830  0.72906325  1
  O2-  O276  1  0.30057429  0.16764336  0.05881765  1
  O2-  O277  1  0.30361215  0.16758067  0.39305230  1
  O2-  O278  1  0.29020139  0.16639248  0.72845529  1
  O2-  O279  1  0.29451047  0.67081696  0.06546484  1
  O2-  O280  1  0.28893894  0.66573451  0.40784096  1
  O2-  O281  1  0.29961325  0.66522461  0.72646378  1
  O2-  O282  1  0.78869482  0.16315252  0.07197447  1
  O2-  O283  1  0.79365914  0.16056196  0.39547282  1
  O2-  O284  1  0.78941677  0.16801726  0.73813261  1
  O2-  O285  1  0.79637700  0.66813874  0.05969297  1
  O2-  O286  1  0.79171527  0.67038470  0.40280589  1
  O2-  O287  1  0.79511434  0.66236283  0.72622201  1
