# generated using pymatgen
data_Ca2Al2SiO7
_symmetry_space_group_name_H-M   'P 1'
_cell_length_a   15.45750186
_cell_length_b   15.45946436
_cell_length_c   15.28367720
_cell_angle_alpha   90.00157711
_cell_angle_beta   90.00073152
_cell_angle_gamma   89.99214287
_symmetry_Int_Tables_number   1
_chemical_formula_structural   Ca2Al2SiO7
_chemical_formula_sum   'Ca48 Al48 Si24 O168'
_cell_volume   3652.25928777
_cell_formula_units_Z   24
loop_
 _symmetry_equiv_pos_site_id
 _symmetry_equiv_pos_as_xyz
  1  'x, y, z'
loop_
 _atom_type_symbol
 _atom_type_oxidation_number
  Ca2+  2.0
  Al0+  0.0
  Si0+  0.0
  O2-  -2.0
loop_
 _atom_site_type_symbol
 _atom_site_label
 _atom_site_symmetry_multiplicity
 _atom_site_fract_x
 _atom_site_fract_y
 _atom_site_fract_z
 _atom_site_occupancy
  Ca2+  Ca0  1  0.17559315  0.07069307  0.17366653  1
  Ca2+  Ca1  1  0.16881003  0.07668366  0.50412743  1
  Ca2+  Ca2  1  0.16161133  0.07059813  0.83630937  1
  Ca2+  Ca3  1  0.17100771  0.57734695  0.17255500  1
  Ca2+  Ca4  1  0.16611050  0.57216556  0.50236051  1
  Ca2+  Ca5  1  0.16286842  0.57351995  0.84188570  1
  Ca2+  Ca6  1  0.66903233  0.08611188  0.16591934  1
  Ca2+  Ca7  1  0.67418028  0.08235631  0.50999051  1
  Ca2+  Ca8  1  0.67588405  0.09327715  0.83827370  1
  Ca2+  Ca9  1  0.66859080  0.58959168  0.17519075  1
  Ca2+  Ca10  1  0.66940018  0.59243494  0.50157087  1
  Ca2+  Ca11  1  0.66400458  0.59095587  0.83500664  1
  Ca2+  Ca12  1  0.08054912  0.34223193  0.16409373  1
  Ca2+  Ca13  1  0.08726450  0.33006189  0.49527926  1
  Ca2+  Ca14  1  0.08736973  0.32727650  0.82613695  1
  Ca2+  Ca15  1  0.08533081  0.83217898  0.16247368  1
  Ca2+  Ca16  1  0.07426765  0.84574685  0.49713026  1
  Ca2+  Ca17  1  0.08591027  0.83150624  0.82770033  1
  Ca2+  Ca18  1  0.57164676  0.32823000  0.15632956  1
  Ca2+  Ca19  1  0.58513245  0.32547602  0.49830357  1
  Ca2+  Ca20  1  0.57730995  0.32502411  0.83272494  1
  Ca2+  Ca21  1  0.57397471  0.82180446  0.15935941  1
  Ca2+  Ca22  1  0.57700163  0.82520547  0.49652187  1
  Ca2+  Ca23  1  0.57146671  0.82827593  0.82726008  1
  Ca2+  Ca24  1  0.32442569  0.41766684  0.17391591  1
  Ca2+  Ca25  1  0.32605493  0.42261797  0.50207865  1
  Ca2+  Ca26  1  0.32364641  0.41272282  0.83916282  1
  Ca2+  Ca27  1  0.32618901  0.91368858  0.17163110  1
  Ca2+  Ca28  1  0.32307643  0.91520792  0.50470987  1
  Ca2+  Ca29  1  0.32763483  0.90820330  0.83766117  1
  Ca2+  Ca30  1  0.83185310  0.42519128  0.17661336  1
  Ca2+  Ca31  1  0.83889150  0.42306263  0.49867946  1
  Ca2+  Ca32  1  0.82862942  0.41848496  0.83829672  1
  Ca2+  Ca33  1  0.83409185  0.92077186  0.17037878  1
  Ca2+  Ca34  1  0.83607409  0.91759366  0.50917440  1
  Ca2+  Ca35  1  0.83676026  0.92731704  0.83511469  1
  Ca2+  Ca36  1  0.41643953  0.16974226  0.15836469  1
  Ca2+  Ca37  1  0.41914007  0.16117264  0.49680785  1
  Ca2+  Ca38  1  0.42435745  0.16839349  0.83006123  1
  Ca2+  Ca39  1  0.42213270  0.66408519  0.15948432  1
  Ca2+  Ca40  1  0.42239320  0.66506859  0.49687420  1
  Ca2+  Ca41  1  0.42177047  0.67688336  0.82909395  1
  Ca2+  Ca42  1  0.91680265  0.17288827  0.16399640  1
  Ca2+  Ca43  1  0.92405268  0.16874071  0.49832102  1
  Ca2+  Ca44  1  0.92068085  0.16171687  0.82533230  1
  Ca2+  Ca45  1  0.92180956  0.67123972  0.16547472  1
  Ca2+  Ca46  1  0.91555580  0.67937267  0.49172998  1
  Ca2+  Ca47  1  0.92502691  0.67460176  0.82974942  1
  Al0+  Al48  1  -0.00077965  0.00238874  0.01145135  1
  Al0+  Al49  1  -0.00085582  0.00243956  0.32962769  1
  Al0+  Al50  1  0.00118344  0.00213761  0.66675341  1
  Al0+  Al51  1  -0.00231293  0.50127067  -0.00067155  1
  Al0+  Al52  1  -0.00255267  0.50074234  0.33779064  1
  Al0+  Al53  1  -0.00143552  0.50073486  0.67263666  1
  Al0+  Al54  1  0.50243200  -0.00034369  -0.00718998  1
  Al0+  Al55  1  0.50226344  -0.00205494  0.33460903  1
  Al0+  Al56  1  0.50005875  -0.00070731  0.65846245  1
  Al0+  Al57  1  0.49945941  0.49803431  -0.00944810  1
  Al0+  Al58  1  0.50077668  0.49608440  0.33357819  1
  Al0+  Al59  1  0.50075673  0.49952561  0.66454425  1
  Al0+  Al60  1  0.24659714  0.24845903  0.00113575  1
  Al0+  Al61  1  0.25152824  0.24683995  0.33945142  1
  Al0+  Al62  1  0.25032642  0.24949991  0.66589471  1
  Al0+  Al63  1  0.24821479  0.74617309  -0.00294916  1
  Al0+  Al64  1  0.24911528  0.74948593  0.34315645  1
  Al0+  Al65  1  0.25032358  0.74760509  0.66593400  1
  Al0+  Al66  1  0.75074413  0.25304223  0.00365563  1
  Al0+  Al67  1  0.75209660  0.25044214  0.32913570  1
  Al0+  Al68  1  0.74981600  0.25254200  0.66666552  1
  Al0+  Al69  1  0.75146428  0.75304992  -0.00265668  1
  Al0+  Al70  1  0.75025891  0.75117243  0.32826025  1
  Al0+  Al71  1  0.75075592  0.75161330  0.66372201  1
  Al0+  Al72  1  0.07108672  0.18020619  0.65385707  1
  Al0+  Al73  1  0.18020062  0.92974692  0.68128616  1
  Al0+  Al74  1  0.17747875  0.42896300  0.34863373  1
  Al0+  Al75  1  0.93323809  0.82088431  0.65546554  1
  Al0+  Al76  1  0.06883585  0.67859107  0.98797343  1
  Al0+  Al77  1  0.93104112  0.32162240  0.31959999  1
  Al0+  Al78  1  0.57383993  0.67809927  0.98467976  1
  Al0+  Al79  1  0.57232673  0.18020201  0.65181804  1
  Al0+  Al80  1  0.57084362  0.67876418  0.64948270  1
  Al0+  Al81  1  0.42676390  0.82057807  0.98657444  1
  Al0+  Al82  1  0.81961718  0.07141412  0.67871422  1
  Al0+  Al83  1  0.81847823  0.57274027  0.34676832  1
  Al0+  Al84  1  0.17713539  0.92876840  0.34953295  1
  Al0+  Al85  1  0.56865277  0.67798515  0.31926170  1
  Al0+  Al86  1  0.57294384  0.17944590  0.98558426  1
  Al0+  Al87  1  0.42537115  0.82133676  0.64789181  1
  Al0+  Al88  1  0.17748806  0.42724208  0.01426841  1
  Al0+  Al89  1  0.18045824  0.92613095  0.01370277  1
  Al0+  Al90  1  0.32436272  0.06960686  0.34798932  1
  Al0+  Al91  1  0.17917933  0.42908026  0.68235833  1
  Al0+  Al92  1  0.82001442  0.07286419  0.01641255  1
  Al0+  Al93  1  0.32464852  0.57076062  0.34805261  1
  Al0+  Al94  1  0.92967909  0.82334079  0.31777181  1
  Al0+  Al95  1  0.42414254  0.31972479  0.98489514  1
  Si0+  Si96  1  0.32385999  0.57022968  0.68586394  1
  Si0+  Si97  1  0.42787516  0.32070190  0.64756610  1
  Si0+  Si98  1  0.06809732  0.17834496  0.98677703  1
  Si0+  Si99  1  0.92933122  0.32239441  0.98493506  1
  Si0+  Si100  1  0.81982596  0.57372935  0.68343474  1
  Si0+  Si101  1  0.92731636  0.32437599  0.65129264  1
  Si0+  Si102  1  0.32206749  0.56904580  0.01399663  1
  Si0+  Si103  1  0.07390977  0.17918948  0.31431393  1
  Si0+  Si104  1  0.57295642  0.17717420  0.31807713  1
  Si0+  Si105  1  0.81927886  0.57287218  0.01434776  1
  Si0+  Si106  1  0.07219920  0.67776956  0.31921784  1
  Si0+  Si107  1  0.67819818  0.43062951  0.01459120  1
  Si0+  Si108  1  0.42906642  0.31817321  0.31959442  1
  Si0+  Si109  1  0.67754803  0.92759459  0.01694318  1
  Si0+  Si110  1  0.07160589  0.67462993  0.64962880  1
  Si0+  Si111  1  0.67886507  0.42604633  0.34976637  1
  Si0+  Si112  1  0.68119331  0.92918122  0.34787147  1
  Si0+  Si113  1  0.32457275  0.07163641  0.68448978  1
  Si0+  Si114  1  0.67747190  0.92775330  0.68295325  1
  Si0+  Si115  1  0.32372193  0.07075418  0.01289094  1
  Si0+  Si116  1  0.42657829  0.82142169  0.31761846  1
  Si0+  Si117  1  0.81966298  0.07322538  0.34902137  1
  Si0+  Si118  1  0.92979177  0.82574282  0.98383573  1
  Si0+  Si119  1  0.67881590  0.42942405  0.68254609  1
  O2-  O120  1  0.26039607  -0.00279845  0.05742027  1
  O2-  O121  1  0.25180687  -0.00126793  0.39831335  1
  O2-  O122  1  0.25835940  0.00089474  0.72920600  1
  O2-  O123  1  0.25571577  0.49854209  0.05936628  1
  O2-  O124  1  0.24928162  0.50154163  0.39792400  1
  O2-  O125  1  0.25285968  0.50385270  0.73042144  1
  O2-  O126  1  0.74435545  -0.00165825  0.06218500  1
  O2-  O127  1  0.75140064  0.00050905  0.39146864  1
  O2-  O128  1  0.74262997  -0.00004994  0.72733984  1
  O2-  O129  1  0.74236847  0.50800108  0.05632824  1
  O2-  O130  1  0.74365674  0.49811995  0.39446792  1
  O2-  O131  1  0.74795882  0.50278108  0.72477877  1
  O2-  O132  1  0.00894445  0.25189736  0.27009838  1
  O2-  O133  1  -0.00106858  0.25855981  0.60844495  1
  O2-  O134  1  -0.00084825  0.25093958  0.94279186  1
  O2-  O135  1  0.00785177  0.75064898  0.27405076  1
  O2-  O136  1  0.00731858  0.74721680  0.60571088  1
  O2-  O137  1  -0.00047525  0.75822878  0.94030342  1
  O2-  O138  1  0.49866501  0.24519569  0.27730753  1
  O2-  O139  1  0.49547347  0.25108143  0.60254138  1
  O2-  O140  1  0.49647089  0.24695785  0.93615852  1
  O2-  O141  1  0.48936028  0.74751116  0.27268025  1
  O2-  O142  1  0.49793325  0.74893816  0.59921408  1
  O2-  O143  1  0.50136907  0.75034645  0.93721570  1
  O2-  O144  1  0.06659589  0.17917629  0.09162574  1
  O2-  O145  1  0.07042588  0.17813182  0.41991939  1
  O2-  O146  1  0.06771262  0.17938872  0.76754973  1
  O2-  O147  1  0.06595094  0.67618026  0.10098092  1
  O2-  O148  1  0.06739694  0.67492668  0.42468513  1
  O2-  O149  1  0.06738967  0.67262968  0.75553085  1
  O2-  O150  1  0.57284114  0.18307716  0.09977792  1
  O2-  O151  1  0.57624187  0.17977527  0.42305637  1
  O2-  O152  1  0.57427178  0.18496308  0.76441282  1
  O2-  O153  1  0.57334323  0.67818093  0.09852258  1
  O2-  O154  1  0.57076316  0.68194786  0.43175683  1
  O2-  O155  1  0.57069184  0.68078854  0.76291286  1
  O2-  O156  1  0.17880738  0.43096502  0.23475232  1
  O2-  O157  1  0.17918054  0.43035798  0.56955286  1
  O2-  O158  1  0.17607032  0.42833892  0.90119194  1
  O2-  O159  1  0.17889606  0.92925787  0.23545834  1
  O2-  O160  1  0.17714635  0.93491540  0.56881566  1
  O2-  O161  1  0.17688161  0.92957604  0.90071097  1
  O2-  O162  1  0.68026646  0.42453318  0.24403702  1
  O2-  O163  1  0.68079715  0.42627239  0.57760859  1
  O2-  O164  1  0.68341833  0.42690679  0.90946525  1
  O2-  O165  1  0.68075167  0.93187205  0.24270186  1
  O2-  O166  1  0.68168378  0.92754602  0.57687943  1
  O2-  O167  1  0.68054248  0.92531167  0.91176474  1
  O2-  O168  1  0.42599912  0.31918136  0.09917383  1
  O2-  O169  1  0.43223937  0.31872255  0.42460378  1
  O2-  O170  1  0.42878487  0.31970140  0.75307644  1
  O2-  O171  1  0.42718296  0.81836096  0.10061566  1
  O2-  O172  1  0.43209416  0.82443674  0.42252631  1
  O2-  O173  1  0.42676362  0.81996109  0.76165852  1
  O2-  O174  1  0.92946319  0.32363018  0.08994426  1
  O2-  O175  1  0.92763443  0.31745663  0.43246450  1
  O2-  O176  1  0.92534407  0.32432123  0.75732308  1
  O2-  O177  1  0.92843786  0.82303381  0.08951198  1
  O2-  O178  1  0.92796493  0.82306564  0.43100621  1
  O2-  O179  1  0.93343027  0.81926188  0.76875739  1
  O2-  O180  1  0.32487570  0.06934358  0.23378518  1
  O2-  O181  1  0.32233980  0.07224140  0.57897133  1
  O2-  O182  1  0.32013033  0.07368040  0.90756837  1
  O2-  O183  1  0.32601728  0.56728035  0.23402021  1
  O2-  O184  1  0.32482205  0.56647246  0.58029425  1
  O2-  O185  1  0.31936529  0.56855712  0.90850294  1
  O2-  O186  1  0.81663960  0.07481837  0.24390109  1
  O2-  O187  1  0.81888351  0.07075770  0.56532735  1
  O2-  O188  1  0.82175669  0.07265003  0.90330477  1
  O2-  O189  1  0.81749780  0.57126822  0.23317508  1
  O2-  O190  1  0.82110599  0.57304261  0.57856807  1
  O2-  O191  1  0.82109835  0.56955384  0.90904399  1
  O2-  O192  1  0.04221165  0.08854704  0.26582876  1
  O2-  O193  1  0.03534750  0.08711387  0.59738169  1
  O2-  O194  1  0.03640664  0.08700418  0.94062653  1
  O2-  O195  1  0.04122133  0.58606021  0.27229319  1
  O2-  O196  1  0.03976631  0.58257135  0.60380224  1
  O2-  O197  1  0.03091734  0.58520297  0.93067073  1
  O2-  O198  1  0.54949208  0.08382134  0.27187550  1
  O2-  O199  1  0.54772299  0.08283347  0.59701952  1
  O2-  O200  1  0.55431824  0.07985478  0.93225440  1
  O2-  O201  1  0.54583020  0.57751999  0.26824921  1
  O2-  O202  1  0.54648058  0.57821976  0.59829453  1
  O2-  O203  1  0.54949624  0.57936290  0.93104094  1
  O2-  O204  1  0.17014506  0.19931718  0.27162808  1
  O2-  O205  1  0.16798822  0.20830203  0.59929957  1
  O2-  O206  1  0.15996012  0.20291493  0.93887984  1
  O2-  O207  1  0.16837256  0.69881005  0.27626313  1
  O2-  O208  1  0.16754767  0.69230173  0.60745698  1
  O2-  O209  1  0.16554126  0.70181177  0.93192907  1
  O2-  O210  1  0.66295315  0.20845684  0.26908399  1
  O2-  O211  1  0.66751900  0.21608865  0.59674913  1
  O2-  O212  1  0.66986379  0.21638491  0.93416780  1
  O2-  O213  1  0.66341062  0.71383088  0.26453657  1
  O2-  O214  1  0.66980195  0.70841029  0.59820448  1
  O2-  O215  1  0.67287557  0.70673323  0.93223751  1
  O2-  O216  1  0.08056969  0.46210184  0.06592602  1
  O2-  O217  1  0.07915283  0.45576054  0.40223408  1
  O2-  O218  1  0.08106549  0.45734395  0.73636468  1
  O2-  O219  1  0.08654442  0.96152109  0.07036263  1
  O2-  O220  1  0.07853509  0.96335140  0.39922629  1
  O2-  O221  1  0.08522692  0.96543534  0.73597809  1
  O2-  O222  1  0.58289933  0.45086630  0.05815127  1
  O2-  O223  1  0.58445968  0.44538655  0.39566681  1
  O2-  O224  1  0.58618901  0.45453256  0.72966141  1
  O2-  O225  1  0.58306003  0.95180625  0.06258655  1
  O2-  O226  1  0.58999662  0.95582854  0.39672470  1
  O2-  O227  1  0.58163621  0.95020878  0.72466912  1
  O2-  O228  1  0.20313473  0.32928832  0.06845488  1
  O2-  O229  1  0.20622759  0.33028191  0.40007776  1
  O2-  O230  1  0.21051194  0.33140517  0.73463485  1
  O2-  O231  1  0.20637439  0.82742185  0.06619080  1
  O2-  O232  1  0.19793658  0.82983092  0.40388948  1
  O2-  O233  1  0.20488397  0.82919160  0.73142360  1
  O2-  O234  1  0.71162680  0.34278735  0.06625630  1
  O2-  O235  1  0.71030670  0.33386373  0.39645393  1
  O2-  O236  1  0.71061921  0.34018673  0.73303390  1
  O2-  O237  1  0.70678192  0.83513024  0.06502649  1
  O2-  O238  1  0.71076891  0.83832984  0.39477056  1
  O2-  O239  1  0.70738138  0.83577543  0.72993842  1
  O2-  O240  1  0.45879821  0.40809556  0.26977756  1
  O2-  O241  1  0.45655900  0.41351792  0.60218228  1
  O2-  O242  1  0.45393042  0.41561087  0.92822211  1
  O2-  O243  1  0.45920921  0.91284087  0.26991323  1
  O2-  O244  1  0.45276375  0.91954435  0.59444499  1
  O2-  O245  1  0.45247487  0.91899427  0.93225295  1
  O2-  O246  1  0.95625869  0.42042537  0.26645353  1
  O2-  O247  1  0.95035278  0.41962415  0.60748698  1
  O2-  O248  1  0.95542126  0.41356720  0.93572697  1
  O2-  O249  1  0.95581199  0.92110478  0.26327536  1
  O2-  O250  1  0.96255332  0.91713690  0.60055971  1
  O2-  O251  1  0.95457584  0.92116938  0.94220272  1
  O2-  O252  1  0.33654074  0.29128516  0.27321888  1
  O2-  O253  1  0.33441411  0.29612242  0.60147456  1
  O2-  O254  1  0.32567711  0.29104554  0.93221761  1
  O2-  O255  1  0.32938707  0.80190579  0.27725742  1
  O2-  O256  1  0.32693766  0.79173352  0.59564225  1
  O2-  O257  1  0.33029720  0.78921450  0.93195333  1
  O2-  O258  1  0.83567169  0.28800057  0.26268763  1
  O2-  O259  1  0.83510789  0.29771377  0.60386885  1
  O2-  O260  1  0.83698200  0.29553151  0.93861604  1
  O2-  O261  1  0.83503113  0.78950563  0.26174181  1
  O2-  O262  1  0.83664994  0.79084046  0.60114973  1
  O2-  O263  1  0.83694608  0.79983474  0.93685215  1
  O2-  O264  1  0.42065508  0.05300242  0.05560469  1
  O2-  O265  1  0.42407805  0.04396033  0.40046172  1
  O2-  O266  1  0.42076557  0.04930589  0.72693206  1
  O2-  O267  1  0.41786863  0.54541877  0.05690855  1
  O2-  O268  1  0.42098282  0.53619873  0.40266885  1
  O2-  O269  1  0.41748389  0.54253857  0.73125908  1
  O2-  O270  1  0.91418695  0.04270855  0.07539145  1
  O2-  O271  1  0.91323307  0.04846321  0.39292860  1
  O2-  O272  1  0.91472499  0.03828768  0.73381797  1
  O2-  O273  1  0.90782187  0.53794131  0.06331952  1
  O2-  O274  1  0.91293269  0.54117598  0.40354885  1
  O2-  O275  1  0.91019113  0.54475727  0.73370372  1
  O2-  O276  1  0.29171449  0.16146948  0.06210809  1
  O2-  O277  1  0.29830832  0.16716593  0.40380534  1
  O2-  O278  1  0.29815915  0.16552916  0.72929481  1
  O2-  O279  1  0.29434311  0.66113815  0.06145183  1
  O2-  O280  1  0.30174250  0.66928982  0.40233338  1
  O2-  O281  1  0.30024413  0.66491150  0.72969183  1
  O2-  O282  1  0.78937236  0.17001251  0.07105088  1
  O2-  O283  1  0.78939868  0.16422301  0.39635500  1
  O2-  O284  1  0.79127458  0.16960841  0.73211245  1
  O2-  O285  1  0.79868807  0.66731131  0.05987098  1
  O2-  O286  1  0.78713324  0.66959686  0.39993114  1
  O2-  O287  1  0.79186342  0.66519654  0.73168690  1
