# generated using pymatgen
data_Ca2Al2SiO7
_symmetry_space_group_name_H-M   'P 1'
_cell_length_a   15.45729236
_cell_length_b   15.45777569
_cell_length_c   15.28310381
_cell_angle_alpha   89.99251023
_cell_angle_beta   90.00225504
_cell_angle_gamma   90.01165656
_symmetry_Int_Tables_number   1
_chemical_formula_structural   Ca2Al2SiO7
_chemical_formula_sum   'Ca48 Al48 Si24 O168'
_cell_volume   3651.67377265
_cell_formula_units_Z   24
loop_
 _symmetry_equiv_pos_site_id
 _symmetry_equiv_pos_as_xyz
  1  'x, y, z'
loop_
 _atom_type_symbol
 _atom_type_oxidation_number
  Ca2+  2.0
  Al0+  0.0
  Si0+  0.0
  O2-  -2.0
loop_
 _atom_site_type_symbol
 _atom_site_label
 _atom_site_symmetry_multiplicity
 _atom_site_fract_x
 _atom_site_fract_y
 _atom_site_fract_z
 _atom_site_occupancy
  Ca2+  Ca0  1  0.16918283  0.07973098  0.17434289  1
  Ca2+  Ca1  1  0.17625380  0.09252383  0.50012244  1
  Ca2+  Ca2  1  0.17240349  0.07789909  0.83717633  1
  Ca2+  Ca3  1  0.17835450  0.58300753  0.17757555  1
  Ca2+  Ca4  1  0.16097021  0.57571375  0.49977511  1
  Ca2+  Ca5  1  0.17109290  0.57622137  0.83959753  1
  Ca2+  Ca6  1  0.66531311  0.07356493  0.16941124  1
  Ca2+  Ca7  1  0.67282384  0.07304472  0.50470332  1
  Ca2+  Ca8  1  0.67745799  0.08257386  0.84288446  1
  Ca2+  Ca9  1  0.66991018  0.59468728  0.16855105  1
  Ca2+  Ca10  1  0.66905945  0.58111875  0.50788423  1
  Ca2+  Ca11  1  0.67312855  0.58576015  0.83666199  1
  Ca2+  Ca12  1  0.08418126  0.33173164  0.17163694  1
  Ca2+  Ca13  1  0.07541101  0.33611652  0.49109238  1
  Ca2+  Ca14  1  0.07640226  0.33413896  0.82425425  1
  Ca2+  Ca15  1  0.08227069  0.83332617  0.16486528  1
  Ca2+  Ca16  1  0.07370572  0.82538163  0.48829664  1
  Ca2+  Ca17  1  0.08438432  0.83314750  0.83200788  1
  Ca2+  Ca18  1  0.58154150  0.32499707  0.15911120  1
  Ca2+  Ca19  1  0.58493050  0.33295628  0.49761237  1
  Ca2+  Ca20  1  0.58654449  0.32985468  0.82991646  1
  Ca2+  Ca21  1  0.58127852  0.83008840  0.16583103  1
  Ca2+  Ca22  1  0.58328537  0.82236537  0.48984246  1
  Ca2+  Ca23  1  0.59308951  0.82279787  0.83329169  1
  Ca2+  Ca24  1  0.33179759  0.42899444  0.17546667  1
  Ca2+  Ca25  1  0.31930743  0.42091620  0.50062274  1
  Ca2+  Ca26  1  0.32738101  0.42116071  0.83618465  1
  Ca2+  Ca27  1  0.33180884  0.91871973  0.17444572  1
  Ca2+  Ca28  1  0.34025034  0.92520717  0.49859170  1
  Ca2+  Ca29  1  0.32781101  0.91824560  0.83643151  1
  Ca2+  Ca30  1  0.83469579  0.42072350  0.16921999  1
  Ca2+  Ca31  1  0.83221145  0.41901493  0.50940767  1
  Ca2+  Ca32  1  0.83150623  0.42518608  0.83174115  1
  Ca2+  Ca33  1  0.82112183  0.91391659  0.17123135  1
  Ca2+  Ca34  1  0.83061762  0.91493574  0.50131841  1
  Ca2+  Ca35  1  0.82921279  0.92926137  0.84270052  1
  Ca2+  Ca36  1  0.41990544  0.16494691  0.16302829  1
  Ca2+  Ca37  1  0.41246531  0.16475272  0.49382853  1
  Ca2+  Ca38  1  0.42414433  0.16111869  0.82989022  1
  Ca2+  Ca39  1  0.42391407  0.66302601  0.16174734  1
  Ca2+  Ca40  1  0.42741657  0.66915851  0.48929442  1
  Ca2+  Ca41  1  0.42765203  0.66238445  0.82996127  1
  Ca2+  Ca42  1  0.91638487  0.17072016  0.16492586  1
  Ca2+  Ca43  1  0.91874785  0.17824871  0.49255078  1
  Ca2+  Ca44  1  0.91215189  0.16985773  0.82463661  1
  Ca2+  Ca45  1  0.92016198  0.67012248  0.16716351  1
  Ca2+  Ca46  1  0.91917028  0.66803072  0.49073067  1
  Ca2+  Ca47  1  0.91109796  0.66468543  0.82936588  1
  Al0+  Al48  1  0.00107634  0.00149085  0.00577835  1
  Al0+  Al49  1  -0.00092460  0.00202346  0.32669803  1
  Al0+  Al50  1  0.00154443  -0.00034749  0.66782995  1
  Al0+  Al51  1  -0.00113605  0.49959800  0.00294764  1
  Al0+  Al52  1  -0.00089670  0.50043405  0.32708814  1
  Al0+  Al53  1  -0.00046603  0.49918930  0.67132225  1
  Al0+  Al54  1  0.49997385  0.00020281  -0.00409763  1
  Al0+  Al55  1  0.50192366  -0.00252481  0.33952464  1
  Al0+  Al56  1  0.49973535  -0.00104659  0.67133581  1
  Al0+  Al57  1  0.49950382  0.49944372  -0.00278965  1
  Al0+  Al58  1  0.50114321  0.49898864  0.33357560  1
  Al0+  Al59  1  0.49944644  0.49740119  0.66454085  1
  Al0+  Al60  1  0.24759185  0.25013192  -0.00276679  1
  Al0+  Al61  1  0.24950290  0.25148433  0.33541657  1
  Al0+  Al62  1  0.25173564  0.24934822  0.67746065  1
  Al0+  Al63  1  0.24971602  0.74918518  0.00528374  1
  Al0+  Al64  1  0.25191124  0.75226885  0.33355250  1
  Al0+  Al65  1  0.25077138  0.75063742  0.66399262  1
  Al0+  Al66  1  0.75042544  0.25180452  -0.00148116  1
  Al0+  Al67  1  0.75048514  0.25025231  0.32882812  1
  Al0+  Al68  1  0.74938347  0.24990426  0.66786967  1
  Al0+  Al69  1  0.75082142  0.75095691  0.00259086  1
  Al0+  Al70  1  0.74970883  0.75004389  0.33165559  1
  Al0+  Al71  1  0.75031563  0.74942018  0.66478570  1
  Al0+  Al72  1  0.82048514  0.57108097  0.01598450  1
  Al0+  Al73  1  0.57092802  0.67854804  0.65257076  1
  Al0+  Al74  1  0.82038860  0.57181803  0.67988208  1
  Al0+  Al75  1  0.32423070  0.57463683  0.35020200  1
  Al0+  Al76  1  0.68117395  0.92872438  0.34917258  1
  Al0+  Al77  1  0.43015190  0.82328170  0.31900857  1
  Al0+  Al78  1  0.32171557  0.07030085  0.68244207  1
  Al0+  Al79  1  0.07202340  0.67882916  0.31805840  1
  Al0+  Al80  1  0.82154083  0.07487927  0.01723964  1
  Al0+  Al81  1  0.57019576  0.17860175  0.98575142  1
  Al0+  Al82  1  0.67850570  0.92942248  0.01526336  1
  Al0+  Al83  1  0.82152731  0.07010267  0.67737689  1
  Al0+  Al84  1  0.67622103  0.42776893  0.68141965  1
  Al0+  Al85  1  0.18000786  0.92903331  0.01438007  1
  Al0+  Al86  1  0.56988259  0.67671885  0.31702557  1
  Al0+  Al87  1  0.92693499  0.32206565  0.31610221  1
  Al0+  Al88  1  0.32146339  0.56853657  0.01241470  1
  Al0+  Al89  1  0.17867679  0.43157586  0.34769500  1
  Al0+  Al90  1  0.31999657  0.06959955  0.34528541  1
  Al0+  Al91  1  0.17845316  0.43009035  0.68141444  1
  Al0+  Al92  1  0.92938370  0.32001155  0.65414862  1
  Al0+  Al93  1  0.07313524  0.18065993  0.31852403  1
  Al0+  Al94  1  0.57134300  0.68004203  0.98411168  1
  Al0+  Al95  1  0.92770820  0.82222332  0.31699806  1
  Si0+  Si96  1  0.32145378  0.07271421  0.01554917  1
  Si0+  Si97  1  0.07137488  0.67876939  0.98431767  1
  Si0+  Si98  1  0.57048885  0.17799202  0.65077546  1
  Si0+  Si99  1  0.42685091  0.82269844  0.64964843  1
  Si0+  Si100  1  0.81921974  0.56947842  0.34661905  1
  Si0+  Si101  1  0.42701315  0.31913101  0.65089820  1
  Si0+  Si102  1  0.07169488  0.67862500  0.65439012  1
  Si0+  Si103  1  0.42660870  0.32173953  0.98202779  1
  Si0+  Si104  1  0.67907027  0.92736963  0.68384923  1
  Si0+  Si105  1  0.67772508  0.42904144  0.01689319  1
  Si0+  Si106  1  0.42535363  0.82177974  0.98186524  1
  Si0+  Si107  1  0.82243378  0.07432608  0.34996299  1
  Si0+  Si108  1  0.42914046  0.31992744  0.32018336  1
  Si0+  Si109  1  0.07111889  0.17773921  0.98235189  1
  Si0+  Si110  1  0.17773570  0.92587339  0.68176280  1
  Si0+  Si111  1  0.57092245  0.17817845  0.32106541  1
  Si0+  Si112  1  0.93008110  0.82228015  0.65404174  1
  Si0+  Si113  1  0.67896477  0.42538494  0.34662079  1
  Si0+  Si114  1  0.07405714  0.17734972  0.65216854  1
  Si0+  Si115  1  0.17451281  0.92809581  0.35080717  1
  Si0+  Si116  1  0.32167473  0.57306426  0.68209853  1
  Si0+  Si117  1  0.93050038  0.82134901  0.98422832  1
  Si0+  Si118  1  0.92995948  0.32204543  0.98191083  1
  Si0+  Si119  1  0.17667706  0.42680186  0.01771362  1
  O2-  O120  1  0.25486703  0.00348979  0.06043216  1
  O2-  O121  1  0.24385085  -0.00305379  0.39435061  1
  O2-  O122  1  0.24656157  -0.00528900  0.72582902  1
  O2-  O123  1  0.24760852  0.49348006  0.05959934  1
  O2-  O124  1  0.24709528  0.50683361  0.39883943  1
  O2-  O125  1  0.25188652  0.50626315  0.72781261  1
  O2-  O126  1  0.74896041  0.00301633  0.06575532  1
  O2-  O127  1  0.75815252  0.00203851  0.39511013  1
  O2-  O128  1  0.74729292  -0.00327098  0.72698835  1
  O2-  O129  1  0.74282564  0.49963700  0.06304485  1
  O2-  O130  1  0.74914875  0.49727302  0.38792792  1
  O2-  O131  1  0.74585086  0.50246499  0.73049741  1
  O2-  O132  1  -0.00118257  0.24942666  0.26669217  1
  O2-  O133  1  0.00462635  0.24509865  0.60846746  1
  O2-  O134  1  -0.00048187  0.24852089  0.94042047  1
  O2-  O135  1  0.00394861  0.75435675  0.26700080  1
  O2-  O136  1  0.00006385  0.74954083  0.61338686  1
  O2-  O137  1  0.00064015  0.74955496  0.94007359  1
  O2-  O138  1  0.49998143  0.24880265  0.27805313  1
  O2-  O139  1  0.49853664  0.24814837  0.60808797  1
  O2-  O140  1  0.49378488  0.25150824  0.93756016  1
  O2-  O141  1  0.49466775  0.74562584  0.26753132  1
  O2-  O142  1  0.49548716  0.75328580  0.60747261  1
  O2-  O143  1  0.49607601  0.75503857  0.93718328  1
  O2-  O144  1  0.07515236  0.17960811  0.08674554  1
  O2-  O145  1  0.07349744  0.18342853  0.43262971  1
  O2-  O146  1  0.07242557  0.17681437  0.75823840  1
  O2-  O147  1  0.07114059  0.67937407  0.08866222  1
  O2-  O148  1  0.06581311  0.67742962  0.43269342  1
  O2-  O149  1  0.07429473  0.68090400  0.75987240  1
  O2-  O150  1  0.56707737  0.18024223  0.09937426  1
  O2-  O151  1  0.57177697  0.18068733  0.42649384  1
  O2-  O152  1  0.56949992  0.17863308  0.75587240  1
  O2-  O153  1  0.56956071  0.67964064  0.09637075  1
  O2-  O154  1  0.57204435  0.67669989  0.43094815  1
  O2-  O155  1  0.57099825  0.68084307  0.76595332  1
  O2-  O156  1  0.18417418  0.42985842  0.23409216  1
  O2-  O157  1  0.17783371  0.43034035  0.56888848  1
  O2-  O158  1  0.17602848  0.42810617  0.91157636  1
  O2-  O159  1  0.17577237  0.93043240  0.24512653  1
  O2-  O160  1  0.17547594  0.92365190  0.57700268  1
  O2-  O161  1  0.18037873  0.93032121  0.90042873  1
  O2-  O162  1  0.67841450  0.42132208  0.24174420  1
  O2-  O163  1  0.67784773  0.42728597  0.56740937  1
  O2-  O164  1  0.67971168  0.42833034  0.91142072  1
  O2-  O165  1  0.67872467  0.93159782  0.23656432  1
  O2-  O166  1  0.67969099  0.92806665  0.57821304  1
  O2-  O167  1  0.68355865  0.92925502  0.90108243  1
  O2-  O168  1  0.42705836  0.32087607  0.08779241  1
  O2-  O169  1  0.43005713  0.31853561  0.42554001  1
  O2-  O170  1  0.42667886  0.31807194  0.75608262  1
  O2-  O171  1  0.42410697  0.82186040  0.08689807  1
  O2-  O172  1  0.43701715  0.82609662  0.43282730  1
  O2-  O173  1  0.42303347  0.82194434  0.75525967  1
  O2-  O174  1  0.93110785  0.32311185  0.08663780  1
  O2-  O175  1  0.92428176  0.32130529  0.42992267  1
  O2-  O176  1  0.93140508  0.31938837  0.76765628  1
  O2-  O177  1  0.93191582  0.81959759  0.08868940  1
  O2-  O178  1  0.92766048  0.81877648  0.43174685  1
  O2-  O179  1  0.93163874  0.82413126  0.75935458  1
  O2-  O180  1  0.32116733  0.06986905  0.23222091  1
  O2-  O181  1  0.32160906  0.07142239  0.56952547  1
  O2-  O182  1  0.31885219  0.07240275  0.90969860  1
  O2-  O183  1  0.32633510  0.56823835  0.23646440  1
  O2-  O184  1  0.32024308  0.57220804  0.57711615  1
  O2-  O185  1  0.31857296  0.56700923  0.89862300  1
  O2-  O186  1  0.81681452  0.07709352  0.24483556  1
  O2-  O187  1  0.82007180  0.06778280  0.56447256  1
  O2-  O188  1  0.82172675  0.07308945  0.90283665  1
  O2-  O189  1  0.81795120  0.56910837  0.24139498  1
  O2-  O190  1  0.82189149  0.57187512  0.56621694  1
  O2-  O191  1  0.82207666  0.56912538  0.90295312  1
  O2-  O192  1  0.04904029  0.08199557  0.26475064  1
  O2-  O193  1  0.05218952  0.08260330  0.60667019  1
  O2-  O194  1  0.04481983  0.08494244  0.93563523  1
  O2-  O195  1  0.04103512  0.58326426  0.26191650  1
  O2-  O196  1  0.04293469  0.58707957  0.60833262  1
  O2-  O197  1  0.04284942  0.58598320  0.93796634  1
  O2-  O198  1  0.54160779  0.08695532  0.27524079  1
  O2-  O199  1  0.54269610  0.08476866  0.60566569  1
  O2-  O200  1  0.54107811  0.08280101  0.92817811  1
  O2-  O201  1  0.54676038  0.57618342  0.26489716  1
  O2-  O202  1  0.54214496  0.58046612  0.60025937  1
  O2-  O203  1  0.54050082  0.58235033  0.93084351  1
  O2-  O204  1  0.17043946  0.21223214  0.26364228  1
  O2-  O205  1  0.16905277  0.20457177  0.61053554  1
  O2-  O206  1  0.16281868  0.20571120  0.93271092  1
  O2-  O207  1  0.17260647  0.70306504  0.26872236  1
  O2-  O208  1  0.16290175  0.70562863  0.60512943  1
  O2-  O209  1  0.16319690  0.70740248  0.93651183  1
  O2-  O210  1  0.66089655  0.20647769  0.27109376  1
  O2-  O211  1  0.66140578  0.20639421  0.60252187  1
  O2-  O212  1  0.66649408  0.21236261  0.93178594  1
  O2-  O213  1  0.66704490  0.70966199  0.26568497  1
  O2-  O214  1  0.66772115  0.70958522  0.59825472  1
  O2-  O215  1  0.66918501  0.71211899  0.93159632  1
  O2-  O216  1  0.08415118  0.45357081  0.06341210  1
  O2-  O217  1  0.07801787  0.45820703  0.39769704  1
  O2-  O218  1  0.08384697  0.46118531  0.73862530  1
  O2-  O219  1  0.08482220  0.96000161  0.06927830  1
  O2-  O220  1  0.07970884  0.95327241  0.39520842  1
  O2-  O221  1  0.08536042  0.95185795  0.73080367  1
  O2-  O222  1  0.58190399  0.44870959  0.06008958  1
  O2-  O223  1  0.58720547  0.45101057  0.39494024  1
  O2-  O224  1  0.57575667  0.45007002  0.73327751  1
  O2-  O225  1  0.57811189  0.95662109  0.06441299  1
  O2-  O226  1  0.58780655  0.96296212  0.40697947  1
  O2-  O227  1  0.58519770  0.95075855  0.72961324  1
  O2-  O228  1  0.20025749  0.33155027  0.06085447  1
  O2-  O229  1  0.21119329  0.33512197  0.40219017  1
  O2-  O230  1  0.21095004  0.33560172  0.73888537  1
  O2-  O231  1  0.20756244  0.83263170  0.06890083  1
  O2-  O232  1  0.19788775  0.83425861  0.39693742  1
  O2-  O233  1  0.20456755  0.83280172  0.73001761  1
  O2-  O234  1  0.70643804  0.33663177  0.06347956  1
  O2-  O235  1  0.70692247  0.33398736  0.39570089  1
  O2-  O236  1  0.70624204  0.33035688  0.73518414  1
  O2-  O237  1  0.70955416  0.83280578  0.06879399  1
  O2-  O238  1  0.71321778  0.83207774  0.40313761  1
  O2-  O239  1  0.70722305  0.83455885  0.72904183  1
  O2-  O240  1  0.45873390  0.41015678  0.27120903  1
  O2-  O241  1  0.45244574  0.41063282  0.60209768  1
  O2-  O242  1  0.45365803  0.41368562  0.93350214  1
  O2-  O243  1  0.46472732  0.92005282  0.26523717  1
  O2-  O244  1  0.45375472  0.91721971  0.60581301  1
  O2-  O245  1  0.44749159  0.91651777  0.93572903  1
  O2-  O246  1  0.95532408  0.41886745  0.26121056  1
  O2-  O247  1  0.96038492  0.41761085  0.60203768  1
  O2-  O248  1  0.96113852  0.41348843  0.93463685  1
  O2-  O249  1  0.94856275  0.92220381  0.26502462  1
  O2-  O250  1  0.95935853  0.91268235  0.60425556  1
  O2-  O251  1  0.96032136  0.91401662  0.93839169  1
  O2-  O252  1  0.33872534  0.29213195  0.27130377  1
  O2-  O253  1  0.33511160  0.28822710  0.60537590  1
  O2-  O254  1  0.33177794  0.29802928  0.93604257  1
  O2-  O255  1  0.32793210  0.80729301  0.27049610  1
  O2-  O256  1  0.33289658  0.80010174  0.60202749  1
  O2-  O257  1  0.33189951  0.79316183  0.93553176  1
  O2-  O258  1  0.82924707  0.29267713  0.26061136  1
  O2-  O259  1  0.83223307  0.28997304  0.60050883  1
  O2-  O260  1  0.83712250  0.29706330  0.93546161  1
  O2-  O261  1  0.83220435  0.78774956  0.26325886  1
  O2-  O262  1  0.83837471  0.79618522  0.60597581  1
  O2-  O263  1  0.83898491  0.79362151  0.93648921  1
  O2-  O264  1  0.41653207  0.05053387  0.05841290  1
  O2-  O265  1  0.41558635  0.03919029  0.40241442  1
  O2-  O266  1  0.41773448  0.03916171  0.73823370  1
  O2-  O267  1  0.41775909  0.53693332  0.06597984  1
  O2-  O268  1  0.42087191  0.53841875  0.40301531  1
  O2-  O269  1  0.41420329  0.54349340  0.72777798  1
  O2-  O270  1  0.92048565  0.04859710  0.06809893  1
  O2-  O271  1  0.91865719  0.05416127  0.39219217  1
  O2-  O272  1  0.91875152  0.04135095  0.73230112  1
  O2-  O273  1  0.91635288  0.53770650  0.06972372  1
  O2-  O274  1  0.91171998  0.54278024  0.39235879  1
  O2-  O275  1  0.91715573  0.54269859  0.73603845  1
  O2-  O276  1  0.29505655  0.16714627  0.05965948  1
  O2-  O277  1  0.29057786  0.16649575  0.40040643  1
  O2-  O278  1  0.29248459  0.16457678  0.74133955  1
  O2-  O279  1  0.29104962  0.66413487  0.06662733  1
  O2-  O280  1  0.30340695  0.67571773  0.40029347  1
  O2-  O281  1  0.29792431  0.66769932  0.72738592  1
  O2-  O282  1  0.79383443  0.17417960  0.06763724  1
  O2-  O283  1  0.79151823  0.16671975  0.39647876  1
  O2-  O284  1  0.78955557  0.16531278  0.73248098  1
  O2-  O285  1  0.79304699  0.66823057  0.06880937  1
  O2-  O286  1  0.79149994  0.66078928  0.39440463  1
  O2-  O287  1  0.79417211  0.67113986  0.73331357  1
