# generated using pymatgen
data_Ca2Al2SiO7
_symmetry_space_group_name_H-M   'P 1'
_cell_length_a   15.45567486
_cell_length_b   15.45530512
_cell_length_c   15.28165208
_cell_angle_alpha   90.00488762
_cell_angle_beta   89.99605839
_cell_angle_gamma   90.00047799
_symmetry_Int_Tables_number   1
_chemical_formula_structural   Ca2Al2SiO7
_chemical_formula_sum   'Ca48 Al48 Si24 O168'
_cell_volume   3650.36138525
_cell_formula_units_Z   24
loop_
 _symmetry_equiv_pos_site_id
 _symmetry_equiv_pos_as_xyz
  1  'x, y, z'
loop_
 _atom_type_symbol
 _atom_type_oxidation_number
  Ca2+  2.0
  Al0+  0.0
  Si0+  0.0
  O2-  -2.0
loop_
 _atom_site_type_symbol
 _atom_site_label
 _atom_site_symmetry_multiplicity
 _atom_site_fract_x
 _atom_site_fract_y
 _atom_site_fract_z
 _atom_site_occupancy
  Ca2+  Ca0  1  0.16512423  0.08429719  0.16621713  1
  Ca2+  Ca1  1  0.17569072  0.08219829  0.50617476  1
  Ca2+  Ca2  1  0.16951110  0.08528936  0.83687217  1
  Ca2+  Ca3  1  0.17885267  0.58314230  0.17786764  1
  Ca2+  Ca4  1  0.17426137  0.58637388  0.50025401  1
  Ca2+  Ca5  1  0.18094534  0.58807715  0.83753495  1
  Ca2+  Ca6  1  0.66397353  0.07043554  0.17074335  1
  Ca2+  Ca7  1  0.65935667  0.07028580  0.50416647  1
  Ca2+  Ca8  1  0.67341126  0.06708104  0.84154583  1
  Ca2+  Ca9  1  0.65914031  0.58082909  0.16723154  1
  Ca2+  Ca10  1  0.66158617  0.58016879  0.50615071  1
  Ca2+  Ca11  1  0.65535835  0.57635572  0.83696999  1
  Ca2+  Ca12  1  0.08083310  0.33266529  0.16403444  1
  Ca2+  Ca13  1  0.07235607  0.34273020  0.49382929  1
  Ca2+  Ca14  1  0.07741372  0.32675407  0.82879955  1
  Ca2+  Ca15  1  0.08058704  0.82674257  0.15995600  1
  Ca2+  Ca16  1  0.07720472  0.82856516  0.49702681  1
  Ca2+  Ca17  1  0.06876995  0.83740919  0.82997773  1
  Ca2+  Ca18  1  0.58070002  0.32978688  0.15932304  1
  Ca2+  Ca19  1  0.58608767  0.32600711  0.49490464  1
  Ca2+  Ca20  1  0.58211398  0.33970461  0.83199508  1
  Ca2+  Ca21  1  0.58430760  0.82355453  0.15921759  1
  Ca2+  Ca22  1  0.58355956  0.82530504  0.49682640  1
  Ca2+  Ca23  1  0.58330546  0.82463930  0.82645479  1
  Ca2+  Ca24  1  0.33271396  0.42675554  0.17071257  1
  Ca2+  Ca25  1  0.33058479  0.43026057  0.50336108  1
  Ca2+  Ca26  1  0.34149538  0.43088970  0.84102370  1
  Ca2+  Ca27  1  0.33704737  0.91449074  0.16775148  1
  Ca2+  Ca28  1  0.33725709  0.92145584  0.51002355  1
  Ca2+  Ca29  1  0.34157766  0.91822828  0.83531074  1
  Ca2+  Ca30  1  0.82958502  0.41471202  0.16934266  1
  Ca2+  Ca31  1  0.83136112  0.41591041  0.50762132  1
  Ca2+  Ca32  1  0.82191764  0.41340751  0.83534657  1
  Ca2+  Ca33  1  0.82534948  0.91596402  0.16599977  1
  Ca2+  Ca34  1  0.82047444  0.91128294  0.50580704  1
  Ca2+  Ca35  1  0.82613140  0.91237118  0.84265092  1
  Ca2+  Ca36  1  0.42313558  0.17421950  0.16162574  1
  Ca2+  Ca37  1  0.42177076  0.16534030  0.49510387  1
  Ca2+  Ca38  1  0.41414923  0.17414694  0.82921575  1
  Ca2+  Ca39  1  0.42326397  0.66562097  0.15832411  1
  Ca2+  Ca40  1  0.42399947  0.66257508  0.49871772  1
  Ca2+  Ca41  1  0.42284630  0.67305900  0.82982252  1
  Ca2+  Ca42  1  0.91999036  0.16811341  0.15986442  1
  Ca2+  Ca43  1  0.91124528  0.18124057  0.49653459  1
  Ca2+  Ca44  1  0.91751544  0.16508900  0.83180421  1
  Ca2+  Ca45  1  0.92446022  0.67021212  0.16330741  1
  Ca2+  Ca46  1  0.92054230  0.67070252  0.49569152  1
  Ca2+  Ca47  1  0.91105540  0.67921558  0.83036040  1
  Al0+  Al48  1  0.00146151  0.00068018  -0.00329277  1
  Al0+  Al49  1  -0.00161182  0.00330595  0.33676936  1
  Al0+  Al50  1  0.00091169  0.00089067  0.65848748  1
  Al0+  Al51  1  0.00024773  0.49835211  -0.00260008  1
  Al0+  Al52  1  -0.00082086  0.50157648  0.32685163  1
  Al0+  Al53  1  0.00006815  0.49943452  0.66568989  1
  Al0+  Al54  1  0.50000147  0.00102631  0.00305460  1
  Al0+  Al55  1  0.50067244  -0.00005027  0.33292821  1
  Al0+  Al56  1  0.50008529  0.00013129  0.67427827  1
  Al0+  Al57  1  0.49970437  0.49889428  0.00314693  1
  Al0+  Al58  1  0.49988951  0.50010952  0.33464481  1
  Al0+  Al59  1  0.49863823  0.49927896  0.66923509  1
  Al0+  Al60  1  0.24944002  0.25060984  -0.00787681  1
  Al0+  Al61  1  0.24760569  0.25114557  0.33815049  1
  Al0+  Al62  1  0.25008250  0.25005703  0.66890844  1
  Al0+  Al63  1  0.25193623  0.75074470  0.00116598  1
  Al0+  Al64  1  0.24948653  0.75170365  0.33543168  1
  Al0+  Al65  1  0.24920482  0.75199507  0.66891500  1
  Al0+  Al66  1  0.75085743  0.24944195  0.00740715  1
  Al0+  Al67  1  0.75025392  0.24859848  0.32368181  1
  Al0+  Al68  1  0.75021445  0.24917197  0.66734287  1
  Al0+  Al69  1  0.75125719  0.74699465  -0.00223470  1
  Al0+  Al70  1  0.74814972  0.74990182  0.33336414  1
  Al0+  Al71  1  0.75015729  0.74789410  0.66131892  1
  Al0+  Al72  1  0.68021867  0.42788863  0.67825335  1
  Al0+  Al73  1  0.32114525  0.07114735  0.68163516  1
  Al0+  Al74  1  0.42903909  0.82324076  0.65149704  1
  Al0+  Al75  1  0.56997983  0.17741394  0.31937903  1
  Al0+  Al76  1  0.93110306  0.81900449  0.98881806  1
  Al0+  Al77  1  0.31933354  0.57141826  0.01514960  1
  Al0+  Al78  1  0.43092759  0.31933380  0.98682415  1
  Al0+  Al79  1  0.31977884  0.57170946  0.68271232  1
  Al0+  Al80  1  0.92926295  0.32193594  0.31737419  1
  Al0+  Al81  1  0.57113846  0.67830012  0.98473599  1
  Al0+  Al82  1  0.32273085  0.57273695  0.35033285  1
  Al0+  Al83  1  0.57037063  0.67810990  0.31855499  1
  Al0+  Al84  1  0.67977925  0.43045575  0.01549406  1
  Al0+  Al85  1  0.82371583  0.06943997  0.01543965  1
  Al0+  Al86  1  0.67788354  0.92608273  0.01614436  1
  Al0+  Al87  1  0.17657032  0.42943396  0.34822745  1
  Al0+  Al88  1  0.67965081  0.92883451  0.34886503  1
  Al0+  Al89  1  0.68058620  0.92667488  0.68073222  1
  Al0+  Al90  1  0.56900896  0.67711748  0.64992581  1
  Al0+  Al91  1  0.07015477  0.17974397  0.98574273  1
  Al0+  Al92  1  0.42820834  0.82318539  0.98556410  1
  Al0+  Al93  1  0.92795608  0.82174112  0.65097208  1
  Al0+  Al94  1  0.92907653  0.31940306  0.65422943  1
  Al0+  Al95  1  0.07153068  0.68155934  0.32001187  1
  Si0+  Si96  1  0.17970846  0.93072323  0.01417364  1
  Si0+  Si97  1  0.67996488  0.42716720  0.34729848  1
  Si0+  Si98  1  0.57403081  0.17770367  0.98260638  1
  Si0+  Si99  1  0.82204310  0.07359314  0.35176870  1
  Si0+  Si100  1  0.82043345  0.57073099  0.34715845  1
  Si0+  Si101  1  0.82233751  0.07158420  0.68067008  1
  Si0+  Si102  1  0.32075475  0.07423947  0.01558918  1
  Si0+  Si103  1  0.17645768  0.92944034  0.34807434  1
  Si0+  Si104  1  0.17612830  0.42833058  0.68523168  1
  Si0+  Si105  1  0.82558720  0.57169632  0.01732791  1
  Si0+  Si106  1  0.17585157  0.92926597  0.68381726  1
  Si0+  Si107  1  0.42786902  0.32153062  0.65066185  1
  Si0+  Si108  1  0.07323716  0.17759879  0.31740480  1
  Si0+  Si109  1  0.42782452  0.82294045  0.31816637  1
  Si0+  Si110  1  0.92583971  0.32258025  0.98180711  1
  Si0+  Si111  1  0.07253482  0.67814770  0.65107678  1
  Si0+  Si112  1  0.42698001  0.32113978  0.31902981  1
  Si0+  Si113  1  0.32017174  0.07072267  0.34637882  1
  Si0+  Si114  1  0.92756890  0.82373113  0.31700627  1
  Si0+  Si115  1  0.17706940  0.42665529  0.01483684  1
  Si0+  Si116  1  0.07398062  0.67646873  0.98348386  1
  Si0+  Si117  1  0.57004820  0.17979187  0.65451964  1
  Si0+  Si118  1  0.82430313  0.57137026  0.68211714  1
  Si0+  Si119  1  0.07417985  0.17904969  0.64666963  1
  O2-  O120  1  0.25364002  -0.00099863  0.05749851  1
  O2-  O121  1  0.24890639  -0.00007579  0.38874875  1
  O2-  O122  1  0.24620928  -0.00371592  0.72803998  1
  O2-  O123  1  0.24110896  0.49876882  0.05976006  1
  O2-  O124  1  0.24898605  0.50069655  0.39864836  1
  O2-  O125  1  0.24461864  0.49650535  0.72953676  1
  O2-  O126  1  0.74926908  -0.00001275  0.06551094  1
  O2-  O127  1  0.75478534  0.00387018  0.39605869  1
  O2-  O128  1  0.76057117  -0.00255672  0.72509606  1
  O2-  O129  1  0.75621518  0.50375662  0.06198405  1
  O2-  O130  1  0.74974185  0.49912460  0.38989213  1
  O2-  O131  1  0.75391289  0.50375116  0.72485217  1
  O2-  O132  1  0.00533214  0.24680530  0.27381260  1
  O2-  O133  1  0.00525081  0.24783234  0.60388526  1
  O2-  O134  1  -0.00558478  0.25318636  0.93890900  1
  O2-  O135  1  -0.00059526  0.75860027  0.27273248  1
  O2-  O136  1  0.00290099  0.74600463  0.60641430  1
  O2-  O137  1  0.00306291  0.74242241  0.93938797  1
  O2-  O138  1  0.49607059  0.25345532  0.27405770  1
  O2-  O139  1  0.49876708  0.24988671  0.60956044  1
  O2-  O140  1  0.50570490  0.24586373  0.93704608  1
  O2-  O141  1  0.49331843  0.75154693  0.27455592  1
  O2-  O142  1  0.49830904  0.75045438  0.59914567  1
  O2-  O143  1  0.50325173  0.75479169  0.93592910  1
  O2-  O144  1  0.07162994  0.18122338  0.09906034  1
  O2-  O145  1  0.07405260  0.17485588  0.42265792  1
  O2-  O146  1  0.07412240  0.17845730  0.75224585  1
  O2-  O147  1  0.07370626  0.67867657  0.08926176  1
  O2-  O148  1  0.06896476  0.68368857  0.43329144  1
  O2-  O149  1  0.07163050  0.67895447  0.75670554  1
  O2-  O150  1  0.56983712  0.17861938  0.08849769  1
  O2-  O151  1  0.56756399  0.17781333  0.43330161  1
  O2-  O152  1  0.56967109  0.18230115  0.75928441  1
  O2-  O153  1  0.56853283  0.67810302  0.09876470  1
  O2-  O154  1  0.57189383  0.67721626  0.43127381  1
  O2-  O155  1  0.56823899  0.67546657  0.76293662  1
  O2-  O156  1  0.17956418  0.42795748  0.23451663  1
  O2-  O157  1  0.17573039  0.42875766  0.57968124  1
  O2-  O158  1  0.17724050  0.42689045  0.90919892  1
  O2-  O159  1  0.17489967  0.93032421  0.24285008  1
  O2-  O160  1  0.17495367  0.93162587  0.57776584  1
  O2-  O161  1  0.17730464  0.93296176  0.90938480  1
  O2-  O162  1  0.68031109  0.42798827  0.24237842  1
  O2-  O163  1  0.68231462  0.42485496  0.56465343  1
  O2-  O164  1  0.68105357  0.43011707  0.90221067  1
  O2-  O165  1  0.68062567  0.92854513  0.23628074  1
  O2-  O166  1  0.67922539  0.92982460  0.56716698  1
  O2-  O167  1  0.68039576  0.92659048  0.90240838  1
  O2-  O168  1  0.43013217  0.31642124  0.10028142  1
  O2-  O169  1  0.42824711  0.31889055  0.42502543  1
  O2-  O170  1  0.42801177  0.32130618  0.75573007  1
  O2-  O171  1  0.42546163  0.82060825  0.09953319  1
  O2-  O172  1  0.42904964  0.82697403  0.42348057  1
  O2-  O173  1  0.43156191  0.82304393  0.76451190  1
  O2-  O174  1  0.92847640  0.32419303  0.08734023  1
  O2-  O175  1  0.92785974  0.32073241  0.43087237  1
  O2-  O176  1  0.92927851  0.31615322  0.76699513  1
  O2-  O177  1  0.93533866  0.81843923  0.10211404  1
  O2-  O178  1  0.92880742  0.82141545  0.42277177  1
  O2-  O179  1  0.92983956  0.82206046  0.76414142  1
  O2-  O180  1  0.31886832  0.07159560  0.24123160  1
  O2-  O181  1  0.31969643  0.07181981  0.56766667  1
  O2-  O182  1  0.31833574  0.07609551  0.91080038  1
  O2-  O183  1  0.32259088  0.57097831  0.23675904  1
  O2-  O184  1  0.31909270  0.56914762  0.56971021  1
  O2-  O185  1  0.31842369  0.57066741  0.90192931  1
  O2-  O186  1  0.82499989  0.07166647  0.24666707  1
  O2-  O187  1  0.81786380  0.07500128  0.57505624  1
  O2-  O188  1  0.82316382  0.06737407  0.90124601  1
  O2-  O189  1  0.82068694  0.57067770  0.24214773  1
  O2-  O190  1  0.82741002  0.56903925  0.57608232  1
  O2-  O191  1  0.82948945  0.57009474  0.91192646  1
  O2-  O192  1  0.04658513  0.08387323  0.27072248  1
  O2-  O193  1  0.05112300  0.08563775  0.59907324  1
  O2-  O194  1  0.04172872  0.08388059  0.92924199  1
  O2-  O195  1  0.03929941  0.58740807  0.26316544  1
  O2-  O196  1  0.04803152  0.58423569  0.60496126  1
  O2-  O197  1  0.05232093  0.58155089  0.93837955  1
  O2-  O198  1  0.53561654  0.08295874  0.26363679  1
  O2-  O199  1  0.54038804  0.08838970  0.60775476  1
  O2-  O200  1  0.54809082  0.08385991  0.93829409  1
  O2-  O201  1  0.54205415  0.57975857  0.26623314  1
  O2-  O202  1  0.53825489  0.57806428  0.59774693  1
  O2-  O203  1  0.53797867  0.58065974  0.93412136  1
  O2-  O204  1  0.16738355  0.20204176  0.27111350  1
  O2-  O205  1  0.16827681  0.20519690  0.60139378  1
  O2-  O206  1  0.16465938  0.21087923  0.92763630  1
  O2-  O207  1  0.16814076  0.71273179  0.26580463  1
  O2-  O208  1  0.16481210  0.70619509  0.60406817  1
  O2-  O209  1  0.16591765  0.70638076  0.93771089  1
  O2-  O210  1  0.66517344  0.20582018  0.26305023  1
  O2-  O211  1  0.66090413  0.20797803  0.60532391  1
  O2-  O212  1  0.66887608  0.20296345  0.94011824  1
  O2-  O213  1  0.66724322  0.70938951  0.26515219  1
  O2-  O214  1  0.66891263  0.70122474  0.59780300  1
  O2-  O215  1  0.67207343  0.69798547  0.93359966  1
  O2-  O216  1  0.08115802  0.44661460  0.05921391  1
  O2-  O217  1  0.07760252  0.46087637  0.39877723  1
  O2-  O218  1  0.08205774  0.45263715  0.73152621  1
  O2-  O219  1  0.09051984  0.96243166  0.06411554  1
  O2-  O220  1  0.08559457  0.95846767  0.39776835  1
  O2-  O221  1  0.08247819  0.95931879  0.72905889  1
  O2-  O222  1  0.58411843  0.46053813  0.07145015  1
  O2-  O223  1  0.58749361  0.45208721  0.39466612  1
  O2-  O224  1  0.58316760  0.45605577  0.73219343  1
  O2-  O225  1  0.57947160  0.95606805  0.06982082  1
  O2-  O226  1  0.58296709  0.96279911  0.40173755  1
  O2-  O227  1  0.58718696  0.96232952  0.73647339  1
  O2-  O228  1  0.20666257  0.33364003  0.05998023  1
  O2-  O229  1  0.20103735  0.33018651  0.40323819  1
  O2-  O230  1  0.20102667  0.33376395  0.72941173  1
  O2-  O231  1  0.20477971  0.83852259  0.06259232  1
  O2-  O232  1  0.20238098  0.83857484  0.39746579  1
  O2-  O233  1  0.19568934  0.83503225  0.72997284  1
  O2-  O234  1  0.70836576  0.33365772  0.07076151  1
  O2-  O235  1  0.70893843  0.33417810  0.39193058  1
  O2-  O236  1  0.71257366  0.33252015  0.73453105  1
  O2-  O237  1  0.70959077  0.82740923  0.06699693  1
  O2-  O238  1  0.71169220  0.83237388  0.40294066  1
  O2-  O239  1  0.71020769  0.82844412  0.73098498  1
  O2-  O240  1  0.45315306  0.41426569  0.27348718  1
  O2-  O241  1  0.45677031  0.41192750  0.60255929  1
  O2-  O242  1  0.46342537  0.41491936  0.93313240  1
  O2-  O243  1  0.45448238  0.91567927  0.27055917  1
  O2-  O244  1  0.45735431  0.92369192  0.60134856  1
  O2-  O245  1  0.44893408  0.92560342  0.93763218  1
  O2-  O246  1  0.95815972  0.41753324  0.26128493  1
  O2-  O247  1  0.95739733  0.41720034  0.60015345  1
  O2-  O248  1  0.95129917  0.41581059  0.93436113  1
  O2-  O249  1  0.95073468  0.91971564  0.27522762  1
  O2-  O250  1  0.95890699  0.91751438  0.59440997  1
  O2-  O251  1  0.96529303  0.91338991  0.93317783  1
  O2-  O252  1  0.33307958  0.29408031  0.27443412  1
  O2-  O253  1  0.33570785  0.29302010  0.60404560  1
  O2-  O254  1  0.33594780  0.28876600  0.92965619  1
  O2-  O255  1  0.33197319  0.80288552  0.27430680  1
  O2-  O256  1  0.32678298  0.80104276  0.60274322  1
  O2-  O257  1  0.32938855  0.79503309  0.93255210  1
  O2-  O258  1  0.83473354  0.29006748  0.26081028  1
  O2-  O259  1  0.83337596  0.28634230  0.59841319  1
  O2-  O260  1  0.83171244  0.29591314  0.93805953  1
  O2-  O261  1  0.83572804  0.79361028  0.27144800  1
  O2-  O262  1  0.83394051  0.78851208  0.59435154  1
  O2-  O263  1  0.83575760  0.78861219  0.93290147  1
  O2-  O264  1  0.41327636  0.05161959  0.06413211  1
  O2-  O265  1  0.41131860  0.04259632  0.39468678  1
  O2-  O266  1  0.41642348  0.04396716  0.73895461  1
  O2-  O267  1  0.41345887  0.53509028  0.06931040  1
  O2-  O268  1  0.41986275  0.53973238  0.40414448  1
  O2-  O269  1  0.41470436  0.53664071  0.73641466  1
  O2-  O270  1  0.92232902  0.03975582  0.06827142  1
  O2-  O271  1  0.91652427  0.05265738  0.39972102  1
  O2-  O272  1  0.92002115  0.05276157  0.72082226  1
  O2-  O273  1  0.91942212  0.54453361  0.06446011  1
  O2-  O274  1  0.91227052  0.54298739  0.39417826  1
  O2-  O275  1  0.91720053  0.54596107  0.73011367  1
  O2-  O276  1  0.28677056  0.16428357  0.06300039  1
  O2-  O277  1  0.29335992  0.16177640  0.39641174  1
  O2-  O278  1  0.28936066  0.16791045  0.73608229  1
  O2-  O279  1  0.28989136  0.66841884  0.06948561  1
  O2-  O280  1  0.29335474  0.67174701  0.40209689  1
  O2-  O281  1  0.28850797  0.66875845  0.73577084  1
  O2-  O282  1  0.80069117  0.16902037  0.06827537  1
  O2-  O283  1  0.79335395  0.16795336  0.39491182  1
  O2-  O284  1  0.79224243  0.16221523  0.73000366  1
  O2-  O285  1  0.80243804  0.66533363  0.06372414  1
  O2-  O286  1  0.79331423  0.66223540  0.39555164  1
  O2-  O287  1  0.79948643  0.66547813  0.72618836  1
