# generated using pymatgen
data_Ca2Al2SiO7
_symmetry_space_group_name_H-M   'P 1'
_cell_length_a   15.45611623
_cell_length_b   15.45532337
_cell_length_c   15.28218239
_cell_angle_alpha   89.98919289
_cell_angle_beta   90.00296478
_cell_angle_gamma   90.01112595
_symmetry_Int_Tables_number   1
_chemical_formula_structural   Ca2Al2SiO7
_chemical_formula_sum   'Ca48 Al48 Si24 O168'
_cell_volume   3650.59650164
_cell_formula_units_Z   24
loop_
 _symmetry_equiv_pos_site_id
 _symmetry_equiv_pos_as_xyz
  1  'x, y, z'
loop_
 _atom_type_symbol
 _atom_type_oxidation_number
  Ca2+  2.0
  Al0+  0.0
  Si0+  0.0
  O2-  -2.0
loop_
 _atom_site_type_symbol
 _atom_site_label
 _atom_site_symmetry_multiplicity
 _atom_site_fract_x
 _atom_site_fract_y
 _atom_site_fract_z
 _atom_site_occupancy
  Ca2+  Ca0  1  0.16392463  0.07471598  0.16787496  1
  Ca2+  Ca1  1  0.17209130  0.08250273  0.51084370  1
  Ca2+  Ca2  1  0.17108499  0.08132445  0.83782060  1
  Ca2+  Ca3  1  0.16670885  0.58598651  0.16175056  1
  Ca2+  Ca4  1  0.16979264  0.58394467  0.50930891  1
  Ca2+  Ca5  1  0.17264947  0.59023146  0.84013754  1
  Ca2+  Ca6  1  0.66218652  0.07850679  0.17179584  1
  Ca2+  Ca7  1  0.66642162  0.07605215  0.50957931  1
  Ca2+  Ca8  1  0.66502995  0.08191776  0.83132278  1
  Ca2+  Ca9  1  0.67717302  0.58497582  0.17377375  1
  Ca2+  Ca10  1  0.67723066  0.58280704  0.50777026  1
  Ca2+  Ca11  1  0.67489901  0.57280917  0.83981437  1
  Ca2+  Ca12  1  0.07883739  0.33781928  0.16385989  1
  Ca2+  Ca13  1  0.07707812  0.32647318  0.49651648  1
  Ca2+  Ca14  1  0.08478160  0.33182909  0.82693419  1
  Ca2+  Ca15  1  0.07074269  0.83023732  0.15479342  1
  Ca2+  Ca16  1  0.07425164  0.82530061  0.49771512  1
  Ca2+  Ca17  1  0.08106705  0.82556959  0.83151245  1
  Ca2+  Ca18  1  0.59235277  0.32168952  0.15931879  1
  Ca2+  Ca19  1  0.59518077  0.32144811  0.49977128  1
  Ca2+  Ca20  1  0.59306558  0.32733896  0.82885933  1
  Ca2+  Ca21  1  0.59016023  0.82558809  0.16780706  1
  Ca2+  Ca22  1  0.58304056  0.83543894  0.49617115  1
  Ca2+  Ca23  1  0.57608255  0.83299096  0.82425751  1
  Ca2+  Ca24  1  0.32812527  0.41893631  0.16291001  1
  Ca2+  Ca25  1  0.33279884  0.42380861  0.50765609  1
  Ca2+  Ca26  1  0.32649119  0.42884662  0.84057700  1
  Ca2+  Ca27  1  0.32430571  0.91244750  0.16581122  1
  Ca2+  Ca28  1  0.33502040  0.92145356  0.51030563  1
  Ca2+  Ca29  1  0.32983190  0.91911990  0.83431864  1
  Ca2+  Ca30  1  0.83528832  0.42868888  0.16918710  1
  Ca2+  Ca31  1  0.83175251  0.42473887  0.50612523  1
  Ca2+  Ca32  1  0.82657298  0.42485470  0.83596179  1
  Ca2+  Ca33  1  0.83204586  0.91380904  0.17463329  1
  Ca2+  Ca34  1  0.82149289  0.91648639  0.50517753  1
  Ca2+  Ca35  1  0.83396914  0.92062357  0.83334458  1
  Ca2+  Ca36  1  0.42912687  0.16751199  0.16151054  1
  Ca2+  Ca37  1  0.42774594  0.16268133  0.49969154  1
  Ca2+  Ca38  1  0.42630234  0.16626625  0.82450083  1
  Ca2+  Ca39  1  0.42376616  0.66138346  0.16305043  1
  Ca2+  Ca40  1  0.42300116  0.67091030  0.49941303  1
  Ca2+  Ca41  1  0.40917504  0.67064371  0.82461087  1
  Ca2+  Ca42  1  0.91087408  0.17807841  0.16341955  1
  Ca2+  Ca43  1  0.91399890  0.17020150  0.49984343  1
  Ca2+  Ca44  1  0.92181393  0.16686137  0.82314096  1
  Ca2+  Ca45  1  0.91282331  0.67516133  0.15840599  1
  Ca2+  Ca46  1  0.91512933  0.66525311  0.49473230  1
  Ca2+  Ca47  1  0.92369044  0.66057133  0.83136741  1
  Al0+  Al48  1  -0.00087245  0.00103756  0.00120940  1
  Al0+  Al49  1  0.00096561  -0.00090337  0.33253996  1
  Al0+  Al50  1  -0.00067339  -0.00150035  0.66345860  1
  Al0+  Al51  1  0.00000906  0.50105346  0.00257251  1
  Al0+  Al52  1  0.00195775  0.49850953  0.33405088  1
  Al0+  Al53  1  0.00042615  0.49938290  0.66431245  1
  Al0+  Al54  1  0.50162563  0.00064076  -0.00315801  1
  Al0+  Al55  1  0.49777342  -0.00007040  0.33071641  1
  Al0+  Al56  1  0.49780971  0.00016006  0.66690027  1
  Al0+  Al57  1  0.49983911  0.49637959  0.00737741  1
  Al0+  Al58  1  0.49911687  0.49880244  0.33000550  1
  Al0+  Al59  1  0.49897368  0.50027850  0.67418396  1
  Al0+  Al60  1  0.25286810  0.25127552  0.00510661  1
  Al0+  Al61  1  0.25086366  0.24996858  0.33278228  1
  Al0+  Al62  1  0.25131337  0.24927903  0.66530821  1
  Al0+  Al63  1  0.24953611  0.75222043  0.00709110  1
  Al0+  Al64  1  0.24992868  0.74980508  0.33528749  1
  Al0+  Al65  1  0.24860745  0.75059341  0.65870495  1
  Al0+  Al66  1  0.75161429  0.24852274  -0.00290383  1
  Al0+  Al67  1  0.75170623  0.25028344  0.32354364  1
  Al0+  Al68  1  0.75111854  0.24889378  0.66806997  1
  Al0+  Al69  1  0.74788234  0.75256071  -0.00396095  1
  Al0+  Al70  1  0.74952159  0.75060363  0.33502394  1
  Al0+  Al71  1  0.74988165  0.75024821  0.67660328  1
  Al0+  Al72  1  0.67665751  0.92920026  0.68319595  1
  Al0+  Al73  1  0.67907277  0.93069396  0.34561170  1
  Al0+  Al74  1  0.82413271  0.57231972  0.68265380  1
  Al0+  Al75  1  0.17781855  0.42748051  0.01522117  1
  Al0+  Al76  1  0.92551816  0.82398637  0.98208591  1
  Al0+  Al77  1  0.17834890  0.93127503  0.01302887  1
  Al0+  Al78  1  0.93079463  0.32090849  0.31889136  1
  Al0+  Al79  1  0.32015809  0.07159068  0.67992395  1
  Al0+  Al80  1  0.07012547  0.68011576  0.98557618  1
  Al0+  Al81  1  0.82216189  0.07025858  0.68027220  1
  Al0+  Al82  1  0.92941445  0.81925523  0.32142909  1
  Al0+  Al83  1  0.42948393  0.82012505  0.65348812  1
  Al0+  Al84  1  0.68054450  0.42587900  0.01752532  1
  Al0+  Al85  1  0.07286492  0.17724869  0.65441865  1
  Al0+  Al86  1  0.67870921  0.42822328  0.68010092  1
  Al0+  Al87  1  0.57103869  0.17955910  0.98242978  1
  Al0+  Al88  1  0.31899113  0.57262340  0.67772563  1
  Al0+  Al89  1  0.56987348  0.17898382  0.31932358  1
  Al0+  Al90  1  0.06929077  0.67884278  0.65203861  1
  Al0+  Al91  1  0.81919912  0.57280410  0.01627990  1
  Al0+  Al92  1  0.57008061  0.67946391  0.32193359  1
  Al0+  Al93  1  0.32129297  0.57378796  0.01695735  1
  Al0+  Al94  1  0.57088089  0.18073946  0.65254495  1
  Al0+  Al95  1  0.82068790  0.57057488  0.34741251  1
  Si0+  Si96  1  0.42951409  0.81978884  0.98665406  1
  Si0+  Si97  1  0.92882862  0.32080350  0.65029940  1
  Si0+  Si98  1  0.42562679  0.32254609  0.31481194  1
  Si0+  Si99  1  0.57011850  0.67647061  0.98543543  1
  Si0+  Si100  1  0.17752328  0.92813999  0.35043382  1
  Si0+  Si101  1  0.07448390  0.17798378  0.31560746  1
  Si0+  Si102  1  0.57301133  0.67655535  0.65371127  1
  Si0+  Si103  1  0.07407184  0.67746765  0.31605125  1
  Si0+  Si104  1  0.32422219  0.07135647  0.01764749  1
  Si0+  Si105  1  0.92534349  0.82187121  0.64918123  1
  Si0+  Si106  1  0.42679355  0.32219022  0.98173278  1
  Si0+  Si107  1  0.18019994  0.42836565  0.35059155  1
  Si0+  Si108  1  0.32253854  0.57115159  0.35039101  1
  Si0+  Si109  1  0.17748462  0.92778206  0.68122173  1
  Si0+  Si110  1  0.67693754  0.93082656  0.01547347  1
  Si0+  Si111  1  0.82302197  0.07445450  0.34794350  1
  Si0+  Si112  1  0.31911356  0.07026423  0.34790609  1
  Si0+  Si113  1  0.17864328  0.42753699  0.68041385  1
  Si0+  Si114  1  0.67747051  0.42608129  0.34839478  1
  Si0+  Si115  1  0.42605403  0.82231884  0.31500175  1
  Si0+  Si116  1  0.07281753  0.17934223  0.98731750  1
  Si0+  Si117  1  0.82191626  0.07012211  0.01576710  1
  Si0+  Si118  1  0.42785988  0.32416713  0.65079329  1
  Si0+  Si119  1  0.93102602  0.32112807  0.98366589  1
  O2-  O120  1  0.25266596  0.00602447  0.06251054  1
  O2-  O121  1  0.24844137  -0.00043744  0.39156734  1
  O2-  O122  1  0.24250540  -0.00012858  0.72587606  1
  O2-  O123  1  0.24802414  0.50164165  0.06569099  1
  O2-  O124  1  0.25047789  0.50054937  0.39200960  1
  O2-  O125  1  0.24428635  0.49846675  0.72446155  1
  O2-  O126  1  0.75179756  -0.00199823  0.05734352  1
  O2-  O127  1  0.75305299  0.00692342  0.39104257  1
  O2-  O128  1  0.75039600  -0.00019040  0.73298912  1
  O2-  O129  1  0.74660364  0.50237959  0.06870183  1
  O2-  O130  1  0.74471966  0.49580345  0.39276148  1
  O2-  O131  1  0.74884295  0.50217973  0.72954227  1
  O2-  O132  1  0.00366829  0.24381979  0.27114036  1
  O2-  O133  1  -0.00251322  0.25076842  0.60703572  1
  O2-  O134  1  0.00657509  0.25346222  0.94361309  1
  O2-  O135  1  0.00427592  0.74526940  0.27356429  1
  O2-  O136  1  -0.01005256  0.74869460  0.60525051  1
  O2-  O137  1  -0.00401279  0.74926244  0.93431762  1
  O2-  O138  1  0.49822301  0.25695639  0.27230203  1
  O2-  O139  1  0.49864107  0.25815138  0.60523036  1
  O2-  O140  1  0.49766351  0.25625584  0.93737668  1
  O2-  O141  1  0.49436580  0.75287413  0.27208588  1
  O2-  O142  1  0.50677455  0.74733818  0.60802806  1
  O2-  O143  1  0.49519704  0.74417264  0.94429079  1
  O2-  O144  1  0.06945540  0.17801783  0.09266755  1
  O2-  O145  1  0.07811628  0.17970002  0.42100166  1
  O2-  O146  1  0.07346181  0.18030334  0.76790094  1
  O2-  O147  1  0.07013261  0.68377394  0.09957768  1
  O2-  O148  1  0.07660290  0.67901788  0.42185684  1
  O2-  O149  1  0.07348807  0.68104547  0.76444680  1
  O2-  O150  1  0.56832453  0.17703630  0.09608243  1
  O2-  O151  1  0.56859615  0.17797843  0.43221503  1
  O2-  O152  1  0.56857363  0.18098666  0.76533801  1
  O2-  O153  1  0.57144204  0.68078026  0.09099208  1
  O2-  O154  1  0.56762503  0.67997478  0.43486502  1
  O2-  O155  1  0.56886964  0.67692542  0.75936048  1
  O2-  O156  1  0.18107319  0.42683833  0.24594054  1
  O2-  O157  1  0.18052637  0.42734473  0.57418604  1
  O2-  O158  1  0.18137224  0.42224542  0.90194841  1
  O2-  O159  1  0.17784155  0.92887938  0.24528163  1
  O2-  O160  1  0.17988476  0.92913792  0.57500777  1
  O2-  O161  1  0.18075752  0.93324506  0.90013026  1
  O2-  O162  1  0.67917328  0.42646256  0.24306505  1
  O2-  O163  1  0.68111805  0.42772479  0.56581791  1
  O2-  O164  1  0.68413684  0.42595200  0.90422385  1
  O2-  O165  1  0.67993440  0.93157086  0.23197815  1
  O2-  O166  1  0.67683762  0.93041392  0.56913842  1
  O2-  O167  1  0.67227146  0.93343414  0.91110486  1
  O2-  O168  1  0.42422244  0.31795859  0.08763542  1
  O2-  O169  1  0.42044875  0.32175355  0.42017630  1
  O2-  O170  1  0.42462657  0.32176303  0.75589142  1
  O2-  O171  1  0.43233403  0.82227086  0.09204092  1
  O2-  O172  1  0.42438246  0.82306952  0.42041125  1
  O2-  O173  1  0.42691454  0.81858093  0.76699152  1
  O2-  O174  1  0.93048683  0.31824502  0.08908847  1
  O2-  O175  1  0.93328693  0.31949097  0.43190843  1
  O2-  O176  1  0.93124799  0.32116076  0.75595479  1
  O2-  O177  1  0.92706355  0.82530363  0.09631069  1
  O2-  O178  1  0.93130939  0.81898670  0.43434465  1
  O2-  O179  1  0.92987555  0.82553009  0.75419912  1
  O2-  O180  1  0.31738635  0.06945874  0.24270600  1
  O2-  O181  1  0.31971329  0.06963607  0.56613194  1
  O2-  O182  1  0.32387796  0.07002469  0.91222941  1
  O2-  O183  1  0.32194409  0.57179281  0.24573215  1
  O2-  O184  1  0.31872300  0.57032128  0.56396967  1
  O2-  O185  1  0.31925710  0.57504153  0.90335884  1
  O2-  O186  1  0.82342862  0.07379760  0.24196267  1
  O2-  O187  1  0.82096481  0.07000621  0.56628030  1
  O2-  O188  1  0.82398577  0.07112012  0.91112492  1
  O2-  O189  1  0.82040806  0.57132005  0.23468061  1
  O2-  O190  1  0.82340229  0.57012036  0.56840443  1
  O2-  O191  1  0.81908665  0.56915228  0.90314841  1
  O2-  O192  1  0.05177908  0.08277395  0.27173958  1
  O2-  O193  1  0.04485018  0.08061083  0.59832310  1
  O2-  O194  1  0.04200881  0.08941953  0.93907448  1
  O2-  O195  1  0.05239670  0.58216003  0.27330255  1
  O2-  O196  1  0.04468584  0.58024009  0.59742427  1
  O2-  O197  1  0.04721095  0.57926736  0.93476459  1
  O2-  O198  1  0.53395755  0.08422701  0.26350597  1
  O2-  O199  1  0.53508503  0.08549116  0.59918617  1
  O2-  O200  1  0.53705551  0.08351102  0.92906277  1
  O2-  O201  1  0.54030719  0.58285028  0.26619820  1
  O2-  O202  1  0.54496349  0.58353296  0.60738371  1
  O2-  O203  1  0.54630867  0.58169512  0.94306397  1
  O2-  O204  1  0.16691287  0.20621610  0.26784089  1
  O2-  O205  1  0.16847306  0.20915630  0.59764466  1
  O2-  O206  1  0.16783274  0.20207514  0.94389168  1
  O2-  O207  1  0.16793273  0.70464846  0.27078345  1
  O2-  O208  1  0.16243852  0.71401186  0.59288058  1
  O2-  O209  1  0.16971658  0.71311101  0.93640874  1
  O2-  O210  1  0.66672472  0.20524320  0.26320783  1
  O2-  O211  1  0.66877062  0.20859522  0.59869661  1
  O2-  O212  1  0.66927648  0.20772307  0.93060389  1
  O2-  O213  1  0.66452021  0.71385338  0.26610477  1
  O2-  O214  1  0.66851630  0.70001342  0.61063760  1
  O2-  O215  1  0.65906569  0.70816166  0.93585380  1
  O2-  O216  1  0.07973957  0.45385484  0.06932835  1
  O2-  O217  1  0.08894713  0.45485412  0.39918975  1
  O2-  O218  1  0.08403016  0.44856835  0.72454974  1
  O2-  O219  1  0.08318849  0.96478073  0.06961354  1
  O2-  O220  1  0.08616274  0.95585711  0.39865481  1
  O2-  O221  1  0.08293906  0.94896747  0.72532183  1
  O2-  O222  1  0.57894708  0.44362534  0.06771301  1
  O2-  O223  1  0.58138677  0.44696113  0.39138348  1
  O2-  O224  1  0.58015198  0.45201907  0.73508391  1
  O2-  O225  1  0.58700283  0.96268304  0.06511313  1
  O2-  O226  1  0.57993982  0.95883260  0.39656183  1
  O2-  O227  1  0.57909816  0.95998201  0.73578156  1
  O2-  O228  1  0.20887421  0.33036100  0.07274712  1
  O2-  O229  1  0.20907947  0.33600187  0.39744727  1
  O2-  O230  1  0.20604341  0.33502099  0.72690248  1
  O2-  O231  1  0.21073887  0.83811240  0.07233387  1
  O2-  O232  1  0.20566100  0.83609873  0.39742567  1
  O2-  O233  1  0.20899178  0.83612169  0.72613450  1
  O2-  O234  1  0.71485169  0.32789724  0.06861980  1
  O2-  O235  1  0.70664381  0.33191698  0.39178547  1
  O2-  O236  1  0.70980291  0.33115907  0.73335266  1
  O2-  O237  1  0.70087016  0.83735380  0.06105137  1
  O2-  O238  1  0.71008644  0.83553669  0.40126535  1
  O2-  O239  1  0.70023819  0.83089146  0.73786354  1
  O2-  O240  1  0.44623295  0.41704067  0.26885091  1
  O2-  O241  1  0.45065278  0.41936152  0.60589107  1
  O2-  O242  1  0.44834224  0.41816114  0.93912411  1
  O2-  O243  1  0.44944621  0.91566082  0.26782516  1
  O2-  O244  1  0.45852242  0.91662950  0.59830796  1
  O2-  O245  1  0.46122830  0.91000387  0.93827090  1
  O2-  O246  1  0.96629449  0.41586000  0.26419680  1
  O2-  O247  1  0.95603617  0.41283523  0.60172826  1
  O2-  O248  1  0.95578853  0.41353757  0.93740531  1
  O2-  O249  1  0.95958912  0.91701342  0.26751648  1
  O2-  O250  1  0.95451754  0.91317685  0.59965436  1
  O2-  O251  1  0.95854736  0.92242670  0.93137303  1
  O2-  O252  1  0.33405524  0.29142971  0.26625924  1
  O2-  O253  1  0.33569780  0.29643081  0.60170880  1
  O2-  O254  1  0.33354127  0.29441680  0.93550023  1
  O2-  O255  1  0.33190932  0.79531988  0.26966166  1
  O2-  O256  1  0.33516225  0.78917714  0.59453959  1
  O2-  O257  1  0.33570106  0.79726299  0.94170520  1
  O2-  O258  1  0.83615199  0.29206850  0.25983603  1
  O2-  O259  1  0.83638851  0.29415747  0.60295101  1
  O2-  O260  1  0.84209165  0.28712323  0.93538519  1
  O2-  O261  1  0.83295691  0.79017227  0.26705178  1
  O2-  O262  1  0.82890652  0.79974428  0.60743810  1
  O2-  O263  1  0.82523997  0.80193733  0.93063937  1
  O2-  O264  1  0.41611104  0.03977999  0.06421666  1
  O2-  O265  1  0.41054025  0.04156151  0.39499204  1
  O2-  O266  1  0.41374968  0.03760451  0.73573082  1
  O2-  O267  1  0.41831008  0.54223988  0.07176059  1
  O2-  O268  1  0.41411264  0.54185798  0.39750259  1
  O2-  O269  1  0.41435142  0.54537556  0.73468962  1
  O2-  O270  1  0.91328613  0.04568990  0.06590622  1
  O2-  O271  1  0.91786561  0.05024798  0.39264420  1
  O2-  O272  1  0.92147397  0.04232676  0.73300430  1
  O2-  O273  1  0.91781166  0.54422416  0.06816762  1
  O2-  O274  1  0.91875435  0.53944488  0.39928410  1
  O2-  O275  1  0.92186825  0.53921983  0.73429890  1
  O2-  O276  1  0.30261103  0.16541898  0.06407224  1
  O2-  O277  1  0.29241788  0.16269407  0.39481221  1
  O2-  O278  1  0.29200883  0.16861470  0.73415149  1
  O2-  O279  1  0.29515635  0.67136192  0.07315564  1
  O2-  O280  1  0.29568136  0.66404369  0.39685490  1
  O2-  O281  1  0.28617547  0.66941000  0.72932689  1
  O2-  O282  1  0.79174804  0.16127555  0.06313388  1
  O2-  O283  1  0.79870360  0.16935234  0.39140147  1
  O2-  O284  1  0.79742035  0.16878759  0.73374608  1
  O2-  O285  1  0.78935977  0.67325350  0.06542509  1
  O2-  O286  1  0.78848829  0.66611416  0.40180860  1
  O2-  O287  1  0.80164414  0.67065657  0.73639640  1
