# generated using pymatgen
data_Ca2Al2SiO7
_symmetry_space_group_name_H-M   'P 1'
_cell_length_a   15.45969151
_cell_length_b   15.45954097
_cell_length_c   15.28435398
_cell_angle_alpha   89.97574328
_cell_angle_beta   90.00411980
_cell_angle_gamma   89.99462495
_symmetry_Int_Tables_number   1
_chemical_formula_structural   Ca2Al2SiO7
_chemical_formula_sum   'Ca48 Al48 Si24 O168'
_cell_volume   3652.95618547
_cell_formula_units_Z   24
loop_
 _symmetry_equiv_pos_site_id
 _symmetry_equiv_pos_as_xyz
  1  'x, y, z'
loop_
 _atom_type_symbol
 _atom_type_oxidation_number
  Ca2+  2.0
  Al0+  0.0
  Si0+  0.0
  O2-  -2.0
loop_
 _atom_site_type_symbol
 _atom_site_label
 _atom_site_symmetry_multiplicity
 _atom_site_fract_x
 _atom_site_fract_y
 _atom_site_fract_z
 _atom_site_occupancy
  Ca2+  Ca0  1  0.18210302  0.08174202  0.17102945  1
  Ca2+  Ca1  1  0.16705816  0.07652767  0.50868566  1
  Ca2+  Ca2  1  0.16814498  0.07684737  0.83673803  1
  Ca2+  Ca3  1  0.17438487  0.59072564  0.16848404  1
  Ca2+  Ca4  1  0.17501709  0.58603155  0.51015768  1
  Ca2+  Ca5  1  0.17364288  0.57968285  0.84064959  1
  Ca2+  Ca6  1  0.67338163  0.08223177  0.17016568  1
  Ca2+  Ca7  1  0.67876466  0.08681869  0.50804204  1
  Ca2+  Ca8  1  0.67361821  0.09393063  0.83829854  1
  Ca2+  Ca9  1  0.65887206  0.58523535  0.17158413  1
  Ca2+  Ca10  1  0.66285947  0.58178118  0.50978211  1
  Ca2+  Ca11  1  0.65644718  0.57975125  0.83403849  1
  Ca2+  Ca12  1  0.08333376  0.33443154  0.16078144  1
  Ca2+  Ca13  1  0.09259928  0.32724013  0.50301076  1
  Ca2+  Ca14  1  0.08942255  0.32976422  0.82499234  1
  Ca2+  Ca15  1  0.08328842  0.82481208  0.16694950  1
  Ca2+  Ca16  1  0.08456530  0.82633554  0.49812313  1
  Ca2+  Ca17  1  0.09132306  0.82298931  0.82788180  1
  Ca2+  Ca18  1  0.57783088  0.32497124  0.15935954  1
  Ca2+  Ca19  1  0.57855493  0.33398865  0.50622973  1
  Ca2+  Ca20  1  0.57652179  0.32669863  0.82338507  1
  Ca2+  Ca21  1  0.57683990  0.82276191  0.15859286  1
  Ca2+  Ca22  1  0.58334425  0.82149448  0.49633879  1
  Ca2+  Ca23  1  0.57373772  0.82488807  0.83160420  1
  Ca2+  Ca24  1  0.32780617  0.42853018  0.16756701  1
  Ca2+  Ca25  1  0.33079572  0.42702312  0.50963329  1
  Ca2+  Ca26  1  0.32761521  0.42297875  0.83390261  1
  Ca2+  Ca27  1  0.34377729  0.92453114  0.16618515  1
  Ca2+  Ca28  1  0.32850412  0.92204636  0.50405150  1
  Ca2+  Ca29  1  0.33141004  0.91719576  0.83777605  1
  Ca2+  Ca30  1  0.82949188  0.42067765  0.16852054  1
  Ca2+  Ca31  1  0.82372019  0.41908240  0.50722196  1
  Ca2+  Ca32  1  0.82507231  0.41510019  0.83278561  1
  Ca2+  Ca33  1  0.83703261  0.92436240  0.17314370  1
  Ca2+  Ca34  1  0.83975533  0.92293629  0.50445318  1
  Ca2+  Ca35  1  0.83156765  0.92832097  0.83714747  1
  Ca2+  Ca36  1  0.41955859  0.16234347  0.15459817  1
  Ca2+  Ca37  1  0.41294857  0.17505477  0.49775505  1
  Ca2+  Ca38  1  0.42450373  0.16918070  0.82456744  1
  Ca2+  Ca39  1  0.42015501  0.66656046  0.15873179  1
  Ca2+  Ca40  1  0.42287637  0.65608303  0.49772702  1
  Ca2+  Ca41  1  0.41875872  0.66094966  0.82988157  1
  Ca2+  Ca42  1  0.91316640  0.16498678  0.16293734  1
  Ca2+  Ca43  1  0.91974091  0.16060090  0.50132359  1
  Ca2+  Ca44  1  0.91894352  0.16455159  0.82542994  1
  Ca2+  Ca45  1  0.92733033  0.67234460  0.16190476  1
  Ca2+  Ca46  1  0.93124577  0.67131199  0.49108463  1
  Ca2+  Ca47  1  0.93141101  0.66514790  0.82737602  1
  Al0+  Al48  1  -0.00039187  0.00101545  0.00598984  1
  Al0+  Al49  1  0.00111780  0.00136056  0.33228343  1
  Al0+  Al50  1  0.00074122  0.00097433  0.67272535  1
  Al0+  Al51  1  -0.00371970  0.49855888  -0.00094881  1
  Al0+  Al52  1  -0.00119606  0.49704386  0.32976175  1
  Al0+  Al53  1  -0.00074633  0.49953266  0.66345499  1
  Al0+  Al54  1  0.50303983  -0.00241132  -0.00539480  1
  Al0+  Al55  1  0.50279369  0.00010480  0.34036848  1
  Al0+  Al56  1  0.50362575  -0.00135933  0.66051842  1
  Al0+  Al57  1  0.49798217  0.49696964  0.00207491  1
  Al0+  Al58  1  0.49754342  0.49656763  0.33180545  1
  Al0+  Al59  1  0.50027323  0.49860903  0.66762670  1
  Al0+  Al60  1  0.24820395  0.24959040  0.00763712  1
  Al0+  Al61  1  0.25047002  0.25146185  0.33466083  1
  Al0+  Al62  1  0.25061698  0.25088436  0.66008157  1
  Al0+  Al63  1  0.24879421  0.75023918  -0.00217982  1
  Al0+  Al64  1  0.25243033  0.75159183  0.33388258  1
  Al0+  Al65  1  0.25108575  0.75253862  0.66964752  1
  Al0+  Al66  1  0.75033284  0.25111801  0.00237104  1
  Al0+  Al67  1  0.75003343  0.24960037  0.33668883  1
  Al0+  Al68  1  0.75047526  0.25190868  0.67040036  1
  Al0+  Al69  1  0.75014007  0.75050069  -0.00468802  1
  Al0+  Al70  1  0.75083252  0.74997571  0.32541005  1
  Al0+  Al71  1  0.75014311  0.75310249  0.66481210  1
  Al0+  Al72  1  0.56940743  0.68005186  0.65314417  1
  Al0+  Al73  1  0.17531640  0.42824211  0.01578431  1
  Al0+  Al74  1  0.32219227  0.06867618  0.00946840  1
  Al0+  Al75  1  0.31977713  0.57128550  0.34745322  1
  Al0+  Al76  1  0.92991367  0.82295292  0.31817019  1
  Al0+  Al77  1  0.07020417  0.17878622  0.65467536  1
  Al0+  Al78  1  0.81996334  0.07122639  0.01571779  1
  Al0+  Al79  1  0.67993371  0.43176232  0.68084072  1
  Al0+  Al80  1  0.06888232  0.67909586  0.98509441  1
  Al0+  Al81  1  0.56888154  0.67705934  0.32014349  1
  Al0+  Al82  1  0.32390851  0.07266809  0.34819641  1
  Al0+  Al83  1  0.57408571  0.17787894  0.64991469  1
  Al0+  Al84  1  0.32018632  0.57133360  0.01646295  1
  Al0+  Al85  1  0.81881792  0.06944286  0.68173772  1
  Al0+  Al86  1  0.42803351  0.82118104  0.98465378  1
  Al0+  Al87  1  0.42867352  0.32004211  0.65101740  1
  Al0+  Al88  1  0.82084164  0.07035257  0.34909351  1
  Al0+  Al89  1  0.17702850  0.42785950  0.67989237  1
  Al0+  Al90  1  0.18022792  0.93101457  0.68060986  1
  Al0+  Al91  1  0.07378705  0.67727510  0.31812892  1
  Al0+  Al92  1  0.57158014  0.17923146  0.98792494  1
  Al0+  Al93  1  0.32084448  0.57156001  0.68246024  1
  Al0+  Al94  1  0.07214912  0.67820371  0.65343846  1
  Al0+  Al95  1  0.57077372  0.67554931  0.98382346  1
  Si0+  Si96  1  0.92823156  0.82494896  0.98178682  1
  Si0+  Si97  1  0.57196166  0.17959047  0.31915525  1
  Si0+  Si98  1  0.42815187  0.31912457  0.31527458  1
  Si0+  Si99  1  0.42682359  0.82347773  0.64712094  1
  Si0+  Si100  1  0.82045709  0.57218597  0.01426977  1
  Si0+  Si101  1  0.82256629  0.57529141  0.68157448  1
  Si0+  Si102  1  0.67909902  0.42971709  0.34769465  1
  Si0+  Si103  1  0.17918331  0.93025394  0.34959840  1
  Si0+  Si104  1  0.92594653  0.31905103  0.31740906  1
  Si0+  Si105  1  0.67933285  0.92556071  0.35090500  1
  Si0+  Si106  1  0.82154364  0.57151365  0.34605372  1
  Si0+  Si107  1  0.67931932  0.92594726  0.01723018  1
  Si0+  Si108  1  0.07186281  0.18022790  0.31720562  1
  Si0+  Si109  1  0.67643831  0.92522964  0.68509870  1
  Si0+  Si110  1  0.92753427  0.32040950  0.98457786  1
  Si0+  Si111  1  0.32441137  0.07267803  0.68066633  1
  Si0+  Si112  1  0.17522565  0.42839001  0.35086405  1
  Si0+  Si113  1  0.67914322  0.42981782  0.01611214  1
  Si0+  Si114  1  0.42964789  0.82516546  0.31795600  1
  Si0+  Si115  1  0.42543758  0.31931687  0.98454607  1
  Si0+  Si116  1  0.92948603  0.82263618  0.65244944  1
  Si0+  Si117  1  0.92686930  0.32234506  0.64923146  1
  Si0+  Si118  1  0.07082624  0.17958400  0.98750275  1
  Si0+  Si119  1  0.17703536  0.92736674  0.01876042  1
  O2-  O120  1  0.24959668  -0.00631324  0.06069066  1
  O2-  O121  1  0.24880322  -0.00159768  0.39353491  1
  O2-  O122  1  0.25662572  0.00457256  0.72646708  1
  O2-  O123  1  0.24428456  0.50256388  0.06643132  1
  O2-  O124  1  0.23905390  0.50220525  0.39284370  1
  O2-  O125  1  0.24468334  0.50269081  0.73062671  1
  O2-  O126  1  0.74774983  -0.00530590  0.06282041  1
  O2-  O127  1  0.74954386  -0.00715391  0.39546164  1
  O2-  O128  1  0.74049170  -0.00101404  0.72873299  1
  O2-  O129  1  0.74392190  0.50690919  0.05818103  1
  O2-  O130  1  0.74627309  0.50513206  0.38880240  1
  O2-  O131  1  0.75228416  0.50900508  0.72751006  1
  O2-  O132  1  -0.00056798  0.25041296  0.27519816  1
  O2-  O133  1  -0.00164316  0.25587387  0.60582648  1
  O2-  O134  1  0.00075724  0.25112428  0.94460336  1
  O2-  O135  1  0.00016496  0.74878672  0.26882335  1
  O2-  O136  1  -0.00543247  0.75083985  0.60788148  1
  O2-  O137  1  -0.00356517  0.75615690  0.93759651  1
  O2-  O138  1  0.49590130  0.24385020  0.27435890  1
  O2-  O139  1  0.49803647  0.24517966  0.59933140  1
  O2-  O140  1  0.49249732  0.24862767  0.94147291  1
  O2-  O141  1  0.49494874  0.75261897  0.27459585  1
  O2-  O142  1  0.49454550  0.75295193  0.60399117  1
  O2-  O143  1  0.49534409  0.74425207  0.93500799  1
  O2-  O144  1  0.06944840  0.18056110  0.09309352  1
  O2-  O145  1  0.07164766  0.18043655  0.42216639  1
  O2-  O146  1  0.06821463  0.17783650  0.76803888  1
  O2-  O147  1  0.06646990  0.68024367  0.09826397  1
  O2-  O148  1  0.07210780  0.67805220  0.43171840  1
  O2-  O149  1  0.07022997  0.67894164  0.76660660  1
  O2-  O150  1  0.57225883  0.18209962  0.10206877  1
  O2-  O151  1  0.57452673  0.18441626  0.42341628  1
  O2-  O152  1  0.57366290  0.18160651  0.76369588  1
  O2-  O153  1  0.57098159  0.67760281  0.09789714  1
  O2-  O154  1  0.56940605  0.67633537  0.43315879  1
  O2-  O155  1  0.56913182  0.68114496  0.76564048  1
  O2-  O156  1  0.17672288  0.42462936  0.24533903  1
  O2-  O157  1  0.17903663  0.42892766  0.56600276  1
  O2-  O158  1  0.17588716  0.42604793  0.90290151  1
  O2-  O159  1  0.17856972  0.93264702  0.24390414  1
  O2-  O160  1  0.17954249  0.93240286  0.56712393  1
  O2-  O161  1  0.17318026  0.93102676  0.91337773  1
  O2-  O162  1  0.68146367  0.42724668  0.24209276  1
  O2-  O163  1  0.68206837  0.43272769  0.56701595  1
  O2-  O164  1  0.68234251  0.42673711  0.91160438  1
  O2-  O165  1  0.67700964  0.92903295  0.24529565  1
  O2-  O166  1  0.68039469  0.92137143  0.57949290  1
  O2-  O167  1  0.68178018  0.92558072  0.91197249  1
  O2-  O168  1  0.42909262  0.31845119  0.09094210  1
  O2-  O169  1  0.42969579  0.32114481  0.41979479  1
  O2-  O170  1  0.42955402  0.31835141  0.76482637  1
  O2-  O171  1  0.43323826  0.82367871  0.09873616  1
  O2-  O172  1  0.43146133  0.82775482  0.42323510  1
  O2-  O173  1  0.42820731  0.82626843  0.75236727  1
  O2-  O174  1  0.92440411  0.31943538  0.09027364  1
  O2-  O175  1  0.92225767  0.31959189  0.42179739  1
  O2-  O176  1  0.92428550  0.32057262  0.75494037  1
  O2-  O177  1  0.92880635  0.82409846  0.08750200  1
  O2-  O178  1  0.93162737  0.82196919  0.43191365  1
  O2-  O179  1  0.93000486  0.82200754  0.75807783  1
  O2-  O180  1  0.32423239  0.07180571  0.23466739  1
  O2-  O181  1  0.32095711  0.07040097  0.57465500  1
  O2-  O182  1  0.31825915  0.07050348  0.89684784  1
  O2-  O183  1  0.32225727  0.56825124  0.23466052  1
  O2-  O184  1  0.32106999  0.57003696  0.56833772  1
  O2-  O185  1  0.32151293  0.56796212  0.90361647  1
  O2-  O186  1  0.81685600  0.07326149  0.23596597  1
  O2-  O187  1  0.82087149  0.06688744  0.56846334  1
  O2-  O188  1  0.82033516  0.07236591  0.90300479  1
  O2-  O189  1  0.82194416  0.56705018  0.24067491  1
  O2-  O190  1  0.82170423  0.57322436  0.57546182  1
  O2-  O191  1  0.82333409  0.56761194  0.90963468  1
  O2-  O192  1  0.04538510  0.08888870  0.26912313  1
  O2-  O193  1  0.03496700  0.08347716  0.60009297  1
  O2-  O194  1  0.04221136  0.08724621  0.94194980  1
  O2-  O195  1  0.04408520  0.57812891  0.26645338  1
  O2-  O196  1  0.04203755  0.58196187  0.59817353  1
  O2-  O197  1  0.03303619  0.58298367  0.93319563  1
  O2-  O198  1  0.55078298  0.08430171  0.27600817  1
  O2-  O199  1  0.55574866  0.07679130  0.59833440  1
  O2-  O200  1  0.54976706  0.08159823  0.93403092  1
  O2-  O201  1  0.53902809  0.57953723  0.26662947  1
  O2-  O202  1  0.54136237  0.58248915  0.60019949  1
  O2-  O203  1  0.54557833  0.57436181  0.93541339  1
  O2-  O204  1  0.16350049  0.20997106  0.26958360  1
  O2-  O205  1  0.16584515  0.20599022  0.59681914  1
  O2-  O206  1  0.16307212  0.20607669  0.94111162  1
  O2-  O207  1  0.17163605  0.70964234  0.26586735  1
  O2-  O208  1  0.16782521  0.71365501  0.60114461  1
  O2-  O209  1  0.16569766  0.70771382  0.93219542  1
  O2-  O210  1  0.66188342  0.21370276  0.27064897  1
  O2-  O211  1  0.67107232  0.21386568  0.59823519  1
  O2-  O212  1  0.66645026  0.21703395  0.93543627  1
  O2-  O213  1  0.66622583  0.70413922  0.26545802  1
  O2-  O214  1  0.66751035  0.71040153  0.59978200  1
  O2-  O215  1  0.67004967  0.70343252  0.93193449  1
  O2-  O216  1  0.07377537  0.45132447  0.06625171  1
  O2-  O217  1  0.07828502  0.44476468  0.39364770  1
  O2-  O218  1  0.07494902  0.44808572  0.72897823  1
  O2-  O219  1  0.08581655  0.95739808  0.06773828  1
  O2-  O220  1  0.08674304  0.95870020  0.39611903  1
  O2-  O221  1  0.08613061  0.96335066  0.73803393  1
  O2-  O222  1  0.58594216  0.45008861  0.06441985  1
  O2-  O223  1  0.58606926  0.45322637  0.39342976  1
  O2-  O224  1  0.58429567  0.45985590  0.73630642  1
  O2-  O225  1  0.58623691  0.95270846  0.06328225  1
  O2-  O226  1  0.58748240  0.95136777  0.40014736  1
  O2-  O227  1  0.58064954  0.94617969  0.72793223  1
  O2-  O228  1  0.20476833  0.33118716  0.07278499  1
  O2-  O229  1  0.20653820  0.33632574  0.39708673  1
  O2-  O230  1  0.20748855  0.32860381  0.73065387  1
  O2-  O231  1  0.19911604  0.83303825  0.06352537  1
  O2-  O232  1  0.20406924  0.83673271  0.39571951  1
  O2-  O233  1  0.21090903  0.83599479  0.73660600  1
  O2-  O234  1  0.71475858  0.34177653  0.06709985  1
  O2-  O235  1  0.71274210  0.34069606  0.39638083  1
  O2-  O236  1  0.71435444  0.33752152  0.73698310  1
  O2-  O237  1  0.70482072  0.83188718  0.06349858  1
  O2-  O238  1  0.70435142  0.83040907  0.39437473  1
  O2-  O239  1  0.70692225  0.83430515  0.73426903  1
  O2-  O240  1  0.46179050  0.40781840  0.26530451  1
  O2-  O241  1  0.46365141  0.41609430  0.59694057  1
  O2-  O242  1  0.45459375  0.41137063  0.93913048  1
  O2-  O243  1  0.46034759  0.91801771  0.27142976  1
  O2-  O244  1  0.45407872  0.91569354  0.59831259  1
  O2-  O245  1  0.46139147  0.91631112  0.92750458  1
  O2-  O246  1  0.95072648  0.41092936  0.26769894  1
  O2-  O247  1  0.94689909  0.41656416  0.60181867  1
  O2-  O248  1  0.94940741  0.41264016  0.93627423  1
  O2-  O249  1  0.95980805  0.92120666  0.26419577  1
  O2-  O250  1  0.96024382  0.91477235  0.60675283  1
  O2-  O251  1  0.95456395  0.91975910  0.93844127  1
  O2-  O252  1  0.33488996  0.29504773  0.26890176  1
  O2-  O253  1  0.33170465  0.29434004  0.59319406  1
  O2-  O254  1  0.33057223  0.29544454  0.94194327  1
  O2-  O255  1  0.33471546  0.80534169  0.27308206  1
  O2-  O256  1  0.33270744  0.80031637  0.60183491  1
  O2-  O257  1  0.32699485  0.80182961  0.93452202  1
  O2-  O258  1  0.83536404  0.28836331  0.26760947  1
  O2-  O259  1  0.83508488  0.29302684  0.60166302  1
  O2-  O260  1  0.83725502  0.28947104  0.93630845  1
  O2-  O261  1  0.83188808  0.79717794  0.26261611  1
  O2-  O262  1  0.83496113  0.80285459  0.60568847  1
  O2-  O263  1  0.83454585  0.80101013  0.93588706  1
  O2-  O264  1  0.42027095  0.03914307  0.06291602  1
  O2-  O265  1  0.42043745  0.04494731  0.40347086  1
  O2-  O266  1  0.42014288  0.04825116  0.72237760  1
  O2-  O267  1  0.41776736  0.53802179  0.07054103  1
  O2-  O268  1  0.41477713  0.53208252  0.40038361  1
  O2-  O269  1  0.41771596  0.53845608  0.73445140  1
  O2-  O270  1  0.91701794  0.04292734  0.07120162  1
  O2-  O271  1  0.92006142  0.04383820  0.39994795  1
  O2-  O272  1  0.91363086  0.03659077  0.73758518  1
  O2-  O273  1  0.90802460  0.53717077  0.06569155  1
  O2-  O274  1  0.91154426  0.53862558  0.39431038  1
  O2-  O275  1  0.91469605  0.54553883  0.72813930  1
  O2-  O276  1  0.29021980  0.16303156  0.06843044  1
  O2-  O277  1  0.29103436  0.16940536  0.40032164  1
  O2-  O278  1  0.29960161  0.16699896  0.72343406  1
  O2-  O279  1  0.29395253  0.67170034  0.06708235  1
  O2-  O280  1  0.29810608  0.67092109  0.39951527  1
  O2-  O281  1  0.29764895  0.67151114  0.73300457  1
  O2-  O282  1  0.78786845  0.16788109  0.07010314  1
  O2-  O283  1  0.78765172  0.16648375  0.40302445  1
  O2-  O284  1  0.79224365  0.16754253  0.73445242  1
  O2-  O285  1  0.79953727  0.66674353  0.05927646  1
  O2-  O286  1  0.79912488  0.66556012  0.39031286  1
  O2-  O287  1  0.80100276  0.66997289  0.72631429  1
