# generated using pymatgen
data_Ca2Al2SiO7
_symmetry_space_group_name_H-M   'P 1'
_cell_length_a   15.45921337
_cell_length_b   15.45885970
_cell_length_c   15.28371769
_cell_angle_alpha   90.00730369
_cell_angle_beta   89.98855889
_cell_angle_gamma   90.00240161
_symmetry_Int_Tables_number   1
_chemical_formula_structural   Ca2Al2SiO7
_chemical_formula_sum   'Ca48 Al48 Si24 O168'
_cell_volume   3652.53042212
_cell_formula_units_Z   24
loop_
 _symmetry_equiv_pos_site_id
 _symmetry_equiv_pos_as_xyz
  1  'x, y, z'
loop_
 _atom_type_symbol
 _atom_type_oxidation_number
  Ca2+  2.0
  Al0+  0.0
  Si0+  0.0
  O2-  -2.0
loop_
 _atom_site_type_symbol
 _atom_site_label
 _atom_site_symmetry_multiplicity
 _atom_site_fract_x
 _atom_site_fract_y
 _atom_site_fract_z
 _atom_site_occupancy
  Ca2+  Ca0  1  0.17515360  0.08750817  0.16627240  1
  Ca2+  Ca1  1  0.16976699  0.07472339  0.50661506  1
  Ca2+  Ca2  1  0.17042308  0.07642093  0.83695483  1
  Ca2+  Ca3  1  0.17305306  0.57963589  0.17091361  1
  Ca2+  Ca4  1  0.17589834  0.57413757  0.50424257  1
  Ca2+  Ca5  1  0.17475784  0.58268414  0.83634228  1
  Ca2+  Ca6  1  0.66708461  0.08451313  0.16892152  1
  Ca2+  Ca7  1  0.66600989  0.07500429  0.50486708  1
  Ca2+  Ca8  1  0.67313197  0.08252929  0.83597400  1
  Ca2+  Ca9  1  0.66836173  0.58150564  0.16955866  1
  Ca2+  Ca10  1  0.67326204  0.57660420  0.50929586  1
  Ca2+  Ca11  1  0.67073680  0.57774845  0.83096279  1
  Ca2+  Ca12  1  0.07986269  0.33630913  0.16196423  1
  Ca2+  Ca13  1  0.08156804  0.34302193  0.50086099  1
  Ca2+  Ca14  1  0.07350191  0.33663776  0.82628563  1
  Ca2+  Ca15  1  0.07286553  0.82753067  0.15827120  1
  Ca2+  Ca16  1  0.07744167  0.83335666  0.49467789  1
  Ca2+  Ca17  1  0.08367704  0.83013431  0.83106484  1
  Ca2+  Ca18  1  0.57326327  0.32394263  0.16023953  1
  Ca2+  Ca19  1  0.58113112  0.32916423  0.49309473  1
  Ca2+  Ca20  1  0.58252943  0.32932591  0.83161209  1
  Ca2+  Ca21  1  0.58061843  0.83561172  0.16904254  1
  Ca2+  Ca22  1  0.57566736  0.83863266  0.49488774  1
  Ca2+  Ca23  1  0.57654520  0.83488963  0.82513059  1
  Ca2+  Ca24  1  0.33585249  0.42353318  0.17529415  1
  Ca2+  Ca25  1  0.33037829  0.42468359  0.50615769  1
  Ca2+  Ca26  1  0.33318296  0.42536749  0.84177488  1
  Ca2+  Ca27  1  0.33797812  0.92198906  0.16943358  1
  Ca2+  Ca28  1  0.33117103  0.91137540  0.50821304  1
  Ca2+  Ca29  1  0.32969120  0.91693911  0.83544716  1
  Ca2+  Ca30  1  0.83508201  0.41447508  0.16762742  1
  Ca2+  Ca31  1  0.82736590  0.42065935  0.51463694  1
  Ca2+  Ca32  1  0.83323542  0.41280628  0.83270078  1
  Ca2+  Ca33  1  0.83144156  0.91747143  0.17242279  1
  Ca2+  Ca34  1  0.82068204  0.91831180  0.50786399  1
  Ca2+  Ca35  1  0.83245685  0.92705843  0.84023227  1
  Ca2+  Ca36  1  0.42462925  0.17371334  0.15824894  1
  Ca2+  Ca37  1  0.42538051  0.17460356  0.48793995  1
  Ca2+  Ca38  1  0.41828598  0.16681439  0.83367357  1
  Ca2+  Ca39  1  0.40823120  0.66899321  0.16500756  1
  Ca2+  Ca40  1  0.40792703  0.67395062  0.49866883  1
  Ca2+  Ca41  1  0.41202463  0.66799401  0.82635056  1
  Ca2+  Ca42  1  0.91769462  0.17072499  0.15658764  1
  Ca2+  Ca43  1  0.91345239  0.16867888  0.50346257  1
  Ca2+  Ca44  1  0.90652110  0.17326199  0.82899847  1
  Ca2+  Ca45  1  0.92263334  0.67790916  0.15738603  1
  Ca2+  Ca46  1  0.91505323  0.67047218  0.49451707  1
  Ca2+  Ca47  1  0.92217445  0.66751236  0.82977559  1
  Al0+  Al48  1  -0.00165279  0.00011001  0.00193402  1
  Al0+  Al49  1  0.00032342  0.00267510  0.32915836  1
  Al0+  Al50  1  0.00116525  0.00024521  0.67285434  1
  Al0+  Al51  1  0.00012728  0.50130587  -0.00677323  1
  Al0+  Al52  1  0.00183786  0.50092336  0.33519096  1
  Al0+  Al53  1  0.00116375  0.50070219  0.66693790  1
  Al0+  Al54  1  0.50015430  -0.00050574  0.00026701  1
  Al0+  Al55  1  0.50218888  -0.00066337  0.32911807  1
  Al0+  Al56  1  0.49970122  0.00024007  0.66504148  1
  Al0+  Al57  1  0.49988924  0.50035362  0.00219837  1
  Al0+  Al58  1  0.50172627  0.50203324  0.33561457  1
  Al0+  Al59  1  0.50183246  0.50074620  0.67239998  1
  Al0+  Al60  1  0.24938088  0.24978077  0.00008804  1
  Al0+  Al61  1  0.24802322  0.25072431  0.33437930  1
  Al0+  Al62  1  0.24900584  0.24957606  0.66759908  1
  Al0+  Al63  1  0.24871574  0.74832372  0.00171770  1
  Al0+  Al64  1  0.24947788  0.75002288  0.33110376  1
  Al0+  Al65  1  0.24864608  0.75020985  0.66877825  1
  Al0+  Al66  1  0.74870650  0.24785363  -0.00149888  1
  Al0+  Al67  1  0.75204915  0.24966968  0.33001858  1
  Al0+  Al68  1  0.74968825  0.24967185  0.66641568  1
  Al0+  Al69  1  0.74866712  0.74983132  -0.00346112  1
  Al0+  Al70  1  0.74868578  0.75253276  0.33291628  1
  Al0+  Al71  1  0.74850327  0.74904999  0.67350400  1
  Al0+  Al72  1  0.81972261  0.07077518  0.01614020  1
  Al0+  Al73  1  0.32291445  0.57257264  0.34984209  1
  Al0+  Al74  1  0.67892755  0.42722390  0.68202378  1
  Al0+  Al75  1  0.57248138  0.17873691  0.31765026  1
  Al0+  Al76  1  0.17778692  0.42745389  0.34896620  1
  Al0+  Al77  1  0.32015844  0.57023567  0.68267154  1
  Al0+  Al78  1  0.32127062  0.07068460  0.01387050  1
  Al0+  Al79  1  0.42781789  0.32237352  0.98400392  1
  Al0+  Al80  1  0.67547156  0.92847875  0.68245770  1
  Al0+  Al81  1  0.56973352  0.17763165  0.98184734  1
  Al0+  Al82  1  0.82022979  0.06928192  0.68098224  1
  Al0+  Al83  1  0.67985972  0.93037033  0.34716478  1
  Al0+  Al84  1  0.82304184  0.57227783  0.68188832  1
  Al0+  Al85  1  0.42784838  0.32318557  0.32020156  1
  Al0+  Al86  1  0.42765399  0.81952143  0.31879654  1
  Al0+  Al87  1  0.92717954  0.82255015  0.98249058  1
  Al0+  Al88  1  0.17922346  0.92865199  0.67915907  1
  Al0+  Al89  1  0.42957459  0.81955061  0.65411149  1
  Al0+  Al90  1  0.92756498  0.82200873  0.32175017  1
  Al0+  Al91  1  0.07160429  0.68016236  0.98308982  1
  Al0+  Al92  1  0.17911903  0.42696644  0.68410873  1
  Al0+  Al93  1  0.93042014  0.31991280  0.65143113  1
  Al0+  Al94  1  0.32152093  0.57032977  0.01649092  1
  Al0+  Al95  1  0.92970696  0.31969502  0.98644883  1
  Si0+  Si96  1  0.07317183  0.17681125  0.98294150  1
  Si0+  Si97  1  0.07355352  0.17581549  0.64931434  1
  Si0+  Si98  1  0.42966383  0.81968262  0.98613157  1
  Si0+  Si99  1  0.82159242  0.57121459  0.01537213  1
  Si0+  Si100  1  0.07065566  0.68021838  0.64905930  1
  Si0+  Si101  1  0.32281806  0.07266544  0.68079369  1
  Si0+  Si102  1  0.17831774  0.93047177  0.34574848  1
  Si0+  Si103  1  0.57170358  0.67718308  0.98457873  1
  Si0+  Si104  1  0.17639702  0.42848187  0.01596840  1
  Si0+  Si105  1  0.82454617  0.07390203  0.35031614  1
  Si0+  Si106  1  0.92821575  0.82235357  0.65255328  1
  Si0+  Si107  1  0.57345280  0.67673104  0.64987780  1
  Si0+  Si108  1  0.93069857  0.32214101  0.31972296  1
  Si0+  Si109  1  0.57001343  0.17995762  0.65042416  1
  Si0+  Si110  1  0.68143722  0.42790345  0.34604428  1
  Si0+  Si111  1  0.82079186  0.57143359  0.34492598  1
  Si0+  Si112  1  0.42801568  0.32276902  0.65242062  1
  Si0+  Si113  1  0.67776654  0.92571421  0.01845105  1
  Si0+  Si114  1  0.68009026  0.42892182  0.01671762  1
  Si0+  Si115  1  0.07165229  0.17770895  0.31790222  1
  Si0+  Si116  1  0.32159278  0.07026490  0.34707301  1
  Si0+  Si117  1  0.07035301  0.67825817  0.31688698  1
  Si0+  Si118  1  0.57364972  0.67836067  0.31718982  1
  Si0+  Si119  1  0.17842351  0.92756886  0.01888471  1
  O2-  O120  1  0.24630340  -0.00293147  0.06328879  1
  O2-  O121  1  0.25255763  -0.00267774  0.38983232  1
  O2-  O122  1  0.25392809  0.00384584  0.72415120  1
  O2-  O123  1  0.24878515  0.49262777  0.06113385  1
  O2-  O124  1  0.25421591  0.49590202  0.39716673  1
  O2-  O125  1  0.25339031  0.49511072  0.73495287  1
  O2-  O126  1  0.74795142  -0.00687453  0.06241915  1
  O2-  O127  1  0.75519847  0.00526588  0.39265420  1
  O2-  O128  1  0.75072905  -0.00398000  0.73255960  1
  O2-  O129  1  0.75223652  0.49939988  0.05965252  1
  O2-  O130  1  0.75244163  0.49882438  0.38822464  1
  O2-  O131  1  0.75275787  0.49813670  0.73133569  1
  O2-  O132  1  0.00170505  0.25122232  0.27796834  1
  O2-  O133  1  0.00655075  0.24620261  0.60415753  1
  O2-  O134  1  0.00406806  0.24493857  0.93951077  1
  O2-  O135  1  0.00169595  0.74755114  0.27392871  1
  O2-  O136  1  -0.00365249  0.74932022  0.60773896  1
  O2-  O137  1  0.00016030  0.75231346  0.93190785  1
  O2-  O138  1  0.49888823  0.25038923  0.26982852  1
  O2-  O139  1  0.49865298  0.25149928  0.60933476  1
  O2-  O140  1  0.49696137  0.24885718  0.93169549  1
  O2-  O141  1  0.50030043  0.74221071  0.27270372  1
  O2-  O142  1  0.50529737  0.74619109  0.60605700  1
  O2-  O143  1  0.49959364  0.74787992  0.94414086  1
  O2-  O144  1  0.07274751  0.17822645  0.08926804  1
  O2-  O145  1  0.07089244  0.17100273  0.42238374  1
  O2-  O146  1  0.07465375  0.17423600  0.75442004  1
  O2-  O147  1  0.06875331  0.68091524  0.09738143  1
  O2-  O148  1  0.06871863  0.67850065  0.42265396  1
  O2-  O149  1  0.07203770  0.68257832  0.75378309  1
  O2-  O150  1  0.56956527  0.18012969  0.09548237  1
  O2-  O151  1  0.57209599  0.18060680  0.43192560  1
  O2-  O152  1  0.56872161  0.17892328  0.75515055  1
  O2-  O153  1  0.57465836  0.67724633  0.08987338  1
  O2-  O154  1  0.57939504  0.67976754  0.42214000  1
  O2-  O155  1  0.57243023  0.67619900  0.75566832  1
  O2-  O156  1  0.17146771  0.43066191  0.23555362  1
  O2-  O157  1  0.18118024  0.42960700  0.57042088  1
  O2-  O158  1  0.17587708  0.43057760  0.91080681  1
  O2-  O159  1  0.17732770  0.93354578  0.24094636  1
  O2-  O160  1  0.17866208  0.92957953  0.56515995  1
  O2-  O161  1  0.18075610  0.92735230  0.91322470  1
  O2-  O162  1  0.68381601  0.42867815  0.24074052  1
  O2-  O163  1  0.67975729  0.42812108  0.56739433  1
  O2-  O164  1  0.68023694  0.43066567  0.91205463  1
  O2-  O165  1  0.68201586  0.92830645  0.23424295  1
  O2-  O166  1  0.67510435  0.93139454  0.56846090  1
  O2-  O167  1  0.67653233  0.92513057  0.91318183  1
  O2-  O168  1  0.43090312  0.32306348  0.09768810  1
  O2-  O169  1  0.43080974  0.32058155  0.43449876  1
  O2-  O170  1  0.42809055  0.32076467  0.75716968  1
  O2-  O171  1  0.43107812  0.81967248  0.09145140  1
  O2-  O172  1  0.42745253  0.82085658  0.43172283  1
  O2-  O173  1  0.42953937  0.81900913  0.76753148  1
  O2-  O174  1  0.93167799  0.32010354  0.10071520  1
  O2-  O175  1  0.92878438  0.32226744  0.42438031  1
  O2-  O176  1  0.93005246  0.31712156  0.76415072  1
  O2-  O177  1  0.92764270  0.81944650  0.09680956  1
  O2-  O178  1  0.92903599  0.81996754  0.43529024  1
  O2-  O179  1  0.93163209  0.82230569  0.75710390  1
  O2-  O180  1  0.31878186  0.06985296  0.24199731  1
  O2-  O181  1  0.32228825  0.07244286  0.57468503  1
  O2-  O182  1  0.31984400  0.06645884  0.90070806  1
  O2-  O183  1  0.31866968  0.57318450  0.23616824  1
  O2-  O184  1  0.31825906  0.57140289  0.56915317  1
  O2-  O185  1  0.32160617  0.57205735  0.90389321  1
  O2-  O186  1  0.82598103  0.07494573  0.24487635  1
  O2-  O187  1  0.81944164  0.06806584  0.56675409  1
  O2-  O188  1  0.81728085  0.07136363  0.90357407  1
  O2-  O189  1  0.82031133  0.56964794  0.23949027  1
  O2-  O190  1  0.82044294  0.57223543  0.56697629  1
  O2-  O191  1  0.81957629  0.57124960  0.91093662  1
  O2-  O192  1  0.04297341  0.08870156  0.26499197  1
  O2-  O193  1  0.04495420  0.08252407  0.60228683  1
  O2-  O194  1  0.04928794  0.08214409  0.93937128  1
  O2-  O195  1  0.04314682  0.58544457  0.26971871  1
  O2-  O196  1  0.04462307  0.58819263  0.60138411  1
  O2-  O197  1  0.04226750  0.58339244  0.92867759  1
  O2-  O198  1  0.54519683  0.08105906  0.26410905  1
  O2-  O199  1  0.54077801  0.08882525  0.60192354  1
  O2-  O200  1  0.54166923  0.07826694  0.93059932  1
  O2-  O201  1  0.55409685  0.58310688  0.27162423  1
  O2-  O202  1  0.54873466  0.58236467  0.60398040  1
  O2-  O203  1  0.54458470  0.58571501  0.93744495  1
  O2-  O204  1  0.16320222  0.20438394  0.26922211  1
  O2-  O205  1  0.16806989  0.19819313  0.60208020  1
  O2-  O206  1  0.16670516  0.20000917  0.93645250  1
  O2-  O207  1  0.16295303  0.70486148  0.27025060  1
  O2-  O208  1  0.16033616  0.71304477  0.60064251  1
  O2-  O209  1  0.16993227  0.71007387  0.93053375  1
  O2-  O210  1  0.67121058  0.20784666  0.26489777  1
  O2-  O211  1  0.66113607  0.20795693  0.60216320  1
  O2-  O212  1  0.66705569  0.20918430  0.92983915  1
  O2-  O213  1  0.66429154  0.70898290  0.26653087  1
  O2-  O214  1  0.66834367  0.70042869  0.60456515  1
  O2-  O215  1  0.66235167  0.70461116  0.93508484  1
  O2-  O216  1  0.08331718  0.45882466  0.06193166  1
  O2-  O217  1  0.08073284  0.46120951  0.40411584  1
  O2-  O218  1  0.08120005  0.45784786  0.73432221  1
  O2-  O219  1  0.08426325  0.95257210  0.06396923  1
  O2-  O220  1  0.08765574  0.96227869  0.39404255  1
  O2-  O221  1  0.08528792  0.95924404  0.73701646  1
  O2-  O222  1  0.58996623  0.46014325  0.06543249  1
  O2-  O223  1  0.59030241  0.45466792  0.39447015  1
  O2-  O224  1  0.58289505  0.45688931  0.73800276  1
  O2-  O225  1  0.58442823  0.95289001  0.06432338  1
  O2-  O226  1  0.58256720  0.96096812  0.40051230  1
  O2-  O227  1  0.57829945  0.96051580  0.73551872  1
  O2-  O228  1  0.19534742  0.33251027  0.05997652  1
  O2-  O229  1  0.19747627  0.32637195  0.40097157  1
  O2-  O230  1  0.19991825  0.32556563  0.73372049  1
  O2-  O231  1  0.20556099  0.83494376  0.06562545  1
  O2-  O232  1  0.20172354  0.83719659  0.39178105  1
  O2-  O233  1  0.21136610  0.83472568  0.73565011  1
  O2-  O234  1  0.70868386  0.33756230  0.06393273  1
  O2-  O235  1  0.71042962  0.33649503  0.39367784  1
  O2-  O236  1  0.70725810  0.32972089  0.73471610  1
  O2-  O237  1  0.70191721  0.83085664  0.06393381  1
  O2-  O238  1  0.71017910  0.83366649  0.40215313  1
  O2-  O239  1  0.69626346  0.82841220  0.73336044  1
  O2-  O240  1  0.45764052  0.42214991  0.26929159  1
  O2-  O241  1  0.45746967  0.41501552  0.60685791  1
  O2-  O242  1  0.46034654  0.42051427  0.93285684  1
  O2-  O243  1  0.46143462  0.91468841  0.26383687  1
  O2-  O244  1  0.45737218  0.91740759  0.59944444  1
  O2-  O245  1  0.45764266  0.91071369  0.93823249  1
  O2-  O246  1  0.95763954  0.41444909  0.27185405  1
  O2-  O247  1  0.95937977  0.41808405  0.59797803  1
  O2-  O248  1  0.95721253  0.41634706  0.93205895  1
  O2-  O249  1  0.95869213  0.91831681  0.26729851  1
  O2-  O250  1  0.95910841  0.91369036  0.60571981  1
  O2-  O251  1  0.95494568  0.92220100  0.93284918  1
  O2-  O252  1  0.32795398  0.29662318  0.26967929  1
  O2-  O253  1  0.33583109  0.29511331  0.60523256  1
  O2-  O254  1  0.32785120  0.29636713  0.93358029  1
  O2-  O255  1  0.33032660  0.79297082  0.26313103  1
  O2-  O256  1  0.33232549  0.78830212  0.60031934  1
  O2-  O257  1  0.33682682  0.79332672  0.94105387  1
  O2-  O258  1  0.83972926  0.29520709  0.26996239  1
  O2-  O259  1  0.83342467  0.28803397  0.59689817  1
  O2-  O260  1  0.83303857  0.28903815  0.93415981  1
  O2-  O261  1  0.83223612  0.79045014  0.26629719  1
  O2-  O262  1  0.83413596  0.79575454  0.60833695  1
  O2-  O263  1  0.82851625  0.79365028  0.93121376  1
  O2-  O264  1  0.41696418  0.03753723  0.06874271  1
  O2-  O265  1  0.41435745  0.04439814  0.39242766  1
  O2-  O266  1  0.41508735  0.04619519  0.72753745  1
  O2-  O267  1  0.41981957  0.54374806  0.07020850  1
  O2-  O268  1  0.42392871  0.55125769  0.40118822  1
  O2-  O269  1  0.42045990  0.54837914  0.73357441  1
  O2-  O270  1  0.91836021  0.04448432  0.06977638  1
  O2-  O271  1  0.91870106  0.04874417  0.39560722  1
  O2-  O272  1  0.91908486  0.04578523  0.73432995  1
  O2-  O273  1  0.91398305  0.54371289  0.06188021  1
  O2-  O274  1  0.91309762  0.54691061  0.39230722  1
  O2-  O275  1  0.92152336  0.54617865  0.73323713  1
  O2-  O276  1  0.28993279  0.16730271  0.06880206  1
  O2-  O277  1  0.29178981  0.16104108  0.39512444  1
  O2-  O278  1  0.29754081  0.16521177  0.72819796  1
  O2-  O279  1  0.28816369  0.66677923  0.07016738  1
  O2-  O280  1  0.28934424  0.67088280  0.40116345  1
  O2-  O281  1  0.28685966  0.66708549  0.73518021  1
  O2-  O282  1  0.78734925  0.16727878  0.07056942  1
  O2-  O283  1  0.79942661  0.16832704  0.39563161  1
  O2-  O284  1  0.78867003  0.16669261  0.73231572  1
  O2-  O285  1  0.79054792  0.66266374  0.06273465  1
  O2-  O286  1  0.79118548  0.66227711  0.39245148  1
  O2-  O287  1  0.79424886  0.66862387  0.73791972  1
