# generated using pymatgen
data_Ca2Al2SiO7
_symmetry_space_group_name_H-M   'P 1'
_cell_length_a   15.46449840
_cell_length_b   15.46356267
_cell_length_c   15.28672668
_cell_angle_alpha   89.98051061
_cell_angle_beta   90.01373801
_cell_angle_gamma   89.97903198
_symmetry_Int_Tables_number   1
_chemical_formula_structural   Ca2Al2SiO7
_chemical_formula_sum   'Ca48 Al48 Si24 O168'
_cell_volume   3655.60978186
_cell_formula_units_Z   24
loop_
 _symmetry_equiv_pos_site_id
 _symmetry_equiv_pos_as_xyz
  1  'x, y, z'
loop_
 _atom_type_symbol
 _atom_type_oxidation_number
  Ca2+  2.0
  Al0+  0.0
  Si0+  0.0
  O2-  -2.0
loop_
 _atom_site_type_symbol
 _atom_site_label
 _atom_site_symmetry_multiplicity
 _atom_site_fract_x
 _atom_site_fract_y
 _atom_site_fract_z
 _atom_site_occupancy
  Ca2+  Ca0  1  0.16959820  0.09019991  0.16863538  1
  Ca2+  Ca1  1  0.17129529  0.08680607  0.50934260  1
  Ca2+  Ca2  1  0.17736648  0.08879904  0.83888489  1
  Ca2+  Ca3  1  0.17393207  0.58135857  0.16773260  1
  Ca2+  Ca4  1  0.17159673  0.58360328  0.50355526  1
  Ca2+  Ca5  1  0.16660204  0.58149033  0.84568790  1
  Ca2+  Ca6  1  0.65649454  0.08095958  0.16863886  1
  Ca2+  Ca7  1  0.66291414  0.08664374  0.50477488  1
  Ca2+  Ca8  1  0.66103144  0.07706399  0.84216168  1
  Ca2+  Ca9  1  0.66635702  0.57140784  0.17379471  1
  Ca2+  Ca10  1  0.65582543  0.57889493  0.50081779  1
  Ca2+  Ca11  1  0.67135663  0.58048568  0.84371513  1
  Ca2+  Ca12  1  0.08500985  0.32856330  0.16084394  1
  Ca2+  Ca13  1  0.07999021  0.32129197  0.49205563  1
  Ca2+  Ca14  1  0.09254745  0.32610638  0.83361683  1
  Ca2+  Ca15  1  0.08146582  0.82611863  0.15971529  1
  Ca2+  Ca16  1  0.08021549  0.83159189  0.50086925  1
  Ca2+  Ca17  1  0.07756922  0.82055744  0.82750380  1
  Ca2+  Ca18  1  0.58499831  0.33029463  0.16489888  1
  Ca2+  Ca19  1  0.58058411  0.32356599  0.48793967  1
  Ca2+  Ca20  1  0.58739194  0.32404682  0.83176179  1
  Ca2+  Ca21  1  0.57894702  0.83028617  0.16512452  1
  Ca2+  Ca22  1  0.57068281  0.82342651  0.49674982  1
  Ca2+  Ca23  1  0.58009719  0.82852260  0.82600025  1
  Ca2+  Ca24  1  0.33431049  0.42467221  0.17044612  1
  Ca2+  Ca25  1  0.34232426  0.42165241  0.49779434  1
  Ca2+  Ca26  1  0.32639178  0.42747705  0.84424015  1
  Ca2+  Ca27  1  0.33557387  0.92252233  0.16957976  1
  Ca2+  Ca28  1  0.33913792  0.92044557  0.50565400  1
  Ca2+  Ca29  1  0.34001316  0.92717945  0.83547866  1
  Ca2+  Ca30  1  0.82631423  0.41529959  0.16962672  1
  Ca2+  Ca31  1  0.82864337  0.41045084  0.49804609  1
  Ca2+  Ca32  1  0.82620217  0.42433187  0.84410506  1
  Ca2+  Ca33  1  0.82428362  0.91725665  0.16803699  1
  Ca2+  Ca34  1  0.83249761  0.91692878  0.50661248  1
  Ca2+  Ca35  1  0.82785737  0.91485894  0.83857795  1
  Ca2+  Ca36  1  0.42290454  0.17281598  0.16160790  1
  Ca2+  Ca37  1  0.42399034  0.16989823  0.49492773  1
  Ca2+  Ca38  1  0.42352038  0.16109957  0.82964629  1
  Ca2+  Ca39  1  0.41319928  0.66614700  0.16670778  1
  Ca2+  Ca40  1  0.42229719  0.67205010  0.48999943  1
  Ca2+  Ca41  1  0.42007273  0.67247043  0.82555840  1
  Ca2+  Ca42  1  0.92608254  0.17366872  0.16431278  1
  Ca2+  Ca43  1  0.92763881  0.17048333  0.49148719  1
  Ca2+  Ca44  1  0.93032829  0.16659632  0.82981453  1
  Ca2+  Ca45  1  0.92061214  0.66162677  0.15786965  1
  Ca2+  Ca46  1  0.92082268  0.66944156  0.50273859  1
  Ca2+  Ca47  1  0.92402718  0.66474111  0.82951436  1
  Al0+  Al48  1  -0.00023109  0.00055910  -0.00466235  1
  Al0+  Al49  1  -0.00029947  -0.00160629  0.33015101  1
  Al0+  Al50  1  0.00054145  -0.00041253  0.66247453  1
  Al0+  Al51  1  -0.00027742  0.49939594  0.00294586  1
  Al0+  Al52  1  -0.00074891  0.50002069  0.33316405  1
  Al0+  Al53  1  -0.00139303  0.49922087  0.66371146  1
  Al0+  Al54  1  0.49936146  0.00061765  0.00515845  1
  Al0+  Al55  1  0.49869529  -0.00269764  0.33004316  1
  Al0+  Al56  1  0.50110099  0.00007965  0.66378441  1
  Al0+  Al57  1  0.49995887  0.50083086  0.00534350  1
  Al0+  Al58  1  0.50115561  0.49960121  0.33607844  1
  Al0+  Al59  1  0.49927088  0.49792262  0.66874446  1
  Al0+  Al60  1  0.25180736  0.25166347  0.00316223  1
  Al0+  Al61  1  0.25183974  0.24985271  0.32869290  1
  Al0+  Al62  1  0.25127153  0.25064835  0.66740136  1
  Al0+  Al63  1  0.24887619  0.75296250  -0.00255243  1
  Al0+  Al64  1  0.24905479  0.75136561  0.33533146  1
  Al0+  Al65  1  0.24879976  0.75170072  0.66161826  1
  Al0+  Al66  1  0.75118788  0.24850799  -0.00246390  1
  Al0+  Al67  1  0.75298317  0.24858280  0.33095162  1
  Al0+  Al68  1  0.75091033  0.24878306  0.66641254  1
  Al0+  Al69  1  0.74836618  0.75210056  0.00867886  1
  Al0+  Al70  1  0.74973748  0.75029416  0.33297397  1
  Al0+  Al71  1  0.75019267  0.74857356  0.66037435  1
  Al0+  Al72  1  0.57163977  0.17981104  0.65424367  1
  Al0+  Al73  1  0.56987892  0.17934699  0.98526059  1
  Al0+  Al74  1  0.07325251  0.17973380  0.98425375  1
  Al0+  Al75  1  0.57063567  0.67587157  0.65382717  1
  Al0+  Al76  1  0.32098936  0.07003296  0.67960634  1
  Al0+  Al77  1  0.32109397  0.57576031  0.01379096  1
  Al0+  Al78  1  0.06982178  0.67915004  0.98846204  1
  Al0+  Al79  1  0.42641163  0.81965914  0.31550968  1
  Al0+  Al80  1  0.82064327  0.57172761  0.01442890  1
  Al0+  Al81  1  0.57137633  0.67871411  0.31600445  1
  Al0+  Al82  1  0.32054556  0.07076265  0.01486579  1
  Al0+  Al83  1  0.07176708  0.67609715  0.65072984  1
  Al0+  Al84  1  0.92961607  0.32214504  0.31720204  1
  Al0+  Al85  1  0.42953684  0.32252215  0.31751385  1
  Al0+  Al86  1  0.31938388  0.57075686  0.34907733  1
  Al0+  Al87  1  0.67867028  0.42645517  0.01507974  1
  Al0+  Al88  1  0.92849372  0.82079098  0.65252395  1
  Al0+  Al89  1  0.17907422  0.42907925  0.01531220  1
  Al0+  Al90  1  0.68156444  0.42843472  0.34907431  1
  Al0+  Al91  1  0.57176820  0.17784387  0.31821503  1
  Al0+  Al92  1  0.67851718  0.93046285  0.01399093  1
  Al0+  Al93  1  0.07265562  0.18071334  0.65420557  1
  Al0+  Al94  1  0.07218693  0.17742197  0.31752535  1
  Al0+  Al95  1  0.42907414  0.82205502  0.65348119  1
  Si0+  Si96  1  0.82377023  0.57420896  0.35357624  1
  Si0+  Si97  1  0.32053565  0.07073665  0.34882148  1
  Si0+  Si98  1  0.42885653  0.32460446  0.98210713  1
  Si0+  Si99  1  0.82471068  0.07125594  0.01616765  1
  Si0+  Si100  1  0.32094407  0.57251886  0.68083904  1
  Si0+  Si101  1  0.06995736  0.67995005  0.31876285  1
  Si0+  Si102  1  0.82336883  0.07175859  0.68178395  1
  Si0+  Si103  1  0.92705131  0.32137228  0.65071241  1
  Si0+  Si104  1  0.82036729  0.57043537  0.68072115  1
  Si0+  Si105  1  0.17525778  0.92711257  0.68455278  1
  Si0+  Si106  1  0.67836637  0.42690121  0.68181004  1
  Si0+  Si107  1  0.92517828  0.82218149  0.98477543  1
  Si0+  Si108  1  0.17652535  0.92965900  0.01509705  1
  Si0+  Si109  1  0.92832923  0.82143792  0.31714885  1
  Si0+  Si110  1  0.68122355  0.92977459  0.67968647  1
  Si0+  Si111  1  0.82173005  0.06802317  0.34865573  1
  Si0+  Si112  1  0.17706446  0.92961945  0.34895803  1
  Si0+  Si113  1  0.42794837  0.32189296  0.65184747  1
  Si0+  Si114  1  0.17701347  0.42713971  0.35158360  1
  Si0+  Si115  1  0.17813091  0.43056245  0.67995290  1
  Si0+  Si116  1  0.57135048  0.67930028  0.98713933  1
  Si0+  Si117  1  0.42921671  0.82183104  0.98471307  1
  Si0+  Si118  1  0.92837675  0.32178431  0.98134985  1
  Si0+  Si119  1  0.67781875  0.92831345  0.35166093  1
  O2-  O120  1  0.24170439  0.00015580  0.06137708  1
  O2-  O121  1  0.24642691  0.00245231  0.39076966  1
  O2-  O122  1  0.24581746  -0.00498460  0.72708420  1
  O2-  O123  1  0.25032933  0.50244640  0.06356000  1
  O2-  O124  1  0.24635665  0.49442863  0.39744049  1
  O2-  O125  1  0.24565684  0.50545299  0.72220949  1
  O2-  O126  1  0.75312714  0.00569735  0.06066046  1
  O2-  O127  1  0.74773888  0.00093812  0.39342278  1
  O2-  O128  1  0.75204469  0.00061096  0.72339838  1
  O2-  O129  1  0.74911042  0.50009945  0.06465486  1
  O2-  O130  1  0.75451270  0.50553134  0.39733494  1
  O2-  O131  1  0.74735831  0.50090510  0.72254825  1
  O2-  O132  1  0.00522109  0.25392571  0.26782539  1
  O2-  O133  1  -0.00353082  0.25309430  0.60745858  1
  O2-  O134  1  -0.00090511  0.25499558  0.93686980  1
  O2-  O135  1  -0.00484284  0.74670647  0.27605755  1
  O2-  O136  1  0.00217735  0.75110209  0.60129129  1
  O2-  O137  1  -0.00787999  0.75129764  0.94212002  1
  O2-  O138  1  0.50201770  0.25111682  0.26780305  1
  O2-  O139  1  0.49863230  0.25523683  0.60822173  1
  O2-  O140  1  0.49783743  0.25606955  0.93716003  1
  O2-  O141  1  0.49776145  0.74800434  0.26450741  1
  O2-  O142  1  0.49439982  0.74369538  0.60454590  1
  O2-  O143  1  0.49811200  0.74775268  0.94391045  1
  O2-  O144  1  0.06943561  0.17853881  0.09675106  1
  O2-  O145  1  0.06989614  0.17604734  0.43168357  1
  O2-  O146  1  0.07299421  0.18299518  0.76719513  1
  O2-  O147  1  0.06985650  0.68341756  0.10181725  1
  O2-  O148  1  0.06952549  0.68203188  0.42383522  1
  O2-  O149  1  0.06872644  0.67430130  0.76430426  1
  O2-  O150  1  0.56706553  0.17787118  0.09755280  1
  O2-  O151  1  0.56948101  0.17768770  0.43241331  1
  O2-  O152  1  0.57219516  0.17938308  0.76731568  1
  O2-  O153  1  0.57220508  0.68145361  0.09151038  1
  O2-  O154  1  0.56976728  0.68165603  0.42989539  1
  O2-  O155  1  0.57190430  0.67738718  0.76819915  1
  O2-  O156  1  0.17538921  0.43028389  0.24653443  1
  O2-  O157  1  0.17862231  0.42997556  0.57503251  1
  O2-  O158  1  0.18120061  0.43043883  0.90056547  1
  O2-  O159  1  0.17542166  0.92847474  0.24393693  1
  O2-  O160  1  0.17300222  0.92928343  0.57869555  1
  O2-  O161  1  0.17806199  0.92852046  0.90969466  1
  O2-  O162  1  0.68421586  0.42824137  0.23656442  1
  O2-  O163  1  0.67984140  0.42483597  0.57708844  1
  O2-  O164  1  0.68040197  0.42847269  0.90033911  1
  O2-  O165  1  0.67997207  0.92810760  0.24658310  1
  O2-  O166  1  0.68255858  0.93199143  0.57460136  1
  O2-  O167  1  0.67933176  0.92901002  0.90012042  1
  O2-  O168  1  0.42897932  0.32367136  0.08720082  1
  O2-  O169  1  0.43013766  0.31861987  0.43200582  1
  O2-  O170  1  0.42809662  0.32355484  0.75735305  1
  O2-  O171  1  0.42920842  0.82256932  0.08935118  1
  O2-  O172  1  0.42819151  0.82096722  0.42908555  1
  O2-  O173  1  0.43373999  0.82265399  0.76762359  1
  O2-  O174  1  0.92749050  0.31945063  0.08648669  1
  O2-  O175  1  0.93076693  0.31790374  0.43162874  1
  O2-  O176  1  0.92549862  0.32124798  0.75610534  1
  O2-  O177  1  0.92735298  0.82426695  0.09060312  1
  O2-  O178  1  0.93021300  0.82405605  0.42204786  1
  O2-  O179  1  0.92643177  0.81828542  0.76603550  1
  O2-  O180  1  0.32024817  0.06854109  0.24389287  1
  O2-  O181  1  0.31970799  0.07048622  0.56639691  1
  O2-  O182  1  0.32228607  0.06762230  0.90134646  1
  O2-  O183  1  0.31433741  0.57309035  0.23658772  1
  O2-  O184  1  0.32258175  0.56922519  0.57599921  1
  O2-  O185  1  0.32022593  0.57572553  0.89919321  1
  O2-  O186  1  0.82502736  0.06325608  0.24392621  1
  O2-  O187  1  0.82283157  0.07239760  0.57654682  1
  O2-  O188  1  0.82607074  0.06789106  0.91012790  1
  O2-  O189  1  0.82453452  0.57564970  0.24837236  1
  O2-  O190  1  0.82272416  0.56916238  0.57597785  1
  O2-  O191  1  0.81828759  0.57209209  0.89981861  1
  O2-  O192  1  0.03961848  0.08012411  0.26477841  1
  O2-  O193  1  0.04421598  0.08379828  0.60094479  1
  O2-  O194  1  0.04154484  0.08301543  0.92980791  1
  O2-  O195  1  0.04630450  0.58679013  0.27325038  1
  O2-  O196  1  0.03966254  0.57954603  0.59587359  1
  O2-  O197  1  0.04133707  0.58176098  0.93486922  1
  O2-  O198  1  0.54219305  0.07951723  0.26735749  1
  O2-  O199  1  0.54152588  0.08433572  0.59944095  1
  O2-  O200  1  0.53557060  0.08209381  0.93305798  1
  O2-  O201  1  0.54607816  0.57886847  0.26764994  1
  O2-  O202  1  0.54463335  0.57609733  0.60291497  1
  O2-  O203  1  0.54720393  0.58618122  0.94037958  1
  O2-  O204  1  0.17148019  0.20124546  0.26674417  1
  O2-  O205  1  0.16803563  0.21353482  0.59939970  1
  O2-  O206  1  0.17062884  0.21156862  0.93191951  1
  O2-  O207  1  0.15937957  0.71336820  0.27172960  1
  O2-  O208  1  0.16984079  0.70274731  0.59722619  1
  O2-  O209  1  0.16447885  0.71344732  0.93188178  1
  O2-  O210  1  0.67190970  0.20074873  0.26828876  1
  O2-  O211  1  0.66929095  0.20776230  0.60074030  1
  O2-  O212  1  0.66900153  0.20415043  0.93189436  1
  O2-  O213  1  0.67037066  0.70909735  0.26543379  1
  O2-  O214  1  0.66696086  0.70492626  0.59887093  1
  O2-  O215  1  0.66290562  0.71096692  0.94069885  1
  O2-  O216  1  0.08052198  0.45434353  0.06778610  1
  O2-  O217  1  0.08349641  0.45428196  0.39835260  1
  O2-  O218  1  0.08453191  0.45381279  0.72660028  1
  O2-  O219  1  0.08120009  0.95124541  0.05996932  1
  O2-  O220  1  0.08425735  0.95549562  0.39651440  1
  O2-  O221  1  0.08153542  0.95282089  0.73053164  1
  O2-  O222  1  0.58060098  0.45331095  0.06760022  1
  O2-  O223  1  0.58468204  0.45700455  0.40419187  1
  O2-  O224  1  0.58563291  0.45069204  0.72977174  1
  O2-  O225  1  0.58401719  0.96169415  0.07054527  1
  O2-  O226  1  0.58494673  0.95495835  0.39747079  1
  O2-  O227  1  0.59009861  0.95829520  0.72761108  1
  O2-  O228  1  0.20752991  0.33190001  0.06917928  1
  O2-  O229  1  0.20227075  0.33184537  0.39517024  1
  O2-  O230  1  0.20992202  0.34046428  0.72862831  1
  O2-  O231  1  0.20513923  0.83778635  0.06294324  1
  O2-  O232  1  0.20557455  0.83919979  0.39869206  1
  O2-  O233  1  0.19846832  0.83174580  0.72884300  1
  O2-  O234  1  0.70847472  0.32756502  0.06554652  1
  O2-  O235  1  0.71546644  0.33109417  0.40237837  1
  O2-  O236  1  0.70973898  0.33613458  0.73016467  1
  O2-  O237  1  0.70932733  0.83681754  0.07339395  1
  O2-  O238  1  0.70892531  0.83729508  0.39898394  1
  O2-  O239  1  0.70907851  0.83688308  0.72561634  1
  O2-  O240  1  0.45608682  0.42129161  0.26710250  1
  O2-  O241  1  0.45229479  0.41552330  0.60569969  1
  O2-  O242  1  0.45343292  0.41931752  0.93646701  1
  O2-  O243  1  0.45706730  0.91702000  0.26267834  1
  O2-  O244  1  0.46426142  0.91649403  0.59734330  1
  O2-  O245  1  0.46209364  0.91221443  0.93801379  1
  O2-  O246  1  0.95146944  0.42305312  0.26714196  1
  O2-  O247  1  0.95087577  0.41443403  0.60360118  1
  O2-  O248  1  0.95187827  0.41635543  0.93651632  1
  O2-  O249  1  0.95966922  0.91039293  0.26693495  1
  O2-  O250  1  0.95447325  0.91916792  0.59770640  1
  O2-  O251  1  0.95165589  0.91434867  0.93627507  1
  O2-  O252  1  0.33158812  0.29542993  0.26423659  1
  O2-  O253  1  0.33593692  0.29516944  0.60407216  1
  O2-  O254  1  0.33527299  0.29844495  0.93658329  1
  O2-  O255  1  0.32650251  0.79398470  0.26461092  1
  O2-  O256  1  0.32804596  0.80478064  0.60277446  1
  O2-  O257  1  0.33686410  0.79835767  0.93632149  1
  O2-  O258  1  0.83461260  0.28799216  0.26282122  1
  O2-  O259  1  0.83483585  0.29354207  0.60317131  1
  O2-  O260  1  0.83623098  0.29399767  0.93280354  1
  O2-  O261  1  0.83510280  0.79817891  0.27130047  1
  O2-  O262  1  0.83260738  0.79090141  0.59532680  1
  O2-  O263  1  0.83010139  0.79870836  0.94090934  1
  O2-  O264  1  0.41367759  0.03539330  0.07116520  1
  O2-  O265  1  0.41169818  0.03881504  0.39587067  1
  O2-  O266  1  0.41806900  0.03728595  0.73324762  1
  O2-  O267  1  0.41912837  0.54905063  0.06698904  1
  O2-  O268  1  0.41625598  0.54090914  0.40336960  1
  O2-  O269  1  0.41129149  0.54157185  0.73061032  1
  O2-  O270  1  0.91676424  0.04212891  0.06373156  1
  O2-  O271  1  0.91230499  0.03532864  0.39740391  1
  O2-  O272  1  0.91505125  0.04313900  0.72929033  1
  O2-  O273  1  0.91830578  0.54371712  0.06778092  1
  O2-  O274  1  0.91761753  0.54790289  0.40014827  1
  O2-  O275  1  0.91177854  0.54070526  0.72895679  1
  O2-  O276  1  0.29379240  0.16792248  0.06777705  1
  O2-  O277  1  0.29631241  0.16410284  0.39514431  1
  O2-  O278  1  0.29089133  0.16719663  0.73396728  1
  O2-  O279  1  0.29106141  0.67395734  0.06588917  1
  O2-  O280  1  0.28559209  0.66726632  0.40311336  1
  O2-  O281  1  0.29812543  0.66712157  0.72481288  1
  O2-  O282  1  0.80247738  0.16591320  0.05956024  1
  O2-  O283  1  0.79844296  0.16082690  0.39577060  1
  O2-  O284  1  0.79683398  0.16355122  0.72992821  1
  O2-  O285  1  0.79662113  0.67031085  0.06843640  1
  O2-  O286  1  0.79919675  0.66914848  0.39855756  1
  O2-  O287  1  0.79414617  0.66323844  0.72692281  1
