# generated using pymatgen
data_Ca2Al2SiO7
_symmetry_space_group_name_H-M   'P 1'
_cell_length_a   15.45727945
_cell_length_b   15.45635711
_cell_length_c   15.28318728
_cell_angle_alpha   90.00818836
_cell_angle_beta   90.00691345
_cell_angle_gamma   89.98796186
_symmetry_Int_Tables_number   1
_chemical_formula_structural   Ca2Al2SiO7
_chemical_formula_sum   'Ca48 Al48 Si24 O168'
_cell_volume   3651.35551048
_cell_formula_units_Z   24
loop_
 _symmetry_equiv_pos_site_id
 _symmetry_equiv_pos_as_xyz
  1  'x, y, z'
loop_
 _atom_type_symbol
 _atom_type_oxidation_number
  Ca2+  2.0
  Al0+  0.0
  Si0+  0.0
  O2-  -2.0
loop_
 _atom_site_type_symbol
 _atom_site_label
 _atom_site_symmetry_multiplicity
 _atom_site_fract_x
 _atom_site_fract_y
 _atom_site_fract_z
 _atom_site_occupancy
  Ca2+  Ca0  1  0.16481432  0.08640143  0.17262292  1
  Ca2+  Ca1  1  0.16965584  0.07489854  0.50784371  1
  Ca2+  Ca2  1  0.17151802  0.08255866  0.83269071  1
  Ca2+  Ca3  1  0.16539470  0.57012487  0.17389293  1
  Ca2+  Ca4  1  0.16644143  0.57945274  0.50930947  1
  Ca2+  Ca5  1  0.16998606  0.57522896  0.83363082  1
  Ca2+  Ca6  1  0.66741893  0.07939200  0.17093200  1
  Ca2+  Ca7  1  0.67478214  0.07557101  0.50742255  1
  Ca2+  Ca8  1  0.65842575  0.07288013  0.83785037  1
  Ca2+  Ca9  1  0.67015879  0.58802286  0.16942696  1
  Ca2+  Ca10  1  0.66424401  0.59187734  0.50388824  1
  Ca2+  Ca11  1  0.67367776  0.58907954  0.83815261  1
  Ca2+  Ca12  1  0.09189011  0.32416300  0.16217840  1
  Ca2+  Ca13  1  0.08396121  0.33302799  0.49782602  1
  Ca2+  Ca14  1  0.08478963  0.33497431  0.82907609  1
  Ca2+  Ca15  1  0.07610214  0.82900896  0.16691526  1
  Ca2+  Ca16  1  0.09046670  0.82202556  0.49495409  1
  Ca2+  Ca17  1  0.08343762  0.82638570  0.82329460  1
  Ca2+  Ca18  1  0.57615849  0.32523593  0.15614731  1
  Ca2+  Ca19  1  0.57228979  0.33632426  0.49948308  1
  Ca2+  Ca20  1  0.57243754  0.33052665  0.82735297  1
  Ca2+  Ca21  1  0.57455756  0.83549449  0.16191220  1
  Ca2+  Ca22  1  0.57570786  0.82749589  0.49868896  1
  Ca2+  Ca23  1  0.57679605  0.83441241  0.82553928  1
  Ca2+  Ca24  1  0.32439155  0.41000597  0.17000227  1
  Ca2+  Ca25  1  0.32193876  0.42326803  0.51159825  1
  Ca2+  Ca26  1  0.33013534  0.41709783  0.83521538  1
  Ca2+  Ca27  1  0.33791518  0.91551568  0.16844711  1
  Ca2+  Ca28  1  0.33386974  0.91906469  0.51173389  1
  Ca2+  Ca29  1  0.33439588  0.91521545  0.83298493  1
  Ca2+  Ca30  1  0.83304997  0.42288963  0.16769864  1
  Ca2+  Ca31  1  0.83267313  0.41654152  0.50691385  1
  Ca2+  Ca32  1  0.83645936  0.42219294  0.83692945  1
  Ca2+  Ca33  1  0.82835749  0.92025010  0.17458296  1
  Ca2+  Ca34  1  0.83363793  0.91709532  0.50278378  1
  Ca2+  Ca35  1  0.81697742  0.91220468  0.83862738  1
  Ca2+  Ca36  1  0.42284891  0.17195975  0.15488339  1
  Ca2+  Ca37  1  0.40717675  0.17049662  0.50376647  1
  Ca2+  Ca38  1  0.41491491  0.17504375  0.83149058  1
  Ca2+  Ca39  1  0.41889629  0.67782745  0.16462438  1
  Ca2+  Ca40  1  0.41799981  0.67509247  0.49703652  1
  Ca2+  Ca41  1  0.41885792  0.67512883  0.82105823  1
  Ca2+  Ca42  1  0.92785937  0.16010440  0.16453033  1
  Ca2+  Ca43  1  0.92177172  0.16952221  0.49317315  1
  Ca2+  Ca44  1  0.92357301  0.17399700  0.82846134  1
  Ca2+  Ca45  1  0.91850353  0.66604314  0.16739467  1
  Ca2+  Ca46  1  0.93092062  0.67379137  0.49519819  1
  Ca2+  Ca47  1  0.92207543  0.66255000  0.82706445  1
  Al0+  Al48  1  -0.00018180  -0.00154392  -0.00642086  1
  Al0+  Al49  1  0.00045218  0.00106700  0.33129012  1
  Al0+  Al50  1  -0.00070182  0.00149502  0.67235468  1
  Al0+  Al51  1  0.00131325  0.49944558  0.01067112  1
  Al0+  Al52  1  -0.00245789  0.49867841  0.33482740  1
  Al0+  Al53  1  -0.00097258  0.49972759  0.66160497  1
  Al0+  Al54  1  0.49870247  -0.00079823  -0.00179712  1
  Al0+  Al55  1  0.50059806  0.00122053  0.33300844  1
  Al0+  Al56  1  0.50159451  0.00155927  0.67022899  1
  Al0+  Al57  1  0.50028588  0.50222816  -0.00130129  1
  Al0+  Al58  1  0.49905308  0.50084059  0.32810454  1
  Al0+  Al59  1  0.50057279  0.49845982  0.66291503  1
  Al0+  Al60  1  0.24977813  0.24847776  -0.00411057  1
  Al0+  Al61  1  0.24816049  0.25036459  0.33572302  1
  Al0+  Al62  1  0.24908085  0.24833302  0.66950195  1
  Al0+  Al63  1  0.24893932  0.74948209  -0.00159569  1
  Al0+  Al64  1  0.25064194  0.74856186  0.32280565  1
  Al0+  Al65  1  0.25028254  0.74901234  0.66636841  1
  Al0+  Al66  1  0.75253606  0.24932535  -0.00305188  1
  Al0+  Al67  1  0.74969868  0.25048412  0.33803954  1
  Al0+  Al68  1  0.75106053  0.25107588  0.66368023  1
  Al0+  Al69  1  0.75022908  0.75175231  0.01144287  1
  Al0+  Al70  1  0.74915099  0.74984404  0.32915868  1
  Al0+  Al71  1  0.75089239  0.75080645  0.66717745  1
  Al0+  Al72  1  0.42736339  0.32003942  0.65157215  1
  Al0+  Al73  1  0.42827035  0.81927587  0.98324745  1
  Al0+  Al74  1  0.18271527  0.42871387  0.01516997  1
  Al0+  Al75  1  0.92945898  0.32078275  0.65298333  1
  Al0+  Al76  1  0.68240648  0.92963366  0.67924533  1
  Al0+  Al77  1  0.42884238  0.32287099  0.98493343  1
  Al0+  Al78  1  0.57071528  0.67768631  0.31559229  1
  Al0+  Al79  1  0.06982655  0.18150593  0.32143026  1
  Al0+  Al80  1  0.57353690  0.67851826  0.65366763  1
  Al0+  Al81  1  0.17687300  0.43003633  0.68216073  1
  Al0+  Al82  1  0.82210841  0.07052363  0.34724832  1
  Al0+  Al83  1  0.57361045  0.17820463  0.98528769  1
  Al0+  Al84  1  0.17774624  0.92657671  0.68110741  1
  Al0+  Al85  1  0.07080311  0.17715009  0.98413147  1
  Al0+  Al86  1  0.42910120  0.82257280  0.65227680  1
  Al0+  Al87  1  0.07112774  0.68000307  0.65545636  1
  Al0+  Al88  1  0.07161625  0.67544949  0.31603550  1
  Al0+  Al89  1  0.17870177  0.42854177  0.34936853  1
  Al0+  Al90  1  0.67745260  0.93203280  0.01676462  1
  Al0+  Al91  1  0.82076315  0.57007729  0.01501640  1
  Al0+  Al92  1  0.32377364  0.57089997  0.68057393  1
  Al0+  Al93  1  0.42916898  0.82404673  0.31741703  1
  Al0+  Al94  1  0.32169718  0.07087867  0.68354594  1
  Al0+  Al95  1  0.93007599  0.82194034  0.31907699  1
  Si0+  Si96  1  0.82247863  0.07559186  0.68555223  1
  Si0+  Si97  1  0.57249463  0.18036307  0.32069529  1
  Si0+  Si98  1  0.81943521  0.56953540  0.67878496  1
  Si0+  Si99  1  0.42840652  0.31922379  0.31948636  1
  Si0+  Si100  1  0.57269604  0.17842619  0.64801366  1
  Si0+  Si101  1  0.32232320  0.07134475  0.34630960  1
  Si0+  Si102  1  0.67683201  0.42645460  0.01496330  1
  Si0+  Si103  1  0.17638808  0.92664810  0.01637233  1
  Si0+  Si104  1  0.67806348  0.42683210  0.68078701  1
  Si0+  Si105  1  0.57461310  0.68014559  0.98397938  1
  Si0+  Si106  1  0.32199021  0.57223603  0.34840261  1
  Si0+  Si107  1  0.31773807  0.06876268  0.01578015  1
  Si0+  Si108  1  0.92778985  0.81983360  0.98454453  1
  Si0+  Si109  1  0.82459682  0.07216715  0.01548773  1
  Si0+  Si110  1  0.32324359  0.57489024  0.01793029  1
  Si0+  Si111  1  0.07130030  0.17674657  0.64932002  1
  Si0+  Si112  1  0.93022837  0.32431826  0.98540401  1
  Si0+  Si113  1  0.81937376  0.57188875  0.35137724  1
  Si0+  Si114  1  0.18035543  0.92848858  0.34384128  1
  Si0+  Si115  1  0.67738021  0.42927291  0.34853309  1
  Si0+  Si116  1  0.67719716  0.92813072  0.35161171  1
  Si0+  Si117  1  0.92432744  0.32173884  0.31545569  1
  Si0+  Si118  1  0.06841903  0.67746951  0.98571410  1
  Si0+  Si119  1  0.92755480  0.82311161  0.65351764  1
  O2-  O120  1  0.24657602  -0.00169301  0.05936108  1
  O2-  O121  1  0.25592716  -0.00508144  0.38574419  1
  O2-  O122  1  0.25119516  -0.00354656  0.73280695  1
  O2-  O123  1  0.25983090  0.50118256  0.06251898  1
  O2-  O124  1  0.24991368  0.50760611  0.39327944  1
  O2-  O125  1  0.25200211  0.49886205  0.73180849  1
  O2-  O126  1  0.75147053  0.00919272  0.06108131  1
  O2-  O127  1  0.74894406  -0.00537697  0.39465676  1
  O2-  O128  1  0.75580396  0.00502849  0.72870357  1
  O2-  O129  1  0.74402895  0.49598898  0.06076730  1
  O2-  O130  1  0.74704644  0.50116520  0.39231302  1
  O2-  O131  1  0.74667222  0.50068812  0.72201532  1
  O2-  O132  1  -0.00484441  0.25538023  0.27204749  1
  O2-  O133  1  0.00257354  0.24542448  0.60556555  1
  O2-  O134  1  -0.00396909  0.25351007  0.94088264  1
  O2-  O135  1  -0.00091749  0.74791532  0.26666642  1
  O2-  O136  1  0.00298606  0.76207028  0.61024636  1
  O2-  O137  1  -0.00206815  0.74843988  0.94221045  1
  O2-  O138  1  0.50013985  0.24905885  0.27727567  1
  O2-  O139  1  0.50206418  0.24513605  0.60329674  1
  O2-  O140  1  0.50598611  0.25495678  0.93678976  1
  O2-  O141  1  0.50153109  0.75259696  0.26683476  1
  O2-  O142  1  0.49894110  0.74763056  0.60357310  1
  O2-  O143  1  0.50279515  0.74356099  0.93862321  1
  O2-  O144  1  0.07031422  0.17670392  0.09765880  1
  O2-  O145  1  0.07001480  0.18124258  0.43402686  1
  O2-  O146  1  0.06885392  0.17643620  0.75498720  1
  O2-  O147  1  0.06678535  0.67906484  0.09064021  1
  O2-  O148  1  0.07162068  0.67730636  0.42963662  1
  O2-  O149  1  0.06504274  0.67672528  0.76902179  1
  O2-  O150  1  0.57083736  0.17938848  0.10010079  1
  O2-  O151  1  0.57298493  0.18169505  0.42547772  1
  O2-  O152  1  0.57546981  0.18162954  0.75333248  1
  O2-  O153  1  0.57430346  0.68218747  0.08949753  1
  O2-  O154  1  0.56911936  0.67741388  0.42879965  1
  O2-  O155  1  0.57838003  0.68150347  0.76719052  1
  O2-  O156  1  0.18356077  0.42455826  0.23601964  1
  O2-  O157  1  0.17651058  0.43227628  0.56840532  1
  O2-  O158  1  0.17885398  0.43214797  0.90272058  1
  O2-  O159  1  0.17901533  0.93228873  0.23832281  1
  O2-  O160  1  0.17592789  0.92934757  0.56678887  1
  O2-  O161  1  0.17587203  0.92532980  0.91177293  1
  O2-  O162  1  0.67947385  0.42679116  0.24343666  1
  O2-  O163  1  0.68021643  0.42432894  0.57542234  1
  O2-  O164  1  0.67833937  0.42710577  0.90951478  1
  O2-  O165  1  0.67532553  0.93249729  0.24592462  1
  O2-  O166  1  0.68623927  0.93048405  0.56604644  1
  O2-  O167  1  0.67990163  0.92950459  0.90371392  1
  O2-  O168  1  0.42868218  0.31765333  0.09967015  1
  O2-  O169  1  0.42930207  0.31852417  0.42442430  1
  O2-  O170  1  0.43086326  0.32006459  0.76419236  1
  O2-  O171  1  0.42912978  0.81973512  0.09646848  1
  O2-  O172  1  0.42925461  0.82708479  0.43033065  1
  O2-  O173  1  0.43219640  0.82180359  0.76583949  1
  O2-  O174  1  0.92961636  0.32461066  0.09095892  1
  O2-  O175  1  0.92208152  0.32006343  0.42099296  1
  O2-  O176  1  0.92871438  0.32118952  0.76631526  1
  O2-  O177  1  0.93010431  0.82167387  0.08943945  1
  O2-  O178  1  0.93285914  0.82086022  0.43287465  1
  O2-  O179  1  0.92370935  0.81723860  0.75934702  1
  O2-  O180  1  0.32215925  0.07465577  0.24100124  1
  O2-  O181  1  0.31836940  0.07101561  0.56884581  1
  O2-  O182  1  0.31690887  0.06853781  0.91132454  1
  O2-  O183  1  0.32292515  0.56819360  0.24256609  1
  O2-  O184  1  0.32246377  0.56971462  0.56657836  1
  O2-  O185  1  0.32005668  0.57734242  0.91280767  1
  O2-  O186  1  0.81885825  0.07100428  0.23399890  1
  O2-  O187  1  0.82202111  0.07618726  0.57970910  1
  O2-  O188  1  0.82667514  0.06874774  0.91021001  1
  O2-  O189  1  0.81961702  0.56920904  0.24611697  1
  O2-  O190  1  0.81893525  0.56865708  0.57378441  1
  O2-  O191  1  0.82197091  0.56919448  0.90136670  1
  O2-  O192  1  0.03983544  0.08574999  0.26523213  1
  O2-  O193  1  0.04419880  0.08263048  0.60398547  1
  O2-  O194  1  0.03986954  0.08138869  0.92838672  1
  O2-  O195  1  0.03866276  0.57733315  0.26444778  1
  O2-  O196  1  0.03250702  0.58797224  0.59824695  1
  O2-  O197  1  0.03798534  0.58538426  0.94122364  1
  O2-  O198  1  0.54656433  0.08848246  0.27301416  1
  O2-  O199  1  0.54937185  0.08443349  0.60276651  1
  O2-  O200  1  0.53883118  0.08263501  0.93260876  1
  O2-  O201  1  0.54251905  0.57943971  0.26014593  1
  O2-  O202  1  0.55298104  0.57804033  0.60194063  1
  O2-  O203  1  0.55705404  0.58344879  0.94109617  1
  O2-  O204  1  0.16656336  0.21250761  0.26616610  1
  O2-  O205  1  0.16506977  0.20072303  0.60436010  1
  O2-  O206  1  0.16633287  0.20775131  0.93026473  1
  O2-  O207  1  0.16886591  0.70139516  0.26044550  1
  O2-  O208  1  0.16769380  0.70507271  0.59982602  1
  O2-  O209  1  0.16026142  0.70499361  0.93941687  1
  O2-  O210  1  0.66333158  0.21027495  0.27248536  1
  O2-  O211  1  0.66546085  0.20674345  0.60100158  1
  O2-  O212  1  0.67450177  0.19883285  0.93378737  1
  O2-  O213  1  0.67054755  0.70197602  0.26427281  1
  O2-  O214  1  0.67093499  0.71040815  0.59876175  1
  O2-  O215  1  0.66903602  0.70885079  0.94133181  1
  O2-  O216  1  0.08770154  0.46020369  0.07244756  1
  O2-  O217  1  0.07854392  0.45316386  0.39911405  1
  O2-  O218  1  0.07831802  0.46178081  0.73369505  1
  O2-  O219  1  0.08356896  0.95521545  0.06181304  1
  O2-  O220  1  0.09085965  0.95998315  0.39249178  1
  O2-  O221  1  0.07914305  0.95496425  0.73625524  1
  O2-  O222  1  0.58264931  0.44977647  0.06188973  1
  O2-  O223  1  0.58412619  0.45604828  0.39394249  1
  O2-  O224  1  0.58584949  0.45030074  0.72767717  1
  O2-  O225  1  0.58054638  0.96323382  0.07046963  1
  O2-  O226  1  0.58511251  0.95853208  0.39831987  1
  O2-  O227  1  0.58688662  0.96082054  0.73417951  1
  O2-  O228  1  0.21302424  0.33024008  0.06730974  1
  O2-  O229  1  0.21305377  0.33325632  0.40422119  1
  O2-  O230  1  0.20110786  0.32984973  0.73176118  1
  O2-  O231  1  0.20426714  0.83483027  0.06414724  1
  O2-  O232  1  0.20379428  0.83367686  0.38704035  1
  O2-  O233  1  0.20206220  0.82765550  0.73412492  1
  O2-  O234  1  0.70414723  0.33284368  0.06175620  1
  O2-  O235  1  0.70528827  0.33867640  0.39873204  1
  O2-  O236  1  0.70962199  0.33668547  0.72949448  1
  O2-  O237  1  0.71088683  0.83789859  0.07372696  1
  O2-  O238  1  0.70095920  0.83278026  0.39394379  1
  O2-  O239  1  0.71538387  0.83425146  0.73565604  1
  O2-  O240  1  0.45517154  0.41039554  0.27101397  1
  O2-  O241  1  0.46062605  0.41454863  0.59503467  1
  O2-  O242  1  0.45201064  0.42367181  0.93452058  1
  O2-  O243  1  0.45804481  0.92332497  0.26395424  1
  O2-  O244  1  0.45973192  0.92148996  0.60127321  1
  O2-  O245  1  0.45878141  0.91628812  0.93194653  1
  O2-  O246  1  0.94653610  0.41661107  0.27170338  1
  O2-  O247  1  0.95839391  0.41591803  0.59560940  1
  O2-  O248  1  0.95935346  0.41746446  0.94044011  1
  O2-  O249  1  0.96041062  0.91867757  0.26371077  1
  O2-  O250  1  0.94388910  0.92075243  0.61268765  1
  O2-  O251  1  0.95460653  0.91022971  0.93453970  1
  O2-  O252  1  0.33769783  0.28847089  0.27251247  1
  O2-  O253  1  0.33071007  0.28756357  0.59822867  1
  O2-  O254  1  0.33357094  0.28831272  0.93134933  1
  O2-  O255  1  0.33210770  0.79633290  0.26084961  1
  O2-  O256  1  0.32971518  0.79748672  0.60044611  1
  O2-  O257  1  0.32975367  0.79082438  0.93183087  1
  O2-  O258  1  0.83069064  0.29509387  0.26933253  1
  O2-  O259  1  0.83267064  0.29189745  0.59697079  1
  O2-  O260  1  0.83565281  0.30328758  0.93859745  1
  O2-  O261  1  0.83095254  0.79620069  0.26666800  1
  O2-  O262  1  0.83845940  0.79052068  0.60336272  1
  O2-  O263  1  0.83488661  0.79039891  0.94075416  1
  O2-  O264  1  0.40959236  0.04056394  0.06342755  1
  O2-  O265  1  0.41551610  0.04952359  0.39416401  1
  O2-  O266  1  0.42167887  0.04898921  0.73528549  1
  O2-  O267  1  0.41990353  0.55596588  0.06131525  1
  O2-  O268  1  0.41523126  0.54340025  0.39346960  1
  O2-  O269  1  0.42291166  0.54256847  0.73285086  1
  O2-  O270  1  0.91663753  0.03976286  0.06203097  1
  O2-  O271  1  0.91901463  0.04065492  0.40154100  1
  O2-  O272  1  0.91662070  0.05419547  0.73185910  1
  O2-  O273  1  0.91425304  0.53688936  0.07400861  1
  O2-  O274  1  0.91054353  0.54280063  0.39911532  1
  O2-  O275  1  0.90932977  0.53794691  0.72726895  1
  O2-  O276  1  0.29020235  0.16066588  0.06345468  1
  O2-  O277  1  0.28946343  0.16042780  0.39578315  1
  O2-  O278  1  0.28974620  0.16737406  0.73813826  1
  O2-  O279  1  0.29111542  0.66617595  0.06596978  1
  O2-  O280  1  0.30021525  0.66879344  0.38986111  1
  O2-  O281  1  0.29546421  0.66878338  0.73346469  1
  O2-  O282  1  0.80717117  0.16891986  0.05919839  1
  O2-  O283  1  0.79019970  0.16681690  0.40239161  1
  O2-  O284  1  0.79482309  0.16902610  0.73109877  1
  O2-  O285  1  0.79164065  0.66531496  0.07266888  1
  O2-  O286  1  0.79281745  0.66471824  0.39714973  1
  O2-  O287  1  0.79453170  0.66126350  0.72800160  1
