# generated using pymatgen
data_Ca2Al2SiO7
_symmetry_space_group_name_H-M   'P 1'
_cell_length_a   15.46433539
_cell_length_b   15.46568641
_cell_length_c   15.28945955
_cell_angle_alpha   90.01656745
_cell_angle_beta   90.00173557
_cell_angle_gamma   89.99440610
_symmetry_Int_Tables_number   1
_chemical_formula_structural   Ca2Al2SiO7
_chemical_formula_sum   'Ca48 Al48 Si24 O168'
_cell_volume   3656.72730043
_cell_formula_units_Z   24
loop_
 _symmetry_equiv_pos_site_id
 _symmetry_equiv_pos_as_xyz
  1  'x, y, z'
loop_
 _atom_type_symbol
 _atom_type_oxidation_number
  Ca2+  2.0
  Al0+  0.0
  Si0+  0.0
  O2-  -2.0
loop_
 _atom_site_type_symbol
 _atom_site_label
 _atom_site_symmetry_multiplicity
 _atom_site_fract_x
 _atom_site_fract_y
 _atom_site_fract_z
 _atom_site_occupancy
  Ca2+  Ca0  1  0.17169104  0.06950904  0.17391230  1
  Ca2+  Ca1  1  0.17391217  0.07058809  0.50132177  1
  Ca2+  Ca2  1  0.17003340  0.07076015  0.83684824  1
  Ca2+  Ca3  1  0.16574569  0.58221255  0.17235655  1
  Ca2+  Ca4  1  0.17173659  0.58976834  0.50901608  1
  Ca2+  Ca5  1  0.17393464  0.58857139  0.83111390  1
  Ca2+  Ca6  1  0.67496351  0.07332225  0.17008744  1
  Ca2+  Ca7  1  0.66634258  0.07343402  0.50138897  1
  Ca2+  Ca8  1  0.66318523  0.07377169  0.83621328  1
  Ca2+  Ca9  1  0.66964358  0.58905115  0.16506223  1
  Ca2+  Ca10  1  0.66532032  0.58440560  0.50744760  1
  Ca2+  Ca11  1  0.66787329  0.58580208  0.84013742  1
  Ca2+  Ca12  1  0.07717200  0.32434547  0.15875764  1
  Ca2+  Ca13  1  0.07840999  0.33207319  0.49810395  1
  Ca2+  Ca14  1  0.07065320  0.33076925  0.82855964  1
  Ca2+  Ca15  1  0.08432242  0.83678711  0.16776897  1
  Ca2+  Ca16  1  0.08731599  0.82787379  0.49238516  1
  Ca2+  Ca17  1  0.08449236  0.83258084  0.82651998  1
  Ca2+  Ca18  1  0.57866438  0.33052412  0.16561276  1
  Ca2+  Ca19  1  0.57301685  0.32563578  0.49998777  1
  Ca2+  Ca20  1  0.58235396  0.32270781  0.82197109  1
  Ca2+  Ca21  1  0.57569420  0.84214192  0.16039429  1
  Ca2+  Ca22  1  0.57610011  0.83949157  0.49673678  1
  Ca2+  Ca23  1  0.57861440  0.83151367  0.82511814  1
  Ca2+  Ca24  1  0.33351420  0.41847570  0.17556965  1
  Ca2+  Ca25  1  0.33964476  0.42248004  0.50883855  1
  Ca2+  Ca26  1  0.34353152  0.42559659  0.83215821  1
  Ca2+  Ca27  1  0.32863160  0.91340691  0.17389840  1
  Ca2+  Ca28  1  0.32646460  0.90501293  0.50350513  1
  Ca2+  Ca29  1  0.32521664  0.90093229  0.83461726  1
  Ca2+  Ca30  1  0.83744640  0.42293316  0.16507782  1
  Ca2+  Ca31  1  0.83396684  0.41863033  0.50627160  1
  Ca2+  Ca32  1  0.83757208  0.42128290  0.84035019  1
  Ca2+  Ca33  1  0.82339902  0.91954736  0.17707914  1
  Ca2+  Ca34  1  0.82368710  0.91198220  0.50242863  1
  Ca2+  Ca35  1  0.81684081  0.91918577  0.84190814  1
  Ca2+  Ca36  1  0.40924458  0.16875227  0.16784795  1
  Ca2+  Ca37  1  0.41679418  0.16914387  0.49420659  1
  Ca2+  Ca38  1  0.42370882  0.17268370  0.82229932  1
  Ca2+  Ca39  1  0.42433179  0.68178837  0.16100960  1
  Ca2+  Ca40  1  0.41845704  0.67611818  0.50157776  1
  Ca2+  Ca41  1  0.42828014  0.67434931  0.82790664  1
  Ca2+  Ca42  1  0.90651662  0.16696780  0.15981743  1
  Ca2+  Ca43  1  0.91277527  0.16836818  0.49642718  1
  Ca2+  Ca44  1  0.90475713  0.17585193  0.83072823  1
  Ca2+  Ca45  1  0.91902526  0.67399897  0.16730117  1
  Ca2+  Ca46  1  0.93024889  0.67558707  0.49439429  1
  Ca2+  Ca47  1  0.92233415  0.66591373  0.82881475  1
  Al0+  Al48  1  0.00255671  0.00042848  0.00502308  1
  Al0+  Al49  1  0.00088346  0.00069807  0.33741449  1
  Al0+  Al50  1  -0.00074615  0.00276985  0.67206610  1
  Al0+  Al51  1  -0.00033715  0.49831059  0.00077583  1
  Al0+  Al52  1  -0.00009239  0.49902749  0.33028714  1
  Al0+  Al53  1  0.00108660  0.50001237  0.65939966  1
  Al0+  Al54  1  0.49613728  0.00332250  -0.00171577  1
  Al0+  Al55  1  0.50198518  0.00291940  0.33341930  1
  Al0+  Al56  1  0.49949394  0.00069129  0.66302502  1
  Al0+  Al57  1  0.49990318  0.50233343  0.00031715  1
  Al0+  Al58  1  0.49990383  0.49831689  0.32913241  1
  Al0+  Al59  1  0.50165563  0.50021901  0.66675963  1
  Al0+  Al60  1  0.24696585  0.25063266  -0.00327089  1
  Al0+  Al61  1  0.24721822  0.25076500  0.33264328  1
  Al0+  Al62  1  0.24567959  0.25033647  0.66578511  1
  Al0+  Al63  1  0.25054996  0.74766059  0.00249868  1
  Al0+  Al64  1  0.25353427  0.74596940  0.32775572  1
  Al0+  Al65  1  0.25124555  0.74659287  0.67030219  1
  Al0+  Al66  1  0.74702427  0.25243652  -0.00112027  1
  Al0+  Al67  1  0.74789206  0.25140414  0.33566764  1
  Al0+  Al68  1  0.74868913  0.25194792  0.65678948  1
  Al0+  Al69  1  0.75179988  0.74808609  0.00625220  1
  Al0+  Al70  1  0.75283648  0.74741297  0.33572335  1
  Al0+  Al71  1  0.75152803  0.74952760  0.66964900  1
  Al0+  Al72  1  0.93003677  0.32028872  0.65138376  1
  Al0+  Al73  1  0.57059291  0.17708356  0.64915568  1
  Al0+  Al74  1  0.92949304  0.82275148  0.31891694  1
  Al0+  Al75  1  0.42858721  0.82308251  0.98434036  1
  Al0+  Al76  1  0.42950788  0.81978932  0.65164491  1
  Al0+  Al77  1  0.82202538  0.07309457  0.34956133  1
  Al0+  Al78  1  0.92872223  0.31883519  0.98686519  1
  Al0+  Al79  1  0.67635462  0.92814947  0.01446738  1
  Al0+  Al80  1  0.42694763  0.32130166  0.65365659  1
  Al0+  Al81  1  0.07272070  0.67847852  0.31686173  1
  Al0+  Al82  1  0.42791629  0.32001637  0.31886771  1
  Al0+  Al83  1  0.07048542  0.68152302  0.65568472  1
  Al0+  Al84  1  0.67957199  0.92656331  0.34940902  1
  Al0+  Al85  1  0.81931274  0.07254525  0.01198069  1
  Al0+  Al86  1  0.82354190  0.57061055  0.01452091  1
  Al0+  Al87  1  0.32095350  0.07310602  0.34756976  1
  Al0+  Al88  1  0.32238267  0.56857255  0.68146345  1
  Al0+  Al89  1  0.43233852  0.82214869  0.31951063  1
  Al0+  Al90  1  0.18007769  0.92818788  0.68060011  1
  Al0+  Al91  1  0.57488669  0.67911057  0.65218701  1
  Al0+  Al92  1  0.18095153  0.92692539  0.01445833  1
  Al0+  Al93  1  0.67821827  0.92866980  0.68103929  1
  Al0+  Al94  1  0.57375805  0.67994030  0.98583832  1
  Al0+  Al95  1  0.18249183  0.92551763  0.34900780  1
  Si0+  Si96  1  0.92813643  0.82465838  0.65425906  1
  Si0+  Si97  1  0.82340014  0.56954917  0.68080117  1
  Si0+  Si98  1  0.07147010  0.17556001  0.64804421  1
  Si0+  Si99  1  0.82297763  0.56878378  0.35087814  1
  Si0+  Si100  1  0.17712855  0.42905919  0.34833073  1
  Si0+  Si101  1  0.32164076  0.56735166  0.34789003  1
  Si0+  Si102  1  0.32122493  0.07439934  0.68295443  1
  Si0+  Si103  1  0.67789797  0.43048943  0.34932658  1
  Si0+  Si104  1  0.93005572  0.82278021  0.98644969  1
  Si0+  Si105  1  0.82014008  0.07467934  0.68284725  1
  Si0+  Si106  1  0.17512828  0.42731063  0.68416854  1
  Si0+  Si107  1  0.07001691  0.67777967  0.98494500  1
  Si0+  Si108  1  0.92703780  0.32012884  0.31648127  1
  Si0+  Si109  1  0.17897263  0.42904632  0.01474269  1
  Si0+  Si110  1  0.42589404  0.32263888  0.98559351  1
  Si0+  Si111  1  0.68082966  0.42970252  0.68094461  1
  Si0+  Si112  1  0.67629492  0.42933833  0.01698374  1
  Si0+  Si113  1  0.57283776  0.17972049  0.31314718  1
  Si0+  Si114  1  0.31999088  0.07688159  0.01505405  1
  Si0+  Si115  1  0.07023501  0.17976963  0.31816866  1
  Si0+  Si116  1  0.57320870  0.67592187  0.31745786  1
  Si0+  Si117  1  0.56909035  0.18197362  0.98540271  1
  Si0+  Si118  1  0.07255780  0.17639516  0.98136782  1
  Si0+  Si119  1  0.32156739  0.56870971  0.01793254  1
  O2-  O120  1  0.25670574  0.00252202  0.05718589  1
  O2-  O121  1  0.25750613  -0.00545949  0.39925515  1
  O2-  O122  1  0.25618274  0.00223446  0.72757495  1
  O2-  O123  1  0.25177824  0.49609506  0.05996932  1
  O2-  O124  1  0.24768350  0.49953427  0.39068061  1
  O2-  O125  1  0.24908530  0.49054296  0.72821264  1
  O2-  O126  1  0.75329224  -0.00376819  0.06307977  1
  O2-  O127  1  0.75428417  -0.00301592  0.39868569  1
  O2-  O128  1  0.75346115  0.00431963  0.72663863  1
  O2-  O129  1  0.74466192  0.49892943  0.06046053  1
  O2-  O130  1  0.74872319  0.50109628  0.39274326  1
  O2-  O131  1  0.75074048  0.50092285  0.72423967  1
  O2-  O132  1  -0.00648959  0.24513432  0.27495322  1
  O2-  O133  1  0.00252533  0.24447839  0.60388585  1
  O2-  O134  1  -0.00208861  0.23990460  0.93870789  1
  O2-  O135  1  0.00402802  0.75348172  0.26702950  1
  O2-  O136  1  0.00119472  0.76085275  0.60988946  1
  O2-  O137  1  0.00116317  0.75128269  0.94347930  1
  O2-  O138  1  0.49924846  0.24420490  0.26900664  1
  O2-  O139  1  0.49229479  0.24474651  0.60213420  1
  O2-  O140  1  0.49609886  0.25180393  0.94381622  1
  O2-  O141  1  0.51248144  0.75175197  0.27418347  1
  O2-  O142  1  0.50637046  0.75297939  0.60125538  1
  O2-  O143  1  0.50737262  0.75700074  0.93638467  1
  O2-  O144  1  0.07803888  0.18183206  0.08671458  1
  O2-  O145  1  0.07209136  0.18590861  0.42298539  1
  O2-  O146  1  0.07183395  0.17643470  0.75367177  1
  O2-  O147  1  0.06922431  0.67516013  0.08971548  1
  O2-  O148  1  0.07068558  0.67505408  0.43029285  1
  O2-  O149  1  0.06764483  0.67915366  0.76936772  1
  O2-  O150  1  0.57021118  0.18489566  0.09027135  1
  O2-  O151  1  0.57523991  0.18443299  0.41818082  1
  O2-  O152  1  0.57228869  0.18132597  0.76370124  1
  O2-  O153  1  0.56789550  0.67391131  0.09926549  1
  O2-  O154  1  0.56902720  0.66964912  0.42254219  1
  O2-  O155  1  0.57519400  0.67827883  0.76551059  1
  O2-  O156  1  0.17715632  0.42916014  0.24270803  1
  O2-  O157  1  0.17197237  0.43004338  0.57854229  1
  O2-  O158  1  0.17815209  0.43003548  0.91007145  1
  O2-  O159  1  0.18326736  0.92842218  0.23527490  1
  O2-  O160  1  0.17980020  0.92783414  0.56808899  1
  O2-  O161  1  0.18070703  0.92682061  0.90106720  1
  O2-  O162  1  0.67838107  0.43048144  0.24405816  1
  O2-  O163  1  0.68228655  0.43084839  0.57563070  1
  O2-  O164  1  0.67598729  0.42731775  0.91149120  1
  O2-  O165  1  0.67908287  0.92889188  0.23573342  1
  O2-  O166  1  0.68165199  0.92690944  0.56855892  1
  O2-  O167  1  0.67671582  0.93049287  0.90063705  1
  O2-  O168  1  0.42514159  0.32170736  0.09079047  1
  O2-  O169  1  0.43040262  0.32273923  0.43112487  1
  O2-  O170  1  0.43245887  0.32111216  0.76800653  1
  O2-  O171  1  0.42770874  0.82029088  0.09810117  1
  O2-  O172  1  0.42914588  0.81666623  0.43199730  1
  O2-  O173  1  0.42887231  0.81594274  0.76508319  1
  O2-  O174  1  0.93222387  0.31998030  0.10007766  1
  O2-  O175  1  0.92940243  0.32340283  0.42148344  1
  O2-  O176  1  0.93009419  0.32121876  0.76461767  1
  O2-  O177  1  0.93130405  0.82181417  0.09117803  1
  O2-  O178  1  0.92847003  0.81703819  0.43270041  1
  O2-  O179  1  0.92767677  0.82102128  0.76033113  1
  O2-  O180  1  0.31434439  0.07620985  0.23374793  1
  O2-  O181  1  0.31698902  0.07844787  0.57795380  1
  O2-  O182  1  0.31666066  0.08605765  0.91006729  1
  O2-  O183  1  0.32145495  0.56328812  0.24244038  1
  O2-  O184  1  0.32037451  0.56802618  0.56815113  1
  O2-  O185  1  0.32126170  0.56699170  0.91302331  1
  O2-  O186  1  0.81664477  0.07687292  0.23604260  1
  O2-  O187  1  0.82084283  0.07420990  0.57761296  1
  O2-  O188  1  0.81444783  0.07412197  0.89840326  1
  O2-  O189  1  0.82481648  0.56594619  0.24580148  1
  O2-  O190  1  0.82410852  0.56643918  0.57563059  1
  O2-  O191  1  0.82867833  0.56583304  0.90140771  1
  O2-  O192  1  0.04984849  0.08597072  0.27263426  1
  O2-  O193  1  0.04475674  0.08246456  0.60195464  1
  O2-  O194  1  0.05355684  0.08061723  0.93792272  1
  O2-  O195  1  0.03960688  0.58020957  0.26357204  1
  O2-  O196  1  0.03786996  0.58737759  0.59848516  1
  O2-  O197  1  0.03988734  0.58674881  0.93748310  1
  O2-  O198  1  0.55274109  0.08547236  0.26751513  1
  O2-  O199  1  0.54688206  0.07900028  0.59574208  1
  O2-  O200  1  0.54219415  0.09095069  0.93658378  1
  O2-  O201  1  0.54082162  0.58565762  0.26774858  1
  O2-  O202  1  0.54500900  0.58080504  0.60028026  1
  O2-  O203  1  0.54033889  0.58180554  0.93264852  1
  O2-  O204  1  0.15771552  0.21534715  0.26697210  1
  O2-  O205  1  0.16382735  0.20254666  0.60074380  1
  O2-  O206  1  0.16216585  0.21032585  0.93120129  1
  O2-  O207  1  0.17207580  0.69965549  0.26316633  1
  O2-  O208  1  0.16780651  0.70736196  0.60277442  1
  O2-  O209  1  0.16316812  0.70328837  0.93953338  1
  O2-  O210  1  0.66353836  0.21492246  0.26599243  1
  O2-  O211  1  0.66445816  0.21361726  0.59306182  1
  O2-  O212  1  0.65837681  0.21356591  0.93540134  1
  O2-  O213  1  0.67079731  0.69186483  0.27674465  1
  O2-  O214  1  0.67592136  0.70084547  0.60144561  1
  O2-  O215  1  0.67708948  0.69628190  0.93845171  1
  O2-  O216  1  0.08888996  0.45873304  0.06436381  1
  O2-  O217  1  0.08457808  0.45559369  0.39525538  1
  O2-  O218  1  0.08361375  0.46040391  0.73097928  1
  O2-  O219  1  0.08540745  0.95842525  0.07009382  1
  O2-  O220  1  0.08403750  0.95521492  0.40043366  1
  O2-  O221  1  0.08307701  0.95970413  0.73547983  1
  O2-  O222  1  0.58281632  0.45459031  0.06464664  1
  O2-  O223  1  0.58580247  0.45855547  0.39584892  1
  O2-  O224  1  0.58946867  0.45477860  0.72994512  1
  O2-  O225  1  0.57821678  0.96255753  0.06479677  1
  O2-  O226  1  0.58207550  0.95907526  0.40107750  1
  O2-  O227  1  0.58063385  0.95973918  0.73318722  1
  O2-  O228  1  0.20425259  0.33603251  0.06186932  1
  O2-  O229  1  0.20345680  0.33778307  0.39608674  1
  O2-  O230  1  0.19198337  0.33130345  0.72901466  1
  O2-  O231  1  0.20949530  0.82976866  0.06843660  1
  O2-  O232  1  0.20993816  0.82446410  0.39749057  1
  O2-  O233  1  0.21007626  0.83171684  0.73560678  1
  O2-  O234  1  0.70364034  0.33730149  0.06505527  1
  O2-  O235  1  0.70638265  0.33984749  0.39763823  1
  O2-  O236  1  0.71062019  0.33762579  0.72697708  1
  O2-  O237  1  0.70063916  0.82880031  0.06641937  1
  O2-  O238  1  0.70567008  0.82638839  0.40104196  1
  O2-  O239  1  0.71169291  0.83265866  0.73621538  1
  O2-  O240  1  0.46265045  0.41460467  0.26171950  1
  O2-  O241  1  0.46182860  0.41702092  0.60047545  1
  O2-  O242  1  0.45440035  0.41484052  0.94047327  1
  O2-  O243  1  0.45671252  0.92134011  0.26709412  1
  O2-  O244  1  0.44879228  0.92050246  0.60128457  1
  O2-  O245  1  0.44417433  0.92561434  0.93465473  1
  O2-  O246  1  0.95963146  0.41005765  0.26817328  1
  O2-  O247  1  0.96332042  0.41470917  0.59443927  1
  O2-  O248  1  0.96596054  0.41352442  0.93267980  1
  O2-  O249  1  0.95313971  0.92338434  0.26844073  1
  O2-  O250  1  0.94714813  0.92063909  0.61175918  1
  O2-  O251  1  0.95806239  0.91466242  0.93930990  1
  O2-  O252  1  0.32943056  0.29335267  0.26524887  1
  O2-  O253  1  0.32421452  0.30375138  0.60585637  1
  O2-  O254  1  0.33360535  0.29774830  0.93786863  1
  O2-  O255  1  0.33896021  0.78457972  0.26322411  1
  O2-  O256  1  0.33327739  0.78260645  0.60031940  1
  O2-  O257  1  0.33211715  0.78357094  0.93352572  1
  O2-  O258  1  0.83311118  0.29766001  0.27111434  1
  O2-  O259  1  0.83414363  0.29389545  0.59475589  1
  O2-  O260  1  0.82993484  0.29501640  0.93326136  1
  O2-  O261  1  0.83251013  0.78746930  0.26544316  1
  O2-  O262  1  0.83775448  0.79246613  0.60676259  1
  O2-  O263  1  0.83805240  0.79365182  0.94048196  1
  O2-  O264  1  0.41531471  0.05855385  0.05959853  1
  O2-  O265  1  0.42390536  0.05838913  0.39361769  1
  O2-  O266  1  0.41699799  0.05438597  0.72597512  1
  O2-  O267  1  0.41286901  0.54091036  0.06636480  1
  O2-  O268  1  0.41244087  0.53536068  0.39440759  1
  O2-  O269  1  0.41870068  0.53714893  0.73716455  1
  O2-  O270  1  0.92134424  0.05418004  0.06111566  1
  O2-  O271  1  0.92297594  0.05393620  0.40047729  1
  O2-  O272  1  0.91485871  0.05559324  0.72980323  1
  O2-  O273  1  0.91700823  0.53221493  0.07092850  1
  O2-  O274  1  0.91330796  0.53484567  0.39797008  1
  O2-  O275  1  0.91439050  0.53728789  0.72753956  1
  O2-  O276  1  0.28883652  0.16864420  0.06396375  1
  O2-  O277  1  0.28476127  0.16958023  0.40101659  1
  O2-  O278  1  0.29178248  0.16711207  0.73114535  1
  O2-  O279  1  0.29031532  0.65858174  0.06607750  1
  O2-  O280  1  0.29624518  0.65954450  0.39384762  1
  O2-  O281  1  0.28680123  0.66127284  0.73942616  1
  O2-  O282  1  0.78688700  0.17051632  0.06496877  1
  O2-  O283  1  0.79033518  0.17175372  0.40220355  1
  O2-  O284  1  0.79109979  0.16943509  0.72540725  1
  O2-  O285  1  0.79790930  0.66636940  0.07222229  1
  O2-  O286  1  0.79993774  0.66071908  0.39903372  1
  O2-  O287  1  0.80017215  0.66160883  0.72943345  1
