# generated using pymatgen
data_Ca2Al2SiO7
_symmetry_space_group_name_H-M   'P 1'
_cell_length_a   15.45748016
_cell_length_b   15.45818170
_cell_length_c   15.28238813
_cell_angle_alpha   89.98381192
_cell_angle_beta   89.98805536
_cell_angle_gamma   90.01239044
_symmetry_Int_Tables_number   1
_chemical_formula_structural   Ca2Al2SiO7
_chemical_formula_sum   'Ca48 Al48 Si24 O168'
_cell_volume   3651.64284706
_cell_formula_units_Z   24
loop_
 _symmetry_equiv_pos_site_id
 _symmetry_equiv_pos_as_xyz
  1  'x, y, z'
loop_
 _atom_type_symbol
 _atom_type_oxidation_number
  Ca2+  2.0
  Al0+  0.0
  Si0+  0.0
  O2-  -2.0
loop_
 _atom_site_type_symbol
 _atom_site_label
 _atom_site_symmetry_multiplicity
 _atom_site_fract_x
 _atom_site_fract_y
 _atom_site_fract_z
 _atom_site_occupancy
  Ca2+  Ca0  1  0.17867333  0.08537208  0.17245635  1
  Ca2+  Ca1  1  0.17905723  0.07949731  0.50622989  1
  Ca2+  Ca2  1  0.17423527  0.07807705  0.83365575  1
  Ca2+  Ca3  1  0.18004337  0.57647022  0.17459710  1
  Ca2+  Ca4  1  0.17623827  0.58595108  0.50614922  1
  Ca2+  Ca5  1  0.17819006  0.59264213  0.83451200  1
  Ca2+  Ca6  1  0.67567941  0.08997299  0.16959512  1
  Ca2+  Ca7  1  0.67425431  0.07723558  0.51183837  1
  Ca2+  Ca8  1  0.67018793  0.08193137  0.83477904  1
  Ca2+  Ca9  1  0.66479236  0.58400611  0.17201851  1
  Ca2+  Ca10  1  0.65697485  0.57796811  0.50202496  1
  Ca2+  Ca11  1  0.66990156  0.58673060  0.83880963  1
  Ca2+  Ca12  1  0.08624425  0.33468349  0.16669410  1
  Ca2+  Ca13  1  0.07935821  0.33558254  0.49693478  1
  Ca2+  Ca14  1  0.07406939  0.33101706  0.82512565  1
  Ca2+  Ca15  1  0.07656657  0.83657801  0.16709195  1
  Ca2+  Ca16  1  0.07694883  0.84059142  0.50016704  1
  Ca2+  Ca17  1  0.07813476  0.83100331  0.82036860  1
  Ca2+  Ca18  1  0.57899474  0.33175505  0.16660870  1
  Ca2+  Ca19  1  0.57771287  0.32779658  0.49426777  1
  Ca2+  Ca20  1  0.58493411  0.31797506  0.82832406  1
  Ca2+  Ca21  1  0.58233429  0.82132335  0.16354818  1
  Ca2+  Ca22  1  0.59100420  0.82194304  0.49897269  1
  Ca2+  Ca23  1  0.58716331  0.82342643  0.82558093  1
  Ca2+  Ca24  1  0.33412001  0.42266380  0.17746980  1
  Ca2+  Ca25  1  0.33359682  0.42323273  0.49847793  1
  Ca2+  Ca26  1  0.33553282  0.42838776  0.83472572  1
  Ca2+  Ca27  1  0.33911222  0.92931353  0.16921012  1
  Ca2+  Ca28  1  0.33218302  0.92593431  0.50983609  1
  Ca2+  Ca29  1  0.33156433  0.92342992  0.83203968  1
  Ca2+  Ca30  1  0.82345525  0.42480139  0.17128123  1
  Ca2+  Ca31  1  0.82592671  0.41361354  0.50433120  1
  Ca2+  Ca32  1  0.83464907  0.42274408  0.83788678  1
  Ca2+  Ca33  1  0.83283585  0.92556992  0.17342644  1
  Ca2+  Ca34  1  0.83380005  0.92178114  0.50721132  1
  Ca2+  Ca35  1  0.83070850  0.92154777  0.83250072  1
  Ca2+  Ca36  1  0.41521938  0.17198139  0.15978883  1
  Ca2+  Ca37  1  0.41918122  0.16500115  0.49330426  1
  Ca2+  Ca38  1  0.42440650  0.15846220  0.82832951  1
  Ca2+  Ca39  1  0.42450920  0.65682461  0.16346745  1
  Ca2+  Ca40  1  0.42296753  0.65947171  0.49572357  1
  Ca2+  Ca41  1  0.42415211  0.66165197  0.82654866  1
  Ca2+  Ca42  1  0.91401816  0.16463055  0.16266575  1
  Ca2+  Ca43  1  0.91101879  0.16703110  0.49798063  1
  Ca2+  Ca44  1  0.90811250  0.17124364  0.82500775  1
  Ca2+  Ca45  1  0.91262504  0.67326506  0.16188675  1
  Ca2+  Ca46  1  0.92189243  0.68196882  0.49712248  1
  Ca2+  Ca47  1  0.92322528  0.67087577  0.82044351  1
  Al0+  Al48  1  -0.00100974  0.00071094  0.00249726  1
  Al0+  Al49  1  0.00019604  0.00175671  0.33107086  1
  Al0+  Al50  1  0.00131175  0.00287532  0.67061287  1
  Al0+  Al51  1  -0.00132563  0.50106131  0.00440166  1
  Al0+  Al52  1  -0.00036151  0.50054209  0.33341121  1
  Al0+  Al53  1  -0.00018459  0.49929201  0.65655125  1
  Al0+  Al54  1  0.49920818  -0.00161789  0.00093867  1
  Al0+  Al55  1  0.50402318  -0.00284754  0.33540388  1
  Al0+  Al56  1  0.50327334  -0.00255716  0.66967813  1
  Al0+  Al57  1  0.49965655  0.49848725  -0.00236354  1
  Al0+  Al58  1  0.50087050  0.49684601  0.33233661  1
  Al0+  Al59  1  0.49977912  0.49725274  0.66880671  1
  Al0+  Al60  1  0.24773728  0.24980143  -0.00086957  1
  Al0+  Al61  1  0.24976691  0.25066423  0.33705320  1
  Al0+  Al62  1  0.24941380  0.25341603  0.67165494  1
  Al0+  Al63  1  0.24885890  0.75003653  0.00683499  1
  Al0+  Al64  1  0.24982248  0.75145584  0.33386852  1
  Al0+  Al65  1  0.25194123  0.75003837  0.67159378  1
  Al0+  Al66  1  0.74873934  0.25033626  0.00041293  1
  Al0+  Al67  1  0.75083912  0.25191601  0.33951286  1
  Al0+  Al68  1  0.74735369  0.25038642  0.66141951  1
  Al0+  Al69  1  0.74977449  0.75107851  -0.00018418  1
  Al0+  Al70  1  0.75146073  0.75097792  0.32295150  1
  Al0+  Al71  1  0.75104140  0.74883066  0.66100386  1
  Al0+  Al72  1  0.32103400  0.07038720  0.01420948  1
  Al0+  Al73  1  0.93006257  0.82350666  0.65231317  1
  Al0+  Al74  1  0.56855752  0.17661284  0.65205623  1
  Al0+  Al75  1  0.93141665  0.82182204  0.31664832  1
  Al0+  Al76  1  0.56796093  0.67862556  0.31890245  1
  Al0+  Al77  1  0.82102983  0.57263138  0.01209723  1
  Al0+  Al78  1  0.17910208  0.92911578  0.68118709  1
  Al0+  Al79  1  0.17716711  0.42825245  0.34948563  1
  Al0+  Al80  1  0.68016054  0.43117154  0.34755949  1
  Al0+  Al81  1  0.32359826  0.07389516  0.68168457  1
  Al0+  Al82  1  0.57073073  0.67702984  0.65276762  1
  Al0+  Al83  1  0.56966322  0.67882547  0.98476480  1
  Al0+  Al84  1  0.07484574  0.67912378  0.65140943  1
  Al0+  Al85  1  0.68071123  0.92473592  0.68186266  1
  Al0+  Al86  1  0.32193621  0.57022810  0.01453354  1
  Al0+  Al87  1  0.42908877  0.31677911  0.32036010  1
  Al0+  Al88  1  0.32164511  0.57153798  0.34891759  1
  Al0+  Al89  1  0.81991429  0.07288933  0.68178731  1
  Al0+  Al90  1  0.32122882  0.56958948  0.68107071  1
  Al0+  Al91  1  0.57053641  0.17891690  0.98742474  1
  Al0+  Al92  1  0.82070219  0.07053945  0.34762366  1
  Al0+  Al93  1  0.81893566  0.07126105  0.01435395  1
  Al0+  Al94  1  0.32364764  0.07022402  0.34589837  1
  Al0+  Al95  1  0.92805478  0.32019869  0.65217168  1
  Si0+  Si96  1  0.67893698  0.42789655  0.01529609  1
  Si0+  Si97  1  0.92973990  0.82253863  0.98396563  1
  Si0+  Si98  1  0.92949710  0.32071772  0.98759778  1
  Si0+  Si99  1  0.42509279  0.32110953  0.98185317  1
  Si0+  Si100  1  0.67750847  0.92659983  0.01845572  1
  Si0+  Si101  1  0.67854096  0.42900399  0.68298102  1
  Si0+  Si102  1  0.17414998  0.42968245  0.68465829  1
  Si0+  Si103  1  0.17652371  0.42828988  0.01537680  1
  Si0+  Si104  1  0.07375390  0.67680086  0.31397989  1
  Si0+  Si105  1  0.82131115  0.56918514  0.67762431  1
  Si0+  Si106  1  0.17640290  0.92847333  0.01902653  1
  Si0+  Si107  1  0.57385037  0.17606075  0.31787516  1
  Si0+  Si108  1  0.42736148  0.32154100  0.65095796  1
  Si0+  Si109  1  0.82197058  0.57518972  0.35032611  1
  Si0+  Si110  1  0.68024134  0.92498117  0.34910549  1
  Si0+  Si111  1  0.42558667  0.82170669  0.98329720  1
  Si0+  Si112  1  0.07425408  0.17948835  0.65029375  1
  Si0+  Si113  1  0.06956693  0.18133020  0.31803303  1
  Si0+  Si114  1  0.07119090  0.17815139  0.98475934  1
  Si0+  Si115  1  0.92622144  0.32259982  0.31589365  1
  Si0+  Si116  1  0.17782295  0.92986695  0.34827718  1
  Si0+  Si117  1  0.42583339  0.82443591  0.31668972  1
  Si0+  Si118  1  0.07000952  0.67904831  0.98711942  1
  Si0+  Si119  1  0.42892665  0.82106538  0.65132830  1
  O2-  O120  1  0.24651027  -0.00383669  0.06252224  1
  O2-  O121  1  0.25317066  -0.00871975  0.39136171  1
  O2-  O122  1  0.25064204  0.00200834  0.73088927  1
  O2-  O123  1  0.24849868  0.49329776  0.05901232  1
  O2-  O124  1  0.24524267  0.50393545  0.39863970  1
  O2-  O125  1  0.24236906  0.49875442  0.72862500  1
  O2-  O126  1  0.74356015  -0.00166914  0.06255074  1
  O2-  O127  1  0.74526989  -0.00300023  0.39269516  1
  O2-  O128  1  0.75048646  -0.00106476  0.73244829  1
  O2-  O129  1  0.74273552  0.50172783  0.05873712  1
  O2-  O130  1  0.75390467  0.50662821  0.39529040  1
  O2-  O131  1  0.75026749  0.49999229  0.72370218  1
  O2-  O132  1  -0.00119117  0.25279361  0.27403471  1
  O2-  O133  1  0.00268452  0.24514278  0.60568486  1
  O2-  O134  1  -0.00110565  0.24881209  0.94421271  1
  O2-  O135  1  0.00438348  0.74507073  0.26896697  1
  O2-  O136  1  0.00566039  0.75454425  0.60258034  1
  O2-  O137  1  -0.00009079  0.75008290  0.94316520  1
  O2-  O138  1  0.50042733  0.23887820  0.27247887  1
  O2-  O139  1  0.48785463  0.24553965  0.60708987  1
  O2-  O140  1  0.49220753  0.24991607  0.93952983  1
  O2-  O141  1  0.49045921  0.75134466  0.27273708  1
  O2-  O142  1  0.49628986  0.75160046  0.60613998  1
  O2-  O143  1  0.49280574  0.75157759  0.93859695  1
  O2-  O144  1  0.07268946  0.17934260  0.09008910  1
  O2-  O145  1  0.06823005  0.18045281  0.42277131  1
  O2-  O146  1  0.07510134  0.18296853  0.75637338  1
  O2-  O147  1  0.06790675  0.67969347  0.09209163  1
  O2-  O148  1  0.07322551  0.67756023  0.41903939  1
  O2-  O149  1  0.07047857  0.67773257  0.76615937  1
  O2-  O150  1  0.57245575  0.18395008  0.10063496  1
  O2-  O151  1  0.57335484  0.17815570  0.42322687  1
  O2-  O152  1  0.57081664  0.18036723  0.76562064  1
  O2-  O153  1  0.56951609  0.67937989  0.09790436  1
  O2-  O154  1  0.56868791  0.67973803  0.43184091  1
  O2-  O155  1  0.57066943  0.67629542  0.76609933  1
  O2-  O156  1  0.17898007  0.42834003  0.23512599  1
  O2-  O157  1  0.17442407  0.42841506  0.57949079  1
  O2-  O158  1  0.17252084  0.42947054  0.91008753  1
  O2-  O159  1  0.17552992  0.93408102  0.24228735  1
  O2-  O160  1  0.18105183  0.93154098  0.56730041  1
  O2-  O161  1  0.17443172  0.92886157  0.91399934  1
  O2-  O162  1  0.68229403  0.43013134  0.23401832  1
  O2-  O163  1  0.67772280  0.42983624  0.57787428  1
  O2-  O164  1  0.68301518  0.42532363  0.90959337  1
  O2-  O165  1  0.68083513  0.92489771  0.24317182  1
  O2-  O166  1  0.68271599  0.92445544  0.56810465  1
  O2-  O167  1  0.68064316  0.92380066  0.91331404  1
  O2-  O168  1  0.42438283  0.32124600  0.08758875  1
  O2-  O169  1  0.43085950  0.31623532  0.43328219  1
  O2-  O170  1  0.43203375  0.32495525  0.75680024  1
  O2-  O171  1  0.42759135  0.82271063  0.08915687  1
  O2-  O172  1  0.42665892  0.82801022  0.42175902  1
  O2-  O173  1  0.42933243  0.81918271  0.75720372  1
  O2-  O174  1  0.93053958  0.32047207  0.09270704  1
  O2-  O175  1  0.92493157  0.32098055  0.42064961  1
  O2-  O176  1  0.92908658  0.32214778  0.76627658  1
  O2-  O177  1  0.93190900  0.82332177  0.08925400  1
  O2-  O178  1  0.93330702  0.82342896  0.42910137  1
  O2-  O179  1  0.92904859  0.81869867  0.76658129  1
  O2-  O180  1  0.32061136  0.07132003  0.23233115  1
  O2-  O181  1  0.32175190  0.07271502  0.56780199  1
  O2-  O182  1  0.31885864  0.06921202  0.90178892  1
  O2-  O183  1  0.32171767  0.56757906  0.23493832  1
  O2-  O184  1  0.32388258  0.56588199  0.56857993  1
  O2-  O185  1  0.32051059  0.57008505  0.90142431  1
  O2-  O186  1  0.81985159  0.07071872  0.23382758  1
  O2-  O187  1  0.81788620  0.07275741  0.56824624  1
  O2-  O188  1  0.81991348  0.07229776  0.90216930  1
  O2-  O189  1  0.82048499  0.57294546  0.24403541  1
  O2-  O190  1  0.81980537  0.56710596  0.57274028  1
  O2-  O191  1  0.82494962  0.56912621  0.89878909  1
  O2-  O192  1  0.04148784  0.09092629  0.26755544  1
  O2-  O193  1  0.05289555  0.08490395  0.60581884  1
  O2-  O194  1  0.04379741  0.08580681  0.93879248  1
  O2-  O195  1  0.04822592  0.58257379  0.26809965  1
  O2-  O196  1  0.04455321  0.58284813  0.59610870  1
  O2-  O197  1  0.04217600  0.58681930  0.94049780  1
  O2-  O198  1  0.55695979  0.07951561  0.27420887  1
  O2-  O199  1  0.54583576  0.07749839  0.59977463  1
  O2-  O200  1  0.54368492  0.08013354  0.93599324  1
  O2-  O201  1  0.53955212  0.58149361  0.26467282  1
  O2-  O202  1  0.53834135  0.57969898  0.60100551  1
  O2-  O203  1  0.54342903  0.58013902  0.93197965  1
  O2-  O204  1  0.16097252  0.21052293  0.26989898  1
  O2-  O205  1  0.16694660  0.20909283  0.60386858  1
  O2-  O206  1  0.16148730  0.20681117  0.93473055  1
  O2-  O207  1  0.16748353  0.70338730  0.26733056  1
  O2-  O208  1  0.17515118  0.70391384  0.60181478  1
  O2-  O209  1  0.16317404  0.70633328  0.94194974  1
  O2-  O210  1  0.66597088  0.21006314  0.27280453  1
  O2-  O211  1  0.66158965  0.21421208  0.59615204  1
  O2-  O212  1  0.66578254  0.21409160  0.93210722  1
  O2-  O213  1  0.66384294  0.71061295  0.26279884  1
  O2-  O214  1  0.66683050  0.70545114  0.59707974  1
  O2-  O215  1  0.66752482  0.71065881  0.93264021  1
  O2-  O216  1  0.08495197  0.45629799  0.06505070  1
  O2-  O217  1  0.07557808  0.45049282  0.39879259  1
  O2-  O218  1  0.07917177  0.45422534  0.72887173  1
  O2-  O219  1  0.08402023  0.95735736  0.06649085  1
  O2-  O220  1  0.08766485  0.96391516  0.39532120  1
  O2-  O221  1  0.08190316  0.95767113  0.73707893  1
  O2-  O222  1  0.58337680  0.44838751  0.05868794  1
  O2-  O223  1  0.58428658  0.46018159  0.40237091  1
  O2-  O224  1  0.58815717  0.45627663  0.73262179  1
  O2-  O225  1  0.58254718  0.94790493  0.06308690  1
  O2-  O226  1  0.58564137  0.94426801  0.39529245  1
  O2-  O227  1  0.58230380  0.94962940  0.73580884  1
  O2-  O228  1  0.19792257  0.33302795  0.06008375  1
  O2-  O229  1  0.20657650  0.33142589  0.40390584  1
  O2-  O230  1  0.19902819  0.33688605  0.73334066  1
  O2-  O231  1  0.19919163  0.83489157  0.06676293  1
  O2-  O232  1  0.19371641  0.83350058  0.39099951  1
  O2-  O233  1  0.20685269  0.83170852  0.73692341  1
  O2-  O234  1  0.71051815  0.33794444  0.06495610  1
  O2-  O235  1  0.71262315  0.33659198  0.40424312  1
  O2-  O236  1  0.70846240  0.33774876  0.72948168  1
  O2-  O237  1  0.70760748  0.83510829  0.06664643  1
  O2-  O238  1  0.71087245  0.83230341  0.39343423  1
  O2-  O239  1  0.71156216  0.82627180  0.73472063  1
  O2-  O240  1  0.46443256  0.41112440  0.26433393  1
  O2-  O241  1  0.46245349  0.41088415  0.60261788  1
  O2-  O242  1  0.45365395  0.41337069  0.93475717  1
  O2-  O243  1  0.45840928  0.91560561  0.26705935  1
  O2-  O244  1  0.45478342  0.91427478  0.60517841  1
  O2-  O245  1  0.45132397  0.91495185  0.93688994  1
  O2-  O246  1  0.95173803  0.41554574  0.26857085  1
  O2-  O247  1  0.95768947  0.41463274  0.59369005  1
  O2-  O248  1  0.95874357  0.41265568  0.94026164  1
  O2-  O249  1  0.96522590  0.91792552  0.26132270  1
  O2-  O250  1  0.95645375  0.92381408  0.60201001  1
  O2-  O251  1  0.95893894  0.91440588  0.93745739  1
  O2-  O252  1  0.33115935  0.28950566  0.26608698  1
  O2-  O253  1  0.32989466  0.30654063  0.60948053  1
  O2-  O254  1  0.33022704  0.29904614  0.93632133  1
  O2-  O255  1  0.33011060  0.80618237  0.27102193  1
  O2-  O256  1  0.33483495  0.79771124  0.60628437  1
  O2-  O257  1  0.32982012  0.79793670  0.94081436  1
  O2-  O258  1  0.83507576  0.29235974  0.26804130  1
  O2-  O259  1  0.83215867  0.29058615  0.59666400  1
  O2-  O260  1  0.83772821  0.29450204  0.93970281  1
  O2-  O261  1  0.83617165  0.79225040  0.25863307  1
  O2-  O262  1  0.83499279  0.78963375  0.59640375  1
  O2-  O263  1  0.83715475  0.79635735  0.93876067  1
  O2-  O264  1  0.41760922  0.04039837  0.06911735  1
  O2-  O265  1  0.42210547  0.04331753  0.39768165  1
  O2-  O266  1  0.42084393  0.04218557  0.73419135  1
  O2-  O267  1  0.41908336  0.53849195  0.06666116  1
  O2-  O268  1  0.41827212  0.53680151  0.40006159  1
  O2-  O269  1  0.41579277  0.53276788  0.73687982  1
  O2-  O270  1  0.91626215  0.04104936  0.06826813  1
  O2-  O271  1  0.91825836  0.04028362  0.39879241  1
  O2-  O272  1  0.92040243  0.05209046  0.73324830  1
  O2-  O273  1  0.91493817  0.53900810  0.07026648  1
  O2-  O274  1  0.91633701  0.55078416  0.39376502  1
  O2-  O275  1  0.91346619  0.53988175  0.72403886  1
  O2-  O276  1  0.28815096  0.16793590  0.06605306  1
  O2-  O277  1  0.28793522  0.16400756  0.40017324  1
  O2-  O278  1  0.29636664  0.17288548  0.73484647  1
  O2-  O279  1  0.29088768  0.66608251  0.06993574  1
  O2-  O280  1  0.29880130  0.67299403  0.39823507  1
  O2-  O281  1  0.29542597  0.66640434  0.73689061  1
  O2-  O282  1  0.78949434  0.16877392  0.06845554  1
  O2-  O283  1  0.79341083  0.16762754  0.40083014  1
  O2-  O284  1  0.78701105  0.17150146  0.73293238  1
  O2-  O285  1  0.79314831  0.66975394  0.06628268  1
  O2-  O286  1  0.79664932  0.67006721  0.39206789  1
  O2-  O287  1  0.79497809  0.66093380  0.72488427  1
