# generated using pymatgen
data_Ca2Al2SiO7
_symmetry_space_group_name_H-M   'P 1'
_cell_length_a   15.47567270
_cell_length_b   15.47448011
_cell_length_c   15.29593578
_cell_angle_alpha   90.00082146
_cell_angle_beta   90.01391540
_cell_angle_gamma   90.01221597
_symmetry_Int_Tables_number   1
_chemical_formula_structural   Ca2Al2SiO7
_chemical_formula_sum   'Ca48 Al48 Si24 O168'
_cell_volume   3663.03975233
_cell_formula_units_Z   24
loop_
 _symmetry_equiv_pos_site_id
 _symmetry_equiv_pos_as_xyz
  1  'x, y, z'
loop_
 _atom_type_symbol
 _atom_type_oxidation_number
  Ca2+  2.0
  Al0+  0.0
  Si0+  0.0
  O2-  -2.0
loop_
 _atom_site_type_symbol
 _atom_site_label
 _atom_site_symmetry_multiplicity
 _atom_site_fract_x
 _atom_site_fract_y
 _atom_site_fract_z
 _atom_site_occupancy
  Ca2+  Ca0  1  0.16937895  0.07772183  0.17727534  1
  Ca2+  Ca1  1  0.16287110  0.07887283  0.49988019  1
  Ca2+  Ca2  1  0.17246894  0.08121735  0.83519092  1
  Ca2+  Ca3  1  0.17849290  0.58190385  0.17505613  1
  Ca2+  Ca4  1  0.17829117  0.58421780  0.51218827  1
  Ca2+  Ca5  1  0.17063998  0.58444071  0.82720430  1
  Ca2+  Ca6  1  0.66697113  0.06796784  0.17482254  1
  Ca2+  Ca7  1  0.67393861  0.08194532  0.50823257  1
  Ca2+  Ca8  1  0.66596786  0.07941245  0.83404441  1
  Ca2+  Ca9  1  0.66017680  0.57733213  0.17378806  1
  Ca2+  Ca10  1  0.66637787  0.57792706  0.50581649  1
  Ca2+  Ca11  1  0.65344800  0.57856656  0.83234988  1
  Ca2+  Ca12  1  0.08051711  0.32602877  0.16477160  1
  Ca2+  Ca13  1  0.08414636  0.33065013  0.49472535  1
  Ca2+  Ca14  1  0.08209022  0.33463027  0.82392890  1
  Ca2+  Ca15  1  0.08150165  0.83542581  0.16678478  1
  Ca2+  Ca16  1  0.07692060  0.83179465  0.50168928  1
  Ca2+  Ca17  1  0.07404556  0.82505946  0.82139830  1
  Ca2+  Ca18  1  0.58269433  0.33797835  0.16082422  1
  Ca2+  Ca19  1  0.59020047  0.33526801  0.49965003  1
  Ca2+  Ca20  1  0.57934790  0.33554539  0.82450822  1
  Ca2+  Ca21  1  0.58971779  0.82289290  0.16021162  1
  Ca2+  Ca22  1  0.58498364  0.82028936  0.49526835  1
  Ca2+  Ca23  1  0.58039933  0.82525622  0.82609536  1
  Ca2+  Ca24  1  0.33976393  0.42406822  0.17267930  1
  Ca2+  Ca25  1  0.33099456  0.42694505  0.50981882  1
  Ca2+  Ca26  1  0.34096156  0.42011016  0.83033395  1
  Ca2+  Ca27  1  0.32681916  0.90929910  0.17267942  1
  Ca2+  Ca28  1  0.32763638  0.90954356  0.50651861  1
  Ca2+  Ca29  1  0.33999580  0.91067440  0.83610849  1
  Ca2+  Ca30  1  0.81905759  0.42437079  0.17376934  1
  Ca2+  Ca31  1  0.82411475  0.42755688  0.50524741  1
  Ca2+  Ca32  1  0.81915806  0.42448067  0.83195335  1
  Ca2+  Ca33  1  0.81883713  0.91732340  0.17313960  1
  Ca2+  Ca34  1  0.83219074  0.92515949  0.50173738  1
  Ca2+  Ca35  1  0.82888514  0.91780684  0.83174382  1
  Ca2+  Ca36  1  0.41880260  0.17686785  0.16063960  1
  Ca2+  Ca37  1  0.42430596  0.17401305  0.50439650  1
  Ca2+  Ca38  1  0.42641049  0.17792405  0.82487408  1
  Ca2+  Ca39  1  0.42739094  0.66937104  0.16375714  1
  Ca2+  Ca40  1  0.42519480  0.65861483  0.49974197  1
  Ca2+  Ca41  1  0.42568902  0.67467491  0.82666305  1
  Ca2+  Ca42  1  0.91868292  0.15769788  0.17153179  1
  Ca2+  Ca43  1  0.91639283  0.16375421  0.49210425  1
  Ca2+  Ca44  1  0.91575556  0.16649471  0.82441777  1
  Ca2+  Ca45  1  0.91543510  0.66334061  0.16622698  1
  Ca2+  Ca46  1  0.91854042  0.65876638  0.49754028  1
  Ca2+  Ca47  1  0.91977708  0.66959546  0.81782894  1
  Al0+  Al48  1  0.00301554  -0.00079976  -0.00086933  1
  Al0+  Al49  1  0.00188821  -0.00091056  0.33378329  1
  Al0+  Al50  1  0.00038775  -0.00060844  0.66892193  1
  Al0+  Al51  1  0.00160482  0.49719816  0.00079564  1
  Al0+  Al52  1  -0.00043411  0.49732240  0.32954691  1
  Al0+  Al53  1  0.00015260  0.49854537  0.66883203  1
  Al0+  Al54  1  0.49923401  0.00239888  0.00424397  1
  Al0+  Al55  1  0.49649331  0.00117318  0.33606546  1
  Al0+  Al56  1  0.49883919  0.00238440  0.65942693  1
  Al0+  Al57  1  0.49854996  0.50091528  -0.00199702  1
  Al0+  Al58  1  0.49852489  0.50143232  0.33660954  1
  Al0+  Al59  1  0.49626950  0.50169502  0.66853578  1
  Al0+  Al60  1  0.24902454  0.24889364  -0.00280011  1
  Al0+  Al61  1  0.24935606  0.24822794  0.32659131  1
  Al0+  Al62  1  0.25084539  0.24761334  0.66642886  1
  Al0+  Al63  1  0.24930787  0.74885072  -0.00093867  1
  Al0+  Al64  1  0.24874079  0.74990376  0.34147890  1
  Al0+  Al65  1  0.24637580  0.74943639  0.66727665  1
  Al0+  Al66  1  0.75393334  0.25162105  0.00513094  1
  Al0+  Al67  1  0.74971219  0.25013788  0.33460939  1
  Al0+  Al68  1  0.75248859  0.24986730  0.67179685  1
  Al0+  Al69  1  0.75329711  0.75075442  -0.00168450  1
  Al0+  Al70  1  0.75156524  0.75000227  0.33371093  1
  Al0+  Al71  1  0.74962614  0.75451765  0.66078424  1
  Al0+  Al72  1  0.42751026  0.82250415  0.65103263  1
  Al0+  Al73  1  0.67795866  0.43159046  0.01354416  1
  Al0+  Al74  1  0.81901026  0.06878090  0.34663022  1
  Al0+  Al75  1  0.57318024  0.68049808  0.98542689  1
  Al0+  Al76  1  0.57098495  0.68037847  0.31874602  1
  Al0+  Al77  1  0.17960425  0.42613791  0.68090117  1
  Al0+  Al78  1  0.31901176  0.57006760  0.34682644  1
  Al0+  Al79  1  0.82172692  0.07021989  0.68090845  1
  Al0+  Al80  1  0.67694875  0.43021117  0.34795304  1
  Al0+  Al81  1  0.42707420  0.82261731  0.98855520  1
  Al0+  Al82  1  0.82019772  0.57522877  0.68030645  1
  Al0+  Al83  1  0.42846045  0.32147335  0.65083185  1
  Al0+  Al84  1  0.06952317  0.17890456  0.31876580  1
  Al0+  Al85  1  0.82379711  0.57145790  0.34641305  1
  Al0+  Al86  1  0.57051502  0.67941676  0.64982271  1
  Al0+  Al87  1  0.67486165  0.92681670  0.34973984  1
  Al0+  Al88  1  0.18050279  0.92985294  0.34861853  1
  Al0+  Al89  1  0.06718523  0.67700347  0.65033208  1
  Al0+  Al90  1  0.67914382  0.92930950  0.01151592  1
  Al0+  Al91  1  0.92757062  0.82372851  0.64980939  1
  Al0+  Al92  1  0.42948778  0.32064549  0.98677324  1
  Al0+  Al93  1  0.32046012  0.57305766  0.68604921  1
  Al0+  Al94  1  0.57447053  0.18148283  0.65196773  1
  Al0+  Al95  1  0.67838163  0.43108830  0.68232418  1
  Si0+  Si96  1  0.07119183  0.67736936  0.98682787  1
  Si0+  Si97  1  0.43066825  0.31967024  0.31892282  1
  Si0+  Si98  1  0.17939840  0.93014713  0.68410949  1
  Si0+  Si99  1  0.93022367  0.32098589  0.98323283  1
  Si0+  Si100  1  0.57303267  0.17748213  0.31715909  1
  Si0+  Si101  1  0.82567306  0.07153150  0.01702390  1
  Si0+  Si102  1  0.92598674  0.32230327  0.31349421  1
  Si0+  Si103  1  0.93160861  0.82097247  0.31638362  1
  Si0+  Si104  1  0.42523822  0.82243002  0.31841179  1
  Si0+  Si105  1  0.57487656  0.17843915  0.98694005  1
  Si0+  Si106  1  0.07161555  0.17790940  0.65231009  1
  Si0+  Si107  1  0.17715203  0.42602444  0.01729830  1
  Si0+  Si108  1  0.31980818  0.07348450  0.01549673  1
  Si0+  Si109  1  0.93014489  0.31986701  0.65208301  1
  Si0+  Si110  1  0.32212006  0.07023680  0.68261714  1
  Si0+  Si111  1  0.18049242  0.92917739  0.01456603  1
  Si0+  Si112  1  0.32118270  0.07569797  0.35134963  1
  Si0+  Si113  1  0.17852671  0.42557272  0.34566335  1
  Si0+  Si114  1  0.82598950  0.57182298  0.01514514  1
  Si0+  Si115  1  0.07250455  0.67720146  0.31761342  1
  Si0+  Si116  1  0.06984637  0.17789351  0.98294426  1
  Si0+  Si117  1  0.67482093  0.93041423  0.68212178  1
  Si0+  Si118  1  0.93138996  0.82146444  0.98570020  1
  Si0+  Si119  1  0.31794825  0.56993367  0.01597031  1
  O2-  O120  1  0.25420149  -0.00311081  0.05738587  1
  O2-  O121  1  0.25788002  0.00180659  0.39470319  1
  O2-  O122  1  0.25519250  -0.00420528  0.72655619  1
  O2-  O123  1  0.24946587  0.49566676  0.05882343  1
  O2-  O124  1  0.24175374  0.49693976  0.39077996  1
  O2-  O125  1  0.25044178  0.49703954  0.73444218  1
  O2-  O126  1  0.75288889  0.00621150  0.05837492  1
  O2-  O127  1  0.74350828  0.00273921  0.39849471  1
  O2-  O128  1  0.74558432  -0.00256918  0.72698738  1
  O2-  O129  1  0.75104082  0.50942329  0.05803879  1
  O2-  O130  1  0.74912277  0.50280145  0.39537920  1
  O2-  O131  1  0.74423535  0.50915549  0.73293629  1
  O2-  O132  1  -0.00552023  0.25196762  0.26969421  1
  O2-  O133  1  0.00288716  0.25013604  0.61034539  1
  O2-  O134  1  -0.00145565  0.24724169  0.94016668  1
  O2-  O135  1  -0.00087023  0.74537680  0.27385074  1
  O2-  O136  1  -0.00798590  0.74499324  0.59929916  1
  O2-  O137  1  -0.00298028  0.74493258  0.94543937  1
  O2-  O138  1  0.50301218  0.25022838  0.27543778  1
  O2-  O139  1  0.50725590  0.25740953  0.60038787  1
  O2-  O140  1  0.50919699  0.24985980  0.94296812  1
  O2-  O141  1  0.49935582  0.76034993  0.27347234  1
  O2-  O142  1  0.49770180  0.75086216  0.59942600  1
  O2-  O143  1  0.50446683  0.75755355  0.93877583  1
  O2-  O144  1  0.07004031  0.17653364  0.08782441  1
  O2-  O145  1  0.07035925  0.18101823  0.43158977  1
  O2-  O146  1  0.07074349  0.17681418  0.75806284  1
  O2-  O147  1  0.07314685  0.67936166  0.09236037  1
  O2-  O148  1  0.07282800  0.67681601  0.42163562  1
  O2-  O149  1  0.06780637  0.68127957  0.76503636  1
  O2-  O150  1  0.57108394  0.17760853  0.09285019  1
  O2-  O151  1  0.57323891  0.17716709  0.42158763  1
  O2-  O152  1  0.57125685  0.17859649  0.76616388  1
  O2-  O153  1  0.57058583  0.67915557  0.09946147  1
  O2-  O154  1  0.56871469  0.67704082  0.43064426  1
  O2-  O155  1  0.56947252  0.68208790  0.76364252  1
  O2-  O156  1  0.18139241  0.42594214  0.23928976  1
  O2-  O157  1  0.18079733  0.42373902  0.56708882  1
  O2-  O158  1  0.17291779  0.42556965  0.91320872  1
  O2-  O159  1  0.18097923  0.93013099  0.23433123  1
  O2-  O160  1  0.17725610  0.93400630  0.57929242  1
  O2-  O161  1  0.17706580  0.93176140  0.90997003  1
  O2-  O162  1  0.67644039  0.43081778  0.23359082  1
  O2-  O163  1  0.68364164  0.42800332  0.56934165  1
  O2-  O164  1  0.67972371  0.42828106  0.90141771  1
  O2-  O165  1  0.67812659  0.92745352  0.23513474  1
  O2-  O166  1  0.67379861  0.93401876  0.57703270  1
  O2-  O167  1  0.68145988  0.93138634  0.89884143  1
  O2-  O168  1  0.42749490  0.31878034  0.10058254  1
  O2-  O169  1  0.42716786  0.31677858  0.42302664  1
  O2-  O170  1  0.42753117  0.31515073  0.76465951  1
  O2-  O171  1  0.41952563  0.81672019  0.10172750  1
  O2-  O172  1  0.42195369  0.81931909  0.42309202  1
  O2-  O173  1  0.43169697  0.82362041  0.76503555  1
  O2-  O174  1  0.93359696  0.32200446  0.08803864  1
  O2-  O175  1  0.92864041  0.32387057  0.41861623  1
  O2-  O176  1  0.93160925  0.31705225  0.75778671  1
  O2-  O177  1  0.93427064  0.82464680  0.09091604  1
  O2-  O178  1  0.93566925  0.82506204  0.42041096  1
  O2-  O179  1  0.93414705  0.82674482  0.76434500  1
  O2-  O180  1  0.31836092  0.07839718  0.24514662  1
  O2-  O181  1  0.31807548  0.07254404  0.57786686  1
  O2-  O182  1  0.31525599  0.07672203  0.91080954  1
  O2-  O183  1  0.31862700  0.56857864  0.23256986  1
  O2-  O184  1  0.31741488  0.57228008  0.57249313  1
  O2-  O185  1  0.31431239  0.57188605  0.91188494  1
  O2-  O186  1  0.81889514  0.06440273  0.23236119  1
  O2-  O187  1  0.82505673  0.06956570  0.56842131  1
  O2-  O188  1  0.83026251  0.07034556  0.91185098  1
  O2-  O189  1  0.82567863  0.56793185  0.23210594  1
  O2-  O190  1  0.82282977  0.56784574  0.56744792  1
  O2-  O191  1  0.83424523  0.56820795  0.91072064  1
  O2-  O192  1  0.03914980  0.08222345  0.26290158  1
  O2-  O193  1  0.04168033  0.08713573  0.60554798  1
  O2-  O194  1  0.04451309  0.08529942  0.93505220  1
  O2-  O195  1  0.04869340  0.58435233  0.26833541  1
  O2-  O196  1  0.04579854  0.57636013  0.59941951  1
  O2-  O197  1  0.04826871  0.58354016  0.94194409  1
  O2-  O198  1  0.54185491  0.08612190  0.26918474  1
  O2-  O199  1  0.53974941  0.08673096  0.59607604  1
  O2-  O200  1  0.54566026  0.08642121  0.94018808  1
  O2-  O201  1  0.53330881  0.58450806  0.26530258  1
  O2-  O202  1  0.54113992  0.58042166  0.59976855  1
  O2-  O203  1  0.53814639  0.58437650  0.93351815  1
  O2-  O204  1  0.16497057  0.20979204  0.26017225  1
  O2-  O205  1  0.16357912  0.20200292  0.60465275  1
  O2-  O206  1  0.16111304  0.20613595  0.93519982  1
  O2-  O207  1  0.16315608  0.71024196  0.26996710  1
  O2-  O208  1  0.16385558  0.71125783  0.59901724  1
  O2-  O209  1  0.16037270  0.70917872  0.93790546  1
  O2-  O210  1  0.66497099  0.20299511  0.26870600  1
  O2-  O211  1  0.67490123  0.20549547  0.60165616  1
  O2-  O212  1  0.67138293  0.19901856  0.94524073  1
  O2-  O213  1  0.66965313  0.70724033  0.26520681  1
  O2-  O214  1  0.66884354  0.70715411  0.59716109  1
  O2-  O215  1  0.67393355  0.70296759  0.93461511  1
  O2-  O216  1  0.08664685  0.45511031  0.06743237  1
  O2-  O217  1  0.08247912  0.44443590  0.38722998  1
  O2-  O218  1  0.08133855  0.45361477  0.73521650  1
  O2-  O219  1  0.09026701  0.96095266  0.06388195  1
  O2-  O220  1  0.08653506  0.96574464  0.40235666  1
  O2-  O221  1  0.09107837  0.96482634  0.73428231  1
  O2-  O222  1  0.57999279  0.45964125  0.06710732  1
  O2-  O223  1  0.57937946  0.45666175  0.40080664  1
  O2-  O224  1  0.57774062  0.45365532  0.73262778  1
  O2-  O225  1  0.58244674  0.95801078  0.06782006  1
  O2-  O226  1  0.57386130  0.94977139  0.39808751  1
  O2-  O227  1  0.58212460  0.96003419  0.72816317  1
  O2-  O228  1  0.20333755  0.33257142  0.06289172  1
  O2-  O229  1  0.20582017  0.33228385  0.39009392  1
  O2-  O230  1  0.20582334  0.32629270  0.73416683  1
  O2-  O231  1  0.20446525  0.83626241  0.06221534  1
  O2-  O232  1  0.20614609  0.83384306  0.40432617  1
  O2-  O233  1  0.20088784  0.83740943  0.73162545  1
  O2-  O234  1  0.71152952  0.33520584  0.06861655  1
  O2-  O235  1  0.70491691  0.33099185  0.39788103  1
  O2-  O236  1  0.71357790  0.33477962  0.73646527  1
  O2-  O237  1  0.71431647  0.83368356  0.06642403  1
  O2-  O238  1  0.70816967  0.83038734  0.40044923  1
  O2-  O239  1  0.69982036  0.83673041  0.72725244  1
  O2-  O240  1  0.45717140  0.41182795  0.27158146  1
  O2-  O241  1  0.44529140  0.42315666  0.60347567  1
  O2-  O242  1  0.45494736  0.41795115  0.93401565  1
  O2-  O243  1  0.43993407  0.92041549  0.27577660  1
  O2-  O244  1  0.44934009  0.92224059  0.59810622  1
  O2-  O245  1  0.44560070  0.92592818  0.94162287  1
  O2-  O246  1  0.95454207  0.41368487  0.26305900  1
  O2-  O247  1  0.95741600  0.41081405  0.60435816  1
  O2-  O248  1  0.96244828  0.41108596  0.93545500  1
  O2-  O249  1  0.96691829  0.90937612  0.26622561  1
  O2-  O250  1  0.96897932  0.91839249  0.59724732  1
  O2-  O251  1  0.96597757  0.91087687  0.93726116  1
  O2-  O252  1  0.34005201  0.28997589  0.26826845  1
  O2-  O253  1  0.33303277  0.28287872  0.59757820  1
  O2-  O254  1  0.33339766  0.28638843  0.93394076  1
  O2-  O255  1  0.33232419  0.79081739  0.27225792  1
  O2-  O256  1  0.32600571  0.79781422  0.60409451  1
  O2-  O257  1  0.32963344  0.79105890  0.93375459  1
  O2-  O258  1  0.83289565  0.29559820  0.26647520  1
  O2-  O259  1  0.84011217  0.28914760  0.60507270  1
  O2-  O260  1  0.83764353  0.29489309  0.93707881  1
  O2-  O261  1  0.83929086  0.79664919  0.26803196  1
  O2-  O262  1  0.82658865  0.81096854  0.59946969  1
  O2-  O263  1  0.83901970  0.80052894  0.93781869  1
  O2-  O264  1  0.41305466  0.05487579  0.06359542  1
  O2-  O265  1  0.41631126  0.05795574  0.39557967  1
  O2-  O266  1  0.41486156  0.04637574  0.72971905  1
  O2-  O267  1  0.40978191  0.54266084  0.06302954  1
  O2-  O268  1  0.41246677  0.53592271  0.40155116  1
  O2-  O269  1  0.41816889  0.54646452  0.74010135  1
  O2-  O270  1  0.91866777  0.04099076  0.06323295  1
  O2-  O271  1  0.91734422  0.03811636  0.39726708  1
  O2-  O272  1  0.91784704  0.03795944  0.73700496  1
  O2-  O273  1  0.91720177  0.53981583  0.06486608  1
  O2-  O274  1  0.92237522  0.53981576  0.39766460  1
  O2-  O275  1  0.91728743  0.54121371  0.73391129  1
  O2-  O276  1  0.28411350  0.16199602  0.06563191  1
  O2-  O277  1  0.28726430  0.16640558  0.39730460  1
  O2-  O278  1  0.28846465  0.15885586  0.73283161  1
  O2-  O279  1  0.28485505  0.65999692  0.06467279  1
  O2-  O280  1  0.28823205  0.66449139  0.40222072  1
  O2-  O281  1  0.28521136  0.66992047  0.73917443  1
  O2-  O282  1  0.80717951  0.16679579  0.06227811  1
  O2-  O283  1  0.79905032  0.16987615  0.39595942  1
  O2-  O284  1  0.79424158  0.16598605  0.73819310  1
  O2-  O285  1  0.80891115  0.66866735  0.05761975  1
  O2-  O286  1  0.80552434  0.67241784  0.39467236  1
  O2-  O287  1  0.80186045  0.67834799  0.72763473  1
