# generated using pymatgen
data_Ca2Al2SiO7
_symmetry_space_group_name_H-M   'P 1'
_cell_length_a   15.46250880
_cell_length_b   15.46367392
_cell_length_c   15.28666351
_cell_angle_alpha   89.99434828
_cell_angle_beta   90.00359929
_cell_angle_gamma   90.00189162
_symmetry_Int_Tables_number   1
_chemical_formula_structural   Ca2Al2SiO7
_chemical_formula_sum   'Ca48 Al48 Si24 O168'
_cell_volume   3655.15119276
_cell_formula_units_Z   24
loop_
 _symmetry_equiv_pos_site_id
 _symmetry_equiv_pos_as_xyz
  1  'x, y, z'
loop_
 _atom_type_symbol
 _atom_type_oxidation_number
  Ca2+  2.0
  Al0+  0.0
  Si0+  0.0
  O2-  -2.0
loop_
 _atom_site_type_symbol
 _atom_site_label
 _atom_site_symmetry_multiplicity
 _atom_site_fract_x
 _atom_site_fract_y
 _atom_site_fract_z
 _atom_site_occupancy
  Ca2+  Ca0  1  0.17948738  0.08115098  0.17748671  1
  Ca2+  Ca1  1  0.16620787  0.07747585  0.50153727  1
  Ca2+  Ca2  1  0.16932273  0.07715440  0.83762092  1
  Ca2+  Ca3  1  0.17192220  0.58169958  0.16844926  1
  Ca2+  Ca4  1  0.16641223  0.57584780  0.49897938  1
  Ca2+  Ca5  1  0.17180898  0.58239845  0.84378304  1
  Ca2+  Ca6  1  0.65760690  0.07637263  0.16975411  1
  Ca2+  Ca7  1  0.65888512  0.07268770  0.49997485  1
  Ca2+  Ca8  1  0.66634816  0.07467974  0.84410428  1
  Ca2+  Ca9  1  0.67684938  0.58902918  0.17456414  1
  Ca2+  Ca10  1  0.67732172  0.59306972  0.50068837  1
  Ca2+  Ca11  1  0.67807982  0.58554048  0.84022735  1
  Ca2+  Ca12  1  0.08276673  0.33381854  0.17060969  1
  Ca2+  Ca13  1  0.08117918  0.32337928  0.48922149  1
  Ca2+  Ca14  1  0.08168047  0.32300337  0.82821562  1
  Ca2+  Ca15  1  0.08526615  0.82896064  0.16095228  1
  Ca2+  Ca16  1  0.08433288  0.83723713  0.49439909  1
  Ca2+  Ca17  1  0.08542446  0.82731020  0.82912195  1
  Ca2+  Ca18  1  0.57900401  0.31950309  0.15863673  1
  Ca2+  Ca19  1  0.58192240  0.32434602  0.49073499  1
  Ca2+  Ca20  1  0.57945816  0.32975377  0.83617786  1
  Ca2+  Ca21  1  0.57729094  0.83661230  0.16606723  1
  Ca2+  Ca22  1  0.57609418  0.83711608  0.49090303  1
  Ca2+  Ca23  1  0.57314617  0.84515670  0.83240771  1
  Ca2+  Ca24  1  0.33376436  0.42036594  0.16998179  1
  Ca2+  Ca25  1  0.32507968  0.41168510  0.49988308  1
  Ca2+  Ca26  1  0.33388496  0.42256462  0.84500071  1
  Ca2+  Ca27  1  0.33601869  0.92302842  0.17316846  1
  Ca2+  Ca28  1  0.32934004  0.91654061  0.49894311  1
  Ca2+  Ca29  1  0.33218468  0.91655450  0.83883841  1
  Ca2+  Ca30  1  0.83860984  0.42564517  0.17331189  1
  Ca2+  Ca31  1  0.83869455  0.42449995  0.49847905  1
  Ca2+  Ca32  1  0.83374170  0.42582494  0.83777573  1
  Ca2+  Ca33  1  0.82064084  0.92217732  0.16790087  1
  Ca2+  Ca34  1  0.81797627  0.91429396  0.50380134  1
  Ca2+  Ca35  1  0.81850067  0.92110480  0.84212218  1
  Ca2+  Ca36  1  0.42199676  0.16143262  0.16053695  1
  Ca2+  Ca37  1  0.42111997  0.16204468  0.49086252  1
  Ca2+  Ca38  1  0.41808592  0.16315785  0.84043467  1
  Ca2+  Ca39  1  0.41583218  0.67913353  0.15986186  1
  Ca2+  Ca40  1  0.42454942  0.68161984  0.49015286  1
  Ca2+  Ca41  1  0.41286327  0.67931621  0.83000146  1
  Ca2+  Ca42  1  0.92078006  0.16664158  0.16335600  1
  Ca2+  Ca43  1  0.92913213  0.17000204  0.48861240  1
  Ca2+  Ca44  1  0.92135266  0.15996040  0.82712689  1
  Ca2+  Ca45  1  0.92025750  0.66297850  0.16132349  1
  Ca2+  Ca46  1  0.91365335  0.66458613  0.49418603  1
  Ca2+  Ca47  1  0.91847442  0.66113890  0.83392706  1
  Al0+  Al48  1  -0.00308113  -0.00237089  0.00118949  1
  Al0+  Al49  1  0.00034776  0.00024832  0.33013211  1
  Al0+  Al50  1  0.00126905  -0.00271440  0.66563957  1
  Al0+  Al51  1  0.00060872  0.49864250  -0.00244044  1
  Al0+  Al52  1  0.00130661  0.50016769  0.33859597  1
  Al0+  Al53  1  0.00087705  0.49902816  0.67083753  1
  Al0+  Al54  1  0.49762480  -0.00081440  -0.00182093  1
  Al0+  Al55  1  0.49889365  0.00020453  0.33450597  1
  Al0+  Al56  1  0.49762831  0.00113435  0.66649903  1
  Al0+  Al57  1  0.50044255  0.50082246  0.00106705  1
  Al0+  Al58  1  0.50407833  0.50156222  0.33219262  1
  Al0+  Al59  1  0.50110313  0.49974538  0.66473160  1
  Al0+  Al60  1  0.24817678  0.24900813  -0.00107469  1
  Al0+  Al61  1  0.25038190  0.25098166  0.33829460  1
  Al0+  Al62  1  0.24955490  0.24947922  0.66428006  1
  Al0+  Al63  1  0.24913016  0.74667793  -0.00501349  1
  Al0+  Al64  1  0.24994363  0.75034853  0.33355602  1
  Al0+  Al65  1  0.24984885  0.75006803  0.66338405  1
  Al0+  Al66  1  0.75169265  0.25038804  -0.00340441  1
  Al0+  Al67  1  0.75110116  0.25246017  0.32557788  1
  Al0+  Al68  1  0.74970990  0.25279904  0.66527408  1
  Al0+  Al69  1  0.75058430  0.75080874  0.00764591  1
  Al0+  Al70  1  0.75145108  0.75172911  0.33763923  1
  Al0+  Al71  1  0.75075063  0.75024470  0.67784796  1
  Al0+  Al72  1  0.42834109  0.81990337  0.31663632  1
  Al0+  Al73  1  0.07299333  0.17759844  0.31554834  1
  Al0+  Al74  1  0.93104879  0.32250647  0.31725995  1
  Al0+  Al75  1  0.67702841  0.93131145  0.68128186  1
  Al0+  Al76  1  0.82116317  0.56857518  0.01548390  1
  Al0+  Al77  1  0.31713051  0.07013431  0.01266549  1
  Al0+  Al78  1  0.07018983  0.17690810  0.65250497  1
  Al0+  Al79  1  0.82006896  0.56997571  0.34754925  1
  Al0+  Al80  1  0.56974668  0.17966202  0.32056938  1
  Al0+  Al81  1  0.42955600  0.81943906  0.98528984  1
  Al0+  Al82  1  0.17696890  0.92722329  0.34684243  1
  Al0+  Al83  1  0.32221181  0.57166213  0.01277350  1
  Al0+  Al84  1  0.82084656  0.56957482  0.68264892  1
  Al0+  Al85  1  0.42701765  0.32247252  0.98600405  1
  Al0+  Al86  1  0.17870706  0.92792868  0.68175299  1
  Al0+  Al87  1  0.42878807  0.82136840  0.65104620  1
  Al0+  Al88  1  0.06899393  0.67871930  0.98664120  1
  Al0+  Al89  1  0.57117077  0.17850623  0.98334526  1
  Al0+  Al90  1  0.57501328  0.67976568  0.31888773  1
  Al0+  Al91  1  0.68075465  0.93205641  0.34748152  1
  Al0+  Al92  1  0.82298683  0.07386605  0.01460206  1
  Al0+  Al93  1  0.67692977  0.93100205  0.01732958  1
  Al0+  Al94  1  0.32113442  0.07071972  0.34914271  1
  Al0+  Al95  1  0.18157802  0.43130809  0.34680251  1
  Si0+  Si96  1  0.57376744  0.67772633  0.65234246  1
  Si0+  Si97  1  0.92676637  0.82165457  0.98211578  1
  Si0+  Si98  1  0.57039450  0.18068378  0.65206533  1
  Si0+  Si99  1  0.18050083  0.42808417  0.68330006  1
  Si0+  Si100  1  0.07013757  0.67900858  0.32064105  1
  Si0+  Si101  1  0.82162553  0.07278284  0.67880450  1
  Si0+  Si102  1  0.92822570  0.82190342  0.31934895  1
  Si0+  Si103  1  0.67740283  0.42744293  0.01716556  1
  Si0+  Si104  1  0.57484314  0.67807466  0.98372786  1
  Si0+  Si105  1  0.17710578  0.92561654  0.01424855  1
  Si0+  Si106  1  0.67601832  0.42579440  0.68452020  1
  Si0+  Si107  1  0.17845566  0.42704681  0.01546769  1
  Si0+  Si108  1  0.42705526  0.32463005  0.31865094  1
  Si0+  Si109  1  0.32090194  0.56973892  0.67944552  1
  Si0+  Si110  1  0.07072148  0.67727005  0.65015114  1
  Si0+  Si111  1  0.06960292  0.17667145  0.98480453  1
  Si0+  Si112  1  0.92986955  0.32173597  0.98300300  1
  Si0+  Si113  1  0.42881624  0.32373396  0.65105221  1
  Si0+  Si114  1  0.32542296  0.57359757  0.35053712  1
  Si0+  Si115  1  0.92869365  0.32305940  0.64979294  1
  Si0+  Si116  1  0.32074800  0.07362564  0.68534783  1
  Si0+  Si117  1  0.82286019  0.07527041  0.34894764  1
  Si0+  Si118  1  0.67783941  0.42605994  0.34963068  1
  Si0+  Si119  1  0.92829484  0.81839651  0.65271930  1
  O2-  O120  1  0.24294335  -0.00456499  0.05903739  1
  O2-  O121  1  0.24689987  0.00033426  0.39829905  1
  O2-  O122  1  0.25242336  0.00350169  0.72796376  1
  O2-  O123  1  0.25078940  0.49292301  0.05771739  1
  O2-  O124  1  0.25955818  0.50222683  0.39571942  1
  O2-  O125  1  0.25175587  0.49830626  0.72498051  1
  O2-  O126  1  0.74634857  0.00739401  0.06463066  1
  O2-  O127  1  0.75382647  0.00836037  0.39548297  1
  O2-  O128  1  0.75048949  0.00858432  0.72526621  1
  O2-  O129  1  0.74465255  0.49685230  0.06237936  1
  O2-  O130  1  0.74349942  0.49746919  0.39491013  1
  O2-  O131  1  0.74428757  0.49568308  0.72752493  1
  O2-  O132  1  -0.00053054  0.24819788  0.26551045  1
  O2-  O133  1  -0.00692742  0.25013634  0.60704987  1
  O2-  O134  1  -0.00443274  0.24493044  0.94155036  1
  O2-  O135  1  0.00414475  0.75466038  0.27929314  1
  O2-  O136  1  -0.00120805  0.74730341  0.60834031  1
  O2-  O137  1  -0.00446571  0.75314725  0.93708698  1
  O2-  O138  1  0.49536466  0.25567010  0.27586841  1
  O2-  O139  1  0.49966663  0.25234031  0.60998491  1
  O2-  O140  1  0.49906486  0.25153782  0.93361399  1
  O2-  O141  1  0.49880043  0.74575575  0.26775869  1
  O2-  O142  1  0.50653881  0.74749974  0.60797777  1
  O2-  O143  1  0.50544920  0.74520364  0.93803106  1
  O2-  O144  1  0.07104928  0.17817575  0.08905039  1
  O2-  O145  1  0.07048416  0.17908529  0.42962860  1
  O2-  O146  1  0.06945077  0.17945388  0.76637150  1
  O2-  O147  1  0.06848445  0.67870208  0.09990639  1
  O2-  O148  1  0.06820568  0.67697629  0.42630676  1
  O2-  O149  1  0.07114201  0.67615779  0.75513337  1
  O2-  O150  1  0.56896638  0.17940318  0.09655948  1
  O2-  O151  1  0.56901734  0.18134670  0.43480109  1
  O2-  O152  1  0.57084530  0.18179231  0.75666835  1
  O2-  O153  1  0.57480819  0.67884527  0.08889602  1
  O2-  O154  1  0.57491547  0.68336272  0.43330096  1
  O2-  O155  1  0.57105377  0.67390475  0.75771095  1
  O2-  O156  1  0.18068290  0.43531272  0.23389008  1
  O2-  O157  1  0.17985717  0.42896465  0.57833551  1
  O2-  O158  1  0.17753125  0.42791202  0.90910639  1
  O2-  O159  1  0.17766215  0.92496765  0.23334429  1
  O2-  O160  1  0.17769340  0.92790328  0.56940359  1
  O2-  O161  1  0.17755343  0.92711112  0.90812136  1
  O2-  O162  1  0.67859337  0.42550398  0.24455944  1
  O2-  O163  1  0.67485133  0.42213045  0.57941253  1
  O2-  O164  1  0.67958982  0.42906605  0.91083889  1
  O2-  O165  1  0.68169602  0.93159564  0.23524152  1
  O2-  O166  1  0.67826805  0.93104225  0.56809469  1
  O2-  O167  1  0.67878267  0.93155622  0.90304703  1
  O2-  O168  1  0.42757470  0.32244323  0.09916749  1
  O2-  O169  1  0.42907384  0.32467067  0.42512655  1
  O2-  O170  1  0.42823097  0.32741810  0.75555047  1
  O2-  O171  1  0.42727715  0.81871848  0.09753133  1
  O2-  O172  1  0.42931229  0.81927363  0.43078463  1
  O2-  O173  1  0.42747204  0.81957020  0.76426848  1
  O2-  O174  1  0.93383876  0.32666733  0.08727151  1
  O2-  O175  1  0.93377164  0.32266543  0.43146657  1
  O2-  O176  1  0.93069403  0.32436239  0.75567999  1
  O2-  O177  1  0.92882763  0.82170410  0.08766758  1
  O2-  O178  1  0.92616057  0.81912539  0.42506351  1
  O2-  O179  1  0.92981762  0.81716732  0.75756849  1
  O2-  O180  1  0.32124809  0.06983624  0.23558526  1
  O2-  O181  1  0.32167159  0.07598336  0.58021699  1
  O2-  O182  1  0.31379064  0.07005821  0.89909717  1
  O2-  O183  1  0.32191770  0.57386991  0.24512775  1
  O2-  O184  1  0.31837419  0.56644395  0.57449763  1
  O2-  O185  1  0.31799418  0.57153793  0.89878580  1
  O2-  O186  1  0.82281986  0.07228782  0.24376648  1
  O2-  O187  1  0.82074332  0.07146677  0.57340210  1
  O2-  O188  1  0.82536186  0.06910527  0.90021085  1
  O2-  O189  1  0.82246729  0.56892310  0.23485105  1
  O2-  O190  1  0.82209600  0.56917523  0.56968532  1
  O2-  O191  1  0.82150572  0.56544137  0.90201398  1
  O2-  O192  1  0.04683980  0.07858664  0.26292965  1
  O2-  O193  1  0.04177277  0.07966695  0.59894078  1
  O2-  O194  1  0.04333721  0.08362032  0.93776342  1
  O2-  O195  1  0.03737394  0.58962648  0.27295109  1
  O2-  O196  1  0.04270886  0.58423058  0.60446665  1
  O2-  O197  1  0.03825513  0.58242519  0.93019088  1
  O2-  O198  1  0.53696145  0.08446311  0.26729388  1
  O2-  O199  1  0.54057816  0.08976540  0.60448337  1
  O2-  O200  1  0.53858865  0.08188466  0.92936074  1
  O2-  O201  1  0.55633270  0.57782907  0.26903987  1
  O2-  O202  1  0.54971309  0.58388970  0.60457198  1
  O2-  O203  1  0.55248540  0.58326457  0.93842037  1
  O2-  O204  1  0.17154403  0.21085434  0.26656256  1
  O2-  O205  1  0.16609806  0.21094297  0.59938538  1
  O2-  O206  1  0.15909266  0.20807047  0.93462573  1
  O2-  O207  1  0.16326594  0.70126268  0.27377565  1
  O2-  O208  1  0.16184617  0.70437093  0.60168220  1
  O2-  O209  1  0.16403218  0.70801033  0.92852783  1
  O2-  O210  1  0.66596937  0.20821463  0.26575554  1
  O2-  O211  1  0.66280128  0.20764090  0.60448858  1
  O2-  O212  1  0.67054880  0.20624225  0.92999644  1
  O2-  O213  1  0.67257503  0.71189422  0.26709284  1
  O2-  O214  1  0.66930591  0.70361527  0.61068742  1
  O2-  O215  1  0.66925453  0.70477463  0.93897588  1
  O2-  O216  1  0.08694012  0.45784813  0.06132173  1
  O2-  O217  1  0.08833236  0.46659003  0.40505736  1
  O2-  O218  1  0.08923993  0.45605563  0.73157616  1
  O2-  O219  1  0.08181343  0.94667791  0.05780319  1
  O2-  O220  1  0.07684358  0.95320230  0.39908147  1
  O2-  O221  1  0.08103795  0.95632221  0.73615721  1
  O2-  O222  1  0.58320783  0.44934913  0.06229816  1
  O2-  O223  1  0.58317998  0.44734277  0.39681182  1
  O2-  O224  1  0.58185638  0.45106284  0.73023290  1
  O2-  O225  1  0.57776082  0.95758011  0.06746108  1
  O2-  O226  1  0.58475843  0.96325471  0.40199847  1
  O2-  O227  1  0.58048133  0.96330985  0.73415876  1
  O2-  O228  1  0.19971868  0.33304393  0.06106238  1
  O2-  O229  1  0.20967024  0.33573787  0.40475201  1
  O2-  O230  1  0.20798043  0.33591064  0.73019369  1
  O2-  O231  1  0.20299638  0.83159714  0.05759251  1
  O2-  O232  1  0.20424499  0.82833155  0.40123608  1
  O2-  O233  1  0.20903016  0.82962503  0.73372431  1
  O2-  O234  1  0.70427531  0.33361308  0.06053008  1
  O2-  O235  1  0.70741578  0.33380381  0.39742257  1
  O2-  O236  1  0.70366685  0.33341166  0.73319517  1
  O2-  O237  1  0.70898596  0.83428807  0.07057007  1
  O2-  O238  1  0.71528974  0.83756481  0.40376808  1
  O2-  O239  1  0.70903762  0.83659061  0.73762059  1
  O2-  O240  1  0.45095560  0.41890435  0.27350152  1
  O2-  O241  1  0.45585687  0.41463197  0.60073171  1
  O2-  O242  1  0.45587346  0.42156654  0.93214342  1
  O2-  O243  1  0.45934662  0.91788698  0.26675630  1
  O2-  O244  1  0.45729916  0.91945694  0.59923026  1
  O2-  O245  1  0.45858597  0.91552395  0.92932446  1
  O2-  O246  1  0.96622599  0.42013087  0.26600230  1
  O2-  O247  1  0.96057640  0.41511759  0.60401293  1
  O2-  O248  1  0.96445812  0.40977147  0.93133177  1
  O2-  O249  1  0.95061573  0.91394179  0.27074142  1
  O2-  O250  1  0.95497146  0.90978356  0.60431794  1
  O2-  O251  1  0.95140717  0.91501237  0.93419579  1
  O2-  O252  1  0.33262357  0.30198327  0.27495861  1
  O2-  O253  1  0.33662721  0.29580774  0.60420273  1
  O2-  O254  1  0.32818729  0.29397143  0.93170411  1
  O2-  O255  1  0.32898164  0.79205881  0.26505635  1
  O2-  O256  1  0.33339013  0.78690046  0.59650257  1
  O2-  O257  1  0.33401682  0.78567066  0.92966777  1
  O2-  O258  1  0.83197928  0.30135445  0.26364818  1
  O2-  O259  1  0.83256691  0.30491577  0.60552298  1
  O2-  O260  1  0.83665776  0.30185491  0.93468899  1
  O2-  O261  1  0.83960081  0.78844167  0.27070983  1
  O2-  O262  1  0.83561229  0.78925273  0.60714843  1
  O2-  O263  1  0.83312192  0.79366595  0.93736519  1
  O2-  O264  1  0.41408315  0.04043287  0.06387038  1
  O2-  O265  1  0.41755062  0.03963852  0.40461198  1
  O2-  O266  1  0.41419300  0.04768134  0.73098373  1
  O2-  O267  1  0.41967695  0.54645722  0.06689116  1
  O2-  O268  1  0.42078499  0.55218820  0.39506388  1
  O2-  O269  1  0.41400993  0.54408390  0.72538473  1
  O2-  O270  1  0.91931847  0.04063571  0.06973567  1
  O2-  O271  1  0.91644233  0.04804276  0.39406432  1
  O2-  O272  1  0.91419188  0.04388904  0.72507116  1
  O2-  O273  1  0.91819707  0.53488729  0.06648191  1
  O2-  O274  1  0.91516195  0.53740699  0.40394421  1
  O2-  O275  1  0.91746294  0.53677182  0.73686347  1
  O2-  O276  1  0.28710951  0.16697463  0.06599124  1
  O2-  O277  1  0.29739632  0.17028345  0.40255605  1
  O2-  O278  1  0.29400393  0.16752117  0.73109880  1
  O2-  O279  1  0.28414846  0.66527087  0.06719003  1
  O2-  O280  1  0.29445151  0.66472638  0.39826020  1
  O2-  O281  1  0.29069141  0.66097138  0.72577872  1
  O2-  O282  1  0.80477029  0.17611826  0.06241444  1
  O2-  O283  1  0.79988637  0.17062456  0.39233329  1
  O2-  O284  1  0.80150620  0.16901206  0.72296346  1
  O2-  O285  1  0.79629283  0.66647839  0.06846455  1
  O2-  O286  1  0.79090456  0.66635141  0.40348584  1
  O2-  O287  1  0.79280141  0.66499779  0.74007900  1
