# generated using pymatgen
data_Ca2Al2SiO7
_symmetry_space_group_name_H-M   'P 1'
_cell_length_a   15.46655899
_cell_length_b   15.46502786
_cell_length_c   15.28909554
_cell_angle_alpha   89.98643111
_cell_angle_beta   90.00535787
_cell_angle_gamma   89.98995414
_symmetry_Int_Tables_number   1
_chemical_formula_structural   Ca2Al2SiO7
_chemical_formula_sum   'Ca48 Al48 Si24 O168'
_cell_volume   3657.01029600
_cell_formula_units_Z   24
loop_
 _symmetry_equiv_pos_site_id
 _symmetry_equiv_pos_as_xyz
  1  'x, y, z'
loop_
 _atom_type_symbol
 _atom_type_oxidation_number
  Ca2+  2.0
  Al0+  0.0
  Si0+  0.0
  O2-  -2.0
loop_
 _atom_site_type_symbol
 _atom_site_label
 _atom_site_symmetry_multiplicity
 _atom_site_fract_x
 _atom_site_fract_y
 _atom_site_fract_z
 _atom_site_occupancy
  Ca2+  Ca0  1  0.15707408  0.07097863  0.16890590  1
  Ca2+  Ca1  1  0.16749970  0.07759624  0.50940754  1
  Ca2+  Ca2  1  0.16512574  0.08598591  0.83972364  1
  Ca2+  Ca3  1  0.16972386  0.58390266  0.16972484  1
  Ca2+  Ca4  1  0.16638315  0.58128167  0.50278379  1
  Ca2+  Ca5  1  0.16175511  0.57121265  0.84002985  1
  Ca2+  Ca6  1  0.67277172  0.08243488  0.17398931  1
  Ca2+  Ca7  1  0.66520513  0.08531406  0.50505190  1
  Ca2+  Ca8  1  0.68001655  0.09473190  0.83344492  1
  Ca2+  Ca9  1  0.67415756  0.58568083  0.17156864  1
  Ca2+  Ca10  1  0.66711537  0.58405448  0.50262750  1
  Ca2+  Ca11  1  0.67717773  0.57823344  0.84273191  1
  Ca2+  Ca12  1  0.07505657  0.33020992  0.15703076  1
  Ca2+  Ca13  1  0.07701601  0.33167947  0.50128128  1
  Ca2+  Ca14  1  0.07711846  0.33227186  0.82638024  1
  Ca2+  Ca15  1  0.09716796  0.82458449  0.16278593  1
  Ca2+  Ca16  1  0.09076053  0.82325851  0.49383926  1
  Ca2+  Ca17  1  0.09265363  0.82159610  0.83373831  1
  Ca2+  Ca18  1  0.58145358  0.33026223  0.16721960  1
  Ca2+  Ca19  1  0.57795389  0.32163775  0.49870639  1
  Ca2+  Ca20  1  0.57286886  0.32889868  0.82429065  1
  Ca2+  Ca21  1  0.57941609  0.83463729  0.16983269  1
  Ca2+  Ca22  1  0.57698596  0.83104551  0.48632535  1
  Ca2+  Ca23  1  0.58187587  0.83062252  0.83024486  1
  Ca2+  Ca24  1  0.32623905  0.42726201  0.16903591  1
  Ca2+  Ca25  1  0.33009042  0.42210484  0.50905421  1
  Ca2+  Ca26  1  0.31894953  0.41489178  0.83857158  1
  Ca2+  Ca27  1  0.32374963  0.91341432  0.17191128  1
  Ca2+  Ca28  1  0.33201933  0.91936339  0.49934474  1
  Ca2+  Ca29  1  0.32730822  0.92629817  0.83552853  1
  Ca2+  Ca30  1  0.84446547  0.41960354  0.16739986  1
  Ca2+  Ca31  1  0.83732657  0.41123254  0.50258222  1
  Ca2+  Ca32  1  0.83777623  0.41508355  0.83906808  1
  Ca2+  Ca33  1  0.83178699  0.92550808  0.17258772  1
  Ca2+  Ca34  1  0.82406523  0.92301934  0.50592048  1
  Ca2+  Ca35  1  0.83756298  0.93207861  0.83782624  1
  Ca2+  Ca36  1  0.42750421  0.15802867  0.16589048  1
  Ca2+  Ca37  1  0.41982350  0.16624160  0.49982361  1
  Ca2+  Ca38  1  0.41949076  0.17119171  0.81930499  1
  Ca2+  Ca39  1  0.41188044  0.66693138  0.16686999  1
  Ca2+  Ca40  1  0.41951585  0.67265663  0.48519071  1
  Ca2+  Ca41  1  0.41116174  0.66519782  0.83317223  1
  Ca2+  Ca42  1  0.91855301  0.17611069  0.15730361  1
  Ca2+  Ca43  1  0.91496368  0.17486599  0.50075290  1
  Ca2+  Ca44  1  0.92531864  0.17098601  0.82903218  1
  Ca2+  Ca45  1  0.92942440  0.66685908  0.15910067  1
  Ca2+  Ca46  1  0.93066900  0.66717968  0.49522094  1
  Ca2+  Ca47  1  0.92842338  0.66146111  0.83171885  1
  Al0+  Al48  1  -0.00150713  -0.00011601  0.00679432  1
  Al0+  Al49  1  -0.00052831  0.00040131  0.34271335  1
  Al0+  Al50  1  -0.00279378  -0.00287072  0.66813513  1
  Al0+  Al51  1  -0.00078096  0.50029326  0.00082329  1
  Al0+  Al52  1  0.00047578  0.50084850  0.32712262  1
  Al0+  Al53  1  0.00097577  0.50179192  0.66167566  1
  Al0+  Al54  1  0.50030127  -0.00222022  -0.00376501  1
  Al0+  Al55  1  0.50083372  -0.00055433  0.32793952  1
  Al0+  Al56  1  0.49836419  -0.00285400  0.66892254  1
  Al0+  Al57  1  0.50119469  0.50015381  0.00242439  1
  Al0+  Al58  1  0.50195752  0.49973638  0.33428260  1
  Al0+  Al59  1  0.50133585  0.50060973  0.66508898  1
  Al0+  Al60  1  0.25289243  0.24969878  0.00543043  1
  Al0+  Al61  1  0.24871008  0.25068423  0.33217951  1
  Al0+  Al62  1  0.24867302  0.25060358  0.66605429  1
  Al0+  Al63  1  0.25221489  0.75229458  -0.00104927  1
  Al0+  Al64  1  0.25161918  0.75011088  0.33445847  1
  Al0+  Al65  1  0.25159695  0.74975775  0.66254650  1
  Al0+  Al66  1  0.74885692  0.24948215  0.00173395  1
  Al0+  Al67  1  0.74958233  0.25295347  0.32542157  1
  Al0+  Al68  1  0.74849168  0.25018207  0.66492086  1
  Al0+  Al69  1  0.74849575  0.74909672  0.00240663  1
  Al0+  Al70  1  0.75132868  0.75107370  0.33552811  1
  Al0+  Al71  1  0.75048794  0.74995092  0.66843059  1
  Al0+  Al72  1  0.07176881  0.17510332  0.65212556  1
  Al0+  Al73  1  0.07050666  0.68223544  0.31806002  1
  Al0+  Al74  1  0.81975014  0.07177220  0.68046186  1
  Al0+  Al75  1  0.57403783  0.67688295  0.31736598  1
  Al0+  Al76  1  0.17936346  0.92975550  0.34894982  1
  Al0+  Al77  1  0.42980201  0.82036097  0.31593751  1
  Al0+  Al78  1  0.56872625  0.18022494  0.31862952  1
  Al0+  Al79  1  0.56955482  0.17794985  0.65301501  1
  Al0+  Al80  1  0.92912176  0.32123523  0.65172691  1
  Al0+  Al81  1  0.81943901  0.07100435  0.01543990  1
  Al0+  Al82  1  0.92920303  0.32076923  0.98370523  1
  Al0+  Al83  1  0.07076524  0.68114158  0.65245573  1
  Al0+  Al84  1  0.07182780  0.68141977  0.98600489  1
  Al0+  Al85  1  0.17733285  0.42691018  0.01622877  1
  Al0+  Al86  1  0.67964140  0.93011772  0.34656973  1
  Al0+  Al87  1  0.93099204  0.31909069  0.31821160  1
  Al0+  Al88  1  0.42602351  0.32288039  0.65234481  1
  Al0+  Al89  1  0.32144769  0.57119380  0.01415613  1
  Al0+  Al90  1  0.82124281  0.57076938  0.01381875  1
  Al0+  Al91  1  0.18024455  0.93177796  0.01194453  1
  Al0+  Al92  1  0.32069295  0.56859108  0.34810822  1
  Al0+  Al93  1  0.07256287  0.17655396  0.98732931  1
  Al0+  Al94  1  0.31930101  0.07013732  0.67875541  1
  Al0+  Al95  1  0.17849900  0.43083446  0.67842246  1
  Si0+  Si96  1  0.42987809  0.82079432  0.98134694  1
  Si0+  Si97  1  0.56932888  0.17743573  0.98409523  1
  Si0+  Si98  1  0.92772834  0.82427528  0.31847582  1
  Si0+  Si99  1  0.67775745  0.42811582  0.01789550  1
  Si0+  Si100  1  0.57343557  0.67904717  0.65324431  1
  Si0+  Si101  1  0.57196369  0.67789048  0.98367866  1
  Si0+  Si102  1  0.42583521  0.32373558  0.31578457  1
  Si0+  Si103  1  0.07339227  0.17491470  0.31806426  1
  Si0+  Si104  1  0.43038272  0.81906289  0.65137676  1
  Si0+  Si105  1  0.32296191  0.07320153  0.34836154  1
  Si0+  Si106  1  0.67608068  0.92694820  0.01696196  1
  Si0+  Si107  1  0.82247663  0.57059211  0.34941221  1
  Si0+  Si108  1  0.67985946  0.42852039  0.34975521  1
  Si0+  Si109  1  0.43082157  0.32282692  0.98666377  1
  Si0+  Si110  1  0.17748453  0.92562151  0.68318788  1
  Si0+  Si111  1  0.67838485  0.42966812  0.68109172  1
  Si0+  Si112  1  0.17577369  0.42804592  0.35092221  1
  Si0+  Si113  1  0.81985121  0.07554405  0.35169789  1
  Si0+  Si114  1  0.32565475  0.07270640  0.01654485  1
  Si0+  Si115  1  0.92482740  0.82164119  0.64975422  1
  Si0+  Si116  1  0.67713654  0.92625960  0.68477465  1
  Si0+  Si117  1  0.82059588  0.57147557  0.68042397  1
  Si0+  Si118  1  0.32407002  0.57304208  0.68206792  1
  Si0+  Si119  1  0.92424633  0.82193130  0.98456576  1
  O2-  O120  1  0.25080128  0.01062304  0.05924706  1
  O2-  O121  1  0.25063220  0.00885719  0.39331568  1
  O2-  O122  1  0.23940669  0.00093845  0.72647436  1
  O2-  O123  1  0.24715582  0.50234275  0.06466615  1
  O2-  O124  1  0.24862005  0.49220625  0.39562092  1
  O2-  O125  1  0.25661700  0.50321575  0.72468923  1
  O2-  O126  1  0.74518661  -0.00518322  0.06061783  1
  O2-  O127  1  0.75221934  0.00538147  0.39537441  1
  O2-  O128  1  0.74429284  -0.00338758  0.72778446  1
  O2-  O129  1  0.74957621  0.49355333  0.06159877  1
  O2-  O130  1  0.74946343  0.50145803  0.39204583  1
  O2-  O131  1  0.75064737  0.49947818  0.72299029  1
  O2-  O132  1  0.00564834  0.24397878  0.27389174  1
  O2-  O133  1  -0.00043011  0.24736001  0.60237327  1
  O2-  O134  1  0.00443115  0.25134309  0.93553294  1
  O2-  O135  1  -0.00145268  0.75992590  0.27184581  1
  O2-  O136  1  -0.00210103  0.75782103  0.60584348  1
  O2-  O137  1  -0.00573502  0.75455267  0.93978760  1
  O2-  O138  1  0.49066979  0.25128856  0.27093684  1
  O2-  O139  1  0.49538426  0.24770803  0.60313662  1
  O2-  O140  1  0.49650594  0.24689946  0.94344729  1
  O2-  O141  1  0.50116734  0.74698465  0.26603186  1
  O2-  O142  1  0.50124536  0.74750898  0.61067276  1
  O2-  O143  1  0.50048959  0.74803828  0.94032376  1
  O2-  O144  1  0.06757210  0.17557313  0.10112806  1
  O2-  O145  1  0.07362045  0.17469728  0.42347775  1
  O2-  O146  1  0.07034257  0.17538590  0.76544670  1
  O2-  O147  1  0.07246414  0.68425320  0.09888697  1
  O2-  O148  1  0.06803771  0.68098984  0.43143689  1
  O2-  O149  1  0.06973200  0.68094903  0.76559045  1
  O2-  O150  1  0.56823910  0.17606119  0.08927555  1
  O2-  O151  1  0.56890789  0.18135776  0.43134678  1
  O2-  O152  1  0.56971233  0.18225539  0.76704223  1
  O2-  O153  1  0.57384521  0.67823751  0.08791139  1
  O2-  O154  1  0.57312782  0.67887330  0.43178406  1
  O2-  O155  1  0.57505942  0.68006290  0.75861148  1
  O2-  O156  1  0.17577474  0.42949694  0.24558214  1
  O2-  O157  1  0.17775787  0.43522059  0.56525632  1
  O2-  O158  1  0.17873018  0.42744913  0.90232386  1
  O2-  O159  1  0.18060839  0.93020816  0.23580119  1
  O2-  O160  1  0.18240805  0.92279423  0.57774864  1
  O2-  O161  1  0.18500745  0.92931530  0.89876725  1
  O2-  O162  1  0.67993072  0.42753682  0.24475164  1
  O2-  O163  1  0.67649412  0.43226399  0.57608364  1
  O2-  O164  1  0.67439022  0.43113676  0.91194990  1
  O2-  O165  1  0.68226510  0.93221163  0.23340626  1
  O2-  O166  1  0.67808225  0.92238409  0.57947063  1
  O2-  O167  1  0.67444979  0.92635947  0.91120870  1
  O2-  O168  1  0.43544328  0.32416650  0.09163589  1
  O2-  O169  1  0.42810585  0.32419616  0.42117073  1
  O2-  O170  1  0.43017733  0.32402880  0.76650461  1
  O2-  O171  1  0.43122134  0.82399001  0.08558789  1
  O2-  O172  1  0.43181906  0.81986037  0.43016772  1
  O2-  O173  1  0.43028286  0.81815738  0.75686117  1
  O2-  O174  1  0.92836643  0.31811930  0.09733759  1
  O2-  O175  1  0.92989014  0.31872168  0.43121689  1
  O2-  O176  1  0.92874324  0.32304150  0.76462649  1
  O2-  O177  1  0.92133180  0.81950897  0.09001142  1
  O2-  O178  1  0.92686079  0.82022227  0.42419017  1
  O2-  O179  1  0.91997379  0.81876145  0.75510183  1
  O2-  O180  1  0.32369144  0.07169310  0.24265336  1
  O2-  O181  1  0.32347342  0.06409779  0.56591379  1
  O2-  O182  1  0.33104766  0.06955079  0.91104193  1
  O2-  O183  1  0.31928449  0.56763406  0.23526412  1
  O2-  O184  1  0.32533822  0.57454189  0.57665880  1
  O2-  O185  1  0.32349490  0.56774661  0.90023195  1
  O2-  O186  1  0.81894068  0.07415620  0.24599085  1
  O2-  O187  1  0.81620843  0.07009706  0.56740116  1
  O2-  O188  1  0.81705642  0.07129845  0.90227273  1
  O2-  O189  1  0.82234713  0.56935684  0.24450382  1
  O2-  O190  1  0.81730823  0.57393509  0.57529308  1
  O2-  O191  1  0.81717052  0.57242682  0.90015338  1
  O2-  O192  1  0.04584521  0.08040470  0.27483345  1
  O2-  O193  1  0.04416135  0.07498506  0.60127806  1
  O2-  O194  1  0.04139398  0.07783413  0.93605269  1
  O2-  O195  1  0.03687723  0.58729693  0.26373739  1
  O2-  O196  1  0.03633081  0.58777429  0.59552303  1
  O2-  O197  1  0.03953563  0.58477480  0.93367097  1
  O2-  O198  1  0.54084127  0.08432135  0.26194403  1
  O2-  O199  1  0.54401709  0.07722473  0.60379909  1
  O2-  O200  1  0.54442597  0.08509483  0.93636701  1
  O2-  O201  1  0.55007395  0.57674973  0.26658334  1
  O2-  O202  1  0.54996247  0.58654179  0.60596761  1
  O2-  O203  1  0.54498588  0.58564624  0.93592213  1
  O2-  O204  1  0.16795726  0.19667467  0.27178554  1
  O2-  O205  1  0.16991276  0.20224325  0.59896938  1
  O2-  O206  1  0.17635130  0.19702857  0.94150370  1
  O2-  O207  1  0.16753604  0.71225355  0.26662721  1
  O2-  O208  1  0.16793375  0.71036164  0.59817529  1
  O2-  O209  1  0.16765617  0.71502061  0.93163133  1
  O2-  O210  1  0.66267078  0.21536075  0.26217148  1
  O2-  O211  1  0.66541940  0.21014454  0.59848944  1
  O2-  O212  1  0.66041754  0.20825657  0.93806292  1
  O2-  O213  1  0.67307787  0.70695497  0.26656012  1
  O2-  O214  1  0.66483788  0.70715270  0.60522793  1
  O2-  O215  1  0.66274445  0.70763831  0.93408218  1
  O2-  O216  1  0.07878316  0.45434140  0.06761768  1
  O2-  O217  1  0.08381120  0.46051257  0.39618363  1
  O2-  O218  1  0.08311421  0.46692941  0.73240828  1
  O2-  O219  1  0.08303760  0.95435314  0.06853864  1
  O2-  O220  1  0.08181597  0.95428198  0.40549723  1
  O2-  O221  1  0.08041259  0.93967551  0.72524993  1
  O2-  O222  1  0.58682342  0.45810084  0.06656670  1
  O2-  O223  1  0.58823290  0.45380694  0.39859205  1
  O2-  O224  1  0.58776347  0.45970572  0.73103539  1
  O2-  O225  1  0.58261479  0.95470169  0.06217345  1
  O2-  O226  1  0.58172025  0.95960177  0.39857372  1
  O2-  O227  1  0.58299770  0.94815520  0.73105279  1
  O2-  O228  1  0.20872445  0.33004952  0.07183640  1
  O2-  O229  1  0.19590847  0.33161666  0.39404027  1
  O2-  O230  1  0.20525441  0.33355445  0.73238331  1
  O2-  O231  1  0.21827645  0.83774673  0.06610210  1
  O2-  O232  1  0.21510118  0.83504536  0.40317174  1
  O2-  O233  1  0.21312742  0.83480538  0.73003196  1
  O2-  O234  1  0.69847769  0.33331297  0.06290223  1
  O2-  O235  1  0.71131355  0.33754341  0.39674133  1
  O2-  O236  1  0.70386504  0.33801093  0.72899093  1
  O2-  O237  1  0.69842267  0.83275825  0.06243120  1
  O2-  O238  1  0.70984683  0.83358260  0.40248420  1
  O2-  O239  1  0.70486810  0.83309770  0.73254686  1
  O2-  O240  1  0.45888099  0.41440616  0.26888158  1
  O2-  O241  1  0.45937909  0.42028552  0.59904921  1
  O2-  O242  1  0.46408056  0.41212717  0.93742929  1
  O2-  O243  1  0.45892629  0.91742571  0.26110949  1
  O2-  O244  1  0.45876124  0.90996300  0.60376464  1
  O2-  O245  1  0.46092321  0.91091383  0.93078377  1
  O2-  O246  1  0.96140781  0.41559143  0.26432881  1
  O2-  O247  1  0.95775968  0.41908293  0.59729971  1
  O2-  O248  1  0.95226593  0.42135036  0.93349705  1
  O2-  O249  1  0.94862960  0.92091576  0.27710465  1
  O2-  O250  1  0.94428816  0.91634823  0.60454714  1
  O2-  O251  1  0.95033783  0.91622437  0.94120706  1
  O2-  O252  1  0.33034961  0.30379803  0.27112101  1
  O2-  O253  1  0.32821216  0.29829440  0.59870708  1
  O2-  O254  1  0.33697544  0.29975389  0.94212466  1
  O2-  O255  1  0.33216732  0.79026316  0.26376292  1
  O2-  O256  1  0.33956607  0.79241791  0.60206156  1
  O2-  O257  1  0.33976280  0.79320396  0.93124227  1
  O2-  O258  1  0.83447211  0.29219862  0.26232473  1
  O2-  O259  1  0.82982338  0.29435405  0.59942948  1
  O2-  O260  1  0.82848830  0.29224142  0.93430019  1
  O2-  O261  1  0.83525308  0.79731385  0.27162505  1
  O2-  O262  1  0.83297765  0.79098702  0.60135854  1
  O2-  O263  1  0.83068524  0.79649324  0.93736614  1
  O2-  O264  1  0.41672828  0.03740284  0.06328187  1
  O2-  O265  1  0.41540605  0.04295213  0.39359117  1
  O2-  O266  1  0.41384256  0.03376781  0.73587732  1
  O2-  O267  1  0.41988585  0.54171843  0.06718993  1
  O2-  O268  1  0.41966874  0.54146496  0.40063178  1
  O2-  O269  1  0.41939337  0.55114889  0.72740964  1
  O2-  O270  1  0.91389758  0.04031171  0.07273125  1
  O2-  O271  1  0.91327412  0.05202268  0.39872112  1
  O2-  O272  1  0.91533870  0.03871251  0.73602613  1
  O2-  O273  1  0.91734419  0.54360093  0.06917743  1
  O2-  O274  1  0.91357886  0.53931231  0.39632080  1
  O2-  O275  1  0.91274357  0.54437181  0.72601142  1
  O2-  O276  1  0.31235183  0.16812507  0.06238810  1
  O2-  O277  1  0.30318131  0.16939099  0.39220592  1
  O2-  O278  1  0.29638532  0.16871192  0.73185476  1
  O2-  O279  1  0.29768558  0.67162779  0.06364398  1
  O2-  O280  1  0.29024465  0.66531547  0.40154739  1
  O2-  O281  1  0.29745066  0.66693729  0.72746072  1
  O2-  O282  1  0.78483619  0.16614285  0.07021532  1
  O2-  O283  1  0.78970179  0.16909005  0.39435252  1
  O2-  O284  1  0.78664117  0.16791979  0.73449312  1
  O2-  O285  1  0.78680432  0.66601143  0.06864802  1
  O2-  O286  1  0.79718627  0.66282814  0.39734172  1
  O2-  O287  1  0.79124216  0.66205379  0.72999483  1
