# generated using pymatgen
data_Ca2Al2SiO7
_symmetry_space_group_name_H-M   'P 1'
_cell_length_a   15.45753153
_cell_length_b   15.45760174
_cell_length_c   15.28318122
_cell_angle_alpha   90.00234532
_cell_angle_beta   89.99752229
_cell_angle_gamma   90.00036392
_symmetry_Int_Tables_number   1
_chemical_formula_structural   Ca2Al2SiO7
_chemical_formula_sum   'Ca48 Al48 Si24 O168'
_cell_volume   3651.70777782
_cell_formula_units_Z   24
loop_
 _symmetry_equiv_pos_site_id
 _symmetry_equiv_pos_as_xyz
  1  'x, y, z'
loop_
 _atom_type_symbol
 _atom_type_oxidation_number
  Ca2+  2.0
  Al0+  0.0
  Si0+  0.0
  O2-  -2.0
loop_
 _atom_site_type_symbol
 _atom_site_label
 _atom_site_symmetry_multiplicity
 _atom_site_fract_x
 _atom_site_fract_y
 _atom_site_fract_z
 _atom_site_occupancy
  Ca2+  Ca0  1  0.17132311  0.08332414  0.16588562  1
  Ca2+  Ca1  1  0.16948426  0.08671105  0.49725130  1
  Ca2+  Ca2  1  0.16960437  0.07883256  0.84668225  1
  Ca2+  Ca3  1  0.16884838  0.57895562  0.17534915  1
  Ca2+  Ca4  1  0.17062104  0.58579279  0.50356629  1
  Ca2+  Ca5  1  0.16474600  0.56826225  0.83957687  1
  Ca2+  Ca6  1  0.66828509  0.06833043  0.17282855  1
  Ca2+  Ca7  1  0.67443475  0.07254643  0.50526378  1
  Ca2+  Ca8  1  0.68075868  0.07679117  0.84381171  1
  Ca2+  Ca9  1  0.66025779  0.58134560  0.17279128  1
  Ca2+  Ca10  1  0.66533952  0.58527167  0.50191660  1
  Ca2+  Ca11  1  0.66912020  0.59304866  0.83396457  1
  Ca2+  Ca12  1  0.09042703  0.32235899  0.16097692  1
  Ca2+  Ca13  1  0.08394831  0.32991094  0.49549468  1
  Ca2+  Ca14  1  0.09144363  0.32809557  0.83220733  1
  Ca2+  Ca15  1  0.07432972  0.83737560  0.16200168  1
  Ca2+  Ca16  1  0.06981748  0.82868863  0.48992046  1
  Ca2+  Ca17  1  0.07229932  0.84376784  0.83266268  1
  Ca2+  Ca18  1  0.57812158  0.33249517  0.15989506  1
  Ca2+  Ca19  1  0.57958464  0.33543199  0.49577689  1
  Ca2+  Ca20  1  0.56812357  0.33193543  0.82780073  1
  Ca2+  Ca21  1  0.58738933  0.82703824  0.16382639  1
  Ca2+  Ca22  1  0.58287052  0.82257502  0.48987330  1
  Ca2+  Ca23  1  0.59219911  0.82546260  0.83375781  1
  Ca2+  Ca24  1  0.33257393  0.42194966  0.16869952  1
  Ca2+  Ca25  1  0.32925670  0.42428888  0.50431333  1
  Ca2+  Ca26  1  0.32680507  0.40923822  0.83798248  1
  Ca2+  Ca27  1  0.33512887  0.92627690  0.17529338  1
  Ca2+  Ca28  1  0.33758000  0.91940902  0.49782543  1
  Ca2+  Ca29  1  0.32408952  0.92342372  0.84638999  1
  Ca2+  Ca30  1  0.82397732  0.41898163  0.17464809  1
  Ca2+  Ca31  1  0.82594005  0.42477138  0.50549188  1
  Ca2+  Ca32  1  0.83493520  0.42887158  0.83644678  1
  Ca2+  Ca33  1  0.82865075  0.91122441  0.16519581  1
  Ca2+  Ca34  1  0.83239083  0.91110600  0.50302241  1
  Ca2+  Ca35  1  0.83551554  0.92207902  0.84170563  1
  Ca2+  Ca36  1  0.40939011  0.17055620  0.15942718  1
  Ca2+  Ca37  1  0.41207357  0.17386081  0.49514891  1
  Ca2+  Ca38  1  0.40693221  0.17570465  0.83400551  1
  Ca2+  Ca39  1  0.42433095  0.66743740  0.16637181  1
  Ca2+  Ca40  1  0.42435135  0.67025301  0.48882803  1
  Ca2+  Ca41  1  0.43047074  0.66557027  0.82912197  1
  Ca2+  Ca42  1  0.92748697  0.16096597  0.16030745  1
  Ca2+  Ca43  1  0.92225117  0.16469308  0.49343088  1
  Ca2+  Ca44  1  0.92142368  0.15728890  0.83231702  1
  Ca2+  Ca45  1  0.91984269  0.67788833  0.16578737  1
  Ca2+  Ca46  1  0.91736096  0.67347115  0.49422931  1
  Ca2+  Ca47  1  0.91266678  0.68006511  0.82669588  1
  Al0+  Al48  1  0.00117644  0.00099390  -0.00086030  1
  Al0+  Al49  1  0.00140813  0.00172552  0.32520318  1
  Al0+  Al50  1  0.00035975  -0.00003375  0.66313133  1
  Al0+  Al51  1  -0.00016125  0.49940186  0.00698958  1
  Al0+  Al52  1  -0.00247687  0.49851963  0.33029927  1
  Al0+  Al53  1  -0.00037292  0.49854476  0.67524813  1
  Al0+  Al54  1  0.50184083  -0.00021239  0.00496075  1
  Al0+  Al55  1  0.50135331  0.00155498  0.34271810  1
  Al0+  Al56  1  0.50061910  0.00083233  0.66920323  1
  Al0+  Al57  1  0.50008905  0.49961183  -0.01093063  1
  Al0+  Al58  1  0.49737915  0.49928973  0.33871042  1
  Al0+  Al59  1  0.49869728  0.49917455  0.65836240  1
  Al0+  Al60  1  0.24816645  0.25100107  -0.00077030  1
  Al0+  Al61  1  0.24951500  0.25008153  0.33383636  1
  Al0+  Al62  1  0.25013271  0.25035707  0.66374198  1
  Al0+  Al63  1  0.25061417  0.74757150  0.00168287  1
  Al0+  Al64  1  0.25039300  0.75070969  0.33225804  1
  Al0+  Al65  1  0.25077454  0.75015118  0.67017271  1
  Al0+  Al66  1  0.75152981  0.25205450  0.00203267  1
  Al0+  Al67  1  0.74824501  0.25007748  0.33872340  1
  Al0+  Al68  1  0.75015321  0.24947343  0.67129521  1
  Al0+  Al69  1  0.75239655  0.74993823  -0.00429846  1
  Al0+  Al70  1  0.75034690  0.74892848  0.32994038  1
  Al0+  Al71  1  0.74943603  0.74908280  0.66157900  1
  Al0+  Al72  1  0.67716921  0.42807955  0.34686994  1
  Al0+  Al73  1  0.56960623  0.68051161  0.98517827  1
  Al0+  Al74  1  0.56913239  0.67780943  0.31762642  1
  Al0+  Al75  1  0.07143898  0.18195864  0.31847094  1
  Al0+  Al76  1  0.17944263  0.43025008  0.01585696  1
  Al0+  Al77  1  0.17825594  0.92609129  0.01550152  1
  Al0+  Al78  1  0.32082559  0.07077523  0.01422388  1
  Al0+  Al79  1  0.18056621  0.42931635  0.68017595  1
  Al0+  Al80  1  0.43047396  0.31837980  0.98707875  1
  Al0+  Al81  1  0.68087528  0.92725487  0.34913520  1
  Al0+  Al82  1  0.56937360  0.68138672  0.65040270  1
  Al0+  Al83  1  0.42928912  0.82501924  0.31887875  1
  Al0+  Al84  1  0.81868572  0.57103187  0.68015117  1
  Al0+  Al85  1  0.42824958  0.31766343  0.64914727  1
  Al0+  Al86  1  0.07272096  0.67615102  0.31964446  1
  Al0+  Al87  1  0.68075600  0.92679857  0.01512834  1
  Al0+  Al88  1  0.93155308  0.82093392  0.65235580  1
  Al0+  Al89  1  0.32046275  0.07184161  0.34925181  1
  Al0+  Al90  1  0.82247768  0.07312601  0.01697282  1
  Al0+  Al91  1  0.93322063  0.81831452  0.98432976  1
  Al0+  Al92  1  0.92879749  0.82133777  0.31601740  1
  Al0+  Al93  1  0.06784007  0.18243359  0.98455007  1
  Al0+  Al94  1  0.31895976  0.57272537  0.34654789  1
  Al0+  Al95  1  0.82233311  0.07070725  0.67963144  1
  Si0+  Si96  1  0.82028684  0.57151440  0.01608306  1
  Si0+  Si97  1  0.17923196  0.92900884  0.67924001  1
  Si0+  Si98  1  0.42651781  0.82482986  0.98413821  1
  Si0+  Si99  1  0.57543659  0.17581768  0.98460514  1
  Si0+  Si100  1  0.17630914  0.92872941  0.35075965  1
  Si0+  Si101  1  0.92488585  0.32553295  0.98244299  1
  Si0+  Si102  1  0.67826183  0.92749866  0.68325982  1
  Si0+  Si103  1  0.92729370  0.32360445  0.65317930  1
  Si0+  Si104  1  0.06942288  0.18029102  0.65092675  1
  Si0+  Si105  1  0.67735155  0.43079372  0.01167544  1
  Si0+  Si106  1  0.32058536  0.07135150  0.68101611  1
  Si0+  Si107  1  0.42970084  0.31951757  0.31835634  1
  Si0+  Si108  1  0.32355144  0.57300197  0.68446451  1
  Si0+  Si109  1  0.57241190  0.17936546  0.32043670  1
  Si0+  Si110  1  0.82348370  0.07144683  0.34951495  1
  Si0+  Si111  1  0.17711969  0.42824439  0.34941127  1
  Si0+  Si112  1  0.82197292  0.57073782  0.34921029  1
  Si0+  Si113  1  0.92456090  0.32124550  0.31782188  1
  Si0+  Si114  1  0.07450971  0.67367507  0.98294478  1
  Si0+  Si115  1  0.07262923  0.67488535  0.65382090  1
  Si0+  Si116  1  0.57464347  0.17738592  0.64972735  1
  Si0+  Si117  1  0.67537353  0.42753218  0.68501043  1
  Si0+  Si118  1  0.32549074  0.57056968  0.01463001  1
  Si0+  Si119  1  0.42472965  0.82480266  0.65160165  1
  O2-  O120  1  0.25556147  -0.00698397  0.06449182  1
  O2-  O121  1  0.24723819  -0.00470168  0.39639445  1
  O2-  O122  1  0.25462137  -0.00442575  0.72137211  1
  O2-  O123  1  0.25128637  0.50841597  0.05988219  1
  O2-  O124  1  0.23906262  0.50270272  0.39363272  1
  O2-  O125  1  0.25372221  0.50522812  0.72826221  1
  O2-  O126  1  0.74825965  0.00304071  0.06557231  1
  O2-  O127  1  0.75893293  -0.00033898  0.39494280  1
  O2-  O128  1  0.74626981  -0.00248960  0.72611607  1
  O2-  O129  1  0.74952384  0.49908405  0.05613651  1
  O2-  O130  1  0.75192805  0.50282104  0.39295560  1
  O2-  O131  1  0.74303183  0.49734966  0.72913122  1
  O2-  O132  1  -0.00563599  0.25480584  0.27300709  1
  O2-  O133  1  -0.00350867  0.25065436  0.61042821  1
  O2-  O134  1  -0.00848599  0.25545970  0.93686772  1
  O2-  O135  1  0.00442948  0.75099781  0.26879073  1
  O2-  O136  1  0.00605744  0.74461724  0.60847286  1
  O2-  O137  1  0.01060340  0.74583049  0.93690228  1
  O2-  O138  1  0.50043967  0.24845737  0.27640962  1
  O2-  O139  1  0.50519341  0.24449898  0.60335706  1
  O2-  O140  1  0.50368490  0.24156076  0.93989171  1
  O2-  O141  1  0.50020386  0.75264589  0.26753161  1
  O2-  O142  1  0.49302679  0.75611207  0.60758926  1
  O2-  O143  1  0.49572063  0.75681076  0.93878059  1
  O2-  O144  1  0.06956226  0.18485793  0.09724440  1
  O2-  O145  1  0.07063828  0.18407623  0.43267891  1
  O2-  O146  1  0.07120254  0.17970158  0.75568723  1
  O2-  O147  1  0.07027864  0.67095631  0.08808147  1
  O2-  O148  1  0.06879589  0.67602515  0.43417826  1
  O2-  O149  1  0.07175523  0.67491775  0.75926148  1
  O2-  O150  1  0.57689925  0.18001477  0.09027186  1
  O2-  O151  1  0.57299621  0.18246002  0.42568708  1
  O2-  O152  1  0.57407126  0.17885931  0.75517877  1
  O2-  O153  1  0.56799931  0.67571166  0.09750875  1
  O2-  O154  1  0.56799864  0.67795427  0.43129938  1
  O2-  O155  1  0.57002279  0.68327424  0.76390792  1
  O2-  O156  1  0.18151637  0.42596101  0.24407784  1
  O2-  O157  1  0.18089793  0.42893614  0.56702698  1
  O2-  O158  1  0.18126958  0.42880163  0.90233598  1
  O2-  O159  1  0.17537260  0.93148350  0.24571043  1
  O2-  O160  1  0.17800042  0.92980143  0.57436827  1
  O2-  O161  1  0.17835491  0.93114120  0.90060620  1
  O2-  O162  1  0.67806357  0.42700235  0.23315651  1
  O2-  O163  1  0.67811770  0.42651377  0.57940594  1
  O2-  O164  1  0.67799105  0.43186211  0.90666817  1
  O2-  O165  1  0.67986237  0.92893976  0.23656844  1
  O2-  O166  1  0.67827297  0.92903508  0.57766826  1
  O2-  O167  1  0.68413925  0.92671787  0.90094753  1
  O2-  O168  1  0.43345373  0.32113495  0.10036738  1
  O2-  O169  1  0.42908474  0.31766351  0.42359914  1
  O2-  O170  1  0.42642594  0.31479240  0.76231714  1
  O2-  O171  1  0.42637940  0.82392411  0.08911656  1
  O2-  O172  1  0.43232611  0.82287840  0.43327844  1
  O2-  O173  1  0.42230605  0.82513896  0.75710513  1
  O2-  O174  1  0.92396326  0.32715898  0.08788990  1
  O2-  O175  1  0.92488358  0.32082471  0.42398256  1
  O2-  O176  1  0.92822615  0.32505711  0.75784489  1
  O2-  O177  1  0.93099270  0.81524480  0.09669810  1
  O2-  O178  1  0.92924382  0.81984106  0.43026935  1
  O2-  O179  1  0.93294835  0.82298972  0.76538702  1
  O2-  O180  1  0.31865588  0.07577249  0.23696635  1
  O2-  O181  1  0.31856130  0.07300661  0.57597158  1
  O2-  O182  1  0.31695942  0.07138023  0.89957739  1
  O2-  O183  1  0.32339114  0.56549098  0.23359732  1
  O2-  O184  1  0.32120697  0.57345731  0.57897669  1
  O2-  O185  1  0.32658201  0.56749542  0.90878766  1
  O2-  O186  1  0.81954935  0.07552442  0.24463338  1
  O2-  O187  1  0.82293065  0.07070987  0.56647411  1
  O2-  O188  1  0.82183738  0.07056175  0.90271145  1
  O2-  O189  1  0.82274240  0.56770597  0.24345831  1
  O2-  O190  1  0.81987255  0.56823774  0.56731051  1
  O2-  O191  1  0.82025594  0.57123876  0.91060505  1
  O2-  O192  1  0.04464681  0.08594037  0.26326357  1
  O2-  O193  1  0.04219084  0.08941401  0.60155865  1
  O2-  O194  1  0.03932381  0.08553440  0.92958248  1
  O2-  O195  1  0.04293536  0.57793445  0.26558350  1
  O2-  O196  1  0.04642300  0.58094206  0.60900635  1
  O2-  O197  1  0.04344543  0.58061343  0.93763663  1
  O2-  O198  1  0.54591312  0.08681610  0.27605423  1
  O2-  O199  1  0.54981473  0.08242377  0.60535943  1
  O2-  O200  1  0.55426237  0.08075908  0.93971779  1
  O2-  O201  1  0.53713396  0.57862746  0.26749984  1
  O2-  O202  1  0.54176594  0.58367907  0.59743380  1
  O2-  O203  1  0.53858896  0.58597795  0.92620708  1
  O2-  O204  1  0.16678810  0.21627049  0.26454666  1
  O2-  O205  1  0.15996038  0.21065897  0.60236864  1
  O2-  O206  1  0.16338240  0.21583721  0.92931928  1
  O2-  O207  1  0.17297334  0.69739928  0.26892167  1
  O2-  O208  1  0.16807113  0.69911772  0.61003474  1
  O2-  O209  1  0.17120506  0.69066684  0.93918148  1
  O2-  O210  1  0.66346224  0.20855320  0.27231239  1
  O2-  O211  1  0.66836798  0.20373199  0.60360944  1
  O2-  O212  1  0.66795736  0.20550217  0.93751686  1
  O2-  O213  1  0.66908705  0.70099712  0.26671465  1
  O2-  O214  1  0.66522749  0.71113049  0.59522270  1
  O2-  O215  1  0.66630167  0.71144804  0.93073300  1
  O2-  O216  1  0.08192356  0.45538338  0.07103232  1
  O2-  O217  1  0.07974243  0.44543099  0.39151389  1
  O2-  O218  1  0.08428606  0.45524242  0.73745897  1
  O2-  O219  1  0.08280429  0.96125656  0.06775028  1
  O2-  O220  1  0.08347495  0.95978326  0.39682520  1
  O2-  O221  1  0.08969141  0.96296008  0.72694262  1
  O2-  O222  1  0.58577139  0.46084515  0.05790564  1
  O2-  O223  1  0.58177591  0.45731938  0.40328787  1
  O2-  O224  1  0.57999302  0.45277443  0.72710829  1
  O2-  O225  1  0.58110385  0.94970623  0.06749935  1
  O2-  O226  1  0.58727703  0.96173764  0.40708521  1
  O2-  O227  1  0.58368328  0.95089979  0.72976777  1
  O2-  O228  1  0.21462342  0.33556048  0.06906098  1
  O2-  O229  1  0.20947908  0.33776374  0.39782544  1
  O2-  O230  1  0.21465568  0.33264021  0.73312664  1
  O2-  O231  1  0.19652465  0.82379170  0.06404814  1
  O2-  O232  1  0.19829660  0.83419802  0.39629790  1
  O2-  O233  1  0.20109418  0.83615255  0.72840127  1
  O2-  O234  1  0.70166177  0.33866064  0.06039966  1
  O2-  O235  1  0.70796043  0.33276985  0.40499098  1
  O2-  O236  1  0.70035752  0.33410507  0.73148463  1
  O2-  O237  1  0.71452091  0.82944577  0.06688192  1
  O2-  O238  1  0.71071599  0.82941308  0.40149990  1
  O2-  O239  1  0.70553041  0.83400149  0.72699753  1
  O2-  O240  1  0.45831621  0.41094593  0.27234716  1
  O2-  O241  1  0.45629066  0.41470087  0.59522492  1
  O2-  O242  1  0.46292623  0.41171028  0.92735354  1
  O2-  O243  1  0.45700054  0.92576214  0.27106349  1
  O2-  O244  1  0.44939909  0.91981357  0.60707494  1
  O2-  O245  1  0.45069596  0.91935014  0.93811824  1
  O2-  O246  1  0.94582450  0.41511330  0.27098334  1
  O2-  O247  1  0.95817392  0.41422164  0.60485104  1
  O2-  O248  1  0.95344929  0.41938760  0.93773064  1
  O2-  O249  1  0.95468857  0.92008269  0.26356987  1
  O2-  O250  1  0.96410598  0.91608275  0.59612819  1
  O2-  O251  1  0.96293857  0.91593580  0.93130405  1
  O2-  O252  1  0.33802860  0.29139162  0.27165437  1
  O2-  O253  1  0.33306408  0.28408612  0.59365083  1
  O2-  O254  1  0.33441980  0.28703185  0.93220445  1
  O2-  O255  1  0.32937774  0.80106449  0.26848667  1
  O2-  O256  1  0.33045794  0.80046665  0.60520054  1
  O2-  O257  1  0.33242498  0.79890952  0.93747203  1
  O2-  O258  1  0.83069011  0.29486896  0.27242255  1
  O2-  O259  1  0.83394517  0.29832697  0.60704145  1
  O2-  O260  1  0.83023437  0.30448978  0.93568955  1
  O2-  O261  1  0.83249931  0.78875324  0.26258141  1
  O2-  O262  1  0.83527747  0.78985210  0.59913648  1
  O2-  O263  1  0.83826099  0.78440502  0.92855727  1
  O2-  O264  1  0.42205822  0.05246743  0.06496727  1
  O2-  O265  1  0.41675301  0.04592223  0.40701372  1
  O2-  O266  1  0.41487163  0.05126911  0.72751111  1
  O2-  O267  1  0.41677736  0.53634067  0.06002053  1
  O2-  O268  1  0.41150188  0.53514547  0.40466658  1
  O2-  O269  1  0.41737043  0.54399229  0.72766903  1
  O2-  O270  1  0.92009512  0.04236677  0.06748643  1
  O2-  O271  1  0.91961390  0.04981193  0.39212873  1
  O2-  O272  1  0.91943427  0.03861056  0.73236449  1
  O2-  O273  1  0.91102013  0.54424188  0.06534574  1
  O2-  O274  1  0.91470940  0.54299710  0.39702711  1
  O2-  O275  1  0.91357648  0.53947271  0.73762182  1
  O2-  O276  1  0.28633288  0.16737600  0.06614298  1
  O2-  O277  1  0.28459052  0.16753175  0.40442962  1
  O2-  O278  1  0.28676476  0.16115429  0.72793171  1
  O2-  O279  1  0.30823196  0.66628224  0.05875273  1
  O2-  O280  1  0.29477952  0.67063022  0.40218423  1
  O2-  O281  1  0.30181462  0.66749971  0.73149149  1
  O2-  O282  1  0.80003080  0.17450112  0.06707895  1
  O2-  O283  1  0.79491339  0.16366344  0.39816883  1
  O2-  O284  1  0.79543914  0.16808790  0.73489012  1
  O2-  O285  1  0.79015218  0.66189153  0.06260264  1
  O2-  O286  1  0.79715629  0.66420682  0.39458587  1
  O2-  O287  1  0.78663561  0.66774312  0.73372159  1
