# generated using pymatgen
data_Ca2Al2SiO7
_symmetry_space_group_name_H-M   'P 1'
_cell_length_a   15.46965819
_cell_length_b   15.46640095
_cell_length_c   15.29035849
_cell_angle_alpha   89.99764668
_cell_angle_beta   89.99106069
_cell_angle_gamma   90.01124890
_symmetry_Int_Tables_number   1
_chemical_formula_structural   Ca2Al2SiO7
_chemical_formula_sum   'Ca48 Al48 Si24 O168'
_cell_volume   3658.37007882
_cell_formula_units_Z   24
loop_
 _symmetry_equiv_pos_site_id
 _symmetry_equiv_pos_as_xyz
  1  'x, y, z'
loop_
 _atom_type_symbol
 _atom_type_oxidation_number
  Ca2+  2.0
  Al0+  0.0
  Si0+  0.0
  O2-  -2.0
loop_
 _atom_site_type_symbol
 _atom_site_label
 _atom_site_symmetry_multiplicity
 _atom_site_fract_x
 _atom_site_fract_y
 _atom_site_fract_z
 _atom_site_occupancy
  Ca2+  Ca0  1  0.17010757  0.08061728  0.17467983  1
  Ca2+  Ca1  1  0.15421771  0.07564691  0.50047940  1
  Ca2+  Ca2  1  0.16884330  0.08664448  0.83817990  1
  Ca2+  Ca3  1  0.16277490  0.57238160  0.17325338  1
  Ca2+  Ca4  1  0.15661083  0.58178153  0.50020340  1
  Ca2+  Ca5  1  0.17028675  0.58214520  0.84215433  1
  Ca2+  Ca6  1  0.67885922  0.08344497  0.17127549  1
  Ca2+  Ca7  1  0.68048398  0.08703777  0.50091157  1
  Ca2+  Ca8  1  0.68121384  0.07525753  0.84106534  1
  Ca2+  Ca9  1  0.67549735  0.57435211  0.17589595  1
  Ca2+  Ca10  1  0.67700701  0.57717124  0.50297296  1
  Ca2+  Ca11  1  0.67306768  0.58121271  0.83197173  1
  Ca2+  Ca12  1  0.08335319  0.33222533  0.16164975  1
  Ca2+  Ca13  1  0.08529481  0.32109655  0.49278836  1
  Ca2+  Ca14  1  0.07919912  0.32999963  0.83351017  1
  Ca2+  Ca15  1  0.07470951  0.83234789  0.16962509  1
  Ca2+  Ca16  1  0.07410512  0.82178973  0.49224258  1
  Ca2+  Ca17  1  0.07187216  0.82938933  0.82605414  1
  Ca2+  Ca18  1  0.58500952  0.32757599  0.16231172  1
  Ca2+  Ca19  1  0.59062193  0.33236570  0.49167292  1
  Ca2+  Ca20  1  0.57561833  0.34002389  0.82932169  1
  Ca2+  Ca21  1  0.57999997  0.83801342  0.16218145  1
  Ca2+  Ca22  1  0.57355517  0.83719863  0.49126561  1
  Ca2+  Ca23  1  0.58477386  0.83748567  0.83425083  1
  Ca2+  Ca24  1  0.32484780  0.41588518  0.16607146  1
  Ca2+  Ca25  1  0.32484080  0.41420542  0.49871652  1
  Ca2+  Ca26  1  0.32452343  0.42046614  0.84719437  1
  Ca2+  Ca27  1  0.32826457  0.92001769  0.17455203  1
  Ca2+  Ca28  1  0.32538158  0.91094941  0.49718429  1
  Ca2+  Ca29  1  0.32766722  0.92599028  0.84296895  1
  Ca2+  Ca30  1  0.83510501  0.42113183  0.17766681  1
  Ca2+  Ca31  1  0.82738521  0.42782257  0.50264348  1
  Ca2+  Ca32  1  0.83389866  0.41913139  0.83554383  1
  Ca2+  Ca33  1  0.83994751  0.92390945  0.17005840  1
  Ca2+  Ca34  1  0.85015600  0.92585124  0.50122423  1
  Ca2+  Ca35  1  0.83879976  0.92335132  0.84016081  1
  Ca2+  Ca36  1  0.42276694  0.16920923  0.16008819  1
  Ca2+  Ca37  1  0.42982237  0.16913791  0.48970983  1
  Ca2+  Ca38  1  0.41363701  0.17195595  0.83417402  1
  Ca2+  Ca39  1  0.41485948  0.66835845  0.16471292  1
  Ca2+  Ca40  1  0.41968113  0.67296137  0.49157955  1
  Ca2+  Ca41  1  0.41699884  0.66282933  0.83149853  1
  Ca2+  Ca42  1  0.91893801  0.16811621  0.16340820  1
  Ca2+  Ca43  1  0.92226358  0.16235307  0.49392975  1
  Ca2+  Ca44  1  0.91408057  0.16867700  0.82974824  1
  Ca2+  Ca45  1  0.91454123  0.67496598  0.16298951  1
  Ca2+  Ca46  1  0.91580441  0.67213114  0.49264144  1
  Ca2+  Ca47  1  0.91688223  0.67806932  0.82407071  1
  Al0+  Al48  1  0.00115098  -0.00090563  -0.00065287  1
  Al0+  Al49  1  0.00316541  -0.00080119  0.33277048  1
  Al0+  Al50  1  0.00128024  -0.00012512  0.66762376  1
  Al0+  Al51  1  0.00019348  0.49842565  -0.00172145  1
  Al0+  Al52  1  0.00119778  0.49891110  0.34157926  1
  Al0+  Al53  1  -0.00070814  0.49825035  0.66956463  1
  Al0+  Al54  1  0.50043154  -0.00058622  0.00365717  1
  Al0+  Al55  1  0.50111721  0.00241335  0.32452082  1
  Al0+  Al56  1  0.49919054  0.00287316  0.66618824  1
  Al0+  Al57  1  0.50011680  0.50023909  -0.00077545  1
  Al0+  Al58  1  0.49782964  0.50027504  0.33605273  1
  Al0+  Al59  1  0.49649453  0.50129484  0.66712748  1
  Al0+  Al60  1  0.25226461  0.25021235  0.00337431  1
  Al0+  Al61  1  0.25277615  0.24996499  0.33443739  1
  Al0+  Al62  1  0.25097740  0.25070473  0.66218485  1
  Al0+  Al63  1  0.25253383  0.75015935  0.00217059  1
  Al0+  Al64  1  0.24977195  0.75081687  0.32886448  1
  Al0+  Al65  1  0.24856898  0.75108680  0.66607202  1
  Al0+  Al66  1  0.75114760  0.24786071  -0.00303321  1
  Al0+  Al67  1  0.75078227  0.24800569  0.33614141  1
  Al0+  Al68  1  0.74719066  0.24898730  0.67572099  1
  Al0+  Al69  1  0.74842652  0.74896537  -0.00220186  1
  Al0+  Al70  1  0.74764345  0.75173989  0.33261543  1
  Al0+  Al71  1  0.74620448  0.75052397  0.66434221  1
  Al0+  Al72  1  0.82199713  0.57420664  0.34708678  1
  Al0+  Al73  1  0.82332983  0.07129909  0.01694112  1
  Al0+  Al74  1  0.43123557  0.32004765  0.98641032  1
  Al0+  Al75  1  0.32056154  0.07158296  0.01381141  1
  Al0+  Al76  1  0.57397340  0.18130874  0.31849559  1
  Al0+  Al77  1  0.18078277  0.92913845  0.34781963  1
  Al0+  Al78  1  0.67707269  0.42961170  0.68353802  1
  Al0+  Al79  1  0.67828003  0.42794339  0.34530821  1
  Al0+  Al80  1  0.32363651  0.57228292  0.01588781  1
  Al0+  Al81  1  0.07275928  0.17865754  0.31928662  1
  Al0+  Al82  1  0.82172988  0.57283971  0.68347008  1
  Al0+  Al83  1  0.92907689  0.82015282  0.98528568  1
  Al0+  Al84  1  0.92723536  0.82068597  0.31711313  1
  Al0+  Al85  1  0.92779235  0.32164402  0.98710827  1
  Al0+  Al86  1  0.07017704  0.67563939  0.31697440  1
  Al0+  Al87  1  0.82209268  0.06823987  0.34732354  1
  Al0+  Al88  1  0.07108558  0.18186792  0.65376446  1
  Al0+  Al89  1  0.92658563  0.82043158  0.65147010  1
  Al0+  Al90  1  0.42957559  0.82073242  0.31819466  1
  Al0+  Al91  1  0.17935881  0.42741292  0.34941317  1
  Al0+  Al92  1  0.82244114  0.06808303  0.68086137  1
  Al0+  Al93  1  0.17761606  0.43045094  0.01485722  1
  Al0+  Al94  1  0.68071593  0.92653089  0.01526143  1
  Al0+  Al95  1  0.07221861  0.67706530  0.65326113  1
  Si0+  Si96  1  0.56959200  0.18028157  0.65262630  1
  Si0+  Si97  1  0.56994601  0.67842838  0.98353701  1
  Si0+  Si98  1  0.42877277  0.82233410  0.98331789  1
  Si0+  Si99  1  0.32423555  0.07149308  0.35122070  1
  Si0+  Si100  1  0.56772332  0.67789641  0.65080546  1
  Si0+  Si101  1  0.07256891  0.67747265  0.98472369  1
  Si0+  Si102  1  0.42879604  0.82326888  0.65356900  1
  Si0+  Si103  1  0.07274472  0.17843359  0.98535607  1
  Si0+  Si104  1  0.32264048  0.07210632  0.68048099  1
  Si0+  Si105  1  0.18107682  0.92988195  0.68245922  1
  Si0+  Si106  1  0.42826372  0.32353881  0.31589039  1
  Si0+  Si107  1  0.31787351  0.57216197  0.68033094  1
  Si0+  Si108  1  0.18007514  0.42560317  0.68156217  1
  Si0+  Si109  1  0.82047965  0.56965690  0.01284238  1
  Si0+  Si110  1  0.57101334  0.67665748  0.31603435  1
  Si0+  Si111  1  0.67542981  0.92946135  0.34945883  1
  Si0+  Si112  1  0.17846410  0.92723281  0.01675877  1
  Si0+  Si113  1  0.67232656  0.92944150  0.68107193  1
  Si0+  Si114  1  0.42896138  0.32269978  0.65007212  1
  Si0+  Si115  1  0.92397170  0.32114089  0.65013944  1
  Si0+  Si116  1  0.92980976  0.31993988  0.32084127  1
  Si0+  Si117  1  0.32068014  0.57279035  0.35120096  1
  Si0+  Si118  1  0.57242538  0.17611975  0.98007833  1
  Si0+  Si119  1  0.67864604  0.42873618  0.01277764  1
  O2-  O120  1  0.24640724  -0.00294024  0.05992714  1
  O2-  O121  1  0.25435324  0.00514279  0.39693793  1
  O2-  O122  1  0.25052404  0.00309022  0.72386144  1
  O2-  O123  1  0.24792830  0.50438162  0.06461492  1
  O2-  O124  1  0.25170412  0.50509395  0.39647004  1
  O2-  O125  1  0.24410818  0.50406872  0.72187614  1
  O2-  O126  1  0.75268828  -0.00258421  0.06588030  1
  O2-  O127  1  0.74899277  -0.00859213  0.39495628  1
  O2-  O128  1  0.74881685  -0.01022887  0.72365351  1
  O2-  O129  1  0.75498156  0.49336882  0.05484578  1
  O2-  O130  1  0.74808616  0.50202117  0.39436116  1
  O2-  O131  1  0.75181475  0.49830714  0.73441124  1
  O2-  O132  1  0.00015265  0.25486796  0.27365875  1
  O2-  O133  1  -0.00607450  0.25362838  0.60610974  1
  O2-  O134  1  0.00148116  0.24465742  0.94138234  1
  O2-  O135  1  -0.00536577  0.74394340  0.26728238  1
  O2-  O136  1  -0.00627069  0.74236448  0.60417878  1
  O2-  O137  1  0.00502138  0.74621809  0.93928458  1
  O2-  O138  1  0.50074030  0.25825417  0.27341919  1
  O2-  O139  1  0.50361579  0.25554299  0.60888841  1
  O2-  O140  1  0.50524375  0.24659624  0.93529065  1
  O2-  O141  1  0.50460705  0.74684034  0.27074847  1
  O2-  O142  1  0.50042650  0.75361259  0.61045665  1
  O2-  O143  1  0.49862647  0.75024938  0.94095102  1
  O2-  O144  1  0.07354928  0.17938831  0.09070762  1
  O2-  O145  1  0.07021653  0.17923081  0.43275433  1
  O2-  O146  1  0.07655460  0.18479317  0.76680856  1
  O2-  O147  1  0.07026087  0.67647093  0.08976495  1
  O2-  O148  1  0.07049444  0.67872061  0.43062724  1
  O2-  O149  1  0.07937993  0.68392017  0.76685078  1
  O2-  O150  1  0.57191867  0.17834863  0.08552776  1
  O2-  O151  1  0.57176136  0.18089888  0.43247393  1
  O2-  O152  1  0.56407857  0.17718983  0.75721095  1
  O2-  O153  1  0.56977972  0.67701645  0.08819001  1
  O2-  O154  1  0.56723112  0.67708696  0.42198190  1
  O2-  O155  1  0.56474405  0.67572631  0.75605359  1
  O2-  O156  1  0.18196210  0.42567099  0.23683042  1
  O2-  O157  1  0.18600064  0.42139642  0.57687949  1
  O2-  O158  1  0.17981193  0.43079591  0.90038308  1
  O2-  O159  1  0.18306073  0.93151937  0.23474265  1
  O2-  O160  1  0.18404436  0.92846803  0.57774746  1
  O2-  O161  1  0.18122454  0.92699851  0.91038788  1
  O2-  O162  1  0.67987338  0.42851563  0.23110152  1
  O2-  O163  1  0.67532904  0.43190859  0.57038826  1
  O2-  O164  1  0.67582065  0.43364321  0.90786299  1
  O2-  O165  1  0.67278829  0.93263752  0.24435192  1
  O2-  O166  1  0.65998328  0.93604631  0.57668391  1
  O2-  O167  1  0.68058719  0.92816178  0.90086709  1
  O2-  O168  1  0.43446690  0.31949658  0.09896819  1
  O2-  O169  1  0.42723979  0.32135678  0.42219284  1
  O2-  O170  1  0.42667110  0.32154334  0.75509586  1
  O2-  O171  1  0.42928762  0.82282290  0.08783895  1
  O2-  O172  1  0.43119930  0.81947606  0.43248699  1
  O2-  O173  1  0.42877818  0.82357529  0.75867160  1
  O2-  O174  1  0.92750594  0.32393288  0.09997711  1
  O2-  O175  1  0.92976618  0.31704067  0.42654980  1
  O2-  O176  1  0.92638918  0.31948025  0.75609520  1
  O2-  O177  1  0.92881066  0.81885007  0.09773849  1
  O2-  O178  1  0.93099129  0.82146290  0.43054761  1
  O2-  O179  1  0.93077837  0.82168139  0.76555854  1
  O2-  O180  1  0.32362205  0.07012211  0.24568669  1
  O2-  O181  1  0.32727993  0.07014616  0.57604313  1
  O2-  O182  1  0.31879214  0.07010592  0.89948016  1
  O2-  O183  1  0.32303579  0.57077013  0.24610247  1
  O2-  O184  1  0.32153001  0.57236151  0.57564079  1
  O2-  O185  1  0.32264509  0.57128076  0.90124462  1
  O2-  O186  1  0.82087184  0.07048630  0.23481601  1
  O2-  O187  1  0.82109479  0.06962375  0.56788482  1
  O2-  O188  1  0.82197938  0.07048289  0.90291904  1
  O2-  O189  1  0.82023391  0.57130351  0.23260596  1
  O2-  O190  1  0.81744707  0.57283552  0.57046359  1
  O2-  O191  1  0.81759946  0.57084328  0.90791456  1
  O2-  O192  1  0.04327614  0.08284449  0.26521900  1
  O2-  O193  1  0.04303340  0.08351803  0.60278365  1
  O2-  O194  1  0.05153691  0.08381738  0.93897802  1
  O2-  O195  1  0.04698392  0.57373340  0.26927205  1
  O2-  O196  1  0.05369574  0.57395488  0.60653822  1
  O2-  O197  1  0.04824751  0.58407273  0.93775731  1
  O2-  O198  1  0.54087875  0.08754438  0.26162964  1
  O2-  O199  1  0.53636966  0.09108196  0.60278408  1
  O2-  O200  1  0.54295331  0.08291176  0.93518134  1
  O2-  O201  1  0.54259958  0.58353660  0.26999258  1
  O2-  O202  1  0.53299721  0.58919748  0.60158660  1
  O2-  O203  1  0.54010732  0.58837721  0.93344375  1
  O2-  O204  1  0.17143790  0.20697061  0.26859813  1
  O2-  O205  1  0.16707695  0.21296798  0.59757725  1
  O2-  O206  1  0.16583018  0.20652044  0.93891657  1
  O2-  O207  1  0.16777860  0.70674096  0.26459553  1
  O2-  O208  1  0.16904103  0.71086548  0.59848868  1
  O2-  O209  1  0.16811279  0.70247474  0.94102827  1
  O2-  O210  1  0.67002223  0.21128042  0.26348587  1
  O2-  O211  1  0.66326449  0.20448916  0.60786254  1
  O2-  O212  1  0.66638748  0.19958108  0.93444926  1
  O2-  O213  1  0.66487122  0.69912739  0.27024869  1
  O2-  O214  1  0.65981696  0.70091893  0.60318590  1
  O2-  O215  1  0.66017647  0.70676209  0.93293288  1
  O2-  O216  1  0.07867906  0.45621962  0.06782907  1
  O2-  O217  1  0.08360114  0.45308055  0.40698566  1
  O2-  O218  1  0.08521422  0.44295285  0.72618331  1
  O2-  O219  1  0.08529180  0.95205890  0.06195672  1
  O2-  O220  1  0.08590502  0.96087986  0.40362390  1
  O2-  O221  1  0.09041760  0.95767008  0.73105004  1
  O2-  O222  1  0.58979488  0.46186029  0.06146373  1
  O2-  O223  1  0.57859385  0.45350920  0.39829724  1
  O2-  O224  1  0.57792763  0.46293301  0.73472793  1
  O2-  O225  1  0.58133449  0.95357700  0.06607968  1
  O2-  O226  1  0.58301759  0.96112212  0.39573918  1
  O2-  O227  1  0.58254471  0.96235309  0.73308320  1
  O2-  O228  1  0.20935941  0.33320848  0.06682415  1
  O2-  O229  1  0.21626782  0.33234438  0.40463838  1
  O2-  O230  1  0.21731955  0.33753391  0.73069114  1
  O2-  O231  1  0.20595851  0.83472849  0.06261272  1
  O2-  O232  1  0.21574731  0.83343987  0.40147866  1
  O2-  O233  1  0.21255570  0.83984969  0.73170496  1
  O2-  O234  1  0.69952064  0.33365328  0.05511666  1
  O2-  O235  1  0.70801690  0.33132805  0.40017377  1
  O2-  O236  1  0.69833050  0.33021895  0.73757960  1
  O2-  O237  1  0.70284359  0.82597113  0.06633197  1
  O2-  O238  1  0.69054408  0.83266497  0.39261843  1
  O2-  O239  1  0.68752989  0.83195030  0.72210642  1
  O2-  O240  1  0.44807878  0.41912518  0.27231847  1
  O2-  O241  1  0.45170078  0.41607204  0.60341902  1
  O2-  O242  1  0.46176328  0.41685945  0.93093863  1
  O2-  O243  1  0.45924228  0.91672803  0.26324387  1
  O2-  O244  1  0.45569588  0.91504665  0.60534526  1
  O2-  O245  1  0.45781409  0.91371718  0.93455704  1
  O2-  O246  1  0.95287479  0.41499970  0.27781861  1
  O2-  O247  1  0.94743146  0.41610953  0.60690396  1
  O2-  O248  1  0.95990318  0.41690510  0.92943448  1
  O2-  O249  1  0.96413313  0.91659100  0.26469719  1
  O2-  O250  1  0.96369743  0.91683766  0.60083098  1
  O2-  O251  1  0.96093892  0.91708009  0.93154502  1
  O2-  O252  1  0.33707035  0.29315576  0.26896108  1
  O2-  O253  1  0.34019132  0.29003615  0.60003571  1
  O2-  O254  1  0.33448432  0.28811188  0.93177853  1
  O2-  O255  1  0.33464257  0.79015680  0.26277758  1
  O2-  O256  1  0.33796460  0.79374792  0.60585491  1
  O2-  O257  1  0.33658365  0.79621606  0.93468835  1
  O2-  O258  1  0.83731590  0.29267528  0.27413120  1
  O2-  O259  1  0.82906278  0.29480469  0.60809682  1
  O2-  O260  1  0.83144805  0.29276095  0.93019954  1
  O2-  O261  1  0.82552743  0.80025260  0.26678848  1
  O2-  O262  1  0.82418944  0.80301408  0.60199465  1
  O2-  O263  1  0.83240896  0.78769862  0.93182335  1
  O2-  O264  1  0.41671167  0.04094829  0.06696039  1
  O2-  O265  1  0.41792887  0.04249595  0.39573808  1
  O2-  O266  1  0.41254467  0.04256642  0.73108384  1
  O2-  O267  1  0.42098999  0.54101305  0.06849307  1
  O2-  O268  1  0.41375386  0.54688996  0.39966706  1
  O2-  O269  1  0.40826354  0.54215054  0.72945668  1
  O2-  O270  1  0.92326437  0.04499528  0.06680066  1
  O2-  O271  1  0.91914893  0.03863812  0.40064922  1
  O2-  O272  1  0.91938683  0.03999765  0.73602462  1
  O2-  O273  1  0.91363206  0.54655752  0.05817746  1
  O2-  O274  1  0.91781026  0.54442291  0.40327259  1
  O2-  O275  1  0.92135921  0.54724226  0.73649190  1
  O2-  O276  1  0.29338875  0.16729709  0.06938822  1
  O2-  O277  1  0.30336837  0.16616203  0.39646770  1
  O2-  O278  1  0.29461602  0.16480723  0.72637663  1
  O2-  O279  1  0.30296106  0.67331482  0.06591095  1
  O2-  O280  1  0.29750263  0.66738226  0.39562748  1
  O2-  O281  1  0.29418651  0.66503486  0.72880123  1
  O2-  O282  1  0.79309400  0.17037543  0.06773705  1
  O2-  O283  1  0.78871211  0.16331728  0.40276597  1
  O2-  O284  1  0.78846674  0.16279285  0.73675656  1
  O2-  O285  1  0.78631416  0.65882331  0.06030716  1
  O2-  O286  1  0.79139457  0.67227217  0.39986640  1
  O2-  O287  1  0.78737378  0.67125590  0.73523869  1
