# generated using pymatgen
data_Ca2Al2SiO7
_symmetry_space_group_name_H-M   'P 1'
_cell_length_a   15.45616194
_cell_length_b   15.45607347
_cell_length_c   15.28275981
_cell_angle_alpha   90.00909948
_cell_angle_beta   90.01092512
_cell_angle_gamma   90.00023587
_symmetry_Int_Tables_number   1
_chemical_formula_structural   Ca2Al2SiO7
_chemical_formula_sum   'Ca48 Al48 Si24 O168'
_cell_volume   3650.92243864
_cell_formula_units_Z   24
loop_
 _symmetry_equiv_pos_site_id
 _symmetry_equiv_pos_as_xyz
  1  'x, y, z'
loop_
 _atom_type_symbol
 _atom_type_oxidation_number
  Ca2+  2.0
  Al0+  0.0
  Si0+  0.0
  O2-  -2.0
loop_
 _atom_site_type_symbol
 _atom_site_label
 _atom_site_symmetry_multiplicity
 _atom_site_fract_x
 _atom_site_fract_y
 _atom_site_fract_z
 _atom_site_occupancy
  Ca2+  Ca0  1  0.17095841  0.08154459  0.17500644  1
  Ca2+  Ca1  1  0.16705918  0.07406321  0.50661283  1
  Ca2+  Ca2  1  0.17800789  0.07635496  0.83463879  1
  Ca2+  Ca3  1  0.15408969  0.57697659  0.17042927  1
  Ca2+  Ca4  1  0.16483542  0.57567275  0.50358356  1
  Ca2+  Ca5  1  0.16585559  0.57905035  0.83682111  1
  Ca2+  Ca6  1  0.66334206  0.08374915  0.16732594  1
  Ca2+  Ca7  1  0.66884869  0.07931087  0.50456375  1
  Ca2+  Ca8  1  0.66166890  0.06949006  0.83904523  1
  Ca2+  Ca9  1  0.67839633  0.58393621  0.17011106  1
  Ca2+  Ca10  1  0.66624577  0.57886868  0.51010564  1
  Ca2+  Ca11  1  0.67006665  0.58185331  0.83649771  1
  Ca2+  Ca12  1  0.07882847  0.33916666  0.16265606  1
  Ca2+  Ca13  1  0.08471331  0.33001454  0.49076327  1
  Ca2+  Ca14  1  0.08281764  0.34134611  0.83291269  1
  Ca2+  Ca15  1  0.08619353  0.82332654  0.16514179  1
  Ca2+  Ca16  1  0.07852817  0.83580938  0.48994068  1
  Ca2+  Ca17  1  0.07965328  0.82903253  0.82423961  1
  Ca2+  Ca18  1  0.58220493  0.31867237  0.16056273  1
  Ca2+  Ca19  1  0.58213332  0.32888732  0.49352415  1
  Ca2+  Ca20  1  0.58668244  0.32610043  0.82733238  1
  Ca2+  Ca21  1  0.57621128  0.83975380  0.16306914  1
  Ca2+  Ca22  1  0.57153952  0.83437658  0.50247140  1
  Ca2+  Ca23  1  0.58248987  0.83021429  0.82206811  1
  Ca2+  Ca24  1  0.31923077  0.41821179  0.17238731  1
  Ca2+  Ca25  1  0.32186992  0.42281711  0.50976506  1
  Ca2+  Ca26  1  0.32301289  0.42332209  0.83509325  1
  Ca2+  Ca27  1  0.32920734  0.92017033  0.17243490  1
  Ca2+  Ca28  1  0.32464596  0.91505825  0.50566493  1
  Ca2+  Ca29  1  0.33836099  0.92386508  0.83310668  1
  Ca2+  Ca30  1  0.84506388  0.41911539  0.16748220  1
  Ca2+  Ca31  1  0.82917596  0.41555164  0.50404508  1
  Ca2+  Ca32  1  0.83022950  0.42141831  0.84027338  1
  Ca2+  Ca33  1  0.82628258  0.91209164  0.17172987  1
  Ca2+  Ca34  1  0.83226705  0.91322127  0.50817454  1
  Ca2+  Ca35  1  0.82143634  0.90610011  0.83437680  1
  Ca2+  Ca36  1  0.42482408  0.15954776  0.16086344  1
  Ca2+  Ca37  1  0.42121383  0.16136000  0.49801488  1
  Ca2+  Ca38  1  0.41480094  0.16099594  0.83249929  1
  Ca2+  Ca39  1  0.41247295  0.67647541  0.16576041  1
  Ca2+  Ca40  1  0.41226577  0.67440979  0.50055872  1
  Ca2+  Ca41  1  0.42261257  0.67171752  0.81884248  1
  Ca2+  Ca42  1  0.92534110  0.17775225  0.16574164  1
  Ca2+  Ca43  1  0.92605120  0.17349352  0.48922761  1
  Ca2+  Ca44  1  0.91681295  0.17367414  0.83147254  1
  Ca2+  Ca45  1  0.92650680  0.66652657  0.16399139  1
  Ca2+  Ca46  1  0.92296707  0.67995450  0.49505589  1
  Ca2+  Ca47  1  0.91968906  0.66702796  0.83192372  1
  Al0+  Al48  1  -0.00206136  0.00055308  -0.00105002  1
  Al0+  Al49  1  -0.00224857  0.00248561  0.32740366  1
  Al0+  Al50  1  0.00055064  0.00251881  0.66851829  1
  Al0+  Al51  1  -0.00116288  0.50134209  -0.00264783  1
  Al0+  Al52  1  -0.00109414  0.50239391  0.33606165  1
  Al0+  Al53  1  -0.00274612  0.50023198  0.66765414  1
  Al0+  Al54  1  0.49975919  0.00005750  0.00360114  1
  Al0+  Al55  1  0.50102728  -0.00132102  0.32710620  1
  Al0+  Al56  1  0.50194336  -0.00078220  0.66842055  1
  Al0+  Al57  1  0.49897114  0.49949561  0.00244182  1
  Al0+  Al58  1  0.50122482  0.50036801  0.33201002  1
  Al0+  Al59  1  0.50049170  0.49667578  0.67103703  1
  Al0+  Al60  1  0.25100252  0.24966303  0.00867203  1
  Al0+  Al61  1  0.25269164  0.25060100  0.33589830  1
  Al0+  Al62  1  0.25033130  0.24950484  0.67383270  1
  Al0+  Al63  1  0.24980040  0.75034884  -0.00714183  1
  Al0+  Al64  1  0.25122233  0.75130759  0.32817502  1
  Al0+  Al65  1  0.24952503  0.74850971  0.66921638  1
  Al0+  Al66  1  0.74961489  0.24733451  -0.00972348  1
  Al0+  Al67  1  0.74983368  0.24946853  0.32573024  1
  Al0+  Al68  1  0.75080550  0.25045288  0.66913823  1
  Al0+  Al69  1  0.74868527  0.74905594  0.01103318  1
  Al0+  Al70  1  0.74916469  0.74945003  0.33389990  1
  Al0+  Al71  1  0.75132042  0.74925039  0.66161315  1
  Al0+  Al72  1  0.42801360  0.82211328  0.65200848  1
  Al0+  Al73  1  0.17657372  0.42918020  0.68229528  1
  Al0+  Al74  1  0.67873433  0.42687451  0.67966955  1
  Al0+  Al75  1  0.81893550  0.56847164  0.01476028  1
  Al0+  Al76  1  0.32214127  0.06939176  0.68029556  1
  Al0+  Al77  1  0.56842979  0.17880459  0.98221179  1
  Al0+  Al78  1  0.43045292  0.81947187  0.31856446  1
  Al0+  Al79  1  0.93198599  0.32015351  0.98358794  1
  Al0+  Al80  1  0.07097474  0.68117227  0.31974276  1
  Al0+  Al81  1  0.06943295  0.68065341  0.98358288  1
  Al0+  Al82  1  0.93033135  0.32180875  0.31969086  1
  Al0+  Al83  1  0.17576113  0.92681599  0.68093476  1
  Al0+  Al84  1  0.68225510  0.92959576  0.67729823  1
  Al0+  Al85  1  0.68083426  0.93002405  0.01557984  1
  Al0+  Al86  1  0.92613277  0.82386821  0.31716103  1
  Al0+  Al87  1  0.57200979  0.67580836  0.65277286  1
  Al0+  Al88  1  0.32149763  0.57177530  0.68093583  1
  Al0+  Al89  1  0.93091516  0.82217780  0.65463644  1
  Al0+  Al90  1  0.56928824  0.18001135  0.32031897  1
  Al0+  Al91  1  0.18028812  0.43285932  0.01509781  1
  Al0+  Al92  1  0.07508443  0.17881199  0.31937266  1
  Al0+  Al93  1  0.31906854  0.06848801  0.01637511  1
  Al0+  Al94  1  0.17828782  0.93019514  0.34423837  1
  Al0+  Al95  1  0.17856931  0.43018843  0.34796026  1
  Si0+  Si96  1  0.67957180  0.42813595  0.34602651  1
  Si0+  Si97  1  0.42778729  0.31959998  0.65302290  1
  Si0+  Si98  1  0.67824345  0.92884742  0.35017901  1
  Si0+  Si99  1  0.82332300  0.07394172  0.68335705  1
  Si0+  Si100  1  0.07182221  0.67665294  0.65001194  1
  Si0+  Si101  1  0.82055373  0.57175011  0.35149798  1
  Si0+  Si102  1  0.17558520  0.92617124  0.01578470  1
  Si0+  Si103  1  0.42633516  0.32280585  0.98304199  1
  Si0+  Si104  1  0.81985081  0.57175255  0.68256560  1
  Si0+  Si105  1  0.57238435  0.67821137  0.98786703  1
  Si0+  Si106  1  0.32475065  0.57260580  0.34911957  1
  Si0+  Si107  1  0.92803048  0.32122452  0.65150403  1
  Si0+  Si108  1  0.32391955  0.57525948  0.01747849  1
  Si0+  Si109  1  0.07241046  0.18123397  0.65367426  1
  Si0+  Si110  1  0.57189160  0.17917060  0.65175854  1
  Si0+  Si111  1  0.92482634  0.82239811  0.98453329  1
  Si0+  Si112  1  0.67680243  0.42436435  0.01703799  1
  Si0+  Si113  1  0.57282482  0.67514882  0.31534291  1
  Si0+  Si114  1  0.32473111  0.07074325  0.34964135  1
  Si0+  Si115  1  0.81890791  0.07270176  0.34651063  1
  Si0+  Si116  1  0.07531407  0.17626786  0.98208707  1
  Si0+  Si117  1  0.82297763  0.07484782  0.01754597  1
  Si0+  Si118  1  0.42813895  0.32508404  0.31711191  1
  Si0+  Si119  1  0.43080039  0.81994758  0.98397153  1
  O2-  O120  1  0.24034963  -0.00235692  0.06143025  1
  O2-  O121  1  0.25056022  0.00754205  0.39216539  1
  O2-  O122  1  0.25285706  -0.00572911  0.73002479  1
  O2-  O123  1  0.25526716  0.50736777  0.06250445  1
  O2-  O124  1  0.25580321  0.50365060  0.39242475  1
  O2-  O125  1  0.24590985  0.50393783  0.73160877  1
  O2-  O126  1  0.75758203  0.00300172  0.06214252  1
  O2-  O127  1  0.75275122  -0.00261051  0.39049927  1
  O2-  O128  1  0.75773158  0.00200707  0.72669471  1
  O2-  O129  1  0.74502113  0.49240363  0.06280693  1
  O2-  O130  1  0.74824182  0.50008341  0.39069499  1
  O2-  O131  1  0.75018108  0.50391357  0.72654912  1
  O2-  O132  1  0.00799536  0.25585471  0.26972915  1
  O2-  O133  1  0.00197470  0.25315721  0.61070473  1
  O2-  O134  1  0.00667270  0.24496302  0.93672380  1
  O2-  O135  1  0.00076171  0.75462344  0.26809635  1
  O2-  O136  1  0.00983276  0.75225417  0.60729416  1
  O2-  O137  1  -0.00225004  0.75954044  0.93896155  1
  O2-  O138  1  0.49354600  0.25320500  0.27305350  1
  O2-  O139  1  0.50015807  0.24952158  0.60997985  1
  O2-  O140  1  0.49693750  0.25707764  0.93646462  1
  O2-  O141  1  0.50473084  0.74410579  0.27095676  1
  O2-  O142  1  0.49736823  0.74580231  0.60340440  1
  O2-  O143  1  0.49833789  0.74462101  0.94438485  1
  O2-  O144  1  0.07407869  0.17642549  0.08746599  1
  O2-  O145  1  0.07115985  0.17859885  0.43365214  1
  O2-  O146  1  0.07045776  0.18133124  0.75876655  1
  O2-  O147  1  0.06834565  0.68039584  0.09648302  1
  O2-  O148  1  0.06880732  0.68039729  0.43336940  1
  O2-  O149  1  0.06652833  0.67382965  0.75563000  1
  O2-  O150  1  0.56707145  0.17937125  0.09557847  1
  O2-  O151  1  0.57041868  0.18114483  0.43395669  1
  O2-  O152  1  0.57267233  0.17973157  0.75656381  1
  O2-  O153  1  0.57179140  0.67989175  0.09310879  1
  O2-  O154  1  0.57305368  0.67248779  0.42044700  1
  O2-  O155  1  0.57380383  0.67878020  0.76706239  1
  O2-  O156  1  0.17842786  0.43255793  0.23479912  1
  O2-  O157  1  0.17720334  0.42771275  0.56857367  1
  O2-  O158  1  0.18146062  0.43463812  0.90223956  1
  O2-  O159  1  0.18268871  0.92982716  0.23095694  1
  O2-  O160  1  0.17278644  0.93172811  0.56714505  1
  O2-  O161  1  0.17745104  0.92621977  0.91035728  1
  O2-  O162  1  0.67928332  0.42952627  0.24111547  1
  O2-  O163  1  0.68281122  0.42250076  0.56604638  1
  O2-  O164  1  0.67739330  0.42699608  0.91140015  1
  O2-  O165  1  0.67716210  0.93035898  0.24490787  1
  O2-  O166  1  0.68148085  0.93373838  0.56408886  1
  O2-  O167  1  0.68103922  0.92779660  0.90236207  1
  O2-  O168  1  0.42891277  0.32218754  0.08883482  1
  O2-  O169  1  0.43133817  0.32749892  0.42289438  1
  O2-  O170  1  0.42842982  0.31826329  0.75799146  1
  O2-  O171  1  0.43097200  0.81949161  0.08945200  1
  O2-  O172  1  0.43134748  0.82103091  0.43110493  1
  O2-  O173  1  0.43466516  0.82405377  0.76590052  1
  O2-  O174  1  0.93375222  0.31978363  0.09647789  1
  O2-  O175  1  0.92622788  0.31814237  0.43372894  1
  O2-  O176  1  0.92612651  0.32000580  0.75646268  1
  O2-  O177  1  0.92435211  0.82018610  0.08983025  1
  O2-  O178  1  0.92475350  0.82141261  0.43094892  1
  O2-  O179  1  0.92787172  0.81767678  0.76785700  1
  O2-  O180  1  0.32682248  0.06743490  0.24398995  1
  O2-  O181  1  0.32062805  0.07210664  0.56669193  1
  O2-  O182  1  0.32078452  0.06547238  0.90348985  1
  O2-  O183  1  0.32811962  0.56972881  0.24338309  1
  O2-  O184  1  0.32121878  0.56806910  0.56700464  1
  O2-  O185  1  0.32599054  0.57396525  0.91235930  1
  O2-  O186  1  0.81454116  0.07516188  0.24171241  1
  O2-  O187  1  0.82080980  0.07744340  0.57748664  1
  O2-  O188  1  0.82194140  0.07545990  0.91182629  1
  O2-  O189  1  0.81994318  0.57181789  0.24631027  1
  O2-  O190  1  0.82068420  0.56902307  0.57682907  1
  O2-  O191  1  0.81537464  0.56943204  0.90153650  1
  O2-  O192  1  0.04114215  0.08465760  0.26204452  1
  O2-  O193  1  0.04352168  0.09018413  0.60542680  1
  O2-  O194  1  0.04903742  0.08233492  0.93570236  1
  O2-  O195  1  0.03640610  0.58433555  0.26732354  1
  O2-  O196  1  0.03822668  0.58535253  0.60247310  1
  O2-  O197  1  0.03324155  0.58673417  0.92871894  1
  O2-  O198  1  0.54041965  0.08425805  0.26418384  1
  O2-  O199  1  0.54480238  0.08778541  0.60372234  1
  O2-  O200  1  0.53371312  0.08198875  0.93096435  1
  O2-  O201  1  0.54950449  0.58154619  0.26716483  1
  O2-  O202  1  0.54807833  0.57443625  0.60282601  1
  O2-  O203  1  0.55044618  0.58353272  0.94280513  1
  O2-  O204  1  0.17657441  0.20002602  0.27005745  1
  O2-  O205  1  0.16452907  0.20839062  0.60696121  1
  O2-  O206  1  0.16999992  0.20274828  0.93941578  1
  O2-  O207  1  0.16941881  0.70480074  0.26464053  1
  O2-  O208  1  0.16833036  0.69233209  0.60786725  1
  O2-  O209  1  0.16724696  0.70696910  0.92891889  1
  O2-  O210  1  0.66323815  0.21256419  0.26245747  1
  O2-  O211  1  0.66396523  0.20854677  0.60480484  1
  O2-  O212  1  0.66531539  0.20487148  0.92671586  1
  O2-  O213  1  0.66635729  0.70195603  0.27021927  1
  O2-  O214  1  0.66880647  0.70532170  0.59724669  1
  O2-  O215  1  0.66363264  0.70939541  0.94195545  1
  O2-  O216  1  0.08326515  0.46539395  0.06623825  1
  O2-  O217  1  0.08216772  0.46140920  0.40264122  1
  O2-  O218  1  0.07652921  0.45538989  0.73321446  1
  O2-  O219  1  0.07926420  0.94618810  0.05870263  1
  O2-  O220  1  0.07902413  0.95869171  0.39475194  1
  O2-  O221  1  0.07999494  0.96081954  0.73716930  1
  O2-  O222  1  0.58236000  0.44812358  0.06284397  1
  O2-  O223  1  0.58691153  0.45370767  0.39390301  1
  O2-  O224  1  0.58216793  0.45031116  0.73599734  1
  O2-  O225  1  0.58576475  0.96466216  0.07007904  1
  O2-  O226  1  0.58744031  0.96163543  0.39616462  1
  O2-  O227  1  0.58777029  0.96188079  0.73365434  1
  O2-  O228  1  0.20954475  0.33605318  0.06975704  1
  O2-  O229  1  0.20870121  0.33256465  0.40148903  1
  O2-  O230  1  0.20783849  0.33290561  0.73715822  1
  O2-  O231  1  0.20652410  0.83317182  0.06023937  1
  O2-  O232  1  0.21160576  0.83363135  0.39698798  1
  O2-  O233  1  0.19600062  0.82636547  0.73141622  1
  O2-  O234  1  0.70274535  0.32909291  0.05857060  1
  O2-  O235  1  0.70871337  0.33610256  0.39254606  1
  O2-  O236  1  0.71312188  0.33247349  0.73645617  1
  O2-  O237  1  0.70802822  0.83461725  0.07391946  1
  O2-  O238  1  0.70208529  0.83532688  0.39574701  1
  O2-  O239  1  0.71239848  0.83213984  0.73042061  1
  O2-  O240  1  0.45634473  0.41679536  0.26825551  1
  O2-  O241  1  0.45574017  0.41054081  0.60474803  1
  O2-  O242  1  0.44842450  0.41852889  0.93889713  1
  O2-  O243  1  0.46456715  0.91363002  0.26142776  1
  O2-  O244  1  0.46231536  0.91898360  0.59829891  1
  O2-  O245  1  0.46405361  0.91033741  0.93879069  1
  O2-  O246  1  0.95386266  0.42203396  0.26994661  1
  O2-  O247  1  0.95053342  0.41474769  0.60508300  1
  O2-  O248  1  0.96198501  0.41628196  0.92882824  1
  O2-  O249  1  0.94564904  0.92372074  0.26484262  1
  O2-  O250  1  0.95440736  0.92218366  0.60287163  1
  O2-  O251  1  0.94148730  0.91903719  0.94057758  1
  O2-  O252  1  0.33379146  0.30242811  0.27234437  1
  O2-  O253  1  0.33625226  0.29027260  0.60543615  1
  O2-  O254  1  0.33318095  0.29355286  0.93875127  1
  O2-  O255  1  0.33593467  0.78944674  0.26032729  1
  O2-  O256  1  0.32761172  0.79648327  0.60110494  1
  O2-  O257  1  0.33839149  0.79733452  0.93587157  1
  O2-  O258  1  0.83466556  0.28946886  0.26345318  1
  O2-  O259  1  0.83725252  0.28985882  0.60327838  1
  O2-  O260  1  0.83519540  0.28991811  0.92868778  1
  O2-  O261  1  0.82775992  0.79122628  0.26571894  1
  O2-  O262  1  0.83685793  0.78829899  0.59730950  1
  O2-  O263  1  0.83181384  0.78922586  0.94097302  1
  O2-  O264  1  0.41391413  0.03309747  0.07091187  1
  O2-  O265  1  0.41716469  0.03922859  0.39526350  1
  O2-  O266  1  0.42107129  0.04369589  0.73401742  1
  O2-  O267  1  0.41789215  0.55123469  0.06511447  1
  O2-  O268  1  0.41889270  0.54748353  0.39544607  1
  O2-  O269  1  0.41818332  0.53978948  0.73569193  1
  O2-  O270  1  0.91850004  0.05436328  0.06226947  1
  O2-  O271  1  0.91247033  0.05102193  0.39292014  1
  O2-  O272  1  0.91735348  0.05369982  0.72968217  1
  O2-  O273  1  0.91490272  0.53637257  0.06814695  1
  O2-  O274  1  0.91059457  0.54399867  0.40126097  1
  O2-  O275  1  0.91192989  0.54399756  0.73032417  1
  O2-  O276  1  0.29514433  0.16602819  0.07179532  1
  O2-  O277  1  0.30901685  0.16746455  0.39296167  1
  O2-  O278  1  0.29189913  0.16564134  0.73693370  1
  O2-  O279  1  0.29796469  0.67020668  0.06064926  1
  O2-  O280  1  0.29929921  0.66698273  0.39217248  1
  O2-  O281  1  0.30002194  0.67098814  0.73469315  1
  O2-  O282  1  0.79185459  0.16725561  0.06266500  1
  O2-  O283  1  0.78571245  0.16276291  0.39552252  1
  O2-  O284  1  0.79407263  0.16540537  0.73169570  1
  O2-  O285  1  0.78675748  0.66222466  0.07364472  1
  O2-  O286  1  0.79088909  0.66315982  0.39914787  1
  O2-  O287  1  0.79504531  0.66506188  0.72850679  1
