# generated using pymatgen
data_Ca2Al2SiO7
_symmetry_space_group_name_H-M   'P 1'
_cell_length_a   15.46404117
_cell_length_b   15.46546765
_cell_length_c   15.28834394
_cell_angle_alpha   89.99909619
_cell_angle_beta   90.02039879
_cell_angle_gamma   90.00909180
_symmetry_Int_Tables_number   1
_chemical_formula_structural   Ca2Al2SiO7
_chemical_formula_sum   'Ca48 Al48 Si24 O168'
_cell_volume   3656.33908971
_cell_formula_units_Z   24
loop_
 _symmetry_equiv_pos_site_id
 _symmetry_equiv_pos_as_xyz
  1  'x, y, z'
loop_
 _atom_type_symbol
 _atom_type_oxidation_number
  Ca2+  2.0
  Al0+  0.0
  Si0+  0.0
  O2-  -2.0
loop_
 _atom_site_type_symbol
 _atom_site_label
 _atom_site_symmetry_multiplicity
 _atom_site_fract_x
 _atom_site_fract_y
 _atom_site_fract_z
 _atom_site_occupancy
  Ca2+  Ca0  1  0.16891156  0.08756954  0.17611332  1
  Ca2+  Ca1  1  0.16739100  0.07697714  0.49988683  1
  Ca2+  Ca2  1  0.16468281  0.07757447  0.83591907  1
  Ca2+  Ca3  1  0.16950888  0.57722701  0.16937588  1
  Ca2+  Ca4  1  0.17004834  0.58133943  0.50042828  1
  Ca2+  Ca5  1  0.17251612  0.58157695  0.84842649  1
  Ca2+  Ca6  1  0.66889325  0.07471753  0.16682805  1
  Ca2+  Ca7  1  0.67332322  0.07181311  0.51188348  1
  Ca2+  Ca8  1  0.67303106  0.07933862  0.84074274  1
  Ca2+  Ca9  1  0.66640340  0.58584659  0.16836434  1
  Ca2+  Ca10  1  0.66366650  0.57746544  0.50856477  1
  Ca2+  Ca11  1  0.65812449  0.58085155  0.83630322  1
  Ca2+  Ca12  1  0.08582783  0.32829927  0.15801705  1
  Ca2+  Ca13  1  0.08490130  0.32654248  0.49030410  1
  Ca2+  Ca14  1  0.08071514  0.33071235  0.83641998  1
  Ca2+  Ca15  1  0.07780201  0.83620023  0.16322690  1
  Ca2+  Ca16  1  0.07284237  0.84730625  0.49590226  1
  Ca2+  Ca17  1  0.08205163  0.82942622  0.82464789  1
  Ca2+  Ca18  1  0.57874801  0.32386863  0.15730712  1
  Ca2+  Ca19  1  0.58731551  0.32678570  0.50152064  1
  Ca2+  Ca20  1  0.59126818  0.32116478  0.82740443  1
  Ca2+  Ca21  1  0.58333804  0.83236383  0.15860301  1
  Ca2+  Ca22  1  0.58289363  0.83725012  0.49796391  1
  Ca2+  Ca23  1  0.58500932  0.82632412  0.82468325  1
  Ca2+  Ca24  1  0.32380388  0.42698531  0.17181548  1
  Ca2+  Ca25  1  0.33085751  0.42056929  0.49829664  1
  Ca2+  Ca26  1  0.32747635  0.42494056  0.84404228  1
  Ca2+  Ca27  1  0.32327759  0.92436421  0.17571165  1
  Ca2+  Ca28  1  0.32288863  0.91541547  0.50278820  1
  Ca2+  Ca29  1  0.33007926  0.90810480  0.83229586  1
  Ca2+  Ca30  1  0.83776359  0.41550678  0.16458244  1
  Ca2+  Ca31  1  0.82824422  0.42075612  0.50822331  1
  Ca2+  Ca32  1  0.82993791  0.41464920  0.83703099  1
  Ca2+  Ca33  1  0.82431032  0.91597253  0.16936348  1
  Ca2+  Ca34  1  0.82827796  0.91660149  0.50891425  1
  Ca2+  Ca35  1  0.82540722  0.92405857  0.83558536  1
  Ca2+  Ca36  1  0.41857763  0.16432417  0.16073683  1
  Ca2+  Ca37  1  0.42312338  0.15764923  0.49712215  1
  Ca2+  Ca38  1  0.43193877  0.16425881  0.82914638  1
  Ca2+  Ca39  1  0.41671770  0.66429927  0.16056408  1
  Ca2+  Ca40  1  0.41898475  0.67108338  0.50182544  1
  Ca2+  Ca41  1  0.42359409  0.67025120  0.82832506  1
  Ca2+  Ca42  1  0.92890324  0.16977496  0.15669098  1
  Ca2+  Ca43  1  0.92100995  0.16242524  0.49584567  1
  Ca2+  Ca44  1  0.91372289  0.16366855  0.83430483  1
  Ca2+  Ca45  1  0.92381029  0.67430475  0.16167432  1
  Ca2+  Ca46  1  0.91461005  0.68285544  0.49578238  1
  Ca2+  Ca47  1  0.92399193  0.67403587  0.82994207  1
  Al0+  Al48  1  -0.00251436  0.00177900  -0.00089932  1
  Al0+  Al49  1  -0.00186789  0.00246686  0.32427898  1
  Al0+  Al50  1  0.00197171  -0.00022686  0.67159370  1
  Al0+  Al51  1  -0.00136792  0.50057268  -0.00417203  1
  Al0+  Al52  1  -0.00146656  0.50159408  0.33839916  1
  Al0+  Al53  1  0.00053707  0.49793666  0.66593363  1
  Al0+  Al54  1  0.49801392  -0.00070727  -0.00086430  1
  Al0+  Al55  1  0.50075266  -0.00251975  0.33763305  1
  Al0+  Al56  1  0.49899114  -0.00076107  0.66070222  1
  Al0+  Al57  1  0.49919740  0.50069030  0.00158022  1
  Al0+  Al58  1  0.50007108  0.49896998  0.33639063  1
  Al0+  Al59  1  0.49903457  0.49850742  0.66750348  1
  Al0+  Al60  1  0.24855527  0.25016913  -0.00268956  1
  Al0+  Al61  1  0.25299547  0.25177054  0.33754768  1
  Al0+  Al62  1  0.25033028  0.25016897  0.66751791  1
  Al0+  Al63  1  0.25005743  0.75058706  0.00219068  1
  Al0+  Al64  1  0.25045807  0.74932912  0.34041381  1
  Al0+  Al65  1  0.25211248  0.74789864  0.66627180  1
  Al0+  Al66  1  0.75098228  0.24982788  -0.00096560  1
  Al0+  Al67  1  0.74973097  0.24969251  0.33110027  1
  Al0+  Al68  1  0.75123262  0.25177131  0.66723954  1
  Al0+  Al69  1  0.74826134  0.74841573  -0.00097727  1
  Al0+  Al70  1  0.75028337  0.74927084  0.33181090  1
  Al0+  Al71  1  0.75358606  0.74787132  0.66317251  1
  Al0+  Al72  1  0.57280147  0.17942832  0.65164457  1
  Al0+  Al73  1  0.92853889  0.82175497  0.31768129  1
  Al0+  Al74  1  0.42809564  0.82123081  0.64931040  1
  Al0+  Al75  1  0.68097996  0.92757098  0.34760480  1
  Al0+  Al76  1  0.82189934  0.07141206  0.68141942  1
  Al0+  Al77  1  0.56963118  0.17834130  0.98768669  1
  Al0+  Al78  1  0.93263784  0.82094944  0.65438116  1
  Al0+  Al79  1  0.67930998  0.43134480  0.68079746  1
  Al0+  Al80  1  0.57175097  0.67769441  0.65097309  1
  Al0+  Al81  1  0.32359276  0.57190832  0.35196183  1
  Al0+  Al82  1  0.32251376  0.07220493  0.34785761  1
  Al0+  Al83  1  0.17678673  0.42915823  0.01437062  1
  Al0+  Al84  1  0.07310874  0.17731934  0.98220545  1
  Al0+  Al85  1  0.17781277  0.42979419  0.34933626  1
  Al0+  Al86  1  0.32189857  0.57267351  0.01555825  1
  Al0+  Al87  1  0.82107778  0.07290721  0.01832127  1
  Al0+  Al88  1  0.07143251  0.18228584  0.32097791  1
  Al0+  Al89  1  0.07101789  0.68203492  0.98886729  1
  Al0+  Al90  1  0.57074214  0.67860231  0.98768304  1
  Al0+  Al91  1  0.18143593  0.92937030  0.68081227  1
  Al0+  Al92  1  0.92902582  0.32170891  0.98373983  1
  Al0+  Al93  1  0.67726715  0.92630958  0.68147256  1
  Al0+  Al94  1  0.67776629  0.92760077  0.01444039  1
  Al0+  Al95  1  0.17553369  0.93033542  0.34620514  1
  Si0+  Si96  1  0.31987843  0.07101494  0.01204046  1
  Si0+  Si97  1  0.82009185  0.57112187  0.34797603  1
  Si0+  Si98  1  0.32214689  0.07403969  0.68453613  1
  Si0+  Si99  1  0.43165155  0.32212179  0.31795046  1
  Si0+  Si100  1  0.92637614  0.82240012  0.98257176  1
  Si0+  Si101  1  0.17762597  0.42697409  0.68342456  1
  Si0+  Si102  1  0.82066656  0.57135809  0.01476567  1
  Si0+  Si103  1  0.56970719  0.67791971  0.31840086  1
  Si0+  Si104  1  0.92633375  0.32482544  0.31798009  1
  Si0+  Si105  1  0.42729559  0.82236294  0.98534775  1
  Si0+  Si106  1  0.42812499  0.32221256  0.98421127  1
  Si0+  Si107  1  0.57101844  0.17710069  0.31789510  1
  Si0+  Si108  1  0.42817221  0.82074118  0.31763651  1
  Si0+  Si109  1  0.82480837  0.57136844  0.68440294  1
  Si0+  Si110  1  0.07219126  0.67691790  0.31817000  1
  Si0+  Si111  1  0.17787112  0.92866315  0.01336230  1
  Si0+  Si112  1  0.82026869  0.07332926  0.34815577  1
  Si0+  Si113  1  0.07212371  0.17985593  0.65100209  1
  Si0+  Si114  1  0.42700099  0.32058916  0.64924573  1
  Si0+  Si115  1  0.67865688  0.42865535  0.01549700  1
  Si0+  Si116  1  0.67936778  0.42771452  0.34676206  1
  Si0+  Si117  1  0.31944273  0.56879839  0.68338975  1
  Si0+  Si118  1  0.93002079  0.32162512  0.64973314  1
  Si0+  Si119  1  0.07332809  0.67569156  0.64953333  1
  O2-  O120  1  0.24455572  0.00446037  0.05411035  1
  O2-  O121  1  0.24831792  0.00170988  0.39638505  1
  O2-  O122  1  0.25812363  0.00134979  0.72933544  1
  O2-  O123  1  0.24849619  0.50144364  0.06384603  1
  O2-  O124  1  0.24801186  0.50274227  0.40111458  1
  O2-  O125  1  0.24608102  0.50005946  0.72520249  1
  O2-  O126  1  0.75003705  -0.00137678  0.06619820  1
  O2-  O127  1  0.75417634  0.00355965  0.39356609  1
  O2-  O128  1  0.74570594  0.00254459  0.73001973  1
  O2-  O129  1  0.74888265  0.50056054  0.05770416  1
  O2-  O130  1  0.75184026  0.49685753  0.38886494  1
  O2-  O131  1  0.75146664  0.50776207  0.72877848  1
  O2-  O132  1  -0.00164565  0.25956868  0.27553064  1
  O2-  O133  1  0.00052080  0.25029384  0.60819266  1
  O2-  O134  1  -0.00060036  0.24839256  0.93305249  1
  O2-  O135  1  0.00805970  0.75000064  0.27379750  1
  O2-  O136  1  0.00689744  0.74603427  0.60523636  1
  O2-  O137  1  0.00024455  0.75865742  0.93938799  1
  O2-  O138  1  0.49891350  0.24731357  0.27573124  1
  O2-  O139  1  0.49476463  0.25122597  0.60408992  1
  O2-  O140  1  0.49686199  0.25436673  0.93946425  1
  O2-  O141  1  0.49845678  0.74839140  0.27585405  1
  O2-  O142  1  0.50598369  0.75454327  0.59916461  1
  O2-  O143  1  0.49763093  0.75473414  0.94265826  1
  O2-  O144  1  0.07564071  0.17957140  0.09589586  1
  O2-  O145  1  0.06763227  0.18200664  0.43470331  1
  O2-  O146  1  0.07431264  0.18246805  0.75561416  1
  O2-  O147  1  0.06894531  0.68352667  0.10208610  1
  O2-  O148  1  0.06702031  0.67289720  0.42364371  1
  O2-  O149  1  0.07200849  0.67469517  0.75533873  1
  O2-  O150  1  0.56581559  0.17980016  0.10143062  1
  O2-  O151  1  0.57313557  0.18043170  0.42279617  1
  O2-  O152  1  0.57206986  0.18211422  0.76478791  1
  O2-  O153  1  0.57072708  0.67816124  0.10138118  1
  O2-  O154  1  0.57059441  0.67644075  0.42308234  1
  O2-  O155  1  0.56626201  0.67530365  0.76439493  1
  O2-  O156  1  0.17822569  0.43087785  0.23620541  1
  O2-  O157  1  0.17773585  0.42645337  0.57844902  1
  O2-  O158  1  0.17990674  0.43121515  0.90018108  1
  O2-  O159  1  0.17831537  0.93102849  0.23203987  1
  O2-  O160  1  0.17864467  0.93369374  0.56815732  1
  O2-  O161  1  0.18146312  0.92579842  0.90827909  1
  O2-  O162  1  0.67825760  0.42781034  0.24161892  1
  O2-  O163  1  0.68272564  0.43089444  0.56686035  1
  O2-  O164  1  0.67833771  0.42945501  0.91063059  1
  O2-  O165  1  0.67944149  0.92748619  0.23463176  1
  O2-  O166  1  0.68184031  0.92819477  0.56751328  1
  O2-  O167  1  0.67815086  0.92669413  0.90140793  1
  O2-  O168  1  0.43021686  0.32109536  0.09020863  1
  O2-  O169  1  0.43586459  0.32547654  0.42290874  1
  O2-  O170  1  0.42579514  0.31970532  0.75473358  1
  O2-  O171  1  0.42660550  0.82343453  0.09119759  1
  O2-  O172  1  0.42986027  0.82121554  0.42225537  1
  O2-  O173  1  0.42316553  0.81484532  0.76294123  1
  O2-  O174  1  0.93002829  0.32215201  0.09778408  1
  O2-  O175  1  0.92254181  0.32375766  0.42370017  1
  O2-  O176  1  0.93153380  0.32564310  0.75411823  1
  O2-  O177  1  0.92626494  0.81877023  0.08856190  1
  O2-  O178  1  0.92732587  0.81984967  0.43076603  1
  O2-  O179  1  0.93596944  0.81812340  0.76736103  1
  O2-  O180  1  0.32384927  0.07049258  0.23354701  1
  O2-  O181  1  0.31692064  0.07844372  0.57933118  1
  O2-  O182  1  0.32247977  0.06908444  0.90716691  1
  O2-  O183  1  0.32702269  0.56867463  0.23887846  1
  O2-  O184  1  0.31913786  0.56704700  0.57838768  1
  O2-  O185  1  0.32135332  0.57091040  0.90162338  1
  O2-  O186  1  0.81622270  0.07617611  0.24314815  1
  O2-  O187  1  0.82328857  0.07069896  0.56712920  1
  O2-  O188  1  0.81868283  0.07203942  0.90488824  1
  O2-  O189  1  0.81920310  0.57162320  0.24272049  1
  O2-  O190  1  0.82772841  0.56644163  0.57846928  1
  O2-  O191  1  0.82023484  0.57180505  0.90998482  1
  O2-  O192  1  0.04060346  0.08821492  0.26274165  1
  O2-  O193  1  0.04397944  0.08773515  0.60569851  1
  O2-  O194  1  0.04509673  0.07806618  0.93016846  1
  O2-  O195  1  0.03991901  0.58521617  0.27102061  1
  O2-  O196  1  0.04588896  0.58200746  0.60356776  1
  O2-  O197  1  0.03872907  0.58718787  0.93300084  1
  O2-  O198  1  0.54334287  0.08471083  0.27216987  1
  O2-  O199  1  0.54421108  0.08304716  0.59658462  1
  O2-  O200  1  0.53621396  0.08328015  0.93282605  1
  O2-  O201  1  0.54321919  0.58486447  0.27183089  1
  O2-  O202  1  0.53757995  0.57976603  0.59820476  1
  O2-  O203  1  0.54037672  0.58146754  0.93414146  1
  O2-  O204  1  0.17069103  0.21039696  0.27044202  1
  O2-  O205  1  0.16355382  0.20965414  0.60345901  1
  O2-  O206  1  0.17111247  0.20574205  0.92750411  1
  O2-  O207  1  0.16890043  0.69655950  0.27690210  1
  O2-  O208  1  0.16776997  0.69779872  0.60538508  1
  O2-  O209  1  0.16818681  0.71046267  0.93429790  1
  O2-  O210  1  0.66178137  0.20798135  0.26967861  1
  O2-  O211  1  0.66768716  0.21601451  0.59702633  1
  O2-  O212  1  0.66530385  0.21081101  0.93493940  1
  O2-  O213  1  0.66168158  0.70497128  0.27084788  1
  O2-  O214  1  0.67426430  0.69409726  0.60177724  1
  O2-  O215  1  0.66795251  0.70426777  0.93255202  1
  O2-  O216  1  0.07782113  0.45779507  0.06513768  1
  O2-  O217  1  0.07826553  0.45531376  0.40322964  1
  O2-  O218  1  0.08444255  0.45210632  0.72891139  1
  O2-  O219  1  0.08359562  0.95051688  0.05740027  1
  O2-  O220  1  0.07655035  0.96181954  0.39626913  1
  O2-  O221  1  0.08753794  0.96221750  0.73779161  1
  O2-  O222  1  0.58701464  0.45559033  0.06391797  1
  O2-  O223  1  0.58963087  0.45714224  0.39620426  1
  O2-  O224  1  0.58136865  0.45715651  0.73450805  1
  O2-  O225  1  0.57845064  0.95710021  0.06674045  1
  O2-  O226  1  0.58446148  0.95681135  0.40105814  1
  O2-  O227  1  0.57477318  0.94830881  0.72783361  1
  O2-  O228  1  0.20663024  0.33014254  0.06511897  1
  O2-  O229  1  0.21069543  0.33375999  0.40430882  1
  O2-  O230  1  0.20757444  0.33602126  0.73091167  1
  O2-  O231  1  0.20941091  0.83992527  0.06408864  1
  O2-  O232  1  0.20086331  0.83168683  0.39951190  1
  O2-  O233  1  0.21011631  0.83056358  0.73270788  1
  O2-  O234  1  0.70709710  0.33805240  0.06445273  1
  O2-  O235  1  0.70583178  0.33541530  0.39448704  1
  O2-  O236  1  0.71380676  0.33640146  0.73461572  1
  O2-  O237  1  0.70633989  0.82832173  0.06720943  1
  O2-  O238  1  0.71134567  0.83025467  0.39990563  1
  O2-  O239  1  0.70893256  0.82710812  0.73080709  1
  O2-  O240  1  0.46453159  0.41173692  0.26862746  1
  O2-  O241  1  0.45471345  0.41324022  0.60281013  1
  O2-  O242  1  0.45376932  0.41577211  0.93878457  1
  O2-  O243  1  0.45752697  0.91230499  0.26994263  1
  O2-  O244  1  0.44561613  0.92198944  0.59681916  1
  O2-  O245  1  0.44931440  0.91559197  0.93746716  1
  O2-  O246  1  0.94752868  0.42066261  0.27447073  1
  O2-  O247  1  0.95852861  0.41295895  0.60015226  1
  O2-  O248  1  0.95553658  0.41974858  0.92853612  1
  O2-  O249  1  0.95468631  0.91778133  0.26087321  1
  O2-  O250  1  0.96508252  0.91766298  0.60086744  1
  O2-  O251  1  0.94635331  0.91767692  0.93968391  1
  O2-  O252  1  0.33885000  0.29774903  0.27190305  1
  O2-  O253  1  0.33280704  0.29628399  0.60268303  1
  O2-  O254  1  0.33506848  0.29774023  0.93748538  1
  O2-  O255  1  0.33495371  0.79431354  0.27187296  1
  O2-  O256  1  0.33176859  0.78500451  0.59491434  1
  O2-  O257  1  0.33480848  0.79453684  0.93827520  1
  O2-  O258  1  0.83331840  0.29812232  0.27011154  1
  O2-  O259  1  0.83831942  0.29568038  0.60151764  1
  O2-  O260  1  0.82965774  0.29573403  0.93144586  1
  O2-  O261  1  0.83426444  0.78322785  0.26286578  1
  O2-  O262  1  0.83750310  0.78937263  0.59750587  1
  O2-  O263  1  0.83560783  0.78938425  0.93642086  1
  O2-  O264  1  0.40948975  0.04085519  0.06253543  1
  O2-  O265  1  0.41916186  0.04068572  0.40195559  1
  O2-  O266  1  0.41819030  0.05247974  0.72598399  1
  O2-  O267  1  0.41945994  0.54207527  0.06964144  1
  O2-  O268  1  0.42019072  0.53693354  0.40590735  1
  O2-  O269  1  0.41006459  0.53775027  0.73052979  1
  O2-  O270  1  0.92110274  0.04631755  0.06943096  1
  O2-  O271  1  0.91536196  0.04962245  0.39027548  1
  O2-  O272  1  0.91879570  0.04142402  0.73573478  1
  O2-  O273  1  0.91128608  0.54220717  0.06349247  1
  O2-  O274  1  0.91100549  0.54723811  0.39861871  1
  O2-  O275  1  0.91672665  0.53977517  0.73143839  1
  O2-  O276  1  0.29657795  0.16423703  0.05889141  1
  O2-  O277  1  0.30085378  0.17132619  0.40148211  1
  O2-  O278  1  0.29285294  0.16613223  0.73255739  1
  O2-  O279  1  0.29403756  0.67098712  0.06900129  1
  O2-  O280  1  0.29866139  0.67029502  0.40570287  1
  O2-  O281  1  0.29394368  0.66073085  0.73056701  1
  O2-  O282  1  0.79161986  0.17152080  0.07031863  1
  O2-  O283  1  0.79462197  0.16722800  0.39533318  1
  O2-  O284  1  0.79716278  0.17161062  0.73160473  1
  O2-  O285  1  0.79208342  0.66173843  0.06457844  1
  O2-  O286  1  0.78816174  0.66056996  0.39674586  1
  O2-  O287  1  0.80629189  0.66659566  0.72805640  1
