# generated using pymatgen
data_Ca2Al2SiO7
_symmetry_space_group_name_H-M   'P 1'
_cell_length_a   15.46289014
_cell_length_b   15.46246938
_cell_length_c   15.28811871
_cell_angle_alpha   89.98008859
_cell_angle_beta   90.00740345
_cell_angle_gamma   90.00810648
_symmetry_Int_Tables_number   1
_chemical_formula_structural   Ca2Al2SiO7
_chemical_formula_sum   'Ca48 Al48 Si24 O168'
_cell_volume   3655.30428019
_cell_formula_units_Z   24
loop_
 _symmetry_equiv_pos_site_id
 _symmetry_equiv_pos_as_xyz
  1  'x, y, z'
loop_
 _atom_type_symbol
 _atom_type_oxidation_number
  Ca2+  2.0
  Al0+  0.0
  Si0+  0.0
  O2-  -2.0
loop_
 _atom_site_type_symbol
 _atom_site_label
 _atom_site_symmetry_multiplicity
 _atom_site_fract_x
 _atom_site_fract_y
 _atom_site_fract_z
 _atom_site_occupancy
  Ca2+  Ca0  1  0.16959225  0.08072415  0.16803481  1
  Ca2+  Ca1  1  0.17243894  0.07972068  0.51135044  1
  Ca2+  Ca2  1  0.17937737  0.07141157  0.83712397  1
  Ca2+  Ca3  1  0.17653013  0.58468352  0.16754969  1
  Ca2+  Ca4  1  0.17289864  0.58281213  0.51189367  1
  Ca2+  Ca5  1  0.18172136  0.59425899  0.83285265  1
  Ca2+  Ca6  1  0.66294213  0.08287934  0.16727915  1
  Ca2+  Ca7  1  0.66896147  0.08175993  0.51326862  1
  Ca2+  Ca8  1  0.66504751  0.07341332  0.83892893  1
  Ca2+  Ca9  1  0.67229266  0.58512875  0.17596915  1
  Ca2+  Ca10  1  0.66114563  0.58406396  0.50081903  1
  Ca2+  Ca11  1  0.66598839  0.58619972  0.84113249  1
  Ca2+  Ca12  1  0.08269985  0.32658182  0.16436369  1
  Ca2+  Ca13  1  0.08170678  0.32539364  0.49434032  1
  Ca2+  Ca14  1  0.07897254  0.33229179  0.82860823  1
  Ca2+  Ca15  1  0.08024000  0.83525801  0.16012900  1
  Ca2+  Ca16  1  0.08016921  0.83529241  0.50467608  1
  Ca2+  Ca17  1  0.08042869  0.83636823  0.82296565  1
  Ca2+  Ca18  1  0.59358371  0.32369561  0.16470743  1
  Ca2+  Ca19  1  0.58127650  0.32431607  0.49922098  1
  Ca2+  Ca20  1  0.57858820  0.31924269  0.82666456  1
  Ca2+  Ca21  1  0.58843122  0.82310452  0.15982777  1
  Ca2+  Ca22  1  0.58230541  0.82887627  0.50207214  1
  Ca2+  Ca23  1  0.58590773  0.82623242  0.82539660  1
  Ca2+  Ca24  1  0.33818799  0.42216251  0.16565665  1
  Ca2+  Ca25  1  0.33916818  0.42144218  0.50914981  1
  Ca2+  Ca26  1  0.34310328  0.42709833  0.83178564  1
  Ca2+  Ca27  1  0.33262232  0.92100841  0.16263088  1
  Ca2+  Ca28  1  0.32964165  0.92083136  0.51447863  1
  Ca2+  Ca29  1  0.33047943  0.91796805  0.83500958  1
  Ca2+  Ca30  1  0.82554588  0.42937081  0.17369680  1
  Ca2+  Ca31  1  0.82552980  0.42117191  0.49981473  1
  Ca2+  Ca32  1  0.83000522  0.42530914  0.83935909  1
  Ca2+  Ca33  1  0.82474671  0.91950671  0.16243824  1
  Ca2+  Ca34  1  0.82669743  0.92145220  0.51209675  1
  Ca2+  Ca35  1  0.82364320  0.92084361  0.83278459  1
  Ca2+  Ca36  1  0.42723238  0.16702168  0.15822478  1
  Ca2+  Ca37  1  0.42756152  0.16103815  0.50019429  1
  Ca2+  Ca38  1  0.42142582  0.16352240  0.82579763  1
  Ca2+  Ca39  1  0.42907420  0.66389702  0.15878339  1
  Ca2+  Ca40  1  0.42391408  0.67046208  0.50320429  1
  Ca2+  Ca41  1  0.42318454  0.67064423  0.82364331  1
  Ca2+  Ca42  1  0.91980381  0.16280811  0.16072212  1
  Ca2+  Ca43  1  0.92190303  0.16162835  0.49578229  1
  Ca2+  Ca44  1  0.91203271  0.15891957  0.82957727  1
  Ca2+  Ca45  1  0.91300822  0.66324549  0.16057241  1
  Ca2+  Ca46  1  0.91672942  0.67250392  0.50066047  1
  Ca2+  Ca47  1  0.92242326  0.67485796  0.82332323  1
  Al0+  Al48  1  -0.00048996  -0.00053643  0.00544934  1
  Al0+  Al49  1  -0.00019296  -0.00107217  0.32790647  1
  Al0+  Al50  1  -0.00054419  0.00051805  0.66855925  1
  Al0+  Al51  1  -0.00006661  0.49849483  0.00304238  1
  Al0+  Al52  1  0.00082380  0.50144168  0.33659267  1
  Al0+  Al53  1  -0.00027366  0.49907448  0.66223196  1
  Al0+  Al54  1  0.49843483  -0.00277423  0.00519112  1
  Al0+  Al55  1  0.49788326  0.00042039  0.32898097  1
  Al0+  Al56  1  0.50105062  -0.00195001  0.66648348  1
  Al0+  Al57  1  0.50054579  0.49757389  0.00135049  1
  Al0+  Al58  1  0.50010056  0.50067655  0.33368623  1
  Al0+  Al59  1  0.50072591  0.49756777  0.66447625  1
  Al0+  Al60  1  0.24905700  0.25001243  0.00152941  1
  Al0+  Al61  1  0.25007653  0.24976496  0.32802183  1
  Al0+  Al62  1  0.24832714  0.25207548  0.66763149  1
  Al0+  Al63  1  0.25038802  0.74783910  0.01087341  1
  Al0+  Al64  1  0.24765662  0.75180193  0.33301240  1
  Al0+  Al65  1  0.25067418  0.74803533  0.66577341  1
  Al0+  Al66  1  0.75134990  0.25037493  -0.00225107  1
  Al0+  Al67  1  0.75085997  0.25271534  0.33337186  1
  Al0+  Al68  1  0.75084524  0.25312885  0.66640258  1
  Al0+  Al69  1  0.75254376  0.75101898  0.00233686  1
  Al0+  Al70  1  0.75084813  0.75268997  0.33392001  1
  Al0+  Al71  1  0.75304496  0.75010006  0.66137673  1
  Al0+  Al72  1  0.17872542  0.92833687  0.01667879  1
  Al0+  Al73  1  0.82166820  0.57438079  0.35191846  1
  Al0+  Al74  1  0.82053702  0.07398414  0.67941566  1
  Al0+  Al75  1  0.56921487  0.68151878  0.31884374  1
  Al0+  Al76  1  0.32167637  0.07287668  0.01692982  1
  Al0+  Al77  1  0.67770381  0.42873181  0.35074958  1
  Al0+  Al78  1  0.93027267  0.82327124  0.65131709  1
  Al0+  Al79  1  0.67747942  0.92790496  0.01578382  1
  Al0+  Al80  1  0.42836284  0.82161019  0.65408697  1
  Al0+  Al81  1  0.82099092  0.57106782  0.01091731  1
  Al0+  Al82  1  0.67841531  0.92681103  0.67991620  1
  Al0+  Al83  1  0.07031293  0.17875517  0.31874451  1
  Al0+  Al84  1  0.57094839  0.17749815  0.98545745  1
  Al0+  Al85  1  0.81910069  0.07238431  0.01627301  1
  Al0+  Al86  1  0.57148624  0.17744074  0.65370254  1
  Al0+  Al87  1  0.57344887  0.67747013  0.65231050  1
  Al0+  Al88  1  0.17943228  0.92799754  0.67989184  1
  Al0+  Al89  1  0.57265006  0.67879325  0.98764829  1
  Al0+  Al90  1  0.07206208  0.67818804  0.65244479  1
  Al0+  Al91  1  0.57174532  0.17942324  0.31892282  1
  Al0+  Al92  1  0.42750354  0.31997913  0.65267031  1
  Al0+  Al93  1  0.32193764  0.56902174  0.67859798  1
  Al0+  Al94  1  0.32236474  0.56911032  0.01460304  1
  Al0+  Al95  1  0.32275354  0.07317926  0.67977814  1
  Si0+  Si96  1  0.92765881  0.32399056  0.64993423  1
  Si0+  Si97  1  0.42572248  0.32113247  0.98278263  1
  Si0+  Si98  1  0.31971208  0.07099311  0.34825123  1
  Si0+  Si99  1  0.67753100  0.93109631  0.34811330  1
  Si0+  Si100  1  0.82256667  0.57016739  0.68103284  1
  Si0+  Si101  1  0.82149073  0.07063636  0.34631033  1
  Si0+  Si102  1  0.06892570  0.18072703  0.65413078  1
  Si0+  Si103  1  0.07157874  0.67704298  0.98750849  1
  Si0+  Si104  1  0.42770331  0.32261733  0.31523201  1
  Si0+  Si105  1  0.67929376  0.43018086  0.68337656  1
  Si0+  Si106  1  0.17676685  0.93007653  0.34989779  1
  Si0+  Si107  1  0.93056768  0.32108978  0.98445103  1
  Si0+  Si108  1  0.18011229  0.42788217  0.34789496  1
  Si0+  Si109  1  0.17620850  0.42744007  0.01762927  1
  Si0+  Si110  1  0.93114518  0.82144850  0.98494368  1
  Si0+  Si111  1  0.92927476  0.32386955  0.31542261  1
  Si0+  Si112  1  0.07173637  0.67834311  0.31633848  1
  Si0+  Si113  1  0.67886125  0.42807337  0.01518415  1
  Si0+  Si114  1  0.92993259  0.82063617  0.31537767  1
  Si0+  Si115  1  0.32000893  0.57155948  0.34905162  1
  Si0+  Si116  1  0.42449941  0.82258382  0.31445631  1
  Si0+  Si117  1  0.07074687  0.17764421  0.98309212  1
  Si0+  Si118  1  0.17489024  0.42783261  0.68304885  1
  Si0+  Si119  1  0.42593876  0.81860176  0.98506747  1
  O2-  O120  1  0.24891976  0.00147917  0.06789486  1
  O2-  O121  1  0.24894027  -0.00010439  0.39078661  1
  O2-  O122  1  0.25460274  -0.00310271  0.72874315  1
  O2-  O123  1  0.24712899  0.49408904  0.06139149  1
  O2-  O124  1  0.24987917  0.49912736  0.39079187  1
  O2-  O125  1  0.24447218  0.49612705  0.72547775  1
  O2-  O126  1  0.74375057  0.00518493  0.06758609  1
  O2-  O127  1  0.74492822  0.00664223  0.38866705  1
  O2-  O128  1  0.74598299  0.00440608  0.72802907  1
  O2-  O129  1  0.74209412  0.50198756  0.05888907  1
  O2-  O130  1  0.74752116  0.50373690  0.40070452  1
  O2-  O131  1  0.74782499  0.50431548  0.72465915  1
  O2-  O132  1  -0.00447051  0.25302390  0.27038570  1
  O2-  O133  1  -0.00339841  0.24982274  0.61025948  1
  O2-  O134  1  -0.00110743  0.24800132  0.94081708  1
  O2-  O135  1  -0.00178471  0.74614963  0.27337949  1
  O2-  O136  1  0.00211060  0.75096631  0.60049655  1
  O2-  O137  1  0.00337279  0.75004780  0.94510707  1
  O2-  O138  1  0.49877966  0.25623807  0.27178035  1
  O2-  O139  1  0.49545870  0.24485258  0.60221719  1
  O2-  O140  1  0.49158922  0.24881274  0.94104363  1
  O2-  O141  1  0.49357036  0.75428815  0.27049308  1
  O2-  O142  1  0.50259090  0.75166689  0.60376164  1
  O2-  O143  1  0.49751039  0.75274556  0.94160752  1
  O2-  O144  1  0.07002173  0.18033710  0.08855787  1
  O2-  O145  1  0.06935802  0.17969833  0.43207264  1
  O2-  O146  1  0.06827043  0.18374635  0.75917516  1
  O2-  O147  1  0.06913126  0.67622029  0.09318303  1
  O2-  O148  1  0.07517103  0.67948013  0.42078275  1
  O2-  O149  1  0.06884676  0.67558267  0.76641779  1
  O2-  O150  1  0.57188181  0.18330366  0.09906702  1
  O2-  O151  1  0.57008035  0.17678599  0.43135238  1
  O2-  O152  1  0.57366889  0.18072922  0.76706074  1
  O2-  O153  1  0.57162250  0.67881650  0.10119943  1
  O2-  O154  1  0.56708078  0.68317933  0.43134033  1
  O2-  O155  1  0.57246194  0.67636977  0.76612408  1
  O2-  O156  1  0.18006888  0.42896574  0.24267096  1
  O2-  O157  1  0.17261336  0.42722188  0.57713035  1
  O2-  O158  1  0.17125059  0.42754661  0.91266677  1
  O2-  O159  1  0.17585961  0.93001507  0.24495902  1
  O2-  O160  1  0.17770512  0.93334677  0.56557500  1
  O2-  O161  1  0.17809216  0.92789461  0.90380628  1
  O2-  O162  1  0.68155776  0.42849772  0.23677013  1
  O2-  O163  1  0.68162552  0.42792172  0.57843773  1
  O2-  O164  1  0.68183526  0.42746670  0.90949901  1
  O2-  O165  1  0.67995787  0.92976438  0.24305912  1
  O2-  O166  1  0.68163317  0.92794361  0.56544825  1
  O2-  O167  1  0.68129219  0.92459517  0.90302731  1
  O2-  O168  1  0.42582843  0.32264364  0.08867568  1
  O2-  O169  1  0.42359619  0.32060482  0.42029339  1
  O2-  O170  1  0.43186426  0.32243413  0.76610737  1
  O2-  O171  1  0.42479546  0.81468431  0.09123085  1
  O2-  O172  1  0.42221963  0.82296129  0.41958542  1
  O2-  O173  1  0.42591284  0.81770612  0.76758717  1
  O2-  O174  1  0.93393754  0.32274227  0.08940607  1
  O2-  O175  1  0.93185698  0.32311591  0.42111676  1
  O2-  O176  1  0.92971858  0.32958708  0.75499959  1
  O2-  O177  1  0.93172671  0.82021586  0.09070808  1
  O2-  O178  1  0.93281852  0.82412036  0.41994135  1
  O2-  O179  1  0.93023485  0.82064027  0.76512710  1
  O2-  O180  1  0.31833922  0.07018830  0.24333299  1
  O2-  O181  1  0.31737534  0.07458445  0.56534181  1
  O2-  O182  1  0.31906337  0.07399748  0.90398473  1
  O2-  O183  1  0.31803000  0.57025149  0.24370436  1
  O2-  O184  1  0.32008423  0.56649779  0.56502535  1
  O2-  O185  1  0.32126271  0.56967826  0.90202247  1
  O2-  O186  1  0.82341866  0.06759020  0.24140659  1
  O2-  O187  1  0.82202390  0.07344780  0.56485963  1
  O2-  O188  1  0.82079840  0.07006427  0.90350980  1
  O2-  O189  1  0.82226975  0.57198986  0.23789981  1
  O2-  O190  1  0.82482166  0.56602933  0.57620673  1
  O2-  O191  1  0.82434737  0.56796481  0.89790171  1
  O2-  O192  1  0.03894448  0.08308992  0.26301303  1
  O2-  O193  1  0.04230082  0.08961470  0.60544571  1
  O2-  O194  1  0.04231331  0.08519263  0.93865452  1
  O2-  O195  1  0.04784542  0.58462867  0.27029214  1
  O2-  O196  1  0.04220056  0.58029464  0.59749142  1
  O2-  O197  1  0.04304926  0.58535825  0.94105506  1
  O2-  O198  1  0.53854369  0.08360618  0.26403159  1
  O2-  O199  1  0.54866251  0.07841405  0.60031981  1
  O2-  O200  1  0.54331106  0.07758906  0.93770040  1
  O2-  O201  1  0.54011738  0.58328737  0.26641863  1
  O2-  O202  1  0.54178589  0.58041313  0.59898382  1
  O2-  O203  1  0.54419043  0.57983179  0.93708978  1
  O2-  O204  1  0.16551917  0.21158599  0.26246083  1
  O2-  O205  1  0.15906018  0.21066010  0.60460741  1
  O2-  O206  1  0.16211740  0.20748347  0.93666658  1
  O2-  O207  1  0.16237080  0.70947588  0.26717847  1
  O2-  O208  1  0.17014269  0.70280389  0.59807521  1
  O2-  O209  1  0.16572601  0.70275683  0.94478934  1
  O2-  O210  1  0.66989782  0.20922668  0.26638242  1
  O2-  O211  1  0.66868214  0.21263400  0.60048789  1
  O2-  O212  1  0.66708222  0.21191414  0.93258084  1
  O2-  O213  1  0.66732922  0.71344238  0.26743029  1
  O2-  O214  1  0.67190103  0.70236028  0.59851707  1
  O2-  O215  1  0.67047094  0.70863356  0.93579165  1
  O2-  O216  1  0.08493422  0.45555729  0.06782019  1
  O2-  O217  1  0.08803081  0.45362757  0.39554143  1
  O2-  O218  1  0.08116957  0.45345151  0.72941359  1
  O2-  O219  1  0.08136127  0.95808295  0.07171098  1
  O2-  O220  1  0.08478297  0.95983610  0.39550123  1
  O2-  O221  1  0.08286694  0.96022721  0.73340299  1
  O2-  O222  1  0.58393271  0.44549622  0.06091110  1
  O2-  O223  1  0.57772995  0.45430525  0.40162438  1
  O2-  O224  1  0.58749890  0.45520231  0.73072913  1
  O2-  O225  1  0.57797266  0.94752820  0.06972399  1
  O2-  O226  1  0.58297806  0.95423349  0.39167707  1
  O2-  O227  1  0.57910006  0.94787345  0.73231833  1
  O2-  O228  1  0.20022008  0.33374274  0.06441081  1
  O2-  O229  1  0.20714812  0.33512358  0.39407194  1
  O2-  O230  1  0.19806469  0.33488597  0.73092352  1
  O2-  O231  1  0.20588142  0.83087200  0.07358607  1
  O2-  O232  1  0.20196719  0.83668208  0.39535102  1
  O2-  O233  1  0.20197579  0.82793659  0.73050410  1
  O2-  O234  1  0.71245254  0.33768540  0.06264885  1
  O2-  O235  1  0.71085486  0.33133838  0.40465924  1
  O2-  O236  1  0.71208660  0.34079946  0.73238958  1
  O2-  O237  1  0.71589261  0.83341936  0.07184570  1
  O2-  O238  1  0.71036909  0.84161020  0.39569543  1
  O2-  O239  1  0.71303658  0.82939825  0.73187814  1
  O2-  O240  1  0.45055627  0.41750078  0.27036225  1
  O2-  O241  1  0.46134757  0.41521612  0.59675980  1
  O2-  O242  1  0.45558415  0.41347453  0.93670817  1
  O2-  O243  1  0.44973161  0.91601776  0.26786842  1
  O2-  O244  1  0.45291848  0.91973300  0.59842545  1
  O2-  O245  1  0.44560750  0.91465983  0.94346481  1
  O2-  O246  1  0.95899213  0.41695679  0.26973581  1
  O2-  O247  1  0.95904879  0.41213476  0.59774234  1
  O2-  O248  1  0.96235201  0.41169673  0.93556312  1
  O2-  O249  1  0.96182506  0.90994598  0.26503746  1
  O2-  O250  1  0.95958052  0.92132620  0.59671855  1
  O2-  O251  1  0.95950336  0.91347630  0.93920588  1
  O2-  O252  1  0.33520767  0.29573908  0.26639982  1
  O2-  O253  1  0.32562660  0.30115641  0.60152192  1
  O2-  O254  1  0.32977839  0.30180270  0.93869447  1
  O2-  O255  1  0.33032548  0.79670078  0.26849888  1
  O2-  O256  1  0.33171465  0.79089760  0.59795535  1
  O2-  O257  1  0.33241421  0.78852068  0.94154367  1
  O2-  O258  1  0.83522033  0.30129239  0.27008448  1
  O2-  O259  1  0.83613350  0.29897696  0.60151410  1
  O2-  O260  1  0.83878490  0.29718461  0.93569927  1
  O2-  O261  1  0.83742967  0.79570284  0.26830876  1
  O2-  O262  1  0.83478785  0.79248059  0.59433830  1
  O2-  O263  1  0.84041803  0.79223918  0.93777586  1
  O2-  O264  1  0.41814285  0.04280032  0.07265516  1
  O2-  O265  1  0.41195480  0.04265610  0.39416989  1
  O2-  O266  1  0.42194989  0.04883974  0.73052076  1
  O2-  O267  1  0.41768854  0.53552967  0.07065550  1
  O2-  O268  1  0.41191086  0.54531974  0.39529500  1
  O2-  O269  1  0.41728325  0.53526605  0.73323800  1
  O2-  O270  1  0.91633676  0.04046974  0.07033665  1
  O2-  O271  1  0.91231307  0.03697661  0.39293296  1
  O2-  O272  1  0.91770933  0.04396178  0.73318416  1
  O2-  O273  1  0.91540084  0.53549704  0.06789900  1
  O2-  O274  1  0.92102745  0.54450407  0.40290384  1
  O2-  O275  1  0.91283863  0.53674268  0.72851594  1
  O2-  O276  1  0.29232132  0.17168001  0.06994805  1
  O2-  O277  1  0.29133297  0.16382839  0.39272617  1
  O2-  O278  1  0.28967913  0.17028323  0.73293362  1
  O2-  O279  1  0.28967239  0.66181777  0.07486730  1
  O2-  O280  1  0.28924099  0.66363547  0.39369209  1
  O2-  O281  1  0.29107264  0.66440276  0.73378691  1
  O2-  O282  1  0.79784757  0.17365004  0.06715265  1
  O2-  O283  1  0.80338748  0.16592900  0.38997060  1
  O2-  O284  1  0.80023086  0.17519324  0.73054461  1
  O2-  O285  1  0.79680597  0.66780799  0.06639646  1
  O2-  O286  1  0.79575762  0.67432921  0.40200368  1
  O2-  O287  1  0.80139019  0.66434301  0.72497130  1
