# generated using pymatgen
data_Ca2Al2SiO7
_symmetry_space_group_name_H-M   'P 1'
_cell_length_a   15.45802047
_cell_length_b   15.45760525
_cell_length_c   15.28323119
_cell_angle_alpha   90.00222384
_cell_angle_beta   90.00094825
_cell_angle_gamma   89.99338695
_symmetry_Int_Tables_number   1
_chemical_formula_structural   Ca2Al2SiO7
_chemical_formula_sum   'Ca48 Al48 Si24 O168'
_cell_volume   3651.83603646
_cell_formula_units_Z   24
loop_
 _symmetry_equiv_pos_site_id
 _symmetry_equiv_pos_as_xyz
  1  'x, y, z'
loop_
 _atom_type_symbol
 _atom_type_oxidation_number
  Ca2+  2.0
  Al0+  0.0
  Si0+  0.0
  O2-  -2.0
loop_
 _atom_site_type_symbol
 _atom_site_label
 _atom_site_symmetry_multiplicity
 _atom_site_fract_x
 _atom_site_fract_y
 _atom_site_fract_z
 _atom_site_occupancy
  Ca2+  Ca0  1  0.17627136  0.08568935  0.17394786  1
  Ca2+  Ca1  1  0.17212287  0.08486094  0.50809832  1
  Ca2+  Ca2  1  0.17535362  0.08419754  0.83070250  1
  Ca2+  Ca3  1  0.16014506  0.57729649  0.17284509  1
  Ca2+  Ca4  1  0.16383505  0.57897547  0.50630402  1
  Ca2+  Ca5  1  0.16533484  0.56892439  0.83682705  1
  Ca2+  Ca6  1  0.67670071  0.07928945  0.17026217  1
  Ca2+  Ca7  1  0.67479332  0.08496716  0.50117207  1
  Ca2+  Ca8  1  0.67491653  0.07517243  0.84384080  1
  Ca2+  Ca9  1  0.66626627  0.58311192  0.17102481  1
  Ca2+  Ca10  1  0.66695175  0.58421805  0.50383914  1
  Ca2+  Ca11  1  0.65859443  0.57589964  0.83568615  1
  Ca2+  Ca12  1  0.07690235  0.33000542  0.16643680  1
  Ca2+  Ca13  1  0.07962902  0.32513735  0.49631445  1
  Ca2+  Ca14  1  0.08032504  0.32913525  0.82209598  1
  Ca2+  Ca15  1  0.08440853  0.82624616  0.16678412  1
  Ca2+  Ca16  1  0.08151323  0.83348871  0.49776142  1
  Ca2+  Ca17  1  0.07788754  0.83765256  0.82368579  1
  Ca2+  Ca18  1  0.58296492  0.33370575  0.16111076  1
  Ca2+  Ca19  1  0.57845065  0.33728399  0.50268275  1
  Ca2+  Ca20  1  0.57953214  0.33512441  0.82439882  1
  Ca2+  Ca21  1  0.58637440  0.82673952  0.16262041  1
  Ca2+  Ca22  1  0.57302955  0.82627722  0.49485916  1
  Ca2+  Ca23  1  0.58484288  0.82434547  0.82518434  1
  Ca2+  Ca24  1  0.32483470  0.41747041  0.16832160  1
  Ca2+  Ca25  1  0.32766131  0.41710383  0.51141440  1
  Ca2+  Ca26  1  0.32178049  0.40783504  0.83390550  1
  Ca2+  Ca27  1  0.33838473  0.92546153  0.17412657  1
  Ca2+  Ca28  1  0.33248823  0.92250268  0.50855737  1
  Ca2+  Ca29  1  0.33524395  0.92367007  0.83219242  1
  Ca2+  Ca30  1  0.82727376  0.41974637  0.17545687  1
  Ca2+  Ca31  1  0.83533129  0.41988104  0.50516428  1
  Ca2+  Ca32  1  0.82083771  0.41120106  0.83473990  1
  Ca2+  Ca33  1  0.82891131  0.92449304  0.16928963  1
  Ca2+  Ca34  1  0.83985298  0.92123407  0.50407426  1
  Ca2+  Ca35  1  0.83103090  0.92044214  0.84028637  1
  Ca2+  Ca36  1  0.41319157  0.16274823  0.16415116  1
  Ca2+  Ca37  1  0.40774580  0.16974371  0.49879812  1
  Ca2+  Ca38  1  0.41377995  0.16759992  0.82707443  1
  Ca2+  Ca39  1  0.42685693  0.67394174  0.16234037  1
  Ca2+  Ca40  1  0.42388239  0.67643577  0.49389274  1
  Ca2+  Ca41  1  0.42922464  0.67144716  0.82336237  1
  Ca2+  Ca42  1  0.91581441  0.16411890  0.16640077  1
  Ca2+  Ca43  1  0.92696403  0.17526269  0.49258800  1
  Ca2+  Ca44  1  0.92249943  0.17037136  0.82167175  1
  Ca2+  Ca45  1  0.91808377  0.66039540  0.16958400  1
  Ca2+  Ca46  1  0.91937990  0.67024836  0.49440470  1
  Ca2+  Ca47  1  0.91649734  0.67584655  0.82700252  1
  Al0+  Al48  1  0.00328271  0.00016045  0.00291451  1
  Al0+  Al49  1  0.00086091  0.00029232  0.33179684  1
  Al0+  Al50  1  0.00277941  0.00031805  0.66261615  1
  Al0+  Al51  1  -0.00070472  0.49791273  0.00171816  1
  Al0+  Al52  1  -0.00366516  0.49909829  0.33096823  1
  Al0+  Al53  1  -0.00141404  0.50147152  0.67072327  1
  Al0+  Al54  1  0.50050009  0.00008722  0.00670674  1
  Al0+  Al55  1  0.49938920  0.00208115  0.33547968  1
  Al0+  Al56  1  0.50314386  -0.00042916  0.66742141  1
  Al0+  Al57  1  0.49794307  0.50047651  -0.00008146  1
  Al0+  Al58  1  0.49760410  0.50022812  0.32926101  1
  Al0+  Al59  1  0.50182859  0.49848158  0.66230591  1
  Al0+  Al60  1  0.24790757  0.25025636  0.00865667  1
  Al0+  Al61  1  0.24805112  0.24971012  0.33276138  1
  Al0+  Al62  1  0.25133578  0.25027271  0.66716138  1
  Al0+  Al63  1  0.25094294  0.74929217  -0.00312160  1
  Al0+  Al64  1  0.24998860  0.74968936  0.32381876  1
  Al0+  Al65  1  0.25110891  0.75085363  0.66981832  1
  Al0+  Al66  1  0.74942471  0.25151471  0.00665964  1
  Al0+  Al67  1  0.74746171  0.24984399  0.33499551  1
  Al0+  Al68  1  0.75022249  0.25221522  0.66707267  1
  Al0+  Al69  1  0.75102672  0.74883764  -0.00104213  1
  Al0+  Al70  1  0.74932963  0.74831518  0.33415078  1
  Al0+  Al71  1  0.75277920  0.75038640  0.65800370  1
  Al0+  Al72  1  0.17851775  0.43027756  0.67866955  1
  Al0+  Al73  1  0.57135799  0.67941798  0.98388873  1
  Al0+  Al74  1  0.07207282  0.18031273  0.65248733  1
  Al0+  Al75  1  0.32339254  0.07108567  0.68193089  1
  Al0+  Al76  1  0.17833238  0.92755377  0.68119208  1
  Al0+  Al77  1  0.17790072  0.42982234  0.01633720  1
  Al0+  Al78  1  0.31913482  0.06933743  0.01468873  1
  Al0+  Al79  1  0.67995407  0.92650543  0.01428175  1
  Al0+  Al80  1  0.92682395  0.32008605  0.31669924  1
  Al0+  Al81  1  0.82366980  0.07193144  0.01386142  1
  Al0+  Al82  1  0.82202019  0.07095156  0.34971093  1
  Al0+  Al83  1  0.67960717  0.43036377  0.67969284  1
  Al0+  Al84  1  0.06966031  0.67865100  0.32083107  1
  Al0+  Al85  1  0.92651304  0.32295531  0.65293325  1
  Al0+  Al86  1  0.42972436  0.31834052  0.65513998  1
  Al0+  Al87  1  0.93065584  0.82196746  0.65353530  1
  Al0+  Al88  1  0.67642073  0.43036666  0.01386141  1
  Al0+  Al89  1  0.57185628  0.67773686  0.64957279  1
  Al0+  Al90  1  0.42926042  0.82336109  0.31649733  1
  Al0+  Al91  1  0.81972386  0.56987289  0.34820769  1
  Al0+  Al92  1  0.57134705  0.67845045  0.31568855  1
  Al0+  Al93  1  0.32032650  0.07086383  0.34964448  1
  Al0+  Al94  1  0.42831893  0.82323404  0.65241537  1
  Al0+  Al95  1  0.07137075  0.17837217  0.31555464  1
  Si0+  Si96  1  0.32057554  0.57139502  0.34676238  1
  Si0+  Si97  1  0.57441871  0.17671528  0.65157034  1
  Si0+  Si98  1  0.93212621  0.82080246  0.98651367  1
  Si0+  Si99  1  0.42816341  0.82469981  0.98150919  1
  Si0+  Si100  1  0.82179761  0.57146396  0.01582534  1
  Si0+  Si101  1  0.68152292  0.92792214  0.67935419  1
  Si0+  Si102  1  0.92727552  0.82290459  0.31510102  1
  Si0+  Si103  1  0.57037781  0.18004192  0.31803969  1
  Si0+  Si104  1  0.82203099  0.57456718  0.68434320  1
  Si0+  Si105  1  0.07179764  0.17985618  0.98477413  1
  Si0+  Si106  1  0.82149754  0.07112090  0.67942504  1
  Si0+  Si107  1  0.07272217  0.67720898  0.65382422  1
  Si0+  Si108  1  0.42774623  0.31928689  0.98660127  1
  Si0+  Si109  1  0.32364413  0.57230796  0.68219630  1
  Si0+  Si110  1  0.67419828  0.42793076  0.35116439  1
  Si0+  Si111  1  0.17770792  0.92477922  0.01802338  1
  Si0+  Si112  1  0.17879327  0.43080576  0.34885326  1
  Si0+  Si113  1  0.92767575  0.32072297  0.98450167  1
  Si0+  Si114  1  0.42706337  0.32114326  0.31720126  1
  Si0+  Si115  1  0.07184569  0.67609822  0.98383875  1
  Si0+  Si116  1  0.17884674  0.92505432  0.34840752  1
  Si0+  Si117  1  0.32067873  0.57280398  0.01680460  1
  Si0+  Si118  1  0.57188053  0.17922015  0.98697344  1
  Si0+  Si119  1  0.67883429  0.92824450  0.35195364  1
  O2-  O120  1  0.24855936  -0.00900942  0.06177706  1
  O2-  O121  1  0.24632621  -0.00559507  0.39291659  1
  O2-  O122  1  0.25242351  -0.00245960  0.73138830  1
  O2-  O123  1  0.24890805  0.50812791  0.06305844  1
  O2-  O124  1  0.24919879  0.50214722  0.39113855  1
  O2-  O125  1  0.25316763  0.50507161  0.72684459  1
  O2-  O126  1  0.75085850  0.00025260  0.06337344  1
  O2-  O127  1  0.75046589  -0.00645204  0.39744913  1
  O2-  O128  1  0.75160645  -0.00040843  0.72255622  1
  O2-  O129  1  0.75093152  0.50495813  0.05958643  1
  O2-  O130  1  0.74325001  0.49663274  0.39393118  1
  O2-  O131  1  0.75337523  0.50553532  0.72806436  1
  O2-  O132  1  -0.00423196  0.24620498  0.26437095  1
  O2-  O133  1  0.00008164  0.25292316  0.60368190  1
  O2-  O134  1  -0.00343356  0.24702832  0.94308640  1
  O2-  O135  1  -0.00420607  0.75335524  0.27143066  1
  O2-  O136  1  0.00721318  0.74822139  0.60920140  1
  O2-  O137  1  0.00396374  0.75057676  0.94297036  1
  O2-  O138  1  0.49857922  0.25060232  0.27541423  1
  O2-  O139  1  0.50224089  0.24203721  0.60747911  1
  O2-  O140  1  0.50016135  0.24945931  0.94436159  1
  O2-  O141  1  0.50247621  0.75313681  0.26538250  1
  O2-  O142  1  0.49798531  0.74920533  0.60249335  1
  O2-  O143  1  0.49764870  0.75606258  0.93837140  1
  O2-  O144  1  0.07257654  0.18157711  0.08958856  1
  O2-  O145  1  0.07402840  0.18246765  0.42855674  1
  O2-  O146  1  0.06984195  0.18106549  0.76715927  1
  O2-  O147  1  0.07010475  0.67554499  0.08893304  1
  O2-  O148  1  0.06978818  0.67881110  0.43372953  1
  O2-  O149  1  0.06884112  0.67569560  0.75985287  1
  O2-  O150  1  0.57139124  0.18121605  0.09223681  1
  O2-  O151  1  0.57165694  0.18094122  0.42308846  1
  O2-  O152  1  0.57694460  0.17803247  0.75754077  1
  O2-  O153  1  0.56984927  0.67952373  0.09661413  1
  O2-  O154  1  0.56776421  0.67754878  0.42876705  1
  O2-  O155  1  0.57183176  0.67912651  0.76376305  1
  O2-  O156  1  0.18114749  0.43173075  0.24332507  1
  O2-  O157  1  0.17970732  0.43267989  0.56538694  1
  O2-  O158  1  0.17877040  0.42830890  0.90328911  1
  O2-  O159  1  0.18051060  0.92481106  0.24230955  1
  O2-  O160  1  0.17690684  0.92739226  0.56788700  1
  O2-  O161  1  0.17434179  0.92560753  0.91294781  1
  O2-  O162  1  0.67344727  0.42828385  0.24514473  1
  O2-  O163  1  0.67924713  0.43017040  0.56703610  1
  O2-  O164  1  0.67702151  0.42845952  0.90088486  1
  O2-  O165  1  0.68005314  0.93050449  0.24619075  1
  O2-  O166  1  0.68211179  0.92972175  0.57439736  1
  O2-  O167  1  0.68302406  0.92777905  0.90001215  1
  O2-  O168  1  0.42818828  0.31842312  0.09215371  1
  O2-  O169  1  0.42655167  0.32279372  0.42209103  1
  O2-  O170  1  0.43008793  0.31788302  0.76876392  1
  O2-  O171  1  0.42693495  0.82294037  0.08694693  1
  O2-  O172  1  0.42880087  0.82119744  0.42978392  1
  O2-  O173  1  0.43296215  0.82295764  0.76639172  1
  O2-  O174  1  0.92895354  0.32276034  0.08924170  1
  O2-  O175  1  0.93059371  0.32150313  0.42988395  1
  O2-  O176  1  0.92502348  0.31845055  0.76736447  1
  O2-  O177  1  0.93324588  0.81993506  0.09146141  1
  O2-  O178  1  0.92918922  0.82290231  0.42060532  1
  O2-  O179  1  0.92846612  0.82094218  0.76743316  1
  O2-  O180  1  0.31930611  0.07133093  0.23614722  1
  O2-  O181  1  0.32087804  0.07157318  0.56867350  1
  O2-  O182  1  0.31807399  0.07240119  0.90213944  1
  O2-  O183  1  0.32034167  0.56732033  0.24156722  1
  O2-  O184  1  0.32146646  0.57061627  0.57619979  1
  O2-  O185  1  0.31947848  0.57098966  0.91135366  1
  O2-  O186  1  0.81832246  0.06911214  0.23656711  1
  O2-  O187  1  0.81912988  0.07047566  0.57443092  1
  O2-  O188  1  0.82311394  0.07064955  0.89956960  1
  O2-  O189  1  0.81974599  0.56716423  0.23466114  1
  O2-  O190  1  0.82337035  0.57458240  0.57898037  1
  O2-  O191  1  0.82453672  0.57154492  0.91037524  1
  O2-  O192  1  0.04783661  0.07799753  0.26394305  1
  O2-  O193  1  0.04449910  0.08305309  0.59865989  1
  O2-  O194  1  0.04951366  0.08547037  0.93966794  1
  O2-  O195  1  0.03601609  0.58384524  0.26440273  1
  O2-  O196  1  0.04422214  0.58535123  0.60622177  1
  O2-  O197  1  0.04056250  0.58501957  0.93652308  1
  O2-  O198  1  0.54303489  0.08854130  0.27029418  1
  O2-  O199  1  0.55464751  0.08235873  0.60550518  1
  O2-  O200  1  0.54557231  0.08617028  0.94110168  1
  O2-  O201  1  0.53945531  0.58036986  0.26260682  1
  O2-  O202  1  0.54475924  0.57970934  0.59679568  1
  O2-  O203  1  0.53641671  0.58259967  0.93139259  1
  O2-  O204  1  0.16820937  0.21299082  0.26157512  1
  O2-  O205  1  0.16971595  0.20950271  0.60029997  1
  O2-  O206  1  0.16244002  0.21368291  0.93892659  1
  O2-  O207  1  0.16476055  0.70617423  0.26120839  1
  O2-  O208  1  0.16812544  0.69698214  0.61007648  1
  O2-  O209  1  0.16533948  0.69892528  0.93745336  1
  O2-  O210  1  0.66083155  0.20845508  0.26840720  1
  O2-  O211  1  0.66527068  0.20756231  0.60305353  1
  O2-  O212  1  0.66404513  0.20733373  0.94004823  1
  O2-  O213  1  0.67152772  0.70408395  0.26473717  1
  O2-  O214  1  0.66936405  0.70713605  0.59671674  1
  O2-  O215  1  0.66990269  0.70663173  0.93124488  1
  O2-  O216  1  0.08112861  0.46014022  0.07030421  1
  O2-  O217  1  0.08667762  0.45898482  0.39344784  1
  O2-  O218  1  0.08279687  0.46083601  0.73598652  1
  O2-  O219  1  0.08556214  0.95136978  0.06643794  1
  O2-  O220  1  0.08366239  0.94770842  0.39178496  1
  O2-  O221  1  0.08022780  0.95913828  0.73544343  1
  O2-  O222  1  0.57902224  0.45858248  0.06779666  1
  O2-  O223  1  0.57946286  0.45411486  0.39525060  1
  O2-  O224  1  0.58209920  0.45924089  0.73400958  1
  O2-  O225  1  0.58250385  0.95382975  0.06866503  1
  O2-  O226  1  0.58690119  0.95934674  0.39775973  1
  O2-  O227  1  0.59061102  0.95383458  0.72905612  1
  O2-  O228  1  0.21256255  0.33668657  0.07373294  1
  O2-  O229  1  0.20906925  0.33952829  0.39461256  1
  O2-  O230  1  0.21182885  0.33528938  0.73411109  1
  O2-  O231  1  0.20015013  0.82885532  0.06164282  1
  O2-  O232  1  0.20364664  0.83022628  0.39234708  1
  O2-  O233  1  0.20173596  0.82816462  0.73654312  1
  O2-  O234  1  0.70654874  0.33496034  0.07031653  1
  O2-  O235  1  0.69698976  0.33367157  0.39615347  1
  O2-  O236  1  0.70972650  0.33348490  0.73602752  1
  O2-  O237  1  0.71189676  0.82953379  0.06795190  1
  O2-  O238  1  0.70064388  0.83314237  0.39564071  1
  O2-  O239  1  0.71192989  0.83617408  0.72538941  1
  O2-  O240  1  0.45355754  0.41231630  0.26742800  1
  O2-  O241  1  0.46099131  0.41319909  0.59809822  1
  O2-  O242  1  0.45243556  0.41172985  0.93985117  1
  O2-  O243  1  0.45781786  0.92314494  0.26606954  1
  O2-  O244  1  0.45950949  0.92085792  0.59953802  1
  O2-  O245  1  0.45336365  0.91966518  0.93845830  1
  O2-  O246  1  0.95810685  0.41695990  0.26225742  1
  O2-  O247  1  0.95220013  0.42356728  0.60452462  1
  O2-  O248  1  0.95753767  0.41208402  0.93700317  1
  O2-  O249  1  0.95335997  0.91553301  0.26767877  1
  O2-  O250  1  0.96055481  0.91704230  0.59719804  1
  O2-  O251  1  0.95964525  0.91311300  0.93910330  1
  O2-  O252  1  0.33598723  0.29255095  0.26889765  1
  O2-  O253  1  0.33399483  0.29091475  0.59852783  1
  O2-  O254  1  0.33534170  0.28878814  0.94174744  1
  O2-  O255  1  0.33245677  0.79385546  0.26049695  1
  O2-  O256  1  0.32828358  0.79738260  0.60181524  1
  O2-  O257  1  0.33367293  0.79927275  0.93597825  1
  O2-  O258  1  0.82592576  0.29464204  0.26684044  1
  O2-  O259  1  0.82913091  0.29437539  0.59901774  1
  O2-  O260  1  0.83392636  0.29487368  0.93957186  1
  O2-  O261  1  0.83366723  0.79642567  0.27027614  1
  O2-  O262  1  0.83715069  0.79156167  0.59438788  1
  O2-  O263  1  0.84104799  0.79214905  0.93808267  1
  O2-  O264  1  0.41701059  0.04433523  0.06932421  1
  O2-  O265  1  0.41884978  0.04585745  0.40230984  1
  O2-  O266  1  0.42373808  0.04546975  0.73432367  1
  O2-  O267  1  0.41189016  0.54228898  0.06451314  1
  O2-  O268  1  0.41158126  0.54153168  0.39445380  1
  O2-  O269  1  0.41659405  0.54359950  0.72703423  1
  O2-  O270  1  0.92168355  0.04278401  0.06712401  1
  O2-  O271  1  0.92031068  0.04217036  0.40103661  1
  O2-  O272  1  0.91358975  0.04356561  0.72545020  1
  O2-  O273  1  0.91422174  0.54306395  0.06312795  1
  O2-  O274  1  0.91617980  0.53810721  0.40241578  1
  O2-  O275  1  0.91514768  0.55157032  0.73299026  1
  O2-  O276  1  0.28572559  0.16399803  0.07130200  1
  O2-  O277  1  0.28855592  0.16886913  0.40072772  1
  O2-  O278  1  0.29319825  0.16892102  0.73560443  1
  O2-  O279  1  0.29911636  0.66811453  0.06143636  1
  O2-  O280  1  0.29338595  0.66445338  0.39089387  1
  O2-  O281  1  0.30177762  0.66580736  0.72989038  1
  O2-  O282  1  0.79407080  0.16886002  0.06842254  1
  O2-  O283  1  0.78600626  0.16648140  0.40266052  1
  O2-  O284  1  0.79284830  0.16230509  0.72747412  1
  O2-  O285  1  0.79937773  0.66540208  0.06208504  1
  O2-  O286  1  0.79375856  0.66822334  0.40159260  1
  O2-  O287  1  0.79603392  0.66913387  0.72899275  1
