# generated using pymatgen
data_Ca2Al2SiO7
_symmetry_space_group_name_H-M   'P 1'
_cell_length_a   15.46509067
_cell_length_b   15.46599061
_cell_length_c   15.28861348
_cell_angle_alpha   90.00431469
_cell_angle_beta   89.99583378
_cell_angle_gamma   90.01939612
_symmetry_Int_Tables_number   1
_chemical_formula_structural   Ca2Al2SiO7
_chemical_formula_sum   'Ca48 Al48 Si24 O168'
_cell_volume   3656.77539814
_cell_formula_units_Z   24
loop_
 _symmetry_equiv_pos_site_id
 _symmetry_equiv_pos_as_xyz
  1  'x, y, z'
loop_
 _atom_type_symbol
 _atom_type_oxidation_number
  Ca2+  2.0
  Al0+  0.0
  Si0+  0.0
  O2-  -2.0
loop_
 _atom_site_type_symbol
 _atom_site_label
 _atom_site_symmetry_multiplicity
 _atom_site_fract_x
 _atom_site_fract_y
 _atom_site_fract_z
 _atom_site_occupancy
  Ca2+  Ca0  1  0.17368891  0.07811740  0.17768064  1
  Ca2+  Ca1  1  0.17156174  0.07445675  0.49853665  1
  Ca2+  Ca2  1  0.16719003  0.07453117  0.83424182  1
  Ca2+  Ca3  1  0.17492818  0.57721354  0.16865688  1
  Ca2+  Ca4  1  0.16914579  0.57943199  0.49674600  1
  Ca2+  Ca5  1  0.17189390  0.57993826  0.84496319  1
  Ca2+  Ca6  1  0.67344977  0.08309920  0.17218932  1
  Ca2+  Ca7  1  0.66886173  0.08151207  0.49959733  1
  Ca2+  Ca8  1  0.66763162  0.08827699  0.84051239  1
  Ca2+  Ca9  1  0.66886649  0.57044867  0.17558431  1
  Ca2+  Ca10  1  0.67502657  0.58124984  0.50183575  1
  Ca2+  Ca11  1  0.67100334  0.58556297  0.83618326  1
  Ca2+  Ca12  1  0.07808829  0.34577573  0.16634423  1
  Ca2+  Ca13  1  0.07796210  0.33416742  0.48723716  1
  Ca2+  Ca14  1  0.08476166  0.33414884  0.83218267  1
  Ca2+  Ca15  1  0.08064927  0.82963355  0.16438681  1
  Ca2+  Ca16  1  0.07503877  0.83987196  0.49313388  1
  Ca2+  Ca17  1  0.07947360  0.82712244  0.82591111  1
  Ca2+  Ca18  1  0.57562317  0.33708796  0.16043453  1
  Ca2+  Ca19  1  0.58270065  0.32803228  0.49091649  1
  Ca2+  Ca20  1  0.58584678  0.32746159  0.83535846  1
  Ca2+  Ca21  1  0.58562428  0.83351199  0.16705446  1
  Ca2+  Ca22  1  0.58693321  0.82620301  0.49583575  1
  Ca2+  Ca23  1  0.57451344  0.82563751  0.82067307  1
  Ca2+  Ca24  1  0.33021752  0.42009514  0.17611359  1
  Ca2+  Ca25  1  0.33460484  0.41695229  0.49507423  1
  Ca2+  Ca26  1  0.33038925  0.42328761  0.84701582  1
  Ca2+  Ca27  1  0.32683814  0.92556886  0.17903821  1
  Ca2+  Ca28  1  0.32377482  0.91375840  0.50403404  1
  Ca2+  Ca29  1  0.32917670  0.90793104  0.83314893  1
  Ca2+  Ca30  1  0.82171410  0.41743133  0.17704679  1
  Ca2+  Ca31  1  0.83481204  0.42560279  0.49939590  1
  Ca2+  Ca32  1  0.82584261  0.42395274  0.83873955  1
  Ca2+  Ca33  1  0.83071242  0.92726515  0.17744504  1
  Ca2+  Ca34  1  0.83340984  0.91440366  0.49934039  1
  Ca2+  Ca35  1  0.83437874  0.92222877  0.83640226  1
  Ca2+  Ca36  1  0.41849860  0.17805476  0.16131790  1
  Ca2+  Ca37  1  0.42063658  0.16918254  0.49142422  1
  Ca2+  Ca38  1  0.42824154  0.17336967  0.82949748  1
  Ca2+  Ca39  1  0.41011806  0.66390031  0.16400264  1
  Ca2+  Ca40  1  0.41921058  0.66785209  0.49770872  1
  Ca2+  Ca41  1  0.42097859  0.66748538  0.82666191  1
  Ca2+  Ca42  1  0.91062865  0.16807806  0.16720565  1
  Ca2+  Ca43  1  0.91798581  0.17149606  0.48884714  1
  Ca2+  Ca44  1  0.91467647  0.16720760  0.83240680  1
  Ca2+  Ca45  1  0.91979214  0.66866660  0.16633009  1
  Ca2+  Ca46  1  0.91010484  0.67378298  0.49170040  1
  Ca2+  Ca47  1  0.92221605  0.66843407  0.82509901  1
  Al0+  Al48  1  -0.00135981  0.00182915  0.00266334  1
  Al0+  Al49  1  -0.00061152  0.00050484  0.33397649  1
  Al0+  Al50  1  0.00154433  -0.00001259  0.66857125  1
  Al0+  Al51  1  0.00058541  0.50207645  -0.00327647  1
  Al0+  Al52  1  0.00083562  0.50072354  0.33390811  1
  Al0+  Al53  1  -0.00089761  0.50014292  0.67187116  1
  Al0+  Al54  1  0.49902333  -0.00024234  -0.00434937  1
  Al0+  Al55  1  0.50154216  -0.00167028  0.33887803  1
  Al0+  Al56  1  0.49940828  0.00195447  0.65998214  1
  Al0+  Al57  1  0.50048985  0.50267335  0.00089861  1
  Al0+  Al58  1  0.50075151  0.49909970  0.33781419  1
  Al0+  Al59  1  0.49971169  0.49779356  0.66433980  1
  Al0+  Al60  1  0.24697684  0.24917585  -0.00272114  1
  Al0+  Al61  1  0.25101462  0.24928596  0.33692363  1
  Al0+  Al62  1  0.25003019  0.24754414  0.66780322  1
  Al0+  Al63  1  0.24690739  0.74866141  -0.00080578  1
  Al0+  Al64  1  0.25030478  0.74884935  0.33923871  1
  Al0+  Al65  1  0.24850272  0.74785491  0.66767638  1
  Al0+  Al66  1  0.75091577  0.25100000  0.00338814  1
  Al0+  Al67  1  0.75094372  0.24877225  0.33616574  1
  Al0+  Al68  1  0.75050854  0.25060390  0.66311879  1
  Al0+  Al69  1  0.74956933  0.75359200  -0.00120011  1
  Al0+  Al70  1  0.75035029  0.75009264  0.33098590  1
  Al0+  Al71  1  0.75088447  0.75044778  0.66610572  1
  Al0+  Al72  1  0.82170202  0.57100964  0.34565235  1
  Al0+  Al73  1  0.82022690  0.07047834  0.01317333  1
  Al0+  Al74  1  0.06890615  0.68019831  0.98563383  1
  Al0+  Al75  1  0.67911523  0.92745800  0.34896125  1
  Al0+  Al76  1  0.93108902  0.82132919  0.65308159  1
  Al0+  Al77  1  0.57194616  0.67735831  0.65057579  1
  Al0+  Al78  1  0.82094924  0.07081492  0.35026021  1
  Al0+  Al79  1  0.57163823  0.17957741  0.98666893  1
  Al0+  Al80  1  0.81988514  0.57230137  0.68203970  1
  Al0+  Al81  1  0.43014813  0.32032566  0.31975453  1
  Al0+  Al82  1  0.32289944  0.07226586  0.34757248  1
  Al0+  Al83  1  0.42650883  0.81996739  0.65044702  1
  Al0+  Al84  1  0.32106155  0.57166165  0.01370285  1
  Al0+  Al85  1  0.68038387  0.43135250  0.01257121  1
  Al0+  Al86  1  0.32292108  0.57136613  0.35078524  1
  Al0+  Al87  1  0.67838400  0.42756118  0.34947722  1
  Al0+  Al88  1  0.17977558  0.92896291  0.68239152  1
  Al0+  Al89  1  0.42712821  0.32358196  0.98529220  1
  Al0+  Al90  1  0.17753972  0.42634661  0.01461351  1
  Al0+  Al91  1  0.92864210  0.82148950  0.31752717  1
  Al0+  Al92  1  0.17915167  0.42891092  0.34833583  1
  Al0+  Al93  1  0.17887618  0.92820321  0.34708116  1
  Al0+  Al94  1  0.92913480  0.32204411  0.31924046  1
  Al0+  Al95  1  0.57279640  0.18048966  0.65075612  1
  Si0+  Si96  1  0.32325625  0.07238092  0.68622702  1
  Si0+  Si97  1  0.17842222  0.42715860  0.68193411  1
  Si0+  Si98  1  0.82250765  0.57553055  0.01570168  1
  Si0+  Si99  1  0.32165307  0.07039425  0.01240263  1
  Si0+  Si100  1  0.92948625  0.32099946  0.98479156  1
  Si0+  Si101  1  0.67791133  0.92987894  0.68200675  1
  Si0+  Si102  1  0.42555592  0.32057828  0.64941320  1
  Si0+  Si103  1  0.82051671  0.07191467  0.68212236  1
  Si0+  Si104  1  0.57258531  0.17568423  0.31611760  1
  Si0+  Si105  1  0.07104255  0.67559057  0.64860204  1
  Si0+  Si106  1  0.17928494  0.92936751  0.01409259  1
  Si0+  Si107  1  0.57047726  0.67928005  0.31691077  1
  Si0+  Si108  1  0.42800763  0.82060270  0.31835499  1
  Si0+  Si109  1  0.07151327  0.17870637  0.65204414  1
  Si0+  Si110  1  0.67861176  0.42648043  0.68403860  1
  Si0+  Si111  1  0.67501875  0.92776201  0.01439378  1
  Si0+  Si112  1  0.32098314  0.56874738  0.68234130  1
  Si0+  Si113  1  0.57253702  0.68016263  0.98643359  1
  Si0+  Si114  1  0.42769628  0.82082717  0.98711214  1
  Si0+  Si115  1  0.07077087  0.17575850  0.98374805  1
  Si0+  Si116  1  0.93122572  0.32106734  0.65313998  1
  Si0+  Si117  1  0.92828274  0.82447693  0.98282738  1
  Si0+  Si118  1  0.07402764  0.67802533  0.31593886  1
  Si0+  Si119  1  0.07179350  0.17878956  0.31635378  1
  O2-  O120  1  0.25065415  -0.00024916  0.05544178  1
  O2-  O121  1  0.25316625  -0.00220272  0.39709731  1
  O2-  O122  1  0.25816609  -0.00030059  0.73089314  1
  O2-  O123  1  0.25550218  0.49300574  0.06218348  1
  O2-  O124  1  0.25126785  0.49894929  0.40078307  1
  O2-  O125  1  0.25081100  0.49647131  0.72400696  1
  O2-  O126  1  0.74371504  -0.00325558  0.05693134  1
  O2-  O127  1  0.75029782  -0.00131431  0.40125796  1
  O2-  O128  1  0.74793093  0.00234964  0.72472303  1
  O2-  O129  1  0.75326303  0.50790129  0.05895491  1
  O2-  O130  1  0.75252235  0.49783392  0.39797763  1
  O2-  O131  1  0.74274337  0.49968674  0.72862050  1
  O2-  O132  1  0.00488348  0.24865938  0.27100080  1
  O2-  O133  1  0.00377741  0.25235890  0.61055480  1
  O2-  O134  1  0.00228745  0.25068229  0.94265204  1
  O2-  O135  1  0.00510966  0.74757278  0.27247699  1
  O2-  O136  1  0.00347868  0.74508187  0.60507964  1
  O2-  O137  1  -0.00741429  0.75270346  0.93753352  1
  O2-  O138  1  0.50429545  0.24504364  0.27276767  1
  O2-  O139  1  0.49643255  0.25395289  0.60628685  1
  O2-  O140  1  0.49986118  0.25170370  0.93543965  1
  O2-  O141  1  0.49812321  0.74955638  0.27428495  1
  O2-  O142  1  0.50066230  0.75030350  0.60025812  1
  O2-  O143  1  0.50011521  0.75077418  0.94558789  1
  O2-  O144  1  0.07062031  0.16821561  0.08770841  1
  O2-  O145  1  0.06988259  0.17931385  0.42247668  1
  O2-  O146  1  0.07049669  0.17886288  0.75770520  1
  O2-  O147  1  0.07000575  0.68375754  0.09821445  1
  O2-  O148  1  0.07395830  0.67763646  0.42162335  1
  O2-  O149  1  0.06995737  0.67605492  0.75466174  1
  O2-  O150  1  0.56935286  0.17660016  0.09940425  1
  O2-  O151  1  0.57145621  0.17705369  0.42201405  1
  O2-  O152  1  0.57454491  0.18275394  0.76418314  1
  O2-  O153  1  0.57561674  0.68241314  0.09119162  1
  O2-  O154  1  0.57096552  0.68098362  0.42177812  1
  O2-  O155  1  0.56994664  0.67927626  0.76527272  1
  O2-  O156  1  0.17913774  0.43123890  0.23513766  1
  O2-  O157  1  0.17635690  0.42696375  0.57750267  1
  O2-  O158  1  0.17719367  0.42934077  0.90004840  1
  O2-  O159  1  0.18134830  0.92925514  0.23250800  1
  O2-  O160  1  0.17757320  0.93339470  0.57029915  1
  O2-  O161  1  0.17966645  0.92997934  0.90871951  1
  O2-  O162  1  0.67768364  0.43051045  0.23552008  1
  O2-  O163  1  0.68243975  0.42405709  0.57916239  1
  O2-  O164  1  0.68381123  0.43214493  0.89897265  1
  O2-  O165  1  0.67868089  0.92895608  0.23470282  1
  O2-  O166  1  0.68000532  0.92922378  0.57764906  1
  O2-  O167  1  0.67503838  0.92554479  0.90862249  1
  O2-  O168  1  0.42711182  0.32101705  0.09848388  1
  O2-  O169  1  0.43199328  0.31820887  0.43315992  1
  O2-  O170  1  0.42295697  0.31960348  0.75503524  1
  O2-  O171  1  0.42749876  0.82313123  0.09205941  1
  O2-  O172  1  0.42781836  0.81916977  0.42294290  1
  O2-  O173  1  0.42785659  0.81639455  0.76534836  1
  O2-  O174  1  0.92939332  0.32065382  0.08937195  1
  O2-  O175  1  0.93221674  0.32078170  0.43300873  1
  O2-  O176  1  0.93142586  0.31917360  0.75881932  1
  O2-  O177  1  0.92991273  0.82554099  0.08790807  1
  O2-  O178  1  0.93000685  0.82005049  0.43074310  1
  O2-  O179  1  0.93341098  0.82204496  0.76681298  1
  O2-  O180  1  0.32089259  0.07001793  0.23289378  1
  O2-  O181  1  0.31873373  0.07639847  0.58143873  1
  O2-  O182  1  0.32110990  0.06767497  0.90724775  1
  O2-  O183  1  0.32113648  0.57238713  0.23732821  1
  O2-  O184  1  0.32052378  0.56856709  0.57779564  1
  O2-  O185  1  0.31861195  0.57388888  0.89950283  1
  O2-  O186  1  0.81911768  0.07010118  0.23642273  1
  O2-  O187  1  0.82192231  0.07293622  0.57791844  1
  O2-  O188  1  0.82192540  0.06860834  0.89917177  1
  O2-  O189  1  0.81826261  0.57082364  0.23164063  1
  O2-  O190  1  0.82303932  0.56907533  0.56982647  1
  O2-  O191  1  0.82100984  0.57509432  0.90962794  1
  O2-  O192  1  0.04471673  0.08604609  0.26927977  1
  O2-  O193  1  0.04034297  0.08864372  0.60494019  1
  O2-  O194  1  0.03773380  0.08636009  0.93267100  1
  O2-  O195  1  0.04727597  0.58539451  0.26908409  1
  O2-  O196  1  0.04474316  0.58116559  0.60507887  1
  O2-  O197  1  0.04053089  0.58388822  0.92832842  1
  O2-  O198  1  0.54820409  0.08068830  0.27213402  1
  O2-  O199  1  0.54512555  0.08373764  0.59674187  1
  O2-  O200  1  0.54324939  0.08094832  0.93121847  1
  O2-  O201  1  0.54243960  0.58704820  0.27114378  1
  O2-  O202  1  0.54482188  0.57801487  0.59970302  1
  O2-  O203  1  0.54697907  0.58923729  0.93685358  1
  O2-  O204  1  0.16670331  0.20116293  0.27226256  1
  O2-  O205  1  0.16440385  0.20299810  0.60570013  1
  O2-  O206  1  0.16208635  0.19969976  0.93274261  1
  O2-  O207  1  0.16788279  0.70511472  0.27065487  1
  O2-  O208  1  0.16542022  0.69895443  0.60497485  1
  O2-  O209  1  0.16435005  0.71350880  0.92914403  1
  O2-  O210  1  0.66711586  0.20034723  0.27255007  1
  O2-  O211  1  0.66902963  0.21155176  0.59609348  1
  O2-  O212  1  0.67057574  0.20982510  0.93374173  1
  O2-  O213  1  0.66051794  0.70883245  0.26710715  1
  O2-  O214  1  0.67010878  0.70690526  0.59925912  1
  O2-  O215  1  0.66370032  0.70908959  0.93641771  1
  O2-  O216  1  0.07997616  0.46102146  0.06514461  1
  O2-  O217  1  0.08170882  0.45875180  0.40227674  1
  O2-  O218  1  0.08737545  0.45507133  0.73140005  1
  O2-  O219  1  0.08784778  0.95832549  0.06030972  1
  O2-  O220  1  0.08225560  0.95999804  0.39972824  1
  O2-  O221  1  0.08524919  0.96538513  0.73877565  1
  O2-  O222  1  0.58387465  0.46114785  0.06580667  1
  O2-  O223  1  0.58265469  0.45796867  0.40454231  1
  O2-  O224  1  0.58217816  0.44631530  0.72690431  1
  O2-  O225  1  0.58069577  0.95126396  0.06002663  1
  O2-  O226  1  0.58097813  0.95148648  0.40363929  1
  O2-  O227  1  0.58450594  0.95668213  0.72739734  1
  O2-  O228  1  0.19369153  0.32365256  0.06287061  1
  O2-  O229  1  0.20462853  0.33031608  0.40171816  1
  O2-  O230  1  0.20336678  0.33364913  0.72844090  1
  O2-  O231  1  0.20661903  0.83798971  0.06079091  1
  O2-  O232  1  0.20456031  0.83079741  0.40148646  1
  O2-  O233  1  0.20746308  0.83042540  0.73588935  1
  O2-  O234  1  0.71246804  0.33627615  0.06705085  1
  O2-  O235  1  0.70522333  0.32922523  0.40102643  1
  O2-  O236  1  0.71196711  0.33518003  0.73152482  1
  O2-  O237  1  0.70076688  0.83469837  0.06197360  1
  O2-  O238  1  0.70857347  0.82942733  0.40052408  1
  O2-  O239  1  0.70654690  0.83880416  0.73073532  1
  O2-  O240  1  0.46070835  0.41811036  0.26775665  1
  O2-  O241  1  0.44789475  0.41504170  0.60481316  1
  O2-  O242  1  0.45610230  0.42264817  0.93287442  1
  O2-  O243  1  0.45667068  0.91279308  0.27123778  1
  O2-  O244  1  0.44806239  0.92080472  0.60159369  1
  O2-  O245  1  0.45320090  0.91165789  0.93607383  1
  O2-  O246  1  0.95899842  0.41885431  0.26467332  1
  O2-  O247  1  0.95869955  0.41355255  0.60765439  1
  O2-  O248  1  0.95570370  0.41280641  0.93567583  1
  O2-  O249  1  0.95933129  0.91882113  0.26428253  1
  O2-  O250  1  0.96343371  0.91821360  0.60076021  1
  O2-  O251  1  0.95802511  0.91697769  0.93612737  1
  O2-  O252  1  0.33228003  0.28994186  0.26770173  1
  O2-  O253  1  0.33232429  0.29239016  0.60336215  1
  O2-  O254  1  0.32807885  0.29446424  0.93231542  1
  O2-  O255  1  0.33555719  0.79329822  0.27115937  1
  O2-  O256  1  0.32815236  0.78917578  0.59942033  1
  O2-  O257  1  0.33652681  0.79158695  0.93899503  1
  O2-  O258  1  0.83252831  0.28927297  0.26594063  1
  O2-  O259  1  0.84066201  0.29237317  0.60548984  1
  O2-  O260  1  0.83949375  0.29015673  0.93547283  1
  O2-  O261  1  0.83279883  0.78995968  0.26172265  1
  O2-  O262  1  0.83340356  0.79400336  0.60150119  1
  O2-  O263  1  0.83236720  0.80422787  0.93806606  1
  O2-  O264  1  0.41300219  0.04191384  0.05972534  1
  O2-  O265  1  0.42082720  0.04639263  0.40051627  1
  O2-  O266  1  0.41916356  0.05097504  0.72927782  1
  O2-  O267  1  0.42219879  0.55429720  0.06380737  1
  O2-  O268  1  0.41996565  0.54268621  0.40475291  1
  O2-  O269  1  0.41382140  0.54233083  0.72937614  1
  O2-  O270  1  0.91607095  0.03986009  0.06856628  1
  O2-  O271  1  0.92008183  0.04504002  0.40171862  1
  O2-  O272  1  0.91191952  0.04286578  0.73054919  1
  O2-  O273  1  0.91628069  0.54940519  0.05879371  1
  O2-  O274  1  0.92019081  0.54648930  0.39888883  1
  O2-  O275  1  0.91548454  0.53815821  0.73840833  1
  O2-  O276  1  0.29264569  0.16190394  0.05836599  1
  O2-  O277  1  0.29248233  0.16761076  0.40406821  1
  O2-  O278  1  0.29150474  0.16386396  0.73489715  1
  O2-  O279  1  0.28631104  0.66823744  0.06747110  1
  O2-  O280  1  0.29434905  0.66861957  0.40520906  1
  O2-  O281  1  0.29255203  0.66013293  0.73019760  1
  O2-  O282  1  0.79274125  0.16704785  0.06721459  1
  O2-  O283  1  0.79399826  0.16857559  0.40414741  1
  O2-  O284  1  0.79344975  0.16467536  0.72923322  1
  O2-  O285  1  0.79902425  0.67080377  0.05904145  1
  O2-  O286  1  0.78983853  0.66791459  0.39802187  1
  O2-  O287  1  0.79124731  0.66944790  0.73709744  1
