# generated using pymatgen
data_Ca2Al2SiO7
_symmetry_space_group_name_H-M   'P 1'
_cell_length_a   15.46952388
_cell_length_b   15.47096599
_cell_length_c   15.29193402
_cell_angle_alpha   89.98299360
_cell_angle_beta   90.01371678
_cell_angle_gamma   90.02772468
_symmetry_Int_Tables_number   1
_chemical_formula_structural   Ca2Al2SiO7
_chemical_formula_sum   'Ca48 Al48 Si24 O168'
_cell_volume   3659.79459844
_cell_formula_units_Z   24
loop_
 _symmetry_equiv_pos_site_id
 _symmetry_equiv_pos_as_xyz
  1  'x, y, z'
loop_
 _atom_type_symbol
 _atom_type_oxidation_number
  Ca2+  2.0
  Al0+  0.0
  Si0+  0.0
  O2-  -2.0
loop_
 _atom_site_type_symbol
 _atom_site_label
 _atom_site_symmetry_multiplicity
 _atom_site_fract_x
 _atom_site_fract_y
 _atom_site_fract_z
 _atom_site_occupancy
  Ca2+  Ca0  1  0.16726085  0.07085658  0.17734817  1
  Ca2+  Ca1  1  0.16599378  0.07750416  0.50743289  1
  Ca2+  Ca2  1  0.15681534  0.07144729  0.83158955  1
  Ca2+  Ca3  1  0.16035463  0.58462727  0.16869702  1
  Ca2+  Ca4  1  0.16929310  0.58652083  0.50495823  1
  Ca2+  Ca5  1  0.17566689  0.58374238  0.84445287  1
  Ca2+  Ca6  1  0.67026879  0.07800480  0.17849269  1
  Ca2+  Ca7  1  0.66062606  0.07388116  0.50398996  1
  Ca2+  Ca8  1  0.66298896  0.07826152  0.83083456  1
  Ca2+  Ca9  1  0.68263224  0.58115513  0.17570790  1
  Ca2+  Ca10  1  0.67918127  0.58696150  0.50544338  1
  Ca2+  Ca11  1  0.67846304  0.59399374  0.83362537  1
  Ca2+  Ca12  1  0.09200651  0.32673367  0.16428070  1
  Ca2+  Ca13  1  0.08860718  0.31999880  0.49565074  1
  Ca2+  Ca14  1  0.09026812  0.32881880  0.82894401  1
  Ca2+  Ca15  1  0.07717325  0.82807032  0.16134740  1
  Ca2+  Ca16  1  0.07428893  0.83445859  0.49167029  1
  Ca2+  Ca17  1  0.07500545  0.83601448  0.83010613  1
  Ca2+  Ca18  1  0.58931264  0.33025378  0.16788438  1
  Ca2+  Ca19  1  0.58408742  0.32313328  0.49169306  1
  Ca2+  Ca20  1  0.58014113  0.32636660  0.82295726  1
  Ca2+  Ca21  1  0.58094533  0.83725981  0.16629697  1
  Ca2+  Ca22  1  0.58645812  0.83409910  0.49870239  1
  Ca2+  Ca23  1  0.57870528  0.82836756  0.82192823  1
  Ca2+  Ca24  1  0.32944150  0.42302907  0.16274776  1
  Ca2+  Ca25  1  0.33357853  0.42332862  0.50354412  1
  Ca2+  Ca26  1  0.32910359  0.42662762  0.83655226  1
  Ca2+  Ca27  1  0.31733516  0.91654175  0.17375441  1
  Ca2+  Ca28  1  0.31783157  0.92527203  0.50369140  1
  Ca2+  Ca29  1  0.31806485  0.91974085  0.83387912  1
  Ca2+  Ca30  1  0.83424920  0.43013844  0.17524848  1
  Ca2+  Ca31  1  0.83209159  0.42825834  0.50158305  1
  Ca2+  Ca32  1  0.83668792  0.43300494  0.83800249  1
  Ca2+  Ca33  1  0.83023753  0.90814392  0.17304313  1
  Ca2+  Ca34  1  0.82638525  0.90632860  0.50418963  1
  Ca2+  Ca35  1  0.83012994  0.90654868  0.83253626  1
  Ca2+  Ca36  1  0.42002833  0.15976063  0.16958598  1
  Ca2+  Ca37  1  0.42299048  0.15234390  0.49556500  1
  Ca2+  Ca38  1  0.41854642  0.16601294  0.82238212  1
  Ca2+  Ca39  1  0.41977365  0.66423207  0.16083775  1
  Ca2+  Ca40  1  0.42359289  0.66244530  0.49844698  1
  Ca2+  Ca41  1  0.42030266  0.66024454  0.82445891  1
  Ca2+  Ca42  1  0.92396378  0.16522186  0.16745130  1
  Ca2+  Ca43  1  0.92929963  0.16372722  0.49622242  1
  Ca2+  Ca44  1  0.92267370  0.17348066  0.82488931  1
  Ca2+  Ca45  1  0.92160290  0.67233131  0.16285964  1
  Ca2+  Ca46  1  0.91698671  0.67405071  0.49402982  1
  Ca2+  Ca47  1  0.91711464  0.67385361  0.82994393  1
  Al0+  Al48  1  -0.00207993  0.00042649  0.00010266  1
  Al0+  Al49  1  -0.00217144  -0.00026479  0.32726829  1
  Al0+  Al50  1  -0.00364400  0.00162047  0.66257328  1
  Al0+  Al51  1  0.00071703  0.49905260  0.00520511  1
  Al0+  Al52  1  0.00171826  0.49992147  0.33707130  1
  Al0+  Al53  1  -0.00149512  0.50082858  0.67106605  1
  Al0+  Al54  1  0.50121020  -0.00135596  -0.00191991  1
  Al0+  Al55  1  0.50055226  -0.00042034  0.33351273  1
  Al0+  Al56  1  0.49825379  -0.00124472  0.67105088  1
  Al0+  Al57  1  0.50034420  0.49641804  0.00122114  1
  Al0+  Al58  1  0.50014945  0.49730567  0.33331217  1
  Al0+  Al59  1  0.50077784  0.49874851  0.66433892  1
  Al0+  Al60  1  0.25418599  0.25093416  0.00095287  1
  Al0+  Al61  1  0.25422721  0.25212416  0.33002838  1
  Al0+  Al62  1  0.25126233  0.25122532  0.66452649  1
  Al0+  Al63  1  0.25209945  0.75239315  0.00419852  1
  Al0+  Al64  1  0.25093846  0.75106692  0.33479556  1
  Al0+  Al65  1  0.24979275  0.75107381  0.67489163  1
  Al0+  Al66  1  0.75139118  0.24727853  -0.00249648  1
  Al0+  Al67  1  0.74996408  0.25014416  0.33202787  1
  Al0+  Al68  1  0.74860865  0.25037609  0.66167258  1
  Al0+  Al69  1  0.74869270  0.74998136  0.00239334  1
  Al0+  Al70  1  0.74946806  0.74928129  0.33684206  1
  Al0+  Al71  1  0.74868713  0.74999468  0.66784029  1
  Al0+  Al72  1  0.81987160  0.57182237  0.01514857  1
  Al0+  Al73  1  0.17933658  0.42842803  0.01539949  1
  Al0+  Al74  1  0.56949497  0.17716978  0.65166958  1
  Al0+  Al75  1  0.32145753  0.57073813  0.67823553  1
  Al0+  Al76  1  0.82271640  0.57083886  0.35088048  1
  Al0+  Al77  1  0.31996366  0.07163291  0.34652614  1
  Al0+  Al78  1  0.31957100  0.07191445  0.68194816  1
  Al0+  Al79  1  0.17563331  0.92871920  0.34873491  1
  Al0+  Al80  1  0.17331894  0.92980861  0.68213233  1
  Al0+  Al81  1  0.68004349  0.92994691  0.34681305  1
  Al0+  Al82  1  0.07318581  0.17942501  0.31852073  1
  Al0+  Al83  1  0.07373395  0.67850421  0.31993647  1
  Al0+  Al84  1  0.17677417  0.93105592  0.01539235  1
  Al0+  Al85  1  0.67972039  0.93005040  0.68140831  1
  Al0+  Al86  1  0.92681584  0.82003639  0.31818785  1
  Al0+  Al87  1  0.82039508  0.57144082  0.68255614  1
  Al0+  Al88  1  0.56930333  0.67940179  0.65265397  1
  Al0+  Al89  1  0.67831812  0.42751020  0.34886032  1
  Al0+  Al90  1  0.32301570  0.57236121  0.01544123  1
  Al0+  Al91  1  0.07012984  0.18178425  0.65389087  1
  Al0+  Al92  1  0.92957746  0.81931159  0.65267011  1
  Al0+  Al93  1  0.56987025  0.17886688  0.31835210  1
  Al0+  Al94  1  0.07264349  0.67756655  0.98466259  1
  Al0+  Al95  1  0.92749246  0.82076263  0.98288790  1
  Si0+  Si96  1  0.18042249  0.42883616  0.34894860  1
  Si0+  Si97  1  0.42550725  0.82194093  0.64961977  1
  Si0+  Si98  1  0.82085879  0.07493075  0.68306670  1
  Si0+  Si99  1  0.42845648  0.32585411  0.31121637  1
  Si0+  Si100  1  0.57189443  0.17768801  0.98380447  1
  Si0+  Si101  1  0.43046764  0.32031708  0.98223002  1
  Si0+  Si102  1  0.56882564  0.67824390  0.98720720  1
  Si0+  Si103  1  0.57032984  0.67681073  0.31817626  1
  Si0+  Si104  1  0.43094032  0.81990807  0.31894223  1
  Si0+  Si105  1  0.67957883  0.42414444  0.01473116  1
  Si0+  Si106  1  0.17764678  0.42853051  0.68111387  1
  Si0+  Si107  1  0.07232124  0.18027599  0.98596641  1
  Si0+  Si108  1  0.67891582  0.93045240  0.01498186  1
  Si0+  Si109  1  0.92676289  0.32555592  0.64969474  1
  Si0+  Si110  1  0.92812991  0.32043418  0.98627173  1
  Si0+  Si111  1  0.07401743  0.67703242  0.65330954  1
  Si0+  Si112  1  0.32466496  0.07104969  0.01638617  1
  Si0+  Si113  1  0.81996292  0.07324922  0.01478088  1
  Si0+  Si114  1  0.82259229  0.07353516  0.34969511  1
  Si0+  Si115  1  0.42877269  0.32184349  0.64779751  1
  Si0+  Si116  1  0.67875508  0.42685270  0.68312288  1
  Si0+  Si117  1  0.32224962  0.57222441  0.34770714  1
  Si0+  Si118  1  0.42969450  0.82262575  0.98462377  1
  Si0+  Si119  1  0.92974035  0.32162655  0.31689080  1
  O2-  O120  1  0.25253108  0.00649490  0.05978773  1
  O2-  O121  1  0.24156489  0.00751562  0.39669506  1
  O2-  O122  1  0.24482185  0.00339576  0.73223117  1
  O2-  O123  1  0.24511239  0.50667518  0.06578178  1
  O2-  O124  1  0.24856363  0.50361124  0.38935258  1
  O2-  O125  1  0.24256220  0.50076925  0.72471060  1
  O2-  O126  1  0.75130208  -0.00020601  0.05626716  1
  O2-  O127  1  0.75586773  0.00306264  0.39331905  1
  O2-  O128  1  0.75307054  0.00592091  0.72883652  1
  O2-  O129  1  0.74604960  0.49423492  0.05888399  1
  O2-  O130  1  0.74830690  0.50009349  0.39962103  1
  O2-  O131  1  0.74628760  0.49520558  0.72929612  1
  O2-  O132  1  -0.00147349  0.25400897  0.27046780  1
  O2-  O133  1  -0.00333950  0.25771491  0.60665110  1
  O2-  O134  1  0.00393948  0.25427392  0.94390380  1
  O2-  O135  1  0.00158253  0.75017388  0.26985452  1
  O2-  O136  1  0.00748580  0.74691211  0.60849639  1
  O2-  O137  1  0.00094907  0.74958186  0.93353749  1
  O2-  O138  1  0.49715846  0.25490480  0.26985030  1
  O2-  O139  1  0.49356959  0.24974570  0.60411196  1
  O2-  O140  1  0.50110121  0.24827740  0.94121164  1
  O2-  O141  1  0.49994669  0.74736526  0.27459761  1
  O2-  O142  1  0.49252204  0.75147447  0.60492164  1
  O2-  O143  1  0.49457502  0.74512316  0.94401529  1
  O2-  O144  1  0.07087177  0.18059502  0.09093128  1
  O2-  O145  1  0.07248250  0.18211509  0.43150942  1
  O2-  O146  1  0.06782764  0.18403493  0.76775355  1
  O2-  O147  1  0.06936729  0.67915904  0.09797432  1
  O2-  O148  1  0.07543547  0.67836967  0.43383994  1
  O2-  O149  1  0.07287427  0.67484567  0.75865032  1
  O2-  O150  1  0.57242788  0.17685181  0.08856785  1
  O2-  O151  1  0.56675695  0.17769727  0.43088667  1
  O2-  O152  1  0.56928433  0.18085537  0.76574624  1
  O2-  O153  1  0.56906835  0.68052241  0.09251624  1
  O2-  O154  1  0.56836536  0.67619381  0.42305588  1
  O2-  O155  1  0.56846943  0.68100570  0.76657019  1
  O2-  O156  1  0.18153124  0.42704597  0.24414342  1
  O2-  O157  1  0.17904992  0.42772285  0.57535482  1
  O2-  O158  1  0.18500969  0.42290945  0.90194597  1
  O2-  O159  1  0.17922107  0.92757796  0.23489611  1
  O2-  O160  1  0.17330032  0.93022588  0.56907972  1
  O2-  O161  1  0.17550419  0.93412458  0.90246532  1
  O2-  O162  1  0.68055559  0.43023791  0.23449303  1
  O2-  O163  1  0.68020113  0.42673840  0.57810734  1
  O2-  O164  1  0.68078187  0.42122474  0.90919028  1
  O2-  O165  1  0.67815127  0.93184388  0.23288467  1
  O2-  O166  1  0.68046060  0.93036373  0.56870462  1
  O2-  O167  1  0.67593380  0.93169884  0.91015575  1
  O2-  O168  1  0.43078730  0.32175499  0.08679673  1
  O2-  O169  1  0.42759322  0.33217954  0.41616417  1
  O2-  O170  1  0.43126040  0.32313566  0.75381733  1
  O2-  O171  1  0.43505252  0.82741439  0.08976821  1
  O2-  O172  1  0.43179637  0.81745177  0.42368472  1
  O2-  O173  1  0.42833891  0.82100371  0.75575865  1
  O2-  O174  1  0.92325369  0.31515311  0.09077618  1
  O2-  O175  1  0.93198382  0.32039589  0.42244564  1
  O2-  O176  1  0.92654620  0.32455422  0.75586660  1
  O2-  O177  1  0.92415466  0.82039287  0.09574888  1
  O2-  O178  1  0.92542332  0.81754697  0.43175498  1
  O2-  O179  1  0.92863115  0.81749907  0.76583457  1
  O2-  O180  1  0.32047513  0.06637628  0.23235799  1
  O2-  O181  1  0.31895697  0.06929597  0.56888534  1
  O2-  O182  1  0.32801593  0.06939558  0.91115866  1
  O2-  O183  1  0.32535043  0.57038922  0.24297665  1
  O2-  O184  1  0.32219891  0.56788804  0.56475053  1
  O2-  O185  1  0.32741241  0.56605606  0.90212576  1
  O2-  O186  1  0.81961129  0.07539651  0.24339777  1
  O2-  O187  1  0.82086939  0.07659721  0.57797076  1
  O2-  O188  1  0.81712282  0.07957590  0.91011570  1
  O2-  O189  1  0.82097806  0.56987240  0.23701282  1
  O2-  O190  1  0.82058867  0.56994985  0.57023303  1
  O2-  O191  1  0.81640177  0.57229783  0.90187995  1
  O2-  O192  1  0.04018213  0.08477993  0.26234767  1
  O2-  O193  1  0.03660169  0.08727248  0.59858860  1
  O2-  O194  1  0.03936723  0.09064029  0.93821154  1
  O2-  O195  1  0.04697261  0.57799803  0.26972600  1
  O2-  O196  1  0.04809709  0.58266606  0.60808899  1
  O2-  O197  1  0.04805223  0.57573856  0.93584785  1
  O2-  O198  1  0.53717932  0.08290604  0.26253197  1
  O2-  O199  1  0.53905952  0.07922256  0.60091885  1
  O2-  O200  1  0.54397516  0.08572016  0.93631123  1
  O2-  O201  1  0.54186765  0.58547014  0.27002388  1
  O2-  O202  1  0.54072475  0.58227020  0.59851363  1
  O2-  O203  1  0.54602702  0.58431936  0.94129767  1
  O2-  O204  1  0.16954656  0.21202088  0.26469519  1
  O2-  O205  1  0.16665242  0.21236990  0.59958273  1
  O2-  O206  1  0.16571051  0.20595921  0.94061263  1
  O2-  O207  1  0.17355796  0.70429531  0.26750388  1
  O2-  O208  1  0.16958722  0.69950228  0.60987438  1
  O2-  O209  1  0.17457826  0.70380579  0.93709387  1
  O2-  O210  1  0.66752580  0.20825869  0.26385256  1
  O2-  O211  1  0.66624082  0.20696997  0.59798436  1
  O2-  O212  1  0.66360139  0.20503300  0.93564304  1
  O2-  O213  1  0.66173941  0.70576525  0.27162949  1
  O2-  O214  1  0.66426363  0.71342085  0.59909290  1
  O2-  O215  1  0.65877860  0.71090271  0.93963246  1
  O2-  O216  1  0.07902286  0.44577568  0.06847652  1
  O2-  O217  1  0.08865682  0.45137488  0.39804715  1
  O2-  O218  1  0.08289509  0.44732381  0.72737643  1
  O2-  O219  1  0.08025008  0.96335665  0.06834980  1
  O2-  O220  1  0.07464462  0.95345659  0.39619773  1
  O2-  O221  1  0.07557009  0.96265942  0.73477496  1
  O2-  O222  1  0.58513189  0.44660796  0.05960783  1
  O2-  O223  1  0.57819969  0.45197011  0.39935953  1
  O2-  O224  1  0.58453284  0.45128063  0.72827552  1
  O2-  O225  1  0.58796314  0.96074193  0.06336188  1
  O2-  O226  1  0.58450960  0.96234790  0.40062948  1
  O2-  O227  1  0.58343937  0.95942306  0.73711706  1
  O2-  O228  1  0.21623522  0.33199688  0.06983259  1
  O2-  O229  1  0.21361579  0.33904042  0.39691500  1
  O2-  O230  1  0.20759586  0.33692642  0.72858969  1
  O2-  O231  1  0.21026481  0.83581929  0.06937275  1
  O2-  O232  1  0.21187858  0.83293430  0.40209204  1
  O2-  O233  1  0.20349360  0.83296407  0.73734623  1
  O2-  O234  1  0.70673864  0.33067664  0.06092160  1
  O2-  O235  1  0.70639597  0.32865731  0.40036921  1
  O2-  O236  1  0.70358255  0.33263831  0.72914075  1
  O2-  O237  1  0.70351677  0.83837096  0.06278872  1
  O2-  O238  1  0.70564906  0.83254658  0.40061144  1
  O2-  O239  1  0.71081151  0.83438741  0.73681897  1
  O2-  O240  1  0.45690686  0.41770473  0.26168034  1
  O2-  O241  1  0.45831817  0.41322747  0.59954672  1
  O2-  O242  1  0.45973351  0.41127394  0.93305522  1
  O2-  O243  1  0.46295051  0.90913879  0.26921547  1
  O2-  O244  1  0.45484501  0.91424938  0.60456321  1
  O2-  O245  1  0.46521937  0.91079889  0.93407442  1
  O2-  O246  1  0.95621369  0.41534222  0.27216730  1
  O2-  O247  1  0.95197515  0.41931561  0.60429008  1
  O2-  O248  1  0.95123095  0.41367954  0.94057134  1
  O2-  O249  1  0.94796159  0.91993506  0.26472639  1
  O2-  O250  1  0.95252683  0.91803106  0.59980189  1
  O2-  O251  1  0.95236406  0.92204240  0.93236820  1
  O2-  O252  1  0.33591714  0.30026418  0.26311132  1
  O2-  O253  1  0.33379015  0.30249171  0.60257109  1
  O2-  O254  1  0.33919215  0.29272655  0.93336434  1
  O2-  O255  1  0.33939940  0.79276414  0.27068551  1
  O2-  O256  1  0.33066790  0.79802328  0.60605134  1
  O2-  O257  1  0.33594597  0.80273893  0.93917497  1
  O2-  O258  1  0.83641469  0.29629731  0.26996008  1
  O2-  O259  1  0.83397114  0.29950197  0.60314400  1
  O2-  O260  1  0.83933468  0.28716081  0.93479995  1
  O2-  O261  1  0.82782884  0.78939286  0.26577603  1
  O2-  O262  1  0.83341136  0.78548180  0.60062824  1
  O2-  O263  1  0.82723437  0.79095809  0.93231355  1
  O2-  O264  1  0.41788179  0.04172854  0.06243654  1
  O2-  O265  1  0.41563866  0.03511259  0.39863273  1
  O2-  O266  1  0.41648599  0.04147967  0.73695272  1
  O2-  O267  1  0.41957451  0.53568357  0.06963766  1
  O2-  O268  1  0.41275556  0.54040118  0.39539683  1
  O2-  O269  1  0.41717089  0.53537660  0.73218676  1
  O2-  O270  1  0.91232746  0.04902559  0.06179986  1
  O2-  O271  1  0.91721087  0.05051803  0.39321397  1
  O2-  O272  1  0.91408279  0.05055880  0.72973681  1
  O2-  O273  1  0.91573096  0.54072304  0.06859832  1
  O2-  O274  1  0.92029082  0.54045214  0.40429300  1
  O2-  O275  1  0.91652901  0.54067829  0.73842794  1
  O2-  O276  1  0.30470903  0.16663910  0.05982995  1
  O2-  O277  1  0.30484427  0.17480939  0.39393527  1
  O2-  O278  1  0.29725012  0.17340867  0.73211487  1
  O2-  O279  1  0.30755058  0.67405135  0.06528591  1
  O2-  O280  1  0.29911173  0.66416953  0.39584756  1
  O2-  O281  1  0.29841393  0.66759246  0.73455867  1
  O2-  O282  1  0.78917000  0.16279102  0.06556443  1
  O2-  O283  1  0.79730193  0.16666683  0.39541912  1
  O2-  O284  1  0.79423346  0.16876035  0.72977063  1
  O2-  O285  1  0.78354539  0.66609792  0.07000342  1
  O2-  O286  1  0.79012313  0.66750418  0.40340937  1
  O2-  O287  1  0.78433886  0.66561453  0.73707202  1
