# generated using pymatgen
data_Ca2Al2SiO7
_symmetry_space_group_name_H-M   'P 1'
_cell_length_a   15.45793787
_cell_length_b   15.45773971
_cell_length_c   15.28447935
_cell_angle_alpha   89.99965385
_cell_angle_beta   90.00031557
_cell_angle_gamma   90.01141498
_symmetry_Int_Tables_number   1
_chemical_formula_structural   Ca2Al2SiO7
_chemical_formula_sum   'Ca48 Al48 Si24 O168'
_cell_volume   3652.14648373
_cell_formula_units_Z   24
loop_
 _symmetry_equiv_pos_site_id
 _symmetry_equiv_pos_as_xyz
  1  'x, y, z'
loop_
 _atom_type_symbol
 _atom_type_oxidation_number
  Ca2+  2.0
  Al0+  0.0
  Si0+  0.0
  O2-  -2.0
loop_
 _atom_site_type_symbol
 _atom_site_label
 _atom_site_symmetry_multiplicity
 _atom_site_fract_x
 _atom_site_fract_y
 _atom_site_fract_z
 _atom_site_occupancy
  Ca2+  Ca0  1  0.17066504  0.07997415  0.16406588  1
  Ca2+  Ca1  1  0.16320549  0.08610822  0.50530242  1
  Ca2+  Ca2  1  0.16715879  0.07992344  0.84234162  1
  Ca2+  Ca3  1  0.16512837  0.58309166  0.16954040  1
  Ca2+  Ca4  1  0.17399953  0.58584126  0.50543972  1
  Ca2+  Ca5  1  0.16226727  0.57215036  0.83888147  1
  Ca2+  Ca6  1  0.67511181  0.08480682  0.17064169  1
  Ca2+  Ca7  1  0.67526339  0.07145049  0.50150657  1
  Ca2+  Ca8  1  0.67178829  0.08026669  0.84021402  1
  Ca2+  Ca9  1  0.67198904  0.57890458  0.16458166  1
  Ca2+  Ca10  1  0.67329435  0.57738902  0.51472482  1
  Ca2+  Ca11  1  0.67701980  0.57758135  0.83338119  1
  Ca2+  Ca12  1  0.07725584  0.33676904  0.16255692  1
  Ca2+  Ca13  1  0.07421616  0.33646319  0.50218129  1
  Ca2+  Ca14  1  0.08224348  0.33094395  0.82448539  1
  Ca2+  Ca15  1  0.08506364  0.82247149  0.16100834  1
  Ca2+  Ca16  1  0.06766246  0.82737196  0.49286633  1
  Ca2+  Ca17  1  0.07875927  0.82899421  0.82948589  1
  Ca2+  Ca18  1  0.57642401  0.32940538  0.15151226  1
  Ca2+  Ca19  1  0.58605248  0.33573048  0.49780214  1
  Ca2+  Ca20  1  0.58507008  0.33606670  0.83349793  1
  Ca2+  Ca21  1  0.58491267  0.83612796  0.16463961  1
  Ca2+  Ca22  1  0.59116045  0.82806753  0.49950388  1
  Ca2+  Ca23  1  0.58542474  0.82711066  0.82260453  1
  Ca2+  Ca24  1  0.32731229  0.41693521  0.16819831  1
  Ca2+  Ca25  1  0.32514616  0.42810064  0.50914710  1
  Ca2+  Ca26  1  0.32323368  0.41690076  0.83681975  1
  Ca2+  Ca27  1  0.32839233  0.91786747  0.16415253  1
  Ca2+  Ca28  1  0.32956247  0.91911066  0.50392081  1
  Ca2+  Ca29  1  0.32467988  0.92352365  0.84281108  1
  Ca2+  Ca30  1  0.83221292  0.41832993  0.16727158  1
  Ca2+  Ca31  1  0.83501260  0.42059766  0.51004538  1
  Ca2+  Ca32  1  0.83066275  0.42378867  0.83858650  1
  Ca2+  Ca33  1  0.83267000  0.92985342  0.17551749  1
  Ca2+  Ca34  1  0.82940701  0.91028440  0.50424657  1
  Ca2+  Ca35  1  0.83233404  0.91932760  0.83595976  1
  Ca2+  Ca36  1  0.42426180  0.16997597  0.15159908  1
  Ca2+  Ca37  1  0.42051878  0.17002224  0.49684511  1
  Ca2+  Ca38  1  0.41741247  0.17069048  0.83553551  1
  Ca2+  Ca39  1  0.41541978  0.66524635  0.16367933  1
  Ca2+  Ca40  1  0.42137645  0.65605284  0.49963121  1
  Ca2+  Ca41  1  0.42326086  0.66294458  0.82610342  1
  Ca2+  Ca42  1  0.90704637  0.17011989  0.16394907  1
  Ca2+  Ca43  1  0.91523642  0.17803870  0.49813541  1
  Ca2+  Ca44  1  0.92132751  0.17154570  0.82493416  1
  Ca2+  Ca45  1  0.92450999  0.67042230  0.16095871  1
  Ca2+  Ca46  1  0.91421991  0.67430790  0.49516577  1
  Ca2+  Ca47  1  0.91526711  0.66647068  0.82872378  1
  Al0+  Al48  1  -0.00173970  -0.00122251  0.00908279  1
  Al0+  Al49  1  0.00126719  0.00303066  0.33428748  1
  Al0+  Al50  1  0.00052367  -0.00076474  0.65782590  1
  Al0+  Al51  1  0.00096053  0.50166127  0.00395905  1
  Al0+  Al52  1  -0.00054773  0.49779605  0.32622343  1
  Al0+  Al53  1  0.00208804  0.50035962  0.66903973  1
  Al0+  Al54  1  0.49936699  0.00019454  -0.00232721  1
  Al0+  Al55  1  0.50080709  -0.00134059  0.33702845  1
  Al0+  Al56  1  0.50027678  0.00015457  0.66878579  1
  Al0+  Al57  1  0.49926950  0.50053250  -0.00208783  1
  Al0+  Al58  1  0.49835678  0.50009059  0.33448635  1
  Al0+  Al59  1  0.49999171  0.49971973  0.66864253  1
  Al0+  Al60  1  0.25011960  0.25074834  0.00518624  1
  Al0+  Al61  1  0.24912569  0.25110239  0.33461012  1
  Al0+  Al62  1  0.25219554  0.25005164  0.66392271  1
  Al0+  Al63  1  0.24881297  0.74866155  -0.00299329  1
  Al0+  Al64  1  0.25258673  0.75038643  0.33497606  1
  Al0+  Al65  1  0.25169664  0.75337996  0.67016405  1
  Al0+  Al66  1  0.74808098  0.24961457  0.00124716  1
  Al0+  Al67  1  0.74943061  0.24819844  0.33363425  1
  Al0+  Al68  1  0.74946120  0.24796139  0.66476139  1
  Al0+  Al69  1  0.75062187  0.74988614  0.00406550  1
  Al0+  Al70  1  0.74936857  0.74899625  0.32913785  1
  Al0+  Al71  1  0.74799362  0.74926600  0.66686197  1
  Al0+  Al72  1  0.67903583  0.42501337  0.68082509  1
  Al0+  Al73  1  0.32132460  0.07098638  0.01465557  1
  Al0+  Al74  1  0.56804487  0.67918195  0.65325502  1
  Al0+  Al75  1  0.67826335  0.42976497  0.01524307  1
  Al0+  Al76  1  0.07048642  0.67872439  0.98361231  1
  Al0+  Al77  1  0.32043625  0.57081955  0.34713050  1
  Al0+  Al78  1  0.92821225  0.31887507  0.31753708  1
  Al0+  Al79  1  0.17794675  0.92680445  0.01512321  1
  Al0+  Al80  1  0.07311187  0.17878483  0.65289864  1
  Al0+  Al81  1  0.92635975  0.82269385  0.31550333  1
  Al0+  Al82  1  0.32121332  0.57353446  0.68368802  1
  Al0+  Al83  1  0.82011998  0.07101001  0.01174277  1
  Al0+  Al84  1  0.17871969  0.42838015  0.01542220  1
  Al0+  Al85  1  0.17975320  0.42902432  0.68111164  1
  Al0+  Al86  1  0.57236134  0.17832028  0.98293455  1
  Al0+  Al87  1  0.42683587  0.32252930  0.98325773  1
  Al0+  Al88  1  0.67977787  0.92929453  0.68112660  1
  Al0+  Al89  1  0.92868943  0.81882718  0.65427350  1
  Al0+  Al90  1  0.07256261  0.68032900  0.31881733  1
  Al0+  Al91  1  0.82219674  0.57206875  0.01766790  1
  Al0+  Al92  1  0.92792652  0.32269323  0.65444932  1
  Al0+  Al93  1  0.82353519  0.07318558  0.35213302  1
  Al0+  Al94  1  0.67954635  0.92784517  0.34899604  1
  Al0+  Al95  1  0.82263176  0.57181207  0.67952546  1
  Si0+  Si96  1  0.92889051  0.32090595  0.98590904  1
  Si0+  Si97  1  0.92786972  0.82287809  0.98390995  1
  Si0+  Si98  1  0.17754031  0.93113616  0.67986832  1
  Si0+  Si99  1  0.67700458  0.92707612  0.01518898  1
  Si0+  Si100  1  0.43024036  0.31999797  0.64967726  1
  Si0+  Si101  1  0.82121261  0.56902829  0.34674270  1
  Si0+  Si102  1  0.07487575  0.67822827  0.65159149  1
  Si0+  Si103  1  0.42745946  0.82457007  0.64935888  1
  Si0+  Si104  1  0.32188031  0.57198466  0.01603997  1
  Si0+  Si105  1  0.18076224  0.92903060  0.34947104  1
  Si0+  Si106  1  0.82324566  0.07036860  0.68218430  1
  Si0+  Si107  1  0.42918925  0.32160301  0.31931745  1
  Si0+  Si108  1  0.42852759  0.82058917  0.98450466  1
  Si0+  Si109  1  0.07547553  0.17865790  0.31353807  1
  Si0+  Si110  1  0.56784791  0.17840475  0.31953246  1
  Si0+  Si111  1  0.57239496  0.67999644  0.98486970  1
  Si0+  Si112  1  0.67809002  0.42986370  0.34675002  1
  Si0+  Si113  1  0.42997313  0.82232130  0.31809551  1
  Si0+  Si114  1  0.57023168  0.67685870  0.31713205  1
  Si0+  Si115  1  0.57130334  0.17594080  0.64935047  1
  Si0+  Si116  1  0.32127687  0.07195499  0.34893494  1
  Si0+  Si117  1  0.32193613  0.07163334  0.68095620  1
  Si0+  Si118  1  0.06959039  0.17788232  0.98876794  1
  Si0+  Si119  1  0.17626615  0.42753142  0.35137700  1
  O2-  O120  1  0.25034811  -0.00137380  0.06570412  1
  O2-  O121  1  0.24789653  0.00436282  0.39236047  1
  O2-  O122  1  0.24826739  0.00287157  0.72160422  1
  O2-  O123  1  0.25450163  0.50290713  0.06103311  1
  O2-  O124  1  0.24289626  0.49933822  0.39340486  1
  O2-  O125  1  0.24719398  0.50424564  0.73322517  1
  O2-  O126  1  0.74380693  -0.00257491  0.05827380  1
  O2-  O127  1  0.75724151  -0.00615819  0.39922158  1
  O2-  O128  1  0.75441173  0.00301430  0.72803006  1
  O2-  O129  1  0.75094903  0.49903634  0.06803487  1
  O2-  O130  1  0.75016098  0.49860218  0.38986881  1
  O2-  O131  1  0.75511891  0.49422631  0.72792241  1
  O2-  O132  1  0.00300889  0.24366366  0.27031095  1
  O2-  O133  1  0.00105330  0.25126158  0.60402036  1
  O2-  O134  1  -0.00012301  0.24897790  0.94516626  1
  O2-  O135  1  0.00069554  0.75203637  0.26716340  1
  O2-  O136  1  0.00194703  0.74226683  0.60748466  1
  O2-  O137  1  -0.00499377  0.75349443  0.93850008  1
  O2-  O138  1  0.49751867  0.24916413  0.27631505  1
  O2-  O139  1  0.50438859  0.25155460  0.60704889  1
  O2-  O140  1  0.50045060  0.25128683  0.93356677  1
  O2-  O141  1  0.50115008  0.75105255  0.27625001  1
  O2-  O142  1  0.49251541  0.75297565  0.60433597  1
  O2-  O143  1  0.50203599  0.75225546  0.94322175  1
  O2-  O144  1  0.06858804  0.17871680  0.09393073  1
  O2-  O145  1  0.08131754  0.18220261  0.41870893  1
  O2-  O146  1  0.07297080  0.17598183  0.76698505  1
  O2-  O147  1  0.07239287  0.68083866  0.09668790  1
  O2-  O148  1  0.07319297  0.68261992  0.43266149  1
  O2-  O149  1  0.07625846  0.68210350  0.75698626  1
  O2-  O150  1  0.57033452  0.17838882  0.09743323  1
  O2-  O151  1  0.56499761  0.17936087  0.42502794  1
  O2-  O152  1  0.56848221  0.17180330  0.75371875  1
  O2-  O153  1  0.57061228  0.68090840  0.09060456  1
  O2-  O154  1  0.56911775  0.67404855  0.42200591  1
  O2-  O155  1  0.56772465  0.68261260  0.76642912  1
  O2-  O156  1  0.17954689  0.42445595  0.24583387  1
  O2-  O157  1  0.18254205  0.42859964  0.56715196  1
  O2-  O158  1  0.17809021  0.42734490  0.90276139  1
  O2-  O159  1  0.18550664  0.92792705  0.24470883  1
  O2-  O160  1  0.18063096  0.93089108  0.57444241  1
  O2-  O161  1  0.17844047  0.92976807  0.90103186  1
  O2-  O162  1  0.67531210  0.43216625  0.24201663  1
  O2-  O163  1  0.67799118  0.42827003  0.56605738  1
  O2-  O164  1  0.68055541  0.43184837  0.90223298  1
  O2-  O165  1  0.67307687  0.93342449  0.23557736  1
  O2-  O166  1  0.67868851  0.93050996  0.56831350  1
  O2-  O167  1  0.67848908  0.92534347  0.90960657  1
  O2-  O168  1  0.42832586  0.32091929  0.09794043  1
  O2-  O169  1  0.43117645  0.32062557  0.42467991  1
  O2-  O170  1  0.42684582  0.31675252  0.75409155  1
  O2-  O171  1  0.42855400  0.81971429  0.09016710  1
  O2-  O172  1  0.42849481  0.82524007  0.42291456  1
  O2-  O173  1  0.42908955  0.82758694  0.75478644  1
  O2-  O174  1  0.92943589  0.31912862  0.09138418  1
  O2-  O175  1  0.92854836  0.32110975  0.43028962  1
  O2-  O176  1  0.92776743  0.31871689  0.76822962  1
  O2-  O177  1  0.92890652  0.82246208  0.08921954  1
  O2-  O178  1  0.92612753  0.81752110  0.42946979  1
  O2-  O179  1  0.93231118  0.82308187  0.76726665  1
  O2-  O180  1  0.32304729  0.07097553  0.24446386  1
  O2-  O181  1  0.32384520  0.07005216  0.57513645  1
  O2-  O182  1  0.31890242  0.06914543  0.90074664  1
  O2-  O183  1  0.32430279  0.56782401  0.23425508  1
  O2-  O184  1  0.32018751  0.57098306  0.56957314  1
  O2-  O185  1  0.32146155  0.57302620  0.91090481  1
  O2-  O186  1  0.81615214  0.07557138  0.23852516  1
  O2-  O187  1  0.82086577  0.07003336  0.57682450  1
  O2-  O188  1  0.82279319  0.06851444  0.89854464  1
  O2-  O189  1  0.81874936  0.56775338  0.24187933  1
  O2-  O190  1  0.81955954  0.57275878  0.56503903  1
  O2-  O191  1  0.82035834  0.57310292  0.90440592  1
  O2-  O192  1  0.05627032  0.08259915  0.27064502  1
  O2-  O193  1  0.04537101  0.08209612  0.59562956  1
  O2-  O194  1  0.04172554  0.08503906  0.94311473  1
  O2-  O195  1  0.04660304  0.58111179  0.26673366  1
  O2-  O196  1  0.05670818  0.58266285  0.60770326  1
  O2-  O197  1  0.03915091  0.58151226  0.93153560  1
  O2-  O198  1  0.53826489  0.08680042  0.27313489  1
  O2-  O199  1  0.53633608  0.08683996  0.59984944  1
  O2-  O200  1  0.54320023  0.07941247  0.93013105  1
  O2-  O201  1  0.53733711  0.58691049  0.26824512  1
  O2-  O202  1  0.53804931  0.58224754  0.59790373  1
  O2-  O203  1  0.54347792  0.58923359  0.93730649  1
  O2-  O204  1  0.16852487  0.20762473  0.26608510  1
  O2-  O205  1  0.17207922  0.20508033  0.59807807  1
  O2-  O206  1  0.16244834  0.20392294  0.94329013  1
  O2-  O207  1  0.17193552  0.71046892  0.26693075  1
  O2-  O208  1  0.16741631  0.70996542  0.60548115  1
  O2-  O209  1  0.16700601  0.70952557  0.92909515  1
  O2-  O210  1  0.65989418  0.20516491  0.27351136  1
  O2-  O211  1  0.66375234  0.19912341  0.60121907  1
  O2-  O212  1  0.67081243  0.20600422  0.92970352  1
  O2-  O213  1  0.66145780  0.70210367  0.26788876  1
  O2-  O214  1  0.66329078  0.71165985  0.59774445  1
  O2-  O215  1  0.66452874  0.70810975  0.93862511  1
  O2-  O216  1  0.08403790  0.46094754  0.07113837  1
  O2-  O217  1  0.08101960  0.45092777  0.39391448  1
  O2-  O218  1  0.08077504  0.45156448  0.73455267  1
  O2-  O219  1  0.08191184  0.95493193  0.07147602  1
  O2-  O220  1  0.08799236  0.95384067  0.39583926  1
  O2-  O221  1  0.08575197  0.95863628  0.72634877  1
  O2-  O222  1  0.57943099  0.46026008  0.06757678  1
  O2-  O223  1  0.58691668  0.45891216  0.39517256  1
  O2-  O224  1  0.58169970  0.45576716  0.73269248  1
  O2-  O225  1  0.58194653  0.94952075  0.05933765  1
  O2-  O226  1  0.58219422  0.96001076  0.40417599  1
  O2-  O227  1  0.58259685  0.95996875  0.73442535  1
  O2-  O228  1  0.20859978  0.33321645  0.07241155  1
  O2-  O229  1  0.20594297  0.33525970  0.39848882  1
  O2-  O230  1  0.21324648  0.33074452  0.73212831  1
  O2-  O231  1  0.21187668  0.82969749  0.06758145  1
  O2-  O232  1  0.21469763  0.84039012  0.39877255  1
  O2-  O233  1  0.20591516  0.84090537  0.72961493  1
  O2-  O234  1  0.70363552  0.33061840  0.06752670  1
  O2-  O235  1  0.70203749  0.33644279  0.39199771  1
  O2-  O236  1  0.69983310  0.32393887  0.73118733  1
  O2-  O237  1  0.70188948  0.83470139  0.06375992  1
  O2-  O238  1  0.70215640  0.82573894  0.39776373  1
  O2-  O239  1  0.70890850  0.83311265  0.73500633  1
  O2-  O240  1  0.45857769  0.41241704  0.27123319  1
  O2-  O241  1  0.45625506  0.41235668  0.60263463  1
  O2-  O242  1  0.45328611  0.42169346  0.93106285  1
  O2-  O243  1  0.45836851  0.91397465  0.26969739  1
  O2-  O244  1  0.45521748  0.91746007  0.60175150  1
  O2-  O245  1  0.45228717  0.91314079  0.93680785  1
  O2-  O246  1  0.95872166  0.41412692  0.26058114  1
  O2-  O247  1  0.95665968  0.42133331  0.60053482  1
  O2-  O248  1  0.95789193  0.41298906  0.94136150  1
  O2-  O249  1  0.95310631  0.92437777  0.26911476  1
  O2-  O250  1  0.96138409  0.91287423  0.59597562  1
  O2-  O251  1  0.95509945  0.91686493  0.93909856  1
  O2-  O252  1  0.33576347  0.29604041  0.27426832  1
  O2-  O253  1  0.34139535  0.28797906  0.59825856  1
  O2-  O254  1  0.32847163  0.29004610  0.93205983  1
  O2-  O255  1  0.33945910  0.79332970  0.26920782  1
  O2-  O256  1  0.33214666  0.80331119  0.60395537  1
  O2-  O257  1  0.33806110  0.79158099  0.93555495  1
  O2-  O258  1  0.83053928  0.28789932  0.26423652  1
  O2-  O259  1  0.82998551  0.29306580  0.59918537  1
  O2-  O260  1  0.83691965  0.29370355  0.94005878  1
  O2-  O261  1  0.82795471  0.79460883  0.26212990  1
  O2-  O262  1  0.83216277  0.78889488  0.60017650  1
  O2-  O263  1  0.83283156  0.79807153  0.93970917  1
  O2-  O264  1  0.41972476  0.04088557  0.06741744  1
  O2-  O265  1  0.41124123  0.04096226  0.39854958  1
  O2-  O266  1  0.41178173  0.04139018  0.72976997  1
  O2-  O267  1  0.41610155  0.54894413  0.06208198  1
  O2-  O268  1  0.41577017  0.53576664  0.40249496  1
  O2-  O269  1  0.41859702  0.54208325  0.73498249  1
  O2-  O270  1  0.91390044  0.04114833  0.07152545  1
  O2-  O271  1  0.92638992  0.05644500  0.40008270  1
  O2-  O272  1  0.91773852  0.04354020  0.72533735  1
  O2-  O273  1  0.91955124  0.54359920  0.07105703  1
  O2-  O274  1  0.91369776  0.54114125  0.39200416  1
  O2-  O275  1  0.92259020  0.55109773  0.73135165  1
  O2-  O276  1  0.29295550  0.16748886  0.07029294  1
  O2-  O277  1  0.29614178  0.16500551  0.39642616  1
  O2-  O278  1  0.29726103  0.16394641  0.72697102  1
  O2-  O279  1  0.29552590  0.66545016  0.06213753  1
  O2-  O280  1  0.29621803  0.66924034  0.40122112  1
  O2-  O281  1  0.30121012  0.67529639  0.73347094  1
  O2-  O282  1  0.78913468  0.16650494  0.06741682  1
  O2-  O283  1  0.78552188  0.16871337  0.40598073  1
  O2-  O284  1  0.79749593  0.16386369  0.72740221  1
  O2-  O285  1  0.79087001  0.66957901  0.07189264  1
  O2-  O286  1  0.79293916  0.66157670  0.39158606  1
  O2-  O287  1  0.78742163  0.66681523  0.73447515  1
