# generated using pymatgen
data_Ca2Al2SiO7
_symmetry_space_group_name_H-M   'P 1'
_cell_length_a   15.45789741
_cell_length_b   15.45792486
_cell_length_c   15.28391135
_cell_angle_alpha   89.99357097
_cell_angle_beta   90.00724804
_cell_angle_gamma   89.98941152
_symmetry_Int_Tables_number   1
_chemical_formula_structural   Ca2Al2SiO7
_chemical_formula_sum   'Ca48 Al48 Si24 O168'
_cell_volume   3652.04490244
_cell_formula_units_Z   24
loop_
 _symmetry_equiv_pos_site_id
 _symmetry_equiv_pos_as_xyz
  1  'x, y, z'
loop_
 _atom_type_symbol
 _atom_type_oxidation_number
  Ca2+  2.0
  Al0+  0.0
  Si0+  0.0
  O2-  -2.0
loop_
 _atom_site_type_symbol
 _atom_site_label
 _atom_site_symmetry_multiplicity
 _atom_site_fract_x
 _atom_site_fract_y
 _atom_site_fract_z
 _atom_site_occupancy
  Ca2+  Ca0  1  0.15881586  0.07710286  0.17219125  1
  Ca2+  Ca1  1  0.17066242  0.08165900  0.50407024  1
  Ca2+  Ca2  1  0.17426360  0.07831779  0.83805328  1
  Ca2+  Ca3  1  0.17805158  0.58037694  0.17634750  1
  Ca2+  Ca4  1  0.17099627  0.57742314  0.50781911  1
  Ca2+  Ca5  1  0.16075027  0.57756741  0.83218778  1
  Ca2+  Ca6  1  0.65892832  0.07543838  0.17218837  1
  Ca2+  Ca7  1  0.66554010  0.07650491  0.50996341  1
  Ca2+  Ca8  1  0.66121523  0.07476895  0.83579840  1
  Ca2+  Ca9  1  0.67056041  0.58616631  0.17308300  1
  Ca2+  Ca10  1  0.66707804  0.58862396  0.50651084  1
  Ca2+  Ca11  1  0.67871338  0.59433271  0.83303916  1
  Ca2+  Ca12  1  0.08690390  0.31872920  0.16355928  1
  Ca2+  Ca13  1  0.08498282  0.32903535  0.49817085  1
  Ca2+  Ca14  1  0.08483873  0.33014804  0.82774455  1
  Ca2+  Ca15  1  0.07729688  0.84227381  0.16402805  1
  Ca2+  Ca16  1  0.07008723  0.83967088  0.49571992  1
  Ca2+  Ca17  1  0.07761176  0.82752950  0.82330180  1
  Ca2+  Ca18  1  0.57978128  0.32172510  0.16450575  1
  Ca2+  Ca19  1  0.57651870  0.32124402  0.49334569  1
  Ca2+  Ca20  1  0.57893988  0.32057707  0.82405599  1
  Ca2+  Ca21  1  0.58980539  0.83248302  0.16671963  1
  Ca2+  Ca22  1  0.58577157  0.82951266  0.49991670  1
  Ca2+  Ca23  1  0.58455372  0.83374846  0.82214894  1
  Ca2+  Ca24  1  0.33967676  0.42112703  0.17580145  1
  Ca2+  Ca25  1  0.33558060  0.41564054  0.50515693  1
  Ca2+  Ca26  1  0.33180069  0.41225595  0.82850470  1
  Ca2+  Ca27  1  0.31795101  0.91728348  0.17319828  1
  Ca2+  Ca28  1  0.33049102  0.92046183  0.50714375  1
  Ca2+  Ca29  1  0.33612066  0.92137498  0.83468840  1
  Ca2+  Ca30  1  0.83420572  0.42397625  0.16755652  1
  Ca2+  Ca31  1  0.83049566  0.42431707  0.51008411  1
  Ca2+  Ca32  1  0.83416245  0.43060568  0.83534758  1
  Ca2+  Ca33  1  0.82258982  0.91590764  0.17388683  1
  Ca2+  Ca34  1  0.82645749  0.91597410  0.50609724  1
  Ca2+  Ca35  1  0.82323061  0.91614081  0.82971982  1
  Ca2+  Ca36  1  0.42543017  0.16554433  0.16692343  1
  Ca2+  Ca37  1  0.42154176  0.17073764  0.50013498  1
  Ca2+  Ca38  1  0.42601289  0.16486691  0.82261607  1
  Ca2+  Ca39  1  0.42186283  0.66389649  0.16892615  1
  Ca2+  Ca40  1  0.42485563  0.66908035  0.49633763  1
  Ca2+  Ca41  1  0.42559438  0.67859360  0.82087986  1
  Ca2+  Ca42  1  0.92782909  0.16177491  0.16420719  1
  Ca2+  Ca43  1  0.92135275  0.15977062  0.49528989  1
  Ca2+  Ca44  1  0.92275304  0.15944653  0.82915132  1
  Ca2+  Ca45  1  0.91366075  0.67377990  0.16487512  1
  Ca2+  Ca46  1  0.91717507  0.67668446  0.50222784  1
  Ca2+  Ca47  1  0.91722949  0.67065452  0.82054639  1
  Al0+  Al48  1  -0.00146688  -0.00018846  -0.00381969  1
  Al0+  Al49  1  -0.00230658  -0.00070416  0.32856797  1
  Al0+  Al50  1  -0.00057470  -0.00087642  0.66682788  1
  Al0+  Al51  1  0.00125000  0.50041110  0.00816537  1
  Al0+  Al52  1  0.00109035  0.50177708  0.33332161  1
  Al0+  Al53  1  0.00093156  0.49828537  0.67044380  1
  Al0+  Al54  1  0.49850646  -0.00016943  0.00311673  1
  Al0+  Al55  1  0.49713199  -0.00215829  0.33420918  1
  Al0+  Al56  1  0.49835476  -0.00060583  0.66660342  1
  Al0+  Al57  1  0.50143161  0.50035631  -0.00254505  1
  Al0+  Al58  1  0.50177537  0.50127750  0.32990496  1
  Al0+  Al59  1  0.49889923  0.49912018  0.66358416  1
  Al0+  Al60  1  0.25035914  0.25015051  -0.00313155  1
  Al0+  Al61  1  0.24922246  0.25002198  0.32411113  1
  Al0+  Al62  1  0.24996782  0.24904426  0.67283462  1
  Al0+  Al63  1  0.24960300  0.74991944  0.00396831  1
  Al0+  Al64  1  0.24933243  0.74864496  0.34361580  1
  Al0+  Al65  1  0.25030690  0.74678185  0.66040184  1
  Al0+  Al66  1  0.75082251  0.25196938  -0.00395697  1
  Al0+  Al67  1  0.75080443  0.25148566  0.32819157  1
  Al0+  Al68  1  0.75283704  0.25038987  0.66827529  1
  Al0+  Al69  1  0.75120278  0.75112212  0.00803279  1
  Al0+  Al70  1  0.75048311  0.75148460  0.32918726  1
  Al0+  Al71  1  0.75170380  0.75111436  0.66683837  1
  Al0+  Al72  1  0.42721709  0.82321370  0.65142246  1
  Al0+  Al73  1  0.32346396  0.56924693  0.34897985  1
  Al0+  Al74  1  0.42706795  0.31922667  0.65232300  1
  Al0+  Al75  1  0.06880841  0.18036966  0.32123329  1
  Al0+  Al76  1  0.57243556  0.67989470  0.65342877  1
  Al0+  Al77  1  0.93029224  0.81925003  0.31698359  1
  Al0+  Al78  1  0.82370111  0.07386260  0.68150376  1
  Al0+  Al79  1  0.07006203  0.17818685  0.98272655  1
  Al0+  Al80  1  0.93086585  0.82179092  0.65185715  1
  Al0+  Al81  1  0.57030282  0.17761635  0.98491550  1
  Al0+  Al82  1  0.42975394  0.32093569  0.31768056  1
  Al0+  Al83  1  0.57013696  0.68192790  0.31820764  1
  Al0+  Al84  1  0.81872430  0.56996202  0.67798297  1
  Al0+  Al85  1  0.67930822  0.93077438  0.68043820  1
  Al0+  Al86  1  0.67772404  0.92960857  0.34860897  1
  Al0+  Al87  1  0.82095108  0.57096826  0.01636232  1
  Al0+  Al88  1  0.07119052  0.67436872  0.65196819  1
  Al0+  Al89  1  0.31917493  0.06938345  0.67965771  1
  Al0+  Al90  1  0.67857638  0.93144419  0.01568768  1
  Al0+  Al91  1  0.18079575  0.42959032  0.68052684  1
  Al0+  Al92  1  0.17841201  0.92935856  0.01196390  1
  Al0+  Al93  1  0.57400758  0.17802968  0.65197071  1
  Al0+  Al94  1  0.57238377  0.17561327  0.31819173  1
  Al0+  Al95  1  0.17576369  0.93011263  0.34873154  1
  Si0+  Si96  1  0.92699278  0.32670557  0.31623535  1
  Si0+  Si97  1  0.17713081  0.92538002  0.68176585  1
  Si0+  Si98  1  0.07029730  0.17929937  0.65358750  1
  Si0+  Si99  1  0.93024568  0.32523659  0.98246517  1
  Si0+  Si100  1  0.82204385  0.07435841  0.01669816  1
  Si0+  Si101  1  0.42690162  0.81871493  0.98826320  1
  Si0+  Si102  1  0.82146106  0.57149344  0.34916124  1
  Si0+  Si103  1  0.57238226  0.68025207  0.98601541  1
  Si0+  Si104  1  0.32091569  0.07277575  0.01842164  1
  Si0+  Si105  1  0.42368333  0.82164702  0.31573545  1
  Si0+  Si106  1  0.68072143  0.42888794  0.34721798  1
  Si0+  Si107  1  0.82054525  0.07314535  0.34672634  1
  Si0+  Si108  1  0.92997017  0.32219317  0.65370068  1
  Si0+  Si109  1  0.32016743  0.07291640  0.34917895  1
  Si0+  Si110  1  0.32185140  0.57075456  0.01388328  1
  Si0+  Si111  1  0.18007737  0.42805293  0.01732204  1
  Si0+  Si112  1  0.92807387  0.81908996  0.98411268  1
  Si0+  Si113  1  0.42886162  0.32439227  0.98123206  1
  Si0+  Si114  1  0.67734719  0.42767979  0.01717131  1
  Si0+  Si115  1  0.07344856  0.67705910  0.31595210  1
  Si0+  Si116  1  0.17831255  0.42663941  0.34864939  1
  Si0+  Si117  1  0.07252857  0.67877645  0.98762085  1
  Si0+  Si118  1  0.67566620  0.42659671  0.68271990  1
  Si0+  Si119  1  0.32433098  0.57298775  0.68477267  1
  O2-  O120  1  0.24861460  0.00718989  0.06155612  1
  O2-  O121  1  0.25171212  0.00394748  0.39352453  1
  O2-  O122  1  0.24860789  -0.00967099  0.72689343  1
  O2-  O123  1  0.25389889  0.49698321  0.05755689  1
  O2-  O124  1  0.24794517  0.49369377  0.39269552  1
  O2-  O125  1  0.25407690  0.50537520  0.72920057  1
  O2-  O126  1  0.74998038  0.01008998  0.06193661  1
  O2-  O127  1  0.74661897  0.01132302  0.39137786  1
  O2-  O128  1  0.74767123  0.00627669  0.73152377  1
  O2-  O129  1  0.74549136  0.49667321  0.06277539  1
  O2-  O130  1  0.75383727  0.49730097  0.39021592  1
  O2-  O131  1  0.74106979  0.49900169  0.72684720  1
  O2-  O132  1  -0.00484752  0.25657526  0.27374126  1
  O2-  O133  1  -0.00499443  0.24579607  0.61154949  1
  O2-  O134  1  -0.00466137  0.25377248  0.93696041  1
  O2-  O135  1  0.00731621  0.74663876  0.26905131  1
  O2-  O136  1  0.00551454  0.75184491  0.60214566  1
  O2-  O137  1  0.00054000  0.74799711  0.94438979  1
  O2-  O138  1  0.49996611  0.24741481  0.26754581  1
  O2-  O139  1  0.50305737  0.25169513  0.60308936  1
  O2-  O140  1  0.49600195  0.25352683  0.93938121  1
  O2-  O141  1  0.49509373  0.75606769  0.26999378  1
  O2-  O142  1  0.49907686  0.75006274  0.60317601  1
  O2-  O143  1  0.50147456  0.75152789  0.94552319  1
  O2-  O144  1  0.06865517  0.17946563  0.09603462  1
  O2-  O145  1  0.06852426  0.18201959  0.43455820  1
  O2-  O146  1  0.07023524  0.18097556  0.75880284  1
  O2-  O147  1  0.07382884  0.67951591  0.09266409  1
  O2-  O148  1  0.06913606  0.67270290  0.42065726  1
  O2-  O149  1  0.06743828  0.67461166  0.76690976  1
  O2-  O150  1  0.56735599  0.17831577  0.09794888  1
  O2-  O151  1  0.57451263  0.17863650  0.43093123  1
  O2-  O152  1  0.57154846  0.17896482  0.76605935  1
  O2-  O153  1  0.57075598  0.67846260  0.09111108  1
  O2-  O154  1  0.57130772  0.68115954  0.43041487  1
  O2-  O155  1  0.57235348  0.68218473  0.76813233  1
  O2-  O156  1  0.17717848  0.42913612  0.24257380  1
  O2-  O157  1  0.18004226  0.42817293  0.56757612  1
  O2-  O158  1  0.17722912  0.42957053  0.91242812  1
  O2-  O159  1  0.17608170  0.93242017  0.23494366  1
  O2-  O160  1  0.17481300  0.93153549  0.57637343  1
  O2-  O161  1  0.18224549  0.92660918  0.89926864  1
  O2-  O162  1  0.68281241  0.43023933  0.24173214  1
  O2-  O163  1  0.67992391  0.42497132  0.57695616  1
  O2-  O164  1  0.67712057  0.42906799  0.91188647  1
  O2-  O165  1  0.68151506  0.92921616  0.23487216  1
  O2-  O166  1  0.68211819  0.92921696  0.56712723  1
  O2-  O167  1  0.67920934  0.92720204  0.90335213  1
  O2-  O168  1  0.43003157  0.32795164  0.08663966  1
  O2-  O169  1  0.42999277  0.31984267  0.43061204  1
  O2-  O170  1  0.42767335  0.31622492  0.76642611  1
  O2-  O171  1  0.42390992  0.81473229  0.09311862  1
  O2-  O172  1  0.42334156  0.82030229  0.42070394  1
  O2-  O173  1  0.42727693  0.82111799  0.76638107  1
  O2-  O174  1  0.93346964  0.32669398  0.08826308  1
  O2-  O175  1  0.92652437  0.32976160  0.42170966  1
  O2-  O176  1  0.93396617  0.32632898  0.75864689  1
  O2-  O177  1  0.92846716  0.81821320  0.08942279  1
  O2-  O178  1  0.92953113  0.81841620  0.42926582  1
  O2-  O179  1  0.93083210  0.81956250  0.76623126  1
  O2-  O180  1  0.31919240  0.07127538  0.24311091  1
  O2-  O181  1  0.31418967  0.07307865  0.56668716  1
  O2-  O182  1  0.32175411  0.07068290  0.91286166  1
  O2-  O183  1  0.32130501  0.56811811  0.23443693  1
  O2-  O184  1  0.32497220  0.57067724  0.57958397  1
  O2-  O185  1  0.32046836  0.57238139  0.90930564  1
  O2-  O186  1  0.82299360  0.07067699  0.24083374  1
  O2-  O187  1  0.82664941  0.07259854  0.56789792  1
  O2-  O188  1  0.82360238  0.07122293  0.91155940  1
  O2-  O189  1  0.82087104  0.56977061  0.24352536  1
  O2-  O190  1  0.81942526  0.56688129  0.56480220  1
  O2-  O191  1  0.82132818  0.57162021  0.90349635  1
  O2-  O192  1  0.03470900  0.08626642  0.26403538  1
  O2-  O193  1  0.04645465  0.08677704  0.60647828  1
  O2-  O194  1  0.03922130  0.08187150  0.92821883  1
  O2-  O195  1  0.04692355  0.58372485  0.26747983  1
  O2-  O196  1  0.03776879  0.57778289  0.59882484  1
  O2-  O197  1  0.04604040  0.58490382  0.94374472  1
  O2-  O198  1  0.54055402  0.07745809  0.26568065  1
  O2-  O199  1  0.54277877  0.08085737  0.60086274  1
  O2-  O200  1  0.53680142  0.08057969  0.93315300  1
  O2-  O201  1  0.53999934  0.58577226  0.26195259  1
  O2-  O202  1  0.54752092  0.58006991  0.60214137  1
  O2-  O203  1  0.54626810  0.58823824  0.93840169  1
  O2-  O204  1  0.16326891  0.20912807  0.26148885  1
  O2-  O205  1  0.15982328  0.21282030  0.60689492  1
  O2-  O206  1  0.16779002  0.20918014  0.93106400  1
  O2-  O207  1  0.16913453  0.70053928  0.27359029  1
  O2-  O208  1  0.17217441  0.69155774  0.60190102  1
  O2-  O209  1  0.16400754  0.70655327  0.93943761  1
  O2-  O210  1  0.67063084  0.20556620  0.26370108  1
  O2-  O211  1  0.67407108  0.20481509  0.60169670  1
  O2-  O212  1  0.66856273  0.20659892  0.93332995  1
  O2-  O213  1  0.66598143  0.71273460  0.26204909  1
  O2-  O214  1  0.67011227  0.70797607  0.60036783  1
  O2-  O215  1  0.66523425  0.70945511  0.94209346  1
  O2-  O216  1  0.09033005  0.45703020  0.06790508  1
  O2-  O217  1  0.08441769  0.45290110  0.39458556  1
  O2-  O218  1  0.08536298  0.46023539  0.73826515  1
  O2-  O219  1  0.08009817  0.95886429  0.06398826  1
  O2-  O220  1  0.07926411  0.96438234  0.40030558  1
  O2-  O221  1  0.08540024  0.95431395  0.72965165  1
  O2-  O222  1  0.58355638  0.45450388  0.06301314  1
  O2-  O223  1  0.59017373  0.45947053  0.39359842  1
  O2-  O224  1  0.58064092  0.44750867  0.72752007  1
  O2-  O225  1  0.58030690  0.95763712  0.06972769  1
  O2-  O226  1  0.57754715  0.95115648  0.39865942  1
  O2-  O227  1  0.57970362  0.95450073  0.73324629  1
  O2-  O228  1  0.20636409  0.33489650  0.06313622  1
  O2-  O229  1  0.20131596  0.33142125  0.39161276  1
  O2-  O230  1  0.21177447  0.33497666  0.73897456  1
  O2-  O231  1  0.21082678  0.83394579  0.06904380  1
  O2-  O232  1  0.20210442  0.83297151  0.40242801  1
  O2-  O233  1  0.19757782  0.82865521  0.72345798  1
  O2-  O234  1  0.70456755  0.33434498  0.06369145  1
  O2-  O235  1  0.70719609  0.33635825  0.39412658  1
  O2-  O236  1  0.70647284  0.33577514  0.73158035  1
  O2-  O237  1  0.71324502  0.83658533  0.07149740  1
  O2-  O238  1  0.71559809  0.83389965  0.39902578  1
  O2-  O239  1  0.71245012  0.83392301  0.73499296  1
  O2-  O240  1  0.46219800  0.41783710  0.26325380  1
  O2-  O241  1  0.44846470  0.41975569  0.60217801  1
  O2-  O242  1  0.45529518  0.41758432  0.93358229  1
  O2-  O243  1  0.44458635  0.91632654  0.27002184  1
  O2-  O244  1  0.45298856  0.92087372  0.59773302  1
  O2-  O245  1  0.45065924  0.91255345  0.94393792  1
  O2-  O246  1  0.95455080  0.41952464  0.26835216  1
  O2-  O247  1  0.96400991  0.41003138  0.60287842  1
  O2-  O248  1  0.96148516  0.41831823  0.93767883  1
  O2-  O249  1  0.95954024  0.91537681  0.26084149  1
  O2-  O250  1  0.95877201  0.91991485  0.59745923  1
  O2-  O251  1  0.95383664  0.91097839  0.93717797  1
  O2-  O252  1  0.33115867  0.29666666  0.26178328  1
  O2-  O253  1  0.32902335  0.28712018  0.60103318  1
  O2-  O254  1  0.33363984  0.30141819  0.93779347  1
  O2-  O255  1  0.33026292  0.79130351  0.27077097  1
  O2-  O256  1  0.32900491  0.79657594  0.59769455  1
  O2-  O257  1  0.33716826  0.78702961  0.93873022  1
  O2-  O258  1  0.83426585  0.30332996  0.26736996  1
  O2-  O259  1  0.83669534  0.30236342  0.60624399  1
  O2-  O260  1  0.83463537  0.30677213  0.93832981  1
  O2-  O261  1  0.83618389  0.78441485  0.26046970  1
  O2-  O262  1  0.83466589  0.78915426  0.59878197  1
  O2-  O263  1  0.83652956  0.78771748  0.93883448  1
  O2-  O264  1  0.41197049  0.04290538  0.06676232  1
  O2-  O265  1  0.41320903  0.04785479  0.39560756  1
  O2-  O266  1  0.41530471  0.04045035  0.73545599  1
  O2-  O267  1  0.41532554  0.54492083  0.06022286  1
  O2-  O268  1  0.42072596  0.53887534  0.40069718  1
  O2-  O269  1  0.41728541  0.54612027  0.73286534  1
  O2-  O270  1  0.91461006  0.04361836  0.06269890  1
  O2-  O271  1  0.91199220  0.04166782  0.39324106  1
  O2-  O272  1  0.92072923  0.04061473  0.73637688  1
  O2-  O273  1  0.91689402  0.53955601  0.07297265  1
  O2-  O274  1  0.91484216  0.54651765  0.39455333  1
  O2-  O275  1  0.91300497  0.53431802  0.73405707  1
  O2-  O276  1  0.29865839  0.16855441  0.06157287  1
  O2-  O277  1  0.29201603  0.16718971  0.39181219  1
  O2-  O278  1  0.28404037  0.16212610  0.73858071  1
  O2-  O279  1  0.29091873  0.66008703  0.06457515  1
  O2-  O280  1  0.29338750  0.66426274  0.40480109  1
  O2-  O281  1  0.29987588  0.66747031  0.73035240  1
  O2-  O282  1  0.80424957  0.17139296  0.05937489  1
  O2-  O283  1  0.80521175  0.17080074  0.38891660  1
  O2-  O284  1  0.80588110  0.17524576  0.73382712  1
  O2-  O285  1  0.78914500  0.66569920  0.07298030  1
  O2-  O286  1  0.78978709  0.66235399  0.39380640  1
  O2-  O287  1  0.79094149  0.66608157  0.73436593  1
