# generated using pymatgen
data_Ca2Al2SiO7
_symmetry_space_group_name_H-M   'P 1'
_cell_length_a   15.45812945
_cell_length_b   15.45799287
_cell_length_c   15.28273435
_cell_angle_alpha   90.00996842
_cell_angle_beta   90.01501694
_cell_angle_gamma   90.01120534
_symmetry_Int_Tables_number   1
_chemical_formula_structural   Ca2Al2SiO7
_chemical_formula_sum   'Ca48 Al48 Si24 O168'
_cell_volume   3651.83441246
_cell_formula_units_Z   24
loop_
 _symmetry_equiv_pos_site_id
 _symmetry_equiv_pos_as_xyz
  1  'x, y, z'
loop_
 _atom_type_symbol
 _atom_type_oxidation_number
  Ca2+  2.0
  Al0+  0.0
  Si0+  0.0
  O2-  -2.0
loop_
 _atom_site_type_symbol
 _atom_site_label
 _atom_site_symmetry_multiplicity
 _atom_site_fract_x
 _atom_site_fract_y
 _atom_site_fract_z
 _atom_site_occupancy
  Ca2+  Ca0  1  0.16812641  0.08458788  0.16979414  1
  Ca2+  Ca1  1  0.15799910  0.07556285  0.50141276  1
  Ca2+  Ca2  1  0.17049935  0.08265264  0.83922539  1
  Ca2+  Ca3  1  0.16921019  0.57202376  0.17551875  1
  Ca2+  Ca4  1  0.17787761  0.57586172  0.50792207  1
  Ca2+  Ca5  1  0.16582923  0.57280030  0.83369186  1
  Ca2+  Ca6  1  0.66502934  0.06963711  0.17281239  1
  Ca2+  Ca7  1  0.65929163  0.07525195  0.50607566  1
  Ca2+  Ca8  1  0.66331398  0.07155562  0.83721224  1
  Ca2+  Ca9  1  0.66652051  0.58620264  0.16705706  1
  Ca2+  Ca10  1  0.67054149  0.57610976  0.51415691  1
  Ca2+  Ca11  1  0.66790166  0.58800797  0.83126775  1
  Ca2+  Ca12  1  0.08749207  0.32775017  0.15787027  1
  Ca2+  Ca13  1  0.08307505  0.33669423  0.49634098  1
  Ca2+  Ca14  1  0.08100238  0.33492701  0.83037169  1
  Ca2+  Ca15  1  0.07933683  0.83458747  0.16043364  1
  Ca2+  Ca16  1  0.07930634  0.84030428  0.49685494  1
  Ca2+  Ca17  1  0.07199524  0.83870977  0.82459156  1
  Ca2+  Ca18  1  0.58091122  0.32488673  0.16386525  1
  Ca2+  Ca19  1  0.59179069  0.32102347  0.49814093  1
  Ca2+  Ca20  1  0.58553661  0.32550471  0.82061520  1
  Ca2+  Ca21  1  0.57942200  0.83088963  0.15540200  1
  Ca2+  Ca22  1  0.58753758  0.82926737  0.50013331  1
  Ca2+  Ca23  1  0.58222507  0.82793694  0.82965675  1
  Ca2+  Ca24  1  0.32277534  0.42215636  0.17314878  1
  Ca2+  Ca25  1  0.32548633  0.42313936  0.50607489  1
  Ca2+  Ca26  1  0.32435657  0.41860450  0.83611428  1
  Ca2+  Ca27  1  0.33267495  0.92087507  0.16869380  1
  Ca2+  Ca28  1  0.31925927  0.91670236  0.50476505  1
  Ca2+  Ca29  1  0.33212135  0.92153979  0.83837750  1
  Ca2+  Ca30  1  0.83657075  0.41514130  0.16502930  1
  Ca2+  Ca31  1  0.83165792  0.42264034  0.51327535  1
  Ca2+  Ca32  1  0.83515076  0.41638462  0.83282152  1
  Ca2+  Ca33  1  0.82276383  0.91023070  0.16839438  1
  Ca2+  Ca34  1  0.82351523  0.91859111  0.50857975  1
  Ca2+  Ca35  1  0.82393395  0.90556258  0.83595993  1
  Ca2+  Ca36  1  0.41940046  0.16029850  0.16288745  1
  Ca2+  Ca37  1  0.42788479  0.16519692  0.49864217  1
  Ca2+  Ca38  1  0.41958592  0.16476310  0.82919446  1
  Ca2+  Ca39  1  0.41990314  0.67277030  0.15844962  1
  Ca2+  Ca40  1  0.41751363  0.65826915  0.49927559  1
  Ca2+  Ca41  1  0.42543927  0.66642898  0.82757267  1
  Ca2+  Ca42  1  0.93216416  0.17171505  0.15835928  1
  Ca2+  Ca43  1  0.92062455  0.17577168  0.49624536  1
  Ca2+  Ca44  1  0.92085922  0.17747643  0.82916671  1
  Ca2+  Ca45  1  0.92025810  0.67360726  0.15896843  1
  Ca2+  Ca46  1  0.91148079  0.67113047  0.50459207  1
  Ca2+  Ca47  1  0.91297011  0.67570389  0.82679001  1
  Al0+  Al48  1  -0.00091432  0.00168532  -0.00876232  1
  Al0+  Al49  1  -0.00319063  0.00315541  0.33055995  1
  Al0+  Al50  1  -0.00195495  0.00101880  0.66553104  1
  Al0+  Al51  1  -0.00124872  0.49998016  0.00332842  1
  Al0+  Al52  1  -0.00105036  0.50313408  0.33647917  1
  Al0+  Al53  1  0.00031077  0.50252538  0.66933502  1
  Al0+  Al54  1  0.49941462  -0.00187996  0.00508044  1
  Al0+  Al55  1  0.49961599  -0.00229654  0.33426182  1
  Al0+  Al56  1  0.49911208  -0.00153437  0.66522012  1
  Al0+  Al57  1  0.50123035  0.49855656  -0.00168415  1
  Al0+  Al58  1  0.50224058  0.49936590  0.33421552  1
  Al0+  Al59  1  0.49964772  0.49914415  0.66900637  1
  Al0+  Al60  1  0.25211699  0.24876077  0.00521309  1
  Al0+  Al61  1  0.25119377  0.25029683  0.33459344  1
  Al0+  Al62  1  0.25122338  0.24897227  0.66724034  1
  Al0+  Al63  1  0.25080792  0.75020559  -0.00432067  1
  Al0+  Al64  1  0.24969450  0.75088473  0.33901896  1
  Al0+  Al65  1  0.24909020  0.75124024  0.67601587  1
  Al0+  Al66  1  0.75158869  0.24923481  -0.00056919  1
  Al0+  Al67  1  0.75067248  0.24894771  0.32447864  1
  Al0+  Al68  1  0.75248568  0.24900771  0.65983918  1
  Al0+  Al69  1  0.75053859  0.74771581  -0.00065819  1
  Al0+  Al70  1  0.74850857  0.75039429  0.33656829  1
  Al0+  Al71  1  0.74840948  0.75038638  0.66415303  1
  Al0+  Al72  1  0.42791699  0.82329484  0.98447059  1
  Al0+  Al73  1  0.32266339  0.57177379  0.34732521  1
  Al0+  Al74  1  0.17590493  0.93058950  0.68124903  1
  Al0+  Al75  1  0.67856980  0.92907157  0.34880692  1
  Al0+  Al76  1  0.07481350  0.18006855  0.98296619  1
  Al0+  Al77  1  0.32299971  0.57210351  0.68510679  1
  Al0+  Al78  1  0.57060623  0.67767672  0.98439350  1
  Al0+  Al79  1  0.68219273  0.92853127  0.01400463  1
  Al0+  Al80  1  0.17931545  0.43130853  0.01534606  1
  Al0+  Al81  1  0.92905982  0.32239955  0.98401836  1
  Al0+  Al82  1  0.56836674  0.67927458  0.65099069  1
  Al0+  Al83  1  0.32023790  0.06904808  0.01420212  1
  Al0+  Al84  1  0.93051391  0.82033846  0.98733136  1
  Al0+  Al85  1  0.17897130  0.42752129  0.68283967  1
  Al0+  Al86  1  0.81994344  0.57178063  0.68293875  1
  Al0+  Al87  1  0.07117598  0.17999058  0.31950018  1
  Al0+  Al88  1  0.68024212  0.42564079  0.68052280  1
  Al0+  Al89  1  0.92869711  0.82148236  0.65042239  1
  Al0+  Al90  1  0.93167391  0.32303861  0.65186360  1
  Al0+  Al91  1  0.57043668  0.17678732  0.31683944  1
  Al0+  Al92  1  0.17773792  0.42741617  0.34929164  1
  Al0+  Al93  1  0.17672901  0.93140294  0.34441929  1
  Al0+  Al94  1  0.67886757  0.93031989  0.68103997  1
  Al0+  Al95  1  0.57103206  0.17789101  0.65425828  1
  Si0+  Si96  1  0.57084418  0.17835314  0.98661731  1
  Si0+  Si97  1  0.43028149  0.32022952  0.98638835  1
  Si0+  Si98  1  0.92751703  0.82050121  0.31873121  1
  Si0+  Si99  1  0.07156391  0.68066679  0.32015109  1
  Si0+  Si100  1  0.81982117  0.57214235  0.34801734  1
  Si0+  Si101  1  0.82031699  0.07274863  0.34895854  1
  Si0+  Si102  1  0.82270301  0.07457271  0.01704230  1
  Si0+  Si103  1  0.17471101  0.92747207  0.01454532  1
  Si0+  Si104  1  0.92902037  0.32585098  0.31562497  1
  Si0+  Si105  1  0.42581543  0.82221036  0.64811572  1
  Si0+  Si106  1  0.42689236  0.81933037  0.31974471  1
  Si0+  Si107  1  0.32316012  0.07195701  0.35132951  1
  Si0+  Si108  1  0.67733613  0.42525893  0.01601387  1
  Si0+  Si109  1  0.07338931  0.67993580  0.64956649  1
  Si0+  Si110  1  0.07385299  0.17902128  0.64904960  1
  Si0+  Si111  1  0.42692055  0.32155789  0.64996389  1
  Si0+  Si112  1  0.32193560  0.07031223  0.68174433  1
  Si0+  Si113  1  0.07290741  0.67699915  0.98503564  1
  Si0+  Si114  1  0.68079648  0.42735423  0.34560345  1
  Si0+  Si115  1  0.57167275  0.67879949  0.31894759  1
  Si0+  Si116  1  0.81903093  0.56985309  0.01661501  1
  Si0+  Si117  1  0.43012959  0.32272788  0.31627186  1
  Si0+  Si118  1  0.82231558  0.07279915  0.68314386  1
  Si0+  Si119  1  0.32459367  0.57235652  0.01657415  1
  O2-  O120  1  0.24443634  -0.00562102  0.05999909  1
  O2-  O121  1  0.24902492  0.00790322  0.39329636  1
  O2-  O122  1  0.25089935  0.00492825  0.72636110  1
  O2-  O123  1  0.25200045  0.50861503  0.06176416  1
  O2-  O124  1  0.25124207  0.49902910  0.39658717  1
  O2-  O125  1  0.25116783  0.49907205  0.73335275  1
  O2-  O126  1  0.75699768  0.00296324  0.06204085  1
  O2-  O127  1  0.74953395  0.00737786  0.39487059  1
  O2-  O128  1  0.75326866  0.00488724  0.72808674  1
  O2-  O129  1  0.74836517  0.49723874  0.05796004  1
  O2-  O130  1  0.75349198  0.49608550  0.38759272  1
  O2-  O131  1  0.74992865  0.49797101  0.73355339  1
  O2-  O132  1  0.00206511  0.26084054  0.27352003  1
  O2-  O133  1  0.00926957  0.25157544  0.60467973  1
  O2-  O134  1  0.00267781  0.25244200  0.93427007  1
  O2-  O135  1  0.00121808  0.75221716  0.27645669  1
  O2-  O136  1  0.00600142  0.74951531  0.60312051  1
  O2-  O137  1  0.01077556  0.75160973  0.94118456  1
  O2-  O138  1  0.49495873  0.25080268  0.26995758  1
  O2-  O139  1  0.49963508  0.25594653  0.60673830  1
  O2-  O140  1  0.50290702  0.25121576  0.94345941  1
  O2-  O141  1  0.49843262  0.74781589  0.27813266  1
  O2-  O142  1  0.49095412  0.75060723  0.60243787  1
  O2-  O143  1  0.49699990  0.74828770  0.93543318  1
  O2-  O144  1  0.07399684  0.18087272  0.09715761  1
  O2-  O145  1  0.06494446  0.17683550  0.43229391  1
  O2-  O146  1  0.07361662  0.17834467  0.75425498  1
  O2-  O147  1  0.06979196  0.67681322  0.09160704  1
  O2-  O148  1  0.06999296  0.68045016  0.42467660  1
  O2-  O149  1  0.07127861  0.68108912  0.75528173  1
  O2-  O150  1  0.56922232  0.17968502  0.09199359  1
  O2-  O151  1  0.57014923  0.17831832  0.42978546  1
  O2-  O152  1  0.56755669  0.17656851  0.76776459  1
  O2-  O153  1  0.57036040  0.67829203  0.09931289  1
  O2-  O154  1  0.57423223  0.67880936  0.42356399  1
  O2-  O155  1  0.56963557  0.68256753  0.76353613  1
  O2-  O156  1  0.17802186  0.43019139  0.23536079  1
  O2-  O157  1  0.18096949  0.42785902  0.56922050  1
  O2-  O158  1  0.18066989  0.43174098  0.90278156  1
  O2-  O159  1  0.17802893  0.92954513  0.23141830  1
  O2-  O160  1  0.17603770  0.93301116  0.56744014  1
  O2-  O161  1  0.17481126  0.93026813  0.90932310  1
  O2-  O162  1  0.67995126  0.42926479  0.24004716  1
  O2-  O163  1  0.68346682  0.42586929  0.56593451  1
  O2-  O164  1  0.67594691  0.42163201  0.91194701  1
  O2-  O165  1  0.68105628  0.92549219  0.23554899  1
  O2-  O166  1  0.67937991  0.93192123  0.56753976  1
  O2-  O167  1  0.68178580  0.92965770  0.90131458  1
  O2-  O168  1  0.43299496  0.32068637  0.09169233  1
  O2-  O169  1  0.43417812  0.32392803  0.42154254  1
  O2-  O170  1  0.42492365  0.31718852  0.75585450  1
  O2-  O171  1  0.42944790  0.82230288  0.09919201  1
  O2-  O172  1  0.42623092  0.82001115  0.42450374  1
  O2-  O173  1  0.42939174  0.82541732  0.75329328  1
  O2-  O174  1  0.92955958  0.32109570  0.09823523  1
  O2-  O175  1  0.92560395  0.32538334  0.42095540  1
  O2-  O176  1  0.93050490  0.31969273  0.76440241  1
  O2-  O177  1  0.92954427  0.81640440  0.10152134  1
  O2-  O178  1  0.92640700  0.81875270  0.42349655  1
  O2-  O179  1  0.92887796  0.81924220  0.76341616  1
  O2-  O180  1  0.32554035  0.06850289  0.24572925  1
  O2-  O181  1  0.32335853  0.06899799  0.57600711  1
  O2-  O182  1  0.32196465  0.06954213  0.90121157  1
  O2-  O183  1  0.32108051  0.57215010  0.23334272  1
  O2-  O184  1  0.32095144  0.57001862  0.57112086  1
  O2-  O185  1  0.32643912  0.56792995  0.91173565  1
  O2-  O186  1  0.82017398  0.06954160  0.24340721  1
  O2-  O187  1  0.82235850  0.07086666  0.57704968  1
  O2-  O188  1  0.81762121  0.07854706  0.91191213  1
  O2-  O189  1  0.81894778  0.57533816  0.24262014  1
  O2-  O190  1  0.81738520  0.57079992  0.56838867  1
  O2-  O191  1  0.81939795  0.57204080  0.91244672  1
  O2-  O192  1  0.03500393  0.08574199  0.26233828  1
  O2-  O193  1  0.04184915  0.08735726  0.60232859  1
  O2-  O194  1  0.04683268  0.08243625  0.92899225  1
  O2-  O195  1  0.04088080  0.58968632  0.27126377  1
  O2-  O196  1  0.04643758  0.58699755  0.60305515  1
  O2-  O197  1  0.03959385  0.58632734  0.93920871  1
  O2-  O198  1  0.53873365  0.07929204  0.26445197  1
  O2-  O199  1  0.53502635  0.08345935  0.59804259  1
  O2-  O200  1  0.54025121  0.08710876  0.94129847  1
  O2-  O201  1  0.54818461  0.58564899  0.27122816  1
  O2-  O202  1  0.54197890  0.57988327  0.59857305  1
  O2-  O203  1  0.54629535  0.57754197  0.93299181  1
  O2-  O204  1  0.17159117  0.20294067  0.26876945  1
  O2-  O205  1  0.16937538  0.19843585  0.60369507  1
  O2-  O206  1  0.17438923  0.20803811  0.93305858  1
  O2-  O207  1  0.16334393  0.70795352  0.27233180  1
  O2-  O208  1  0.16816578  0.70536298  0.60601417  1
  O2-  O209  1  0.16863373  0.69268156  0.94062778  1
  O2-  O210  1  0.66628839  0.20779238  0.26055031  1
  O2-  O211  1  0.66716434  0.20521253  0.59713008  1
  O2-  O212  1  0.66340758  0.20375552  0.94088541  1
  O2-  O213  1  0.66278067  0.70959128  0.27063576  1
  O2-  O214  1  0.66363339  0.71286254  0.59558890  1
  O2-  O215  1  0.66878820  0.70681776  0.93353339  1
  O2-  O216  1  0.08217003  0.46085122  0.07014038  1
  O2-  O217  1  0.07897695  0.45809100  0.40035529  1
  O2-  O218  1  0.08161084  0.45847527  0.73528524  1
  O2-  O219  1  0.08029640  0.95342258  0.05953388  1
  O2-  O220  1  0.07886971  0.96124445  0.39712891  1
  O2-  O221  1  0.07928701  0.96179331  0.73408860  1
  O2-  O222  1  0.58596651  0.45352230  0.06525101  1
  O2-  O223  1  0.59025714  0.45545523  0.39399782  1
  O2-  O224  1  0.58020052  0.44851969  0.73089354  1
  O2-  O225  1  0.58638897  0.96047998  0.06921749  1
  O2-  O226  1  0.58098925  0.95684681  0.40161709  1
  O2-  O227  1  0.58179889  0.96122926  0.73345915  1
  O2-  O228  1  0.21466245  0.33601579  0.06891863  1
  O2-  O229  1  0.20453925  0.32843740  0.40136825  1
  O2-  O230  1  0.20769220  0.32820682  0.73422513  1
  O2-  O231  1  0.19705468  0.83144731  0.05842488  1
  O2-  O232  1  0.20775677  0.83634613  0.40087310  1
  O2-  O233  1  0.20311161  0.83490715  0.73700111  1
  O2-  O234  1  0.70671871  0.33438891  0.06598479  1
  O2-  O235  1  0.70666281  0.33355455  0.38954060  1
  O2-  O236  1  0.70938359  0.32646145  0.73125124  1
  O2-  O237  1  0.71431214  0.83174098  0.06834156  1
  O2-  O238  1  0.71279331  0.83368236  0.40310953  1
  O2-  O239  1  0.71148532  0.83434030  0.73283920  1
  O2-  O240  1  0.46077612  0.41452529  0.26769772  1
  O2-  O241  1  0.44828198  0.41616277  0.60559793  1
  O2-  O242  1  0.45571390  0.41180170  0.93826204  1
  O2-  O243  1  0.45571133  0.91066386  0.27193235  1
  O2-  O244  1  0.45425619  0.91414285  0.59978538  1
  O2-  O245  1  0.46013492  0.92075359  0.93233394  1
  O2-  O246  1  0.94916831  0.42211349  0.27161936  1
  O2-  O247  1  0.95833594  0.42168531  0.59924852  1
  O2-  O248  1  0.95376725  0.42281616  0.93480845  1
  O2-  O249  1  0.95102233  0.91317434  0.27169227  1
  O2-  O250  1  0.95735866  0.91925511  0.59662696  1
  O2-  O251  1  0.95151996  0.91789806  0.93190724  1
  O2-  O252  1  0.33491148  0.30084000  0.27203113  1
  O2-  O253  1  0.33577194  0.29098871  0.60064731  1
  O2-  O254  1  0.33997280  0.28926832  0.93946228  1
  O2-  O255  1  0.33519247  0.79227104  0.27106043  1
  O2-  O256  1  0.32934960  0.79960292  0.60639321  1
  O2-  O257  1  0.32757553  0.80196958  0.93232524  1
  O2-  O258  1  0.83719636  0.29723510  0.26650856  1
  O2-  O259  1  0.83736642  0.28906973  0.59399539  1
  O2-  O260  1  0.82990139  0.29336302  0.93244535  1
  O2-  O261  1  0.83702508  0.78662611  0.27121295  1
  O2-  O262  1  0.83365987  0.78747054  0.59510589  1
  O2-  O263  1  0.83672666  0.78217059  0.93394352  1
  O2-  O264  1  0.41522227  0.03691002  0.07203739  1
  O2-  O265  1  0.41403439  0.04008596  0.39906866  1
  O2-  O266  1  0.41361846  0.04127288  0.72954431  1
  O2-  O267  1  0.41707128  0.54247149  0.06401009  1
  O2-  O268  1  0.42214965  0.54330038  0.39885143  1
  O2-  O269  1  0.42114320  0.54371303  0.73732497  1
  O2-  O270  1  0.91847762  0.05016801  0.05919861  1
  O2-  O271  1  0.91215194  0.04503252  0.39670712  1
  O2-  O272  1  0.91531388  0.04799668  0.72957504  1
  O2-  O273  1  0.91000816  0.54306794  0.06739348  1
  O2-  O274  1  0.91247627  0.55030961  0.39603382  1
  O2-  O275  1  0.91949041  0.54907665  0.73440820  1
  O2-  O276  1  0.29310226  0.16502411  0.07190132  1
  O2-  O277  1  0.30522847  0.16773690  0.39495403  1
  O2-  O278  1  0.30026733  0.16457845  0.72777853  1
  O2-  O279  1  0.30377989  0.66907058  0.05874972  1
  O2-  O280  1  0.29405082  0.66886200  0.40207516  1
  O2-  O281  1  0.29601115  0.67018166  0.73850610  1
  O2-  O282  1  0.79549141  0.16658301  0.06658138  1
  O2-  O283  1  0.79757730  0.16875017  0.39155572  1
  O2-  O284  1  0.79714444  0.16657192  0.72727507  1
  O2-  O285  1  0.78898577  0.65960680  0.06775868  1
  O2-  O286  1  0.78754251  0.66130219  0.39732223  1
  O2-  O287  1  0.78744779  0.66916711  0.73437835  1
