# generated using pymatgen
data_Ca2Al2SiO7
_symmetry_space_group_name_H-M   'P 1'
_cell_length_a   15.46691666
_cell_length_b   15.46925567
_cell_length_c   15.29100029
_cell_angle_alpha   90.00628483
_cell_angle_beta   90.00224906
_cell_angle_gamma   90.01015313
_symmetry_Int_Tables_number   1
_chemical_formula_structural   Ca2Al2SiO7
_chemical_formula_sum   'Ca48 Al48 Si24 O168'
_cell_volume   3658.55046005
_cell_formula_units_Z   24
loop_
 _symmetry_equiv_pos_site_id
 _symmetry_equiv_pos_as_xyz
  1  'x, y, z'
loop_
 _atom_type_symbol
 _atom_type_oxidation_number
  Ca2+  2.0
  Al0+  0.0
  Si0+  0.0
  O2-  -2.0
loop_
 _atom_site_type_symbol
 _atom_site_label
 _atom_site_symmetry_multiplicity
 _atom_site_fract_x
 _atom_site_fract_y
 _atom_site_fract_z
 _atom_site_occupancy
  Ca2+  Ca0  1  0.16122400  0.08494228  0.16718997  1
  Ca2+  Ca1  1  0.17124764  0.07862026  0.51287456  1
  Ca2+  Ca2  1  0.16649539  0.09198089  0.83487495  1
  Ca2+  Ca3  1  0.17639352  0.57455570  0.17889163  1
  Ca2+  Ca4  1  0.17385419  0.57415902  0.51020638  1
  Ca2+  Ca5  1  0.16757781  0.58156757  0.82820259  1
  Ca2+  Ca6  1  0.66189236  0.07342176  0.16681386  1
  Ca2+  Ca7  1  0.66266173  0.07839917  0.51243376  1
  Ca2+  Ca8  1  0.65880700  0.07273058  0.83395564  1
  Ca2+  Ca9  1  0.67288277  0.58571192  0.16602987  1
  Ca2+  Ca10  1  0.67652977  0.57868517  0.50585398  1
  Ca2+  Ca11  1  0.67468333  0.57428006  0.83919344  1
  Ca2+  Ca12  1  0.07881405  0.33590009  0.16515780  1
  Ca2+  Ca13  1  0.07628198  0.34543849  0.50150067  1
  Ca2+  Ca14  1  0.07867554  0.32728300  0.82235550  1
  Ca2+  Ca15  1  0.07410067  0.82796393  0.15695391  1
  Ca2+  Ca16  1  0.09138009  0.82537642  0.50302918  1
  Ca2+  Ca17  1  0.07694144  0.82789221  0.82462764  1
  Ca2+  Ca18  1  0.56983313  0.34546959  0.16118334  1
  Ca2+  Ca19  1  0.58097315  0.33234244  0.49813233  1
  Ca2+  Ca20  1  0.58201645  0.33745872  0.82633841  1
  Ca2+  Ca21  1  0.58731753  0.81984513  0.15979401  1
  Ca2+  Ca22  1  0.58288810  0.82694687  0.49587705  1
  Ca2+  Ca23  1  0.59113122  0.82857979  0.83034609  1
  Ca2+  Ca24  1  0.33056334  0.41496881  0.17566044  1
  Ca2+  Ca25  1  0.32685874  0.42166836  0.50349176  1
  Ca2+  Ca26  1  0.33094814  0.41557558  0.83347393  1
  Ca2+  Ca27  1  0.33273904  0.92124913  0.16930039  1
  Ca2+  Ca28  1  0.32933813  0.92452182  0.51382591  1
  Ca2+  Ca29  1  0.32571401  0.92305122  0.82873661  1
  Ca2+  Ca30  1  0.83217502  0.42745555  0.17359693  1
  Ca2+  Ca31  1  0.83461658  0.42211347  0.50955655  1
  Ca2+  Ca32  1  0.82801580  0.42123107  0.83558991  1
  Ca2+  Ca33  1  0.83056330  0.91224062  0.16362497  1
  Ca2+  Ca34  1  0.82469829  0.92069721  0.50700942  1
  Ca2+  Ca35  1  0.82467697  0.91277979  0.83891482  1
  Ca2+  Ca36  1  0.41473381  0.18172113  0.16203606  1
  Ca2+  Ca37  1  0.41868774  0.16958300  0.50082678  1
  Ca2+  Ca38  1  0.42176365  0.17170486  0.82678964  1
  Ca2+  Ca39  1  0.43161226  0.65363705  0.16475908  1
  Ca2+  Ca40  1  0.42177315  0.65696619  0.49447966  1
  Ca2+  Ca41  1  0.42348321  0.66327408  0.82784276  1
  Ca2+  Ca42  1  0.92284546  0.17609552  0.16177635  1
  Ca2+  Ca43  1  0.91862964  0.18393788  0.50003637  1
  Ca2+  Ca44  1  0.92621252  0.17202434  0.82311631  1
  Ca2+  Ca45  1  0.91073226  0.66769768  0.16043357  1
  Ca2+  Ca46  1  0.92183489  0.65527594  0.50116412  1
  Ca2+  Ca47  1  0.91206375  0.66746731  0.82789662  1
  Al0+  Al48  1  -0.00009444  -0.00144689  -0.00678561  1
  Al0+  Al49  1  -0.00186096  -0.00051900  0.33464016  1
  Al0+  Al50  1  -0.00204283  -0.00111459  0.66392595  1
  Al0+  Al51  1  0.00191971  0.50007576  0.00390095  1
  Al0+  Al52  1  0.00018458  0.50047617  0.33315483  1
  Al0+  Al53  1  0.00203991  0.50350323  0.66797983  1
  Al0+  Al54  1  0.49733200  0.00045362  0.00740983  1
  Al0+  Al55  1  0.49937574  -0.00233346  0.33276246  1
  Al0+  Al56  1  0.49813471  0.00007235  0.67080876  1
  Al0+  Al57  1  0.49965333  0.50132840  -0.00792362  1
  Al0+  Al58  1  0.50215577  0.49854951  0.32856421  1
  Al0+  Al59  1  0.50092584  0.50094242  0.66992639  1
  Al0+  Al60  1  0.25146017  0.25112137  -0.00590566  1
  Al0+  Al61  1  0.25025835  0.24696297  0.33469718  1
  Al0+  Al62  1  0.25157313  0.25044833  0.66981569  1
  Al0+  Al63  1  0.25063586  0.75172026  0.00246257  1
  Al0+  Al64  1  0.25111876  0.75120109  0.33305520  1
  Al0+  Al65  1  0.25013466  0.75277924  0.67074602  1
  Al0+  Al66  1  0.74770622  0.24860378  0.00572105  1
  Al0+  Al67  1  0.75217354  0.24755860  0.32582977  1
  Al0+  Al68  1  0.74915375  0.24891988  0.66161478  1
  Al0+  Al69  1  0.74914939  0.75035541  -0.00069975  1
  Al0+  Al70  1  0.75001837  0.74996723  0.33437515  1
  Al0+  Al71  1  0.74905469  0.75023321  0.67013436  1
  Al0+  Al72  1  0.07378836  0.17766294  0.65013812  1
  Al0+  Al73  1  0.82184763  0.57082083  0.68162943  1
  Al0+  Al74  1  0.67896241  0.93028576  0.01550721  1
  Al0+  Al75  1  0.32452502  0.57093004  0.34655801  1
  Al0+  Al76  1  0.43149630  0.32095126  0.98398678  1
  Al0+  Al77  1  0.17593199  0.92975297  0.68240573  1
  Al0+  Al78  1  0.56895971  0.68188198  0.98317202  1
  Al0+  Al79  1  0.32250112  0.57250601  0.68261225  1
  Al0+  Al80  1  0.32002972  0.07261425  0.68291968  1
  Al0+  Al81  1  0.57126888  0.68017520  0.32034757  1
  Al0+  Al82  1  0.67596291  0.42717026  0.01635594  1
  Al0+  Al83  1  0.07150326  0.68199451  0.65279048  1
  Al0+  Al84  1  0.17933581  0.42944666  0.68365610  1
  Al0+  Al85  1  0.56917774  0.17851217  0.65465390  1
  Al0+  Al86  1  0.43048001  0.31754581  0.32171242  1
  Al0+  Al87  1  0.67873466  0.92999054  0.67925442  1
  Al0+  Al88  1  0.92986342  0.32245478  0.65331670  1
  Al0+  Al89  1  0.17932359  0.42722862  0.34822821  1
  Al0+  Al90  1  0.92952168  0.81786137  0.98584102  1
  Al0+  Al91  1  0.67935755  0.42612062  0.67908867  1
  Al0+  Al92  1  0.06888393  0.18154319  0.98706301  1
  Al0+  Al93  1  0.92954343  0.32342857  0.31771378  1
  Al0+  Al94  1  0.81934233  0.57159395  0.34799957  1
  Al0+  Al95  1  0.82126124  0.56925496  0.01592468  1
  Si0+  Si96  1  0.82563522  0.07109563  0.01707239  1
  Si0+  Si97  1  0.07275764  0.67979185  0.31818343  1
  Si0+  Si98  1  0.92412375  0.82120966  0.64760008  1
  Si0+  Si99  1  0.57170765  0.17452114  0.98544305  1
  Si0+  Si100  1  0.67893687  0.42493537  0.34813728  1
  Si0+  Si101  1  0.43030503  0.82036894  0.65302692  1
  Si0+  Si102  1  0.67993044  0.93037001  0.34823299  1
  Si0+  Si103  1  0.57309983  0.17360318  0.31534548  1
  Si0+  Si104  1  0.07534364  0.67685837  0.98478311  1
  Si0+  Si105  1  0.42879999  0.32493547  0.64881075  1
  Si0+  Si106  1  0.32125698  0.06891198  0.34775035  1
  Si0+  Si107  1  0.18158266  0.42785733  0.01524035  1
  Si0+  Si108  1  0.93018315  0.82176795  0.31893930  1
  Si0+  Si109  1  0.92565302  0.32424548  0.98509025  1
  Si0+  Si110  1  0.42711262  0.82393390  0.31592059  1
  Si0+  Si111  1  0.31823405  0.07260830  0.01765354  1
  Si0+  Si112  1  0.17691354  0.92903020  0.34658183  1
  Si0+  Si113  1  0.32041705  0.57295309  0.01477495  1
  Si0+  Si114  1  0.17759731  0.92930231  0.01627998  1
  Si0+  Si115  1  0.07030251  0.17543851  0.31804321  1
  Si0+  Si116  1  0.42554933  0.82569969  0.98241786  1
  Si0+  Si117  1  0.82184569  0.07159996  0.34825684  1
  Si0+  Si118  1  0.82130952  0.07260807  0.68191532  1
  Si0+  Si119  1  0.57148597  0.67879412  0.65064352  1
  O2-  O120  1  0.24724707  0.00107156  0.06033754  1
  O2-  O121  1  0.25096794  -0.00334073  0.38811740  1
  O2-  O122  1  0.24010106  0.00869162  0.73293360  1
  O2-  O123  1  0.24870929  0.50282000  0.05692746  1
  O2-  O124  1  0.25064829  0.50132543  0.39605830  1
  O2-  O125  1  0.25314797  0.49932452  0.73447276  1
  O2-  O126  1  0.75296043  0.00616816  0.06246892  1
  O2-  O127  1  0.74532319  0.00607860  0.39013038  1
  O2-  O128  1  0.75384843  0.00329507  0.72680437  1
  O2-  O129  1  0.75197946  0.49488175  0.06702195  1
  O2-  O130  1  0.74929157  0.49154741  0.39236029  1
  O2-  O131  1  0.75235266  0.49619504  0.72961347  1
  O2-  O132  1  0.00645993  0.24856643  0.27400325  1
  O2-  O133  1  0.00479817  0.25310140  0.60134680  1
  O2-  O134  1  -0.00855026  0.25291800  0.94143378  1
  O2-  O135  1  0.00089006  0.75043359  0.27655847  1
  O2-  O136  1  -0.00462374  0.75507978  0.60352344  1
  O2-  O137  1  0.00231986  0.74096418  0.94143335  1
  O2-  O138  1  0.50743283  0.24540838  0.27218336  1
  O2-  O139  1  0.49761031  0.25512605  0.60620856  1
  O2-  O140  1  0.51137346  0.24984284  0.94116117  1
  O2-  O141  1  0.49191891  0.75125167  0.27316195  1
  O2-  O142  1  0.49793023  0.74747404  0.60860025  1
  O2-  O143  1  0.49420044  0.75792139  0.93779514  1
  O2-  O144  1  0.06925671  0.18266437  0.10098021  1
  O2-  O145  1  0.06700854  0.16803588  0.42224050  1
  O2-  O146  1  0.06876181  0.17903560  0.76395513  1
  O2-  O147  1  0.07897649  0.68094049  0.09084331  1
  O2-  O148  1  0.07506127  0.68230013  0.42287642  1
  O2-  O149  1  0.07176152  0.68464201  0.76583610  1
  O2-  O150  1  0.56483983  0.16909699  0.09106158  1
  O2-  O151  1  0.57115844  0.16895706  0.42051948  1
  O2-  O152  1  0.56647286  0.17530333  0.76747628  1
  O2-  O153  1  0.56788614  0.68249694  0.09683234  1
  O2-  O154  1  0.57240122  0.68436616  0.43339043  1
  O2-  O155  1  0.57198766  0.68115297  0.75553074  1
  O2-  O156  1  0.18084741  0.42824140  0.23357030  1
  O2-  O157  1  0.18032661  0.43200199  0.57012695  1
  O2-  O158  1  0.18192106  0.42676371  0.91073840  1
  O2-  O159  1  0.17538712  0.93078926  0.24103782  1
  O2-  O160  1  0.18300533  0.92760510  0.56797704  1
  O2-  O161  1  0.17881690  0.92789559  0.91227534  1
  O2-  O162  1  0.67860147  0.42737057  0.24263838  1
  O2-  O163  1  0.67724488  0.42920044  0.56497467  1
  O2-  O164  1  0.67700312  0.42863704  0.90325088  1
  O2-  O165  1  0.68126130  0.92998792  0.24306732  1
  O2-  O166  1  0.67917885  0.93002242  0.56533659  1
  O2-  O167  1  0.67870129  0.93185582  0.90288235  1
  O2-  O168  1  0.42733314  0.31868162  0.09761820  1
  O2-  O169  1  0.43111984  0.31436266  0.43419377  1
  O2-  O170  1  0.43075642  0.32469986  0.75449628  1
  O2-  O171  1  0.42458108  0.82571071  0.08831213  1
  O2-  O172  1  0.42979153  0.83130627  0.42095454  1
  O2-  O173  1  0.43256644  0.82069674  0.75811116  1
  O2-  O174  1  0.93008026  0.32417237  0.09104483  1
  O2-  O175  1  0.92699532  0.32220471  0.43002894  1
  O2-  O176  1  0.92850789  0.31877887  0.76711724  1
  O2-  O177  1  0.93258273  0.81887953  0.10002786  1
  O2-  O178  1  0.93084324  0.82592392  0.42338153  1
  O2-  O179  1  0.92221717  0.81921836  0.75310130  1
  O2-  O180  1  0.32123659  0.06825555  0.24223142  1
  O2-  O181  1  0.32407623  0.06655353  0.56873544  1
  O2-  O182  1  0.31879398  0.07177944  0.91345112  1
  O2-  O183  1  0.32228516  0.56929316  0.23229062  1
  O2-  O184  1  0.32316903  0.57112354  0.56891725  1
  O2-  O185  1  0.31824541  0.57531471  0.91017312  1
  O2-  O186  1  0.82482439  0.06801283  0.24319050  1
  O2-  O187  1  0.81856868  0.07047616  0.57573668  1
  O2-  O188  1  0.82759110  0.06867036  0.91205781  1
  O2-  O189  1  0.81756106  0.57497770  0.23509896  1
  O2-  O190  1  0.81850709  0.57178878  0.56755555  1
  O2-  O191  1  0.82145504  0.56902438  0.90309229  1
  O2-  O192  1  0.03882627  0.08390173  0.26817754  1
  O2-  O193  1  0.04442655  0.07839958  0.59829351  1
  O2-  O194  1  0.04350503  0.08363515  0.93389288  1
  O2-  O195  1  0.04582791  0.58857072  0.27020266  1
  O2-  O196  1  0.04285467  0.58589052  0.59737786  1
  O2-  O197  1  0.05520219  0.58094036  0.94228167  1
  O2-  O198  1  0.54301566  0.08092556  0.26816088  1
  O2-  O199  1  0.53442136  0.08241978  0.59962750  1
  O2-  O200  1  0.53751329  0.08339113  0.93901839  1
  O2-  O201  1  0.54422630  0.58347154  0.26430853  1
  O2-  O202  1  0.54484881  0.58672491  0.60351125  1
  O2-  O203  1  0.53683154  0.58742164  0.92751064  1
  O2-  O204  1  0.16611109  0.19519828  0.27380533  1
  O2-  O205  1  0.17577615  0.19929479  0.60210115  1
  O2-  O206  1  0.16460012  0.21309751  0.93340334  1
  O2-  O207  1  0.16424105  0.70845953  0.26897411  1
  O2-  O208  1  0.16774947  0.71690990  0.59886409  1
  O2-  O209  1  0.16706504  0.70817160  0.93848563  1
  O2-  O210  1  0.66828682  0.19178310  0.26979103  1
  O2-  O211  1  0.66577612  0.20296114  0.59737354  1
  O2-  O212  1  0.66977022  0.18842821  0.94535723  1
  O2-  O213  1  0.66543467  0.71832646  0.26528933  1
  O2-  O214  1  0.66190702  0.71109124  0.60319811  1
  O2-  O215  1  0.66463471  0.71510432  0.93079634  1
  O2-  O216  1  0.08893810  0.45179778  0.06338024  1
  O2-  O217  1  0.08139402  0.45790603  0.39882843  1
  O2-  O218  1  0.08282296  0.46149117  0.73722364  1
  O2-  O219  1  0.08552573  0.95735958  0.06364205  1
  O2-  O220  1  0.08631015  0.95790210  0.39490481  1
  O2-  O221  1  0.07318574  0.94645908  0.72981542  1
  O2-  O222  1  0.57762016  0.46334670  0.06610982  1
  O2-  O223  1  0.58580025  0.45193511  0.39320885  1
  O2-  O224  1  0.58252177  0.45668973  0.73261849  1
  O2-  O225  1  0.58205362  0.95970907  0.07182359  1
  O2-  O226  1  0.58582899  0.95317342  0.39376782  1
  O2-  O227  1  0.58384694  0.96104566  0.73478793  1
  O2-  O228  1  0.21437196  0.33759342  0.06280454  1
  O2-  O229  1  0.20591726  0.32773641  0.39900735  1
  O2-  O230  1  0.20504222  0.33036942  0.73547863  1
  O2-  O231  1  0.20670976  0.83847533  0.06659321  1
  O2-  O232  1  0.20188727  0.83631712  0.39282392  1
  O2-  O233  1  0.21304058  0.83639379  0.73879586  1
  O2-  O234  1  0.69265185  0.32494214  0.06800301  1
  O2-  O235  1  0.70078649  0.32809862  0.38917119  1
  O2-  O236  1  0.70325584  0.32619976  0.73040297  1
  O2-  O237  1  0.71313623  0.83526616  0.07010380  1
  O2-  O238  1  0.71253849  0.84117824  0.39663737  1
  O2-  O239  1  0.70932268  0.83466760  0.73419659  1
  O2-  O240  1  0.45885523  0.41385693  0.26499877  1
  O2-  O241  1  0.45578449  0.41813257  0.60258521  1
  O2-  O242  1  0.45626320  0.41754215  0.92878771  1
  O2-  O243  1  0.45655180  0.91545267  0.26588663  1
  O2-  O244  1  0.46145210  0.91058841  0.60423528  1
  O2-  O245  1  0.45011840  0.92060411  0.93967881  1
  O2-  O246  1  0.96119821  0.41934125  0.26220328  1
  O2-  O247  1  0.95789617  0.42150959  0.60160003  1
  O2-  O248  1  0.95473606  0.41710267  0.94035144  1
  O2-  O249  1  0.95903765  0.91270630  0.26911388  1
  O2-  O250  1  0.94511247  0.91613606  0.60221706  1
  O2-  O251  1  0.96134247  0.91283221  0.93045759  1
  O2-  O252  1  0.33432388  0.28336963  0.26628256  1
  O2-  O253  1  0.33507775  0.29876161  0.60464357  1
  O2-  O254  1  0.33767246  0.28466441  0.92911431  1
  O2-  O255  1  0.33141049  0.80502810  0.27048543  1
  O2-  O256  1  0.33746613  0.79731431  0.60606288  1
  O2-  O257  1  0.33133117  0.80011087  0.93774937  1
  O2-  O258  1  0.83474894  0.28971236  0.26057305  1
  O2-  O259  1  0.83316419  0.29106773  0.59732215  1
  O2-  O260  1  0.82946169  0.30145295  0.94412461  1
  O2-  O261  1  0.83826271  0.79354727  0.27206109  1
  O2-  O262  1  0.83113257  0.79351601  0.60033924  1
  O2-  O263  1  0.83251540  0.79107093  0.93246916  1
  O2-  O264  1  0.40822853  0.04411661  0.06868324  1
  O2-  O265  1  0.41342137  0.04086817  0.39459145  1
  O2-  O266  1  0.41351745  0.03378182  0.73863127  1
  O2-  O267  1  0.41233123  0.54243456  0.05894352  1
  O2-  O268  1  0.42311831  0.54142796  0.39765429  1
  O2-  O269  1  0.42108843  0.54619505  0.73533656  1
  O2-  O270  1  0.91724807  0.03912339  0.06470795  1
  O2-  O271  1  0.91023006  0.03723657  0.39795051  1
  O2-  O272  1  0.91506277  0.04781393  0.72696003  1
  O2-  O273  1  0.92235225  0.54635556  0.06911906  1
  O2-  O274  1  0.91824665  0.54484185  0.39793861  1
  O2-  O275  1  0.92132396  0.54960161  0.73322951  1
  O2-  O276  1  0.28759204  0.16397404  0.06485433  1
  O2-  O277  1  0.29430143  0.15922265  0.39656767  1
  O2-  O278  1  0.30216268  0.17251317  0.73548152  1
  O2-  O279  1  0.29550646  0.66528878  0.06384788  1
  O2-  O280  1  0.30152031  0.67300071  0.39506478  1
  O2-  O281  1  0.29395270  0.67048693  0.73525278  1
  O2-  O282  1  0.80467704  0.16575894  0.06359658  1
  O2-  O283  1  0.79895657  0.16535951  0.39320178  1
  O2-  O284  1  0.79577959  0.16537424  0.72754291  1
  O2-  O285  1  0.78929639  0.66785067  0.06722609  1
  O2-  O286  1  0.78658051  0.66751893  0.40228818  1
  O2-  O287  1  0.78960529  0.66793064  0.73407624  1
