# generated using pymatgen
data_Ca2Al2SiO7
_symmetry_space_group_name_H-M   'P 1'
_cell_length_a   15.46747869
_cell_length_b   15.46798385
_cell_length_c   15.29006933
_cell_angle_alpha   90.00358006
_cell_angle_beta   89.99543605
_cell_angle_gamma   90.02629690
_symmetry_Int_Tables_number   1
_chemical_formula_structural   Ca2Al2SiO7
_chemical_formula_sum   'Ca48 Al48 Si24 O168'
_cell_volume   3658.15954664
_cell_formula_units_Z   24
loop_
 _symmetry_equiv_pos_site_id
 _symmetry_equiv_pos_as_xyz
  1  'x, y, z'
loop_
 _atom_type_symbol
 _atom_type_oxidation_number
  Ca2+  2.0
  Al0+  0.0
  Si0+  0.0
  O2-  -2.0
loop_
 _atom_site_type_symbol
 _atom_site_label
 _atom_site_symmetry_multiplicity
 _atom_site_fract_x
 _atom_site_fract_y
 _atom_site_fract_z
 _atom_site_occupancy
  Ca2+  Ca0  1  0.17524246  0.07698837  0.17471473  1
  Ca2+  Ca1  1  0.16808422  0.07583591  0.49764632  1
  Ca2+  Ca2  1  0.17525085  0.07063555  0.84183423  1
  Ca2+  Ca3  1  0.17741883  0.57844447  0.16529392  1
  Ca2+  Ca4  1  0.18143549  0.58422103  0.50462567  1
  Ca2+  Ca5  1  0.17654137  0.57772914  0.83842958  1
  Ca2+  Ca6  1  0.66850699  0.08394174  0.17054250  1
  Ca2+  Ca7  1  0.65689303  0.06818540  0.49788992  1
  Ca2+  Ca8  1  0.66793721  0.08021656  0.84111184  1
  Ca2+  Ca9  1  0.66502478  0.58193921  0.17003737  1
  Ca2+  Ca10  1  0.66566496  0.59071335  0.49924924  1
  Ca2+  Ca11  1  0.67383894  0.57556437  0.84502875  1
  Ca2+  Ca12  1  0.08289621  0.32856360  0.15834623  1
  Ca2+  Ca13  1  0.08784404  0.32817690  0.49391464  1
  Ca2+  Ca14  1  0.08210084  0.34283693  0.83159940  1
  Ca2+  Ca15  1  0.08234908  0.84159100  0.16339701  1
  Ca2+  Ca16  1  0.07834941  0.84398101  0.49269118  1
  Ca2+  Ca17  1  0.08740917  0.83658954  0.83038415  1
  Ca2+  Ca18  1  0.58441817  0.32247153  0.15921930  1
  Ca2+  Ca19  1  0.57971693  0.32371789  0.49143112  1
  Ca2+  Ca20  1  0.58852511  0.32850665  0.83729852  1
  Ca2+  Ca21  1  0.56967638  0.83569899  0.16554640  1
  Ca2+  Ca22  1  0.57293616  0.83321912  0.48990458  1
  Ca2+  Ca23  1  0.56858048  0.83651695  0.82796251  1
  Ca2+  Ca24  1  0.34079759  0.42916144  0.16984593  1
  Ca2+  Ca25  1  0.33220004  0.42998388  0.50642092  1
  Ca2+  Ca26  1  0.32529244  0.42695387  0.84089023  1
  Ca2+  Ca27  1  0.32882947  0.91964710  0.17076650  1
  Ca2+  Ca28  1  0.33082706  0.91515793  0.50073239  1
  Ca2+  Ca29  1  0.32740390  0.91271761  0.84135594  1
  Ca2+  Ca30  1  0.83243512  0.41659587  0.16034010  1
  Ca2+  Ca31  1  0.83073218  0.41806351  0.50179937  1
  Ca2+  Ca32  1  0.83046820  0.42020947  0.84844320  1
  Ca2+  Ca33  1  0.82849125  0.92042721  0.17400068  1
  Ca2+  Ca34  1  0.81918610  0.90821784  0.49934247  1
  Ca2+  Ca35  1  0.82312354  0.92306647  0.83911940  1
  Ca2+  Ca36  1  0.42614456  0.15219731  0.16146937  1
  Ca2+  Ca37  1  0.41833234  0.16655736  0.48970151  1
  Ca2+  Ca38  1  0.41897350  0.16192639  0.83665773  1
  Ca2+  Ca39  1  0.40888372  0.67582054  0.16393069  1
  Ca2+  Ca40  1  0.41518856  0.67529770  0.49231237  1
  Ca2+  Ca41  1  0.40571797  0.67448930  0.83138591  1
  Ca2+  Ca42  1  0.92405692  0.16646782  0.15784173  1
  Ca2+  Ca43  1  0.92693657  0.16741311  0.49131631  1
  Ca2+  Ca44  1  0.91479591  0.17001634  0.83662328  1
  Ca2+  Ca45  1  0.91585931  0.67270000  0.16287794  1
  Ca2+  Ca46  1  0.92417455  0.67465652  0.49050197  1
  Ca2+  Ca47  1  0.91877804  0.66270613  0.83267642  1
  Al0+  Al48  1  -0.00270252  0.00030390  0.00181211  1
  Al0+  Al49  1  -0.00031286  0.00332049  0.32772574  1
  Al0+  Al50  1  -0.00019559  0.00254349  0.66939576  1
  Al0+  Al51  1  -0.00026947  0.50099695  0.00354436  1
  Al0+  Al52  1  -0.00200109  0.50114791  0.33391015  1
  Al0+  Al53  1  -0.00106203  0.50082080  0.66421269  1
  Al0+  Al54  1  0.49955447  -0.00232389  -0.00859049  1
  Al0+  Al55  1  0.50044040  -0.00058201  0.33279333  1
  Al0+  Al56  1  0.50064573  -0.00085706  0.66630171  1
  Al0+  Al57  1  0.50132539  0.49867640  0.00589589  1
  Al0+  Al58  1  0.50175121  0.49896389  0.33754369  1
  Al0+  Al59  1  0.50275041  0.49950227  0.67050571  1
  Al0+  Al60  1  0.25211022  0.24735560  0.00295080  1
  Al0+  Al61  1  0.24963850  0.25057696  0.33114542  1
  Al0+  Al62  1  0.24974392  0.25025422  0.66868000  1
  Al0+  Al63  1  0.24690890  0.74850525  0.00245095  1
  Al0+  Al64  1  0.24747410  0.74795094  0.33760653  1
  Al0+  Al65  1  0.24908475  0.75065439  0.66774930  1
  Al0+  Al66  1  0.75189055  0.24941490  -0.00154854  1
  Al0+  Al67  1  0.75005564  0.25167463  0.33236467  1
  Al0+  Al68  1  0.75173407  0.25034342  0.66264466  1
  Al0+  Al69  1  0.74935952  0.74971996  0.00069979  1
  Al0+  Al70  1  0.75173523  0.74938985  0.32998599  1
  Al0+  Al71  1  0.74975562  0.75112371  0.67298386  1
  Al0+  Al72  1  0.82145758  0.57305117  0.01679986  1
  Al0+  Al73  1  0.32402738  0.06908904  0.01367673  1
  Al0+  Al74  1  0.56996267  0.17849751  0.32016506  1
  Al0+  Al75  1  0.17790953  0.93123932  0.68001914  1
  Al0+  Al76  1  0.67812078  0.92935784  0.68133905  1
  Al0+  Al77  1  0.42809185  0.81971057  0.65158941  1
  Al0+  Al78  1  0.93067092  0.82113637  0.31993761  1
  Al0+  Al79  1  0.07171384  0.18124613  0.31815311  1
  Al0+  Al80  1  0.32216806  0.56997095  0.34895044  1
  Al0+  Al81  1  0.32156819  0.57045483  0.01595776  1
  Al0+  Al82  1  0.67955404  0.42798589  0.01637078  1
  Al0+  Al83  1  0.42833622  0.81717820  0.98527966  1
  Al0+  Al84  1  0.93365937  0.31982181  0.98603955  1
  Al0+  Al85  1  0.68074195  0.92842490  0.34452826  1
  Al0+  Al86  1  0.32321297  0.57192146  0.68225942  1
  Al0+  Al87  1  0.32254327  0.07117892  0.34878444  1
  Al0+  Al88  1  0.57063580  0.17971185  0.98497689  1
  Al0+  Al89  1  0.81868073  0.07056005  0.01324830  1
  Al0+  Al90  1  0.42632385  0.81984596  0.31758864  1
  Al0+  Al91  1  0.17824639  0.42720343  0.01509701  1
  Al0+  Al92  1  0.57152565  0.67748969  0.31867255  1
  Al0+  Al93  1  0.17844475  0.42797995  0.68012821  1
  Al0+  Al94  1  0.17813953  0.92838403  0.01506312  1
  Al0+  Al95  1  0.17714386  0.92965186  0.34864251  1
  Si0+  Si96  1  0.57480720  0.67725560  0.65252840  1
  Si0+  Si97  1  0.68020791  0.42782877  0.35090000  1
  Si0+  Si98  1  0.67698134  0.92796511  0.01629352  1
  Si0+  Si99  1  0.57222759  0.17991197  0.65074602  1
  Si0+  Si100  1  0.82185512  0.07358598  0.68230171  1
  Si0+  Si101  1  0.07409230  0.17559776  0.98076916  1
  Si0+  Si102  1  0.92900003  0.32253331  0.65008204  1
  Si0+  Si103  1  0.17589567  0.42870949  0.34905955  1
  Si0+  Si104  1  0.07142230  0.67566634  0.31573291  1
  Si0+  Si105  1  0.32342164  0.07316936  0.68280194  1
  Si0+  Si106  1  0.82123569  0.57128411  0.35045349  1
  Si0+  Si107  1  0.42924398  0.32148542  0.65335000  1
  Si0+  Si108  1  0.57340866  0.67583710  0.98290851  1
  Si0+  Si109  1  0.42734225  0.32456218  0.98258806  1
  Si0+  Si110  1  0.07121899  0.17927382  0.65234756  1
  Si0+  Si111  1  0.92603762  0.82342223  0.98246758  1
  Si0+  Si112  1  0.06893847  0.67909235  0.65163367  1
  Si0+  Si113  1  0.92726105  0.32424735  0.31582683  1
  Si0+  Si114  1  0.68110224  0.42608442  0.68111252  1
  Si0+  Si115  1  0.06784412  0.68062118  0.98431730  1
  Si0+  Si116  1  0.82156165  0.07441291  0.34995333  1
  Si0+  Si117  1  0.92825934  0.82240608  0.65369552  1
  Si0+  Si118  1  0.82038620  0.57061188  0.68003656  1
  Si0+  Si119  1  0.42847314  0.32198466  0.31806817  1
  O2-  O120  1  0.24826472  0.00199296  0.06375426  1
  O2-  O121  1  0.25219076  -0.00197867  0.40005814  1
  O2-  O122  1  0.25671628  0.00176486  0.72505251  1
  O2-  O123  1  0.25587852  0.49215688  0.06552391  1
  O2-  O124  1  0.24563985  0.49556749  0.39400601  1
  O2-  O125  1  0.25134683  0.49838276  0.72963415  1
  O2-  O126  1  0.74634991  -0.00480354  0.06083523  1
  O2-  O127  1  0.75380618  0.00485961  0.39419388  1
  O2-  O128  1  0.75176254  0.00620418  0.72568428  1
  O2-  O129  1  0.74675627  0.50424560  0.06677111  1
  O2-  O130  1  0.74965323  0.50088714  0.39350172  1
  O2-  O131  1  0.74960901  0.49979614  0.72156103  1
  O2-  O132  1  -0.00258908  0.25725518  0.27338663  1
  O2-  O133  1  0.00220976  0.25339618  0.60975515  1
  O2-  O134  1  0.01057822  0.24922258  0.93532081  1
  O2-  O135  1  0.00842155  0.75011246  0.27266765  1
  O2-  O136  1  0.00098221  0.75383328  0.61027264  1
  O2-  O137  1  -0.00256975  0.75258698  0.94059040  1
  O2-  O138  1  0.49160932  0.24876639  0.27359887  1
  O2-  O139  1  0.49873971  0.24907572  0.60979138  1
  O2-  O140  1  0.49525872  0.25431023  0.93806471  1
  O2-  O141  1  0.49755205  0.74620453  0.26809383  1
  O2-  O142  1  0.50361444  0.74308882  0.60866631  1
  O2-  O143  1  0.50246471  0.74113126  0.93759812  1
  O2-  O144  1  0.06933834  0.17451671  0.08597734  1
  O2-  O145  1  0.06904821  0.18266869  0.43250610  1
  O2-  O146  1  0.06860464  0.17760637  0.75676378  1
  O2-  O147  1  0.06668036  0.68098595  0.08916225  1
  O2-  O148  1  0.06638095  0.67058516  0.42176271  1
  O2-  O149  1  0.06488940  0.67576373  0.75654783  1
  O2-  O150  1  0.57085418  0.17981831  0.09772216  1
  O2-  O151  1  0.57116041  0.18235712  0.43424710  1
  O2-  O152  1  0.57601626  0.18209661  0.75546951  1
  O2-  O153  1  0.57612197  0.67917934  0.08789388  1
  O2-  O154  1  0.57164645  0.68010450  0.43314862  1
  O2-  O155  1  0.57949454  0.67748100  0.75758240  1
  O2-  O156  1  0.17361056  0.43101815  0.24414176  1
  O2-  O157  1  0.17943021  0.42828683  0.56640159  1
  O2-  O158  1  0.17707705  0.43377691  0.90134884  1
  O2-  O159  1  0.17528640  0.93274106  0.23593251  1
  O2-  O160  1  0.17166003  0.93521248  0.56777283  1
  O2-  O161  1  0.17930114  0.92860499  0.90075050  1
  O2-  O162  1  0.68181131  0.42488904  0.24694243  1
  O2-  O163  1  0.68325812  0.42273886  0.57591517  1
  O2-  O164  1  0.68343030  0.42862024  0.90161129  1
  O2-  O165  1  0.68294910  0.92963313  0.23201715  1
  O2-  O166  1  0.67957988  0.92831400  0.56820611  1
  O2-  O167  1  0.67949941  0.92980739  0.91000882  1
  O2-  O168  1  0.42968395  0.32718092  0.08781920  1
  O2-  O169  1  0.43236890  0.32262937  0.42460348  1
  O2-  O170  1  0.43087081  0.32157139  0.75791779  1
  O2-  O171  1  0.42871991  0.81851413  0.09771844  1
  O2-  O172  1  0.42844284  0.81957777  0.43173766  1
  O2-  O173  1  0.42848502  0.81956126  0.76461609  1
  O2-  O174  1  0.93377409  0.31749920  0.09883561  1
  O2-  O175  1  0.92672252  0.32424849  0.42240925  1
  O2-  O176  1  0.92521571  0.32378412  0.75445218  1
  O2-  O177  1  0.92513146  0.82339756  0.08725829  1
  O2-  O178  1  0.92911728  0.81729366  0.43415204  1
  O2-  O179  1  0.92734495  0.82021952  0.75865046  1
  O2-  O180  1  0.32196059  0.07047172  0.23599773  1
  O2-  O181  1  0.32272880  0.07655509  0.57745689  1
  O2-  O182  1  0.32299550  0.06625063  0.89928524  1
  O2-  O183  1  0.32204643  0.56802736  0.23649793  1
  O2-  O184  1  0.32256671  0.56997777  0.56852472  1
  O2-  O185  1  0.31789638  0.57165897  0.90237938  1
  O2-  O186  1  0.81967444  0.07539237  0.24467370  1
  O2-  O187  1  0.82392306  0.07503768  0.57692546  1
  O2-  O188  1  0.81759467  0.06869083  0.89934354  1
  O2-  O189  1  0.82354753  0.57043864  0.24643690  1
  O2-  O190  1  0.82083082  0.57038194  0.57473304  1
  O2-  O191  1  0.82110145  0.57092860  0.90200797  1
  O2-  O192  1  0.03846436  0.08739296  0.26199028  1
  O2-  O193  1  0.03810975  0.08962790  0.60293773  1
  O2-  O194  1  0.03984995  0.08439336  0.93346980  1
  O2-  O195  1  0.03791704  0.58512296  0.26803419  1
  O2-  O196  1  0.03632804  0.58994573  0.60072661  1
  O2-  O197  1  0.03701035  0.59006774  0.93582354  1
  O2-  O198  1  0.54529665  0.08138508  0.26623978  1
  O2-  O199  1  0.54593608  0.08732433  0.60475186  1
  O2-  O200  1  0.54036323  0.08424138  0.92733067  1
  O2-  O201  1  0.54937771  0.57561643  0.27077879  1
  O2-  O202  1  0.55502674  0.58095954  0.60790525  1
  O2-  O203  1  0.55278218  0.57938287  0.94005744  1
  O2-  O204  1  0.16801450  0.21035629  0.26326880  1
  O2-  O205  1  0.16363870  0.20503427  0.60467878  1
  O2-  O206  1  0.17063671  0.19357274  0.93792730  1
  O2-  O207  1  0.16677893  0.69446007  0.27308567  1
  O2-  O208  1  0.16149909  0.70368645  0.60541107  1
  O2-  O209  1  0.15878180  0.70817022  0.93512664  1
  O2-  O210  1  0.66620904  0.21344467  0.26803376  1
  O2-  O211  1  0.66291246  0.21057120  0.60181222  1
  O2-  O212  1  0.66626741  0.21301175  0.92943540  1
  O2-  O213  1  0.67063150  0.70327325  0.26708068  1
  O2-  O214  1  0.66855526  0.70529773  0.60595737  1
  O2-  O215  1  0.66713486  0.70257568  0.93544939  1
  O2-  O216  1  0.08302221  0.46168562  0.06919946  1
  O2-  O217  1  0.08173750  0.45429837  0.39586791  1
  O2-  O218  1  0.07860765  0.45799954  0.72963137  1
  O2-  O219  1  0.07786051  0.95393186  0.06385209  1
  O2-  O220  1  0.07866849  0.96443260  0.40019229  1
  O2-  O221  1  0.08198756  0.96341458  0.73581999  1
  O2-  O222  1  0.58052750  0.44894157  0.06944824  1
  O2-  O223  1  0.58915337  0.45293991  0.40130997  1
  O2-  O224  1  0.58923105  0.44978217  0.72915040  1
  O2-  O225  1  0.58376854  0.95567797  0.05879257  1
  O2-  O226  1  0.58531096  0.95973496  0.40046940  1
  O2-  O227  1  0.58239207  0.96122999  0.73567027  1
  O2-  O228  1  0.19688580  0.32513751  0.06246827  1
  O2-  O229  1  0.19999763  0.33446382  0.39389667  1
  O2-  O230  1  0.20311116  0.32910676  0.73357320  1
  O2-  O231  1  0.20365466  0.83017454  0.06721505  1
  O2-  O232  1  0.19676059  0.82847843  0.39989225  1
  O2-  O233  1  0.20306729  0.83260296  0.73155906  1
  O2-  O234  1  0.71465605  0.33191116  0.06797986  1
  O2-  O235  1  0.71206933  0.33788657  0.40152631  1
  O2-  O236  1  0.71282010  0.33559198  0.72872242  1
  O2-  O237  1  0.70139300  0.83408524  0.06010755  1
  O2-  O238  1  0.71567628  0.83293113  0.39966589  1
  O2-  O239  1  0.71109973  0.83481633  0.73800660  1
  O2-  O240  1  0.46186926  0.41287256  0.27238629  1
  O2-  O241  1  0.46013522  0.41266271  0.60520954  1
  O2-  O242  1  0.45561132  0.41752189  0.93537985  1
  O2-  O243  1  0.45823018  0.91748340  0.26632663  1
  O2-  O244  1  0.46032162  0.91723107  0.59937165  1
  O2-  O245  1  0.46130392  0.91143363  0.92724110  1
  O2-  O246  1  0.94984968  0.41901644  0.27160822  1
  O2-  O247  1  0.95332950  0.41483999  0.60072165  1
  O2-  O248  1  0.96019613  0.41886934  0.93280541  1
  O2-  O249  1  0.95491537  0.91880176  0.26609666  1
  O2-  O250  1  0.95378664  0.91545318  0.60771105  1
  O2-  O251  1  0.95296950  0.91514596  0.93386618  1
  O2-  O252  1  0.33267468  0.30638044  0.27457798  1
  O2-  O253  1  0.33677341  0.29564420  0.60568696  1
  O2-  O254  1  0.33332065  0.29920054  0.93642897  1
  O2-  O255  1  0.32630831  0.79153226  0.26856931  1
  O2-  O256  1  0.33031058  0.79080091  0.59860143  1
  O2-  O257  1  0.33030678  0.78560379  0.93299958  1
  O2-  O258  1  0.83397688  0.29843753  0.27077370  1
  O2-  O259  1  0.83869871  0.29249112  0.59929037  1
  O2-  O260  1  0.83812348  0.28627754  0.93030622  1
  O2-  O261  1  0.83728797  0.78559675  0.26408607  1
  O2-  O262  1  0.83674610  0.79115701  0.60694726  1
  O2-  O263  1  0.83424649  0.79461686  0.93426016  1
  O2-  O264  1  0.42189530  0.03615962  0.06364424  1
  O2-  O265  1  0.42169184  0.04564771  0.40189677  1
  O2-  O266  1  0.41818276  0.05054207  0.72693146  1
  O2-  O267  1  0.42146866  0.54873844  0.06763932  1
  O2-  O268  1  0.41794866  0.53700393  0.40440906  1
  O2-  O269  1  0.42263698  0.54555853  0.73400700  1
  O2-  O270  1  0.91476783  0.04116421  0.06729242  1
  O2-  O271  1  0.91541211  0.04907362  0.39465694  1
  O2-  O272  1  0.91380554  0.04729463  0.73071634  1
  O2-  O273  1  0.91755503  0.54211028  0.07052499  1
  O2-  O274  1  0.91192387  0.54167582  0.40091944  1
  O2-  O275  1  0.91170601  0.54189639  0.72714268  1
  O2-  O276  1  0.30643119  0.17026575  0.06387951  1
  O2-  O277  1  0.29342996  0.17144357  0.40002835  1
  O2-  O278  1  0.29594006  0.16553970  0.73029508  1
  O2-  O279  1  0.28327432  0.66456620  0.06940289  1
  O2-  O280  1  0.28912012  0.66483747  0.40474636  1
  O2-  O281  1  0.28939047  0.66839572  0.73428504  1
  O2-  O282  1  0.78932661  0.16619275  0.06711373  1
  O2-  O283  1  0.79680254  0.16840996  0.39672480  1
  O2-  O284  1  0.79594340  0.16797950  0.72730898  1
  O2-  O285  1  0.79677314  0.67300125  0.06770381  1
  O2-  O286  1  0.79392673  0.66251565  0.39932005  1
  O2-  O287  1  0.79546541  0.66173777  0.72972244  1
