# generated using pymatgen
data_Ca2Al2SiO7
_symmetry_space_group_name_H-M   'P 1'
_cell_length_a   15.46412296
_cell_length_b   15.46302879
_cell_length_c   15.28751918
_cell_angle_alpha   90.00348872
_cell_angle_beta   89.98849981
_cell_angle_gamma   90.00204288
_symmetry_Int_Tables_number   1
_chemical_formula_structural   Ca2Al2SiO7
_chemical_formula_sum   'Ca48 Al48 Si24 O168'
_cell_volume   3655.58480831
_cell_formula_units_Z   24
loop_
 _symmetry_equiv_pos_site_id
 _symmetry_equiv_pos_as_xyz
  1  'x, y, z'
loop_
 _atom_type_symbol
 _atom_type_oxidation_number
  Ca2+  2.0
  Al0+  0.0
  Si0+  0.0
  O2-  -2.0
loop_
 _atom_site_type_symbol
 _atom_site_label
 _atom_site_symmetry_multiplicity
 _atom_site_fract_x
 _atom_site_fract_y
 _atom_site_fract_z
 _atom_site_occupancy
  Ca2+  Ca0  1  0.16397172  0.08259704  0.17198613  1
  Ca2+  Ca1  1  0.15651623  0.07077003  0.50515829  1
  Ca2+  Ca2  1  0.15455639  0.08061292  0.83362848  1
  Ca2+  Ca3  1  0.17283493  0.57596015  0.17980418  1
  Ca2+  Ca4  1  0.17183132  0.58815500  0.50372627  1
  Ca2+  Ca5  1  0.16971746  0.58404281  0.83107813  1
  Ca2+  Ca6  1  0.67906939  0.08007403  0.17658282  1
  Ca2+  Ca7  1  0.67940642  0.07902744  0.50190819  1
  Ca2+  Ca8  1  0.67945841  0.08609381  0.83555292  1
  Ca2+  Ca9  1  0.67297722  0.57839117  0.17426722  1
  Ca2+  Ca10  1  0.66368039  0.57478189  0.50167192  1
  Ca2+  Ca11  1  0.67425302  0.57638494  0.83587466  1
  Ca2+  Ca12  1  0.07376151  0.33134878  0.16048612  1
  Ca2+  Ca13  1  0.07072383  0.33230356  0.49318989  1
  Ca2+  Ca14  1  0.07011003  0.32071208  0.82531815  1
  Ca2+  Ca15  1  0.08260908  0.83216455  0.17390671  1
  Ca2+  Ca16  1  0.08773956  0.82657651  0.49375635  1
  Ca2+  Ca17  1  0.08446233  0.82723641  0.82289085  1
  Ca2+  Ca18  1  0.57792442  0.33946179  0.16658253  1
  Ca2+  Ca19  1  0.58113311  0.34322504  0.49773579  1
  Ca2+  Ca20  1  0.57547633  0.33972117  0.82649234  1
  Ca2+  Ca21  1  0.59480272  0.82675574  0.16922880  1
  Ca2+  Ca22  1  0.57709905  0.83102948  0.48979519  1
  Ca2+  Ca23  1  0.57535569  0.83085182  0.82473098  1
  Ca2+  Ca24  1  0.32516828  0.41751219  0.17746864  1
  Ca2+  Ca25  1  0.32717213  0.42696368  0.50402338  1
  Ca2+  Ca26  1  0.33805705  0.41843002  0.83481893  1
  Ca2+  Ca27  1  0.32549452  0.92174796  0.17538883  1
  Ca2+  Ca28  1  0.32299282  0.91107532  0.50614705  1
  Ca2+  Ca29  1  0.32795526  0.91451767  0.83049595  1
  Ca2+  Ca30  1  0.83486476  0.41711317  0.17299109  1
  Ca2+  Ca31  1  0.82424286  0.40565316  0.50417750  1
  Ca2+  Ca32  1  0.83386440  0.41416519  0.83621588  1
  Ca2+  Ca33  1  0.83587728  0.92896218  0.17771949  1
  Ca2+  Ca34  1  0.84409298  0.92705990  0.50015239  1
  Ca2+  Ca35  1  0.83956136  0.93102438  0.83683842  1
  Ca2+  Ca36  1  0.41991415  0.17379575  0.15889131  1
  Ca2+  Ca37  1  0.41760454  0.17350144  0.49914118  1
  Ca2+  Ca38  1  0.41870855  0.18020239  0.82670165  1
  Ca2+  Ca39  1  0.42231961  0.66094064  0.17147262  1
  Ca2+  Ca40  1  0.41708933  0.66424884  0.49583736  1
  Ca2+  Ca41  1  0.41554483  0.67107683  0.82178645  1
  Ca2+  Ca42  1  0.91399903  0.17506319  0.16240250  1
  Ca2+  Ca43  1  0.91275088  0.17113853  0.49947528  1
  Ca2+  Ca44  1  0.91908363  0.16844016  0.82735932  1
  Ca2+  Ca45  1  0.91827440  0.66880094  0.16535978  1
  Ca2+  Ca46  1  0.93084173  0.67232481  0.48899618  1
  Ca2+  Ca47  1  0.92182406  0.66569743  0.82714322  1
  Al0+  Al48  1  -0.00124425  -0.00270865  0.00394610  1
  Al0+  Al49  1  0.00256647  0.00054085  0.33720390  1
  Al0+  Al50  1  -0.00008666  -0.00081409  0.67388295  1
  Al0+  Al51  1  0.00148198  0.50038930  -0.00022607  1
  Al0+  Al52  1  0.00037822  0.49926497  0.32793876  1
  Al0+  Al53  1  0.00079255  0.49924041  0.65871349  1
  Al0+  Al54  1  0.49748782  -0.00175687  -0.00014553  1
  Al0+  Al55  1  0.50134008  0.00207425  0.33452346  1
  Al0+  Al56  1  0.49797030  0.00007513  0.66295412  1
  Al0+  Al57  1  0.50087467  0.50287973  -0.00384196  1
  Al0+  Al58  1  0.50028421  0.50215523  0.33459728  1
  Al0+  Al59  1  0.49962848  0.50051478  0.67205459  1
  Al0+  Al60  1  0.25003844  0.24868441  -0.00802117  1
  Al0+  Al61  1  0.24966775  0.25196578  0.33794054  1
  Al0+  Al62  1  0.25005381  0.24867544  0.65773977  1
  Al0+  Al63  1  0.25076170  0.74979870  0.00240522  1
  Al0+  Al64  1  0.25247683  0.75166280  0.33319680  1
  Al0+  Al65  1  0.25087254  0.75039233  0.66872861  1
  Al0+  Al66  1  0.74695270  0.24994281  0.00242751  1
  Al0+  Al67  1  0.74924900  0.24982682  0.33605445  1
  Al0+  Al68  1  0.74796644  0.24878530  0.67447526  1
  Al0+  Al69  1  0.75066029  0.74753169  -0.00013346  1
  Al0+  Al70  1  0.74892841  0.75073642  0.32826368  1
  Al0+  Al71  1  0.74923723  0.74942274  0.66714294  1
  Al0+  Al72  1  0.92692702  0.31961582  0.31900902  1
  Al0+  Al73  1  0.43031428  0.32161617  0.98743511  1
  Al0+  Al74  1  0.32041964  0.57000099  0.34764609  1
  Al0+  Al75  1  0.68027006  0.43073118  0.68170433  1
  Al0+  Al76  1  0.68102657  0.43085972  0.34577141  1
  Al0+  Al77  1  0.18138479  0.93077344  0.68199596  1
  Al0+  Al78  1  0.06999222  0.17563638  0.64956357  1
  Al0+  Al79  1  0.82002533  0.07080437  0.01596687  1
  Al0+  Al80  1  0.18217634  0.93181263  0.34676647  1
  Al0+  Al81  1  0.82296645  0.56992560  0.01374162  1
  Al0+  Al82  1  0.42980814  0.32342669  0.65024832  1
  Al0+  Al83  1  0.57064868  0.67888327  0.31948813  1
  Al0+  Al84  1  0.42988183  0.82096663  0.65253360  1
  Al0+  Al85  1  0.07077373  0.67945576  0.65413549  1
  Al0+  Al86  1  0.06937732  0.17661289  0.98595951  1
  Al0+  Al87  1  0.92986160  0.82258972  0.31844110  1
  Al0+  Al88  1  0.92654714  0.32277678  0.98501562  1
  Al0+  Al89  1  0.07408416  0.67904073  0.31612416  1
  Al0+  Al90  1  0.31805854  0.56871662  0.68189635  1
  Al0+  Al91  1  0.67818793  0.92660943  0.34812326  1
  Al0+  Al92  1  0.92647775  0.31966266  0.65095006  1
  Al0+  Al93  1  0.81900648  0.06830009  0.68274284  1
  Al0+  Al94  1  0.17508718  0.42738417  0.34891021  1
  Al0+  Al95  1  0.82192281  0.07066455  0.34981865  1
  Si0+  Si96  1  0.82495766  0.57378303  0.68057266  1
  Si0+  Si97  1  0.17584354  0.42514607  0.68368329  1
  Si0+  Si98  1  0.17947058  0.92723065  0.01642984  1
  Si0+  Si99  1  0.67591544  0.42999251  0.01697856  1
  Si0+  Si100  1  0.92888880  0.81888923  0.98488357  1
  Si0+  Si101  1  0.57150238  0.68070910  0.98279026  1
  Si0+  Si102  1  0.67566622  0.92727188  0.01491911  1
  Si0+  Si103  1  0.57049249  0.17885680  0.31853116  1
  Si0+  Si104  1  0.32185018  0.57226696  0.01536032  1
  Si0+  Si105  1  0.57245790  0.67825802  0.65089067  1
  Si0+  Si106  1  0.07331235  0.17899599  0.31794253  1
  Si0+  Si107  1  0.07352896  0.67979728  0.98488726  1
  Si0+  Si108  1  0.57155623  0.17816613  0.64967804  1
  Si0+  Si109  1  0.92673373  0.82172764  0.65324205  1
  Si0+  Si110  1  0.82346653  0.57363925  0.34871679  1
  Si0+  Si111  1  0.32459420  0.07534525  0.35012614  1
  Si0+  Si112  1  0.32435772  0.07433991  0.68431053  1
  Si0+  Si113  1  0.32080961  0.07139374  0.01343168  1
  Si0+  Si114  1  0.57045079  0.17486805  0.98389972  1
  Si0+  Si115  1  0.42955961  0.32104932  0.31963167  1
  Si0+  Si116  1  0.42932188  0.82484180  0.31462689  1
  Si0+  Si117  1  0.42687165  0.82055889  0.98498362  1
  Si0+  Si118  1  0.18193392  0.42802217  0.01167044  1
  Si0+  Si119  1  0.67434325  0.92584491  0.68305147  1
  O2-  O120  1  0.24775542  0.00251697  0.05601169  1
  O2-  O121  1  0.25665407  0.00626690  0.39355962  1
  O2-  O122  1  0.25291835  0.00865638  0.72965938  1
  O2-  O123  1  0.25381957  0.49818753  0.05545028  1
  O2-  O124  1  0.24330639  0.50384366  0.39731868  1
  O2-  O125  1  0.24579157  0.49221018  0.73046968  1
  O2-  O126  1  0.74209423  -0.00264752  0.05930301  1
  O2-  O127  1  0.75398880  -0.00656409  0.39855860  1
  O2-  O128  1  0.74463407  -0.00832366  0.72884940  1
  O2-  O129  1  0.75104392  0.49186150  0.05995909  1
  O2-  O130  1  0.75747706  0.50297258  0.39353422  1
  O2-  O131  1  0.75829230  0.50332014  0.72603751  1
  O2-  O132  1  0.00534176  0.24779590  0.27330123  1
  O2-  O133  1  0.00066250  0.25015521  0.60047624  1
  O2-  O134  1  -0.00546174  0.24604771  0.93654705  1
  O2-  O135  1  -0.00143238  0.74792822  0.26590984  1
  O2-  O136  1  -0.00857355  0.74975181  0.60973724  1
  O2-  O137  1  0.00068978  0.74873091  0.94242778  1
  O2-  O138  1  0.49745622  0.24801430  0.27567905  1
  O2-  O139  1  0.50429527  0.24797710  0.60442618  1
  O2-  O140  1  0.50563379  0.24753091  0.94023010  1
  O2-  O141  1  0.49976084  0.75750058  0.27052642  1
  O2-  O142  1  0.50849886  0.75075262  0.60692712  1
  O2-  O143  1  0.50005244  0.75210034  0.94236795  1
  O2-  O144  1  0.07320763  0.17890102  0.09949214  1
  O2-  O145  1  0.07354654  0.17913028  0.42295212  1
  O2-  O146  1  0.06599528  0.17581328  0.76351872  1
  O2-  O147  1  0.07698897  0.68183701  0.08931157  1
  O2-  O148  1  0.07505349  0.68281360  0.42957811  1
  O2-  O149  1  0.07007625  0.68130936  0.76841923  1
  O2-  O150  1  0.56649217  0.17160639  0.08951904  1
  O2-  O151  1  0.56895888  0.17860039  0.42317967  1
  O2-  O152  1  0.56882903  0.17780964  0.75575198  1
  O2-  O153  1  0.57088389  0.67939985  0.08758889  1
  O2-  O154  1  0.56610636  0.67611817  0.43211737  1
  O2-  O155  1  0.57143645  0.68009985  0.75731092  1
  O2-  O156  1  0.18127968  0.42378973  0.23406160  1
  O2-  O157  1  0.17669589  0.42851184  0.57871627  1
  O2-  O158  1  0.18349226  0.43077843  0.90678141  1
  O2-  O159  1  0.18415769  0.93425541  0.23270678  1
  O2-  O160  1  0.18310865  0.92953468  0.56947766  1
  O2-  O161  1  0.18186858  0.92282000  0.91167076  1
  O2-  O162  1  0.67828792  0.43208213  0.23238851  1
  O2-  O163  1  0.67860577  0.43306740  0.56876244  1
  O2-  O164  1  0.67148534  0.43471841  0.91169869  1
  O2-  O165  1  0.67671212  0.93264898  0.23394559  1
  O2-  O166  1  0.67292414  0.92622823  0.57821411  1
  O2-  O167  1  0.67430283  0.92724617  0.90918329  1
  O2-  O168  1  0.43026811  0.32016784  0.10100582  1
  O2-  O169  1  0.43156743  0.32065550  0.42420802  1
  O2-  O170  1  0.43272947  0.32273819  0.76398853  1
  O2-  O171  1  0.42380829  0.82058195  0.08946159  1
  O2-  O172  1  0.42916335  0.82506179  0.41986051  1
  O2-  O173  1  0.43082568  0.81870674  0.76679398  1
  O2-  O174  1  0.93013103  0.32328130  0.09854417  1
  O2-  O175  1  0.92355595  0.31589731  0.43153251  1
  O2-  O176  1  0.92696771  0.31902807  0.76481315  1
  O2-  O177  1  0.92899171  0.81908660  0.08941424  1
  O2-  O178  1  0.93307622  0.82155243  0.43213326  1
  O2-  O179  1  0.92830008  0.82054034  0.75974722  1
  O2-  O180  1  0.32472296  0.07581534  0.24355809  1
  O2-  O181  1  0.32867351  0.07132283  0.57914952  1
  O2-  O182  1  0.32524678  0.06917938  0.90910416  1
  O2-  O183  1  0.32268662  0.56479696  0.23291824  1
  O2-  O184  1  0.31842031  0.56967967  0.56963002  1
  O2-  O185  1  0.32076181  0.57590777  0.91052489  1
  O2-  O186  1  0.81912217  0.07212346  0.23590892  1
  O2-  O187  1  0.81843035  0.06727657  0.57028702  1
  O2-  O188  1  0.81970015  0.06746677  0.90286482  1
  O2-  O189  1  0.82037367  0.57186111  0.24247241  1
  O2-  O190  1  0.82200546  0.57873266  0.57572500  1
  O2-  O191  1  0.81956884  0.57360845  0.90054334  1
  O2-  O192  1  0.04895187  0.08504715  0.27249660  1
  O2-  O193  1  0.03773842  0.07666028  0.60049604  1
  O2-  O194  1  0.04330949  0.07553964  0.93641602  1
  O2-  O195  1  0.04921050  0.57964894  0.26337208  1
  O2-  O196  1  0.04717189  0.58280939  0.59829726  1
  O2-  O197  1  0.04832273  0.58752314  0.93784875  1
  O2-  O198  1  0.54392025  0.08758737  0.26840922  1
  O2-  O199  1  0.54503198  0.08540227  0.60266595  1
  O2-  O200  1  0.54162874  0.08254824  0.93628323  1
  O2-  O201  1  0.53452007  0.58449081  0.26192775  1
  O2-  O202  1  0.54114713  0.58639167  0.60673081  1
  O2-  O203  1  0.54271505  0.59016944  0.93355617  1
  O2-  O204  1  0.16869797  0.20297958  0.27265360  1
  O2-  O205  1  0.17111688  0.19412212  0.59912928  1
  O2-  O206  1  0.16740381  0.20332563  0.93074161  1
  O2-  O207  1  0.17195350  0.71152837  0.26277068  1
  O2-  O208  1  0.16537119  0.71606720  0.60210207  1
  O2-  O209  1  0.16477436  0.71106235  0.93699796  1
  O2-  O210  1  0.66031773  0.21002009  0.26989509  1
  O2-  O211  1  0.66548691  0.20322980  0.60641299  1
  O2-  O212  1  0.66497283  0.19784684  0.93961627  1
  O2-  O213  1  0.66667854  0.70550309  0.26120773  1
  O2-  O214  1  0.66792457  0.69728511  0.60622936  1
  O2-  O215  1  0.66293860  0.70810805  0.93416799  1
  O2-  O216  1  0.09097004  0.45716729  0.05957044  1
  O2-  O217  1  0.07460715  0.45049747  0.39800020  1
  O2-  O218  1  0.08237493  0.45377674  0.72919999  1
  O2-  O219  1  0.08706709  0.95070623  0.06372424  1
  O2-  O220  1  0.08669365  0.96007643  0.40252178  1
  O2-  O221  1  0.08480029  0.95740917  0.73899734  1
  O2-  O222  1  0.58464465  0.46401514  0.06442830  1
  O2-  O223  1  0.58551323  0.46451402  0.39973345  1
  O2-  O224  1  0.58601585  0.46565910  0.73855378  1
  O2-  O225  1  0.58035111  0.94834954  0.06038592  1
  O2-  O226  1  0.58066414  0.95909097  0.40096087  1
  O2-  O227  1  0.58091172  0.95381855  0.72955480  1
  O2-  O228  1  0.20987473  0.33561947  0.05779501  1
  O2-  O229  1  0.20756680  0.33159662  0.40416475  1
  O2-  O230  1  0.20115799  0.32968536  0.72593166  1
  O2-  O231  1  0.21324431  0.83786377  0.06564708  1
  O2-  O232  1  0.21427703  0.83574393  0.39954629  1
  O2-  O233  1  0.21685217  0.83633336  0.73832820  1
  O2-  O234  1  0.68997370  0.33290867  0.05966391  1
  O2-  O235  1  0.70677307  0.33383841  0.40033650  1
  O2-  O236  1  0.70450982  0.33363347  0.73787207  1
  O2-  O237  1  0.70369536  0.83356719  0.05907145  1
  O2-  O238  1  0.69644599  0.82466439  0.39642625  1
  O2-  O239  1  0.69636253  0.83073970  0.72919497  1
  O2-  O240  1  0.46085812  0.41114163  0.27130193  1
  O2-  O241  1  0.46368301  0.42007071  0.59923026  1
  O2-  O242  1  0.46004684  0.41886603  0.93320967  1
  O2-  O243  1  0.45245165  0.91999779  0.26916674  1
  O2-  O244  1  0.45433224  0.91858077  0.59817652  1
  O2-  O245  1  0.45142181  0.91321227  0.93701611  1
  O2-  O246  1  0.95355779  0.41713660  0.26454771  1
  O2-  O247  1  0.95009561  0.41901348  0.59809726  1
  O2-  O248  1  0.95878736  0.42060121  0.93210239  1
  O2-  O249  1  0.96412802  0.92014382  0.26541288  1
  O2-  O250  1  0.95689203  0.91381847  0.60931889  1
  O2-  O251  1  0.95811529  0.91034460  0.93785856  1
  O2-  O252  1  0.33671863  0.29468515  0.27278790  1
  O2-  O253  1  0.33375172  0.29449934  0.59545998  1
  O2-  O254  1  0.33602765  0.28986983  0.93028912  1
  O2-  O255  1  0.33738778  0.79709401  0.26645982  1
  O2-  O256  1  0.33507910  0.78604352  0.60003699  1
  O2-  O257  1  0.33638301  0.78895594  0.93634328  1
  O2-  O258  1  0.83051813  0.28667716  0.26456770  1
  O2-  O259  1  0.82687353  0.28787951  0.60289934  1
  O2-  O260  1  0.82385863  0.30115194  0.93794304  1
  O2-  O261  1  0.83007917  0.79983747  0.26527026  1
  O2-  O262  1  0.83105424  0.80290503  0.60893314  1
  O2-  O263  1  0.83728336  0.79137467  0.93658716  1
  O2-  O264  1  0.41113629  0.04120054  0.06403896  1
  O2-  O265  1  0.41828286  0.05157258  0.39557343  1
  O2-  O266  1  0.41668108  0.04499569  0.73242094  1
  O2-  O267  1  0.41590423  0.54781434  0.05976236  1
  O2-  O268  1  0.41624083  0.53704487  0.40150192  1
  O2-  O269  1  0.41476785  0.54022818  0.73803415  1
  O2-  O270  1  0.91540374  0.03630694  0.07008031  1
  O2-  O271  1  0.92077548  0.04507438  0.40184508  1
  O2-  O272  1  0.91383089  0.03573822  0.73954127  1
  O2-  O273  1  0.92153797  0.54524944  0.06719682  1
  O2-  O274  1  0.91897407  0.55234677  0.39061560  1
  O2-  O275  1  0.91965896  0.54972957  0.72542308  1
  O2-  O276  1  0.29493691  0.16414867  0.06042186  1
  O2-  O277  1  0.30059488  0.16837558  0.39684698  1
  O2-  O278  1  0.30193518  0.17017624  0.72735591  1
  O2-  O279  1  0.29195286  0.66273599  0.06447298  1
  O2-  O280  1  0.29997547  0.67118972  0.39646876  1
  O2-  O281  1  0.28560520  0.66443725  0.73769425  1
  O2-  O282  1  0.78999515  0.16834571  0.06889626  1
  O2-  O283  1  0.78520248  0.16565196  0.40299634  1
  O2-  O284  1  0.78548591  0.16259682  0.73964320  1
  O2-  O285  1  0.78805588  0.66560777  0.06801549  1
  O2-  O286  1  0.79659156  0.66707617  0.39260614  1
  O2-  O287  1  0.79792447  0.66663356  0.73028920  1
