# generated using pymatgen
data_Ca2Al2SiO7
_symmetry_space_group_name_H-M   'P 1'
_cell_length_a   15.45768457
_cell_length_b   15.45930501
_cell_length_c   15.28382746
_cell_angle_alpha   90.00968943
_cell_angle_beta   89.99306101
_cell_angle_gamma   90.01602541
_symmetry_Int_Tables_number   1
_chemical_formula_structural   Ca2Al2SiO7
_chemical_formula_sum   'Ca48 Al48 Si24 O168'
_cell_volume   3652.30053260
_cell_formula_units_Z   24
loop_
 _symmetry_equiv_pos_site_id
 _symmetry_equiv_pos_as_xyz
  1  'x, y, z'
loop_
 _atom_type_symbol
 _atom_type_oxidation_number
  Ca2+  2.0
  Al0+  0.0
  Si0+  0.0
  O2-  -2.0
loop_
 _atom_site_type_symbol
 _atom_site_label
 _atom_site_symmetry_multiplicity
 _atom_site_fract_x
 _atom_site_fract_y
 _atom_site_fract_z
 _atom_site_occupancy
  Ca2+  Ca0  1  0.17000138  0.07263039  0.17481635  1
  Ca2+  Ca1  1  0.16820024  0.07190372  0.49916961  1
  Ca2+  Ca2  1  0.16377294  0.07270057  0.83451444  1
  Ca2+  Ca3  1  0.17714869  0.58195614  0.17559893  1
  Ca2+  Ca4  1  0.16851142  0.57296941  0.49938738  1
  Ca2+  Ca5  1  0.17242394  0.57900889  0.83667707  1
  Ca2+  Ca6  1  0.67192339  0.08190771  0.17751255  1
  Ca2+  Ca7  1  0.67601165  0.08168119  0.50386657  1
  Ca2+  Ca8  1  0.67122615  0.07710503  0.83038824  1
  Ca2+  Ca9  1  0.66921136  0.58643097  0.17281913  1
  Ca2+  Ca10  1  0.67671064  0.58688316  0.50366038  1
  Ca2+  Ca11  1  0.67018871  0.58333840  0.83210530  1
  Ca2+  Ca12  1  0.07252735  0.34168692  0.16710715  1
  Ca2+  Ca13  1  0.08078361  0.33623304  0.49190342  1
  Ca2+  Ca14  1  0.07960235  0.33485176  0.82655766  1
  Ca2+  Ca15  1  0.07555644  0.84331443  0.16441351  1
  Ca2+  Ca16  1  0.07497811  0.84004509  0.49571291  1
  Ca2+  Ca17  1  0.07647998  0.83928476  0.82797874  1
  Ca2+  Ca18  1  0.58555894  0.32463245  0.16699600  1
  Ca2+  Ca19  1  0.58332096  0.33055630  0.49695324  1
  Ca2+  Ca20  1  0.57724841  0.33662964  0.82325096  1
  Ca2+  Ca21  1  0.57687925  0.81980921  0.16707255  1
  Ca2+  Ca22  1  0.58145084  0.83046476  0.48916163  1
  Ca2+  Ca23  1  0.58635482  0.82749486  0.82775261  1
  Ca2+  Ca24  1  0.32774280  0.42775564  0.17573182  1
  Ca2+  Ca25  1  0.32718100  0.41644594  0.50363555  1
  Ca2+  Ca26  1  0.33002736  0.41768927  0.83587385  1
  Ca2+  Ca27  1  0.32242560  0.91564579  0.17877483  1
  Ca2+  Ca28  1  0.32797402  0.91522302  0.50011167  1
  Ca2+  Ca29  1  0.31869451  0.91085187  0.83853062  1
  Ca2+  Ca30  1  0.83738950  0.42200993  0.17751051  1
  Ca2+  Ca31  1  0.83087709  0.42845775  0.50412122  1
  Ca2+  Ca32  1  0.83016651  0.42044029  0.83480793  1
  Ca2+  Ca33  1  0.83732288  0.92034563  0.17569233  1
  Ca2+  Ca34  1  0.83385566  0.92413427  0.50792697  1
  Ca2+  Ca35  1  0.83602289  0.91605644  0.83155296  1
  Ca2+  Ca36  1  0.42030261  0.15943276  0.17019396  1
  Ca2+  Ca37  1  0.42124541  0.16878988  0.49143973  1
  Ca2+  Ca38  1  0.41701976  0.17504528  0.82306293  1
  Ca2+  Ca39  1  0.42166486  0.66000336  0.16464453  1
  Ca2+  Ca40  1  0.42382738  0.67160981  0.48787758  1
  Ca2+  Ca41  1  0.42226823  0.65878105  0.83285013  1
  Ca2+  Ca42  1  0.91351164  0.17836552  0.16649324  1
  Ca2+  Ca43  1  0.91235342  0.17009352  0.49192581  1
  Ca2+  Ca44  1  0.91552291  0.17019530  0.82991048  1
  Ca2+  Ca45  1  0.91540600  0.67827902  0.16583938  1
  Ca2+  Ca46  1  0.91025427  0.67558665  0.49340602  1
  Ca2+  Ca47  1  0.91505133  0.67818960  0.82563425  1
  Al0+  Al48  1  -0.00095782  0.00276434  0.00002760  1
  Al0+  Al49  1  -0.00036204  0.00313191  0.33590357  1
  Al0+  Al50  1  0.00115682  0.00185486  0.67006960  1
  Al0+  Al51  1  -0.00181100  0.50153832  -0.00563901  1
  Al0+  Al52  1  -0.00153053  0.50254107  0.33650787  1
  Al0+  Al53  1  0.00209579  0.50155891  0.67475181  1
  Al0+  Al54  1  0.50122190  -0.00209887  -0.00217684  1
  Al0+  Al55  1  0.49922083  -0.00097652  0.32692554  1
  Al0+  Al56  1  0.50124056  0.00073401  0.67053279  1
  Al0+  Al57  1  0.50173805  0.49833878  0.00005301  1
  Al0+  Al58  1  0.50015472  0.49732459  0.33240288  1
  Al0+  Al59  1  0.50058842  0.49999606  0.66240966  1
  Al0+  Al60  1  0.24958738  0.24861237  0.00099291  1
  Al0+  Al61  1  0.24946043  0.24730004  0.33703514  1
  Al0+  Al62  1  0.24946342  0.25088690  0.66574864  1
  Al0+  Al63  1  0.24930586  0.74912271  0.00892753  1
  Al0+  Al64  1  0.24809253  0.74839204  0.33987865  1
  Al0+  Al65  1  0.25007836  0.74862878  0.67019062  1
  Al0+  Al66  1  0.74931682  0.24958439  -0.00570442  1
  Al0+  Al67  1  0.74999105  0.24998269  0.32872407  1
  Al0+  Al68  1  0.74987074  0.25060021  0.67418060  1
  Al0+  Al69  1  0.74885103  0.74972616  -0.00777682  1
  Al0+  Al70  1  0.74955039  0.75000671  0.32725701  1
  Al0+  Al71  1  0.75076121  0.75144678  0.66918720  1
  Al0+  Al72  1  0.32401320  0.06957307  0.34855121  1
  Al0+  Al73  1  0.18082345  0.92861512  0.68118747  1
  Al0+  Al74  1  0.93067233  0.82216645  0.98522620  1
  Al0+  Al75  1  0.17799771  0.42905654  0.34669507  1
  Al0+  Al76  1  0.57104846  0.67642399  0.31880392  1
  Al0+  Al77  1  0.81979468  0.07242796  0.34459703  1
  Al0+  Al78  1  0.93098082  0.82069483  0.65145707  1
  Al0+  Al79  1  0.67843925  0.43041883  0.68065124  1
  Al0+  Al80  1  0.32437960  0.57080103  0.35066296  1
  Al0+  Al81  1  0.17713009  0.92762446  0.34981304  1
  Al0+  Al82  1  0.93046208  0.32237381  0.32314381  1
  Al0+  Al83  1  0.17818474  0.93089276  0.01500146  1
  Al0+  Al84  1  0.67778579  0.92864582  0.68086836  1
  Al0+  Al85  1  0.56926537  0.67800287  0.98316865  1
  Al0+  Al86  1  0.42867711  0.32127479  0.65171509  1
  Al0+  Al87  1  0.42570032  0.82024320  0.31906467  1
  Al0+  Al88  1  0.81876660  0.57296788  0.34419682  1
  Al0+  Al89  1  0.82210752  0.57290730  0.68337309  1
  Al0+  Al90  1  0.57074992  0.17941214  0.32078103  1
  Al0+  Al91  1  0.32181724  0.56768059  0.01378186  1
  Al0+  Al92  1  0.18008970  0.42761556  0.68178262  1
  Al0+  Al93  1  0.92877410  0.32275835  0.98401295  1
  Al0+  Al94  1  0.82262800  0.07203558  0.68332949  1
  Al0+  Al95  1  0.93042973  0.82323589  0.32108065  1
  Si0+  Si96  1  0.92841725  0.32251364  0.65221085  1
  Si0+  Si97  1  0.07439686  0.67666604  0.64967709  1
  Si0+  Si98  1  0.07418214  0.67834760  0.98357671  1
  Si0+  Si99  1  0.07042281  0.67738417  0.31804071  1
  Si0+  Si100  1  0.42648171  0.82091847  0.98294234  1
  Si0+  Si101  1  0.07296131  0.17812599  0.31661281  1
  Si0+  Si102  1  0.07031084  0.18024185  0.65064973  1
  Si0+  Si103  1  0.57060091  0.68059673  0.65096403  1
  Si0+  Si104  1  0.82025361  0.57166723  0.01506450  1
  Si0+  Si105  1  0.67841630  0.92694271  0.01643559  1
  Si0+  Si106  1  0.57278317  0.17760630  0.65038818  1
  Si0+  Si107  1  0.32465295  0.07286745  0.01551078  1
  Si0+  Si108  1  0.32274665  0.57111674  0.68321066  1
  Si0+  Si109  1  0.67864956  0.42570454  0.34731923  1
  Si0+  Si110  1  0.07189690  0.17974722  0.98287103  1
  Si0+  Si111  1  0.81822816  0.07147816  0.01637135  1
  Si0+  Si112  1  0.17559937  0.42657625  0.01613091  1
  Si0+  Si113  1  0.32247982  0.07198333  0.68315554  1
  Si0+  Si114  1  0.57168855  0.17630888  0.98224192  1
  Si0+  Si115  1  0.42716070  0.82173572  0.65429946  1
  Si0+  Si116  1  0.43029784  0.31870290  0.98679922  1
  Si0+  Si117  1  0.67918351  0.92799650  0.34542493  1
  Si0+  Si118  1  0.68030300  0.42775990  0.01593761  1
  Si0+  Si119  1  0.42519097  0.32055117  0.31516100  1
  O2-  O120  1  0.25709510  0.00287998  0.05840085  1
  O2-  O121  1  0.25368974  -0.00382528  0.39827023  1
  O2-  O122  1  0.25794010  0.00055706  0.72912414  1
  O2-  O123  1  0.24418047  0.49528937  0.05939129  1
  O2-  O124  1  0.25377000  0.49617129  0.39822612  1
  O2-  O125  1  0.25492343  0.50193225  0.72832788  1
  O2-  O126  1  0.74893970  -0.00129985  0.05872255  1
  O2-  O127  1  0.74778052  -0.00429191  0.39081173  1
  O2-  O128  1  0.75163766  -0.00172449  0.73272706  1
  O2-  O129  1  0.75293390  0.49707051  0.05786277  1
  O2-  O130  1  0.74170700  0.50011962  0.38977630  1
  O2-  O131  1  0.75121184  0.49954561  0.73395239  1
  O2-  O132  1  0.00717274  0.25064347  0.27392539  1
  O2-  O133  1  -0.00122630  0.25143261  0.60931075  1
  O2-  O134  1  0.00725074  0.25183881  0.93744551  1
  O2-  O135  1  0.00720670  0.75113251  0.27311388  1
  O2-  O136  1  0.00467860  0.74450868  0.60567824  1
  O2-  O137  1  0.00717820  0.74865755  0.93908732  1
  O2-  O138  1  0.49442925  0.25179477  0.27120892  1
  O2-  O139  1  0.50397066  0.24630307  0.60686748  1
  O2-  O140  1  0.49618844  0.24364957  0.94254955  1
  O2-  O141  1  0.49359383  0.74351368  0.26928763  1
  O2-  O142  1  0.50086775  0.75393221  0.61149666  1
  O2-  O143  1  0.49387958  0.75231462  0.93606881  1
  O2-  O144  1  0.07083038  0.17915073  0.08806239  1
  O2-  O145  1  0.07108514  0.17663959  0.42226618  1
  O2-  O146  1  0.07094076  0.18150742  0.75630335  1
  O2-  O147  1  0.07194774  0.67545279  0.08890204  1
  O2-  O148  1  0.06606898  0.67398673  0.42341293  1
  O2-  O149  1  0.07625727  0.67845495  0.75571968  1
  O2-  O150  1  0.57454063  0.17716806  0.08720303  1
  O2-  O151  1  0.57273313  0.18284483  0.43357722  1
  O2-  O152  1  0.56962532  0.17743406  0.75660507  1
  O2-  O153  1  0.56999267  0.67775133  0.09566436  1
  O2-  O154  1  0.57425787  0.68118470  0.43253919  1
  O2-  O155  1  0.56815344  0.67893447  0.75647060  1
  O2-  O156  1  0.17732915  0.43269177  0.23249118  1
  O2-  O157  1  0.17952974  0.42739584  0.56936238  1
  O2-  O158  1  0.17836230  0.42559580  0.91038413  1
  O2-  O159  1  0.17509630  0.93292917  0.23597762  1
  O2-  O160  1  0.18115714  0.93019120  0.56907181  1
  O2-  O161  1  0.17878312  0.93298095  0.90153849  1
  O2-  O162  1  0.68208712  0.42287536  0.24111142  1
  O2-  O163  1  0.67949974  0.43087806  0.56724688  1
  O2-  O164  1  0.67903182  0.42811802  0.91101676  1
  O2-  O165  1  0.68187362  0.92944263  0.23925601  1
  O2-  O166  1  0.67562066  0.93022791  0.56741100  1
  O2-  O167  1  0.67752519  0.92930670  0.91145780  1
  O2-  O168  1  0.43259274  0.31829258  0.09151512  1
  O2-  O169  1  0.42619422  0.32045394  0.42058577  1
  O2-  O170  1  0.42935734  0.31926149  0.76602874  1
  O2-  O171  1  0.42937220  0.82190015  0.08787751  1
  O2-  O172  1  0.43138710  0.82164882  0.43338862  1
  O2-  O173  1  0.42598457  0.81868799  0.75962973  1
  O2-  O174  1  0.92731083  0.32232378  0.09716310  1
  O2-  O175  1  0.92944801  0.32113771  0.43621336  1
  O2-  O176  1  0.93071866  0.32038294  0.75776810  1
  O2-  O177  1  0.92961262  0.82209705  0.09835201  1
  O2-  O178  1  0.92880304  0.82269181  0.43388161  1
  O2-  O179  1  0.93384540  0.82034772  0.76503849  1
  O2-  O180  1  0.32127857  0.06929616  0.23430248  1
  O2-  O181  1  0.32258358  0.07158394  0.57816673  1
  O2-  O182  1  0.32453224  0.07538828  0.90976729  1
  O2-  O183  1  0.32309699  0.56774845  0.23655043  1
  O2-  O184  1  0.32216179  0.57169729  0.57836431  1
  O2-  O185  1  0.32229416  0.56362946  0.90035208  1
  O2-  O186  1  0.81789309  0.07334188  0.23084499  1
  O2-  O187  1  0.82078060  0.07382414  0.56984119  1
  O2-  O188  1  0.81682199  0.07223048  0.91143239  1
  O2-  O189  1  0.81919313  0.57178134  0.23043118  1
  O2-  O190  1  0.81986793  0.57319248  0.56975043  1
  O2-  O191  1  0.81801702  0.57090766  0.91018551  1
  O2-  O192  1  0.04182674  0.08753830  0.26770619  1
  O2-  O193  1  0.04238986  0.08871084  0.60375865  1
  O2-  O194  1  0.04026595  0.08882552  0.93433227  1
  O2-  O195  1  0.03955815  0.58705171  0.26808584  1
  O2-  O196  1  0.04964010  0.58153500  0.60640842  1
  O2-  O197  1  0.04804707  0.58565897  0.93489979  1
  O2-  O198  1  0.54262724  0.08392513  0.26240784  1
  O2-  O199  1  0.54772214  0.08364271  0.60516646  1
  O2-  O200  1  0.54791738  0.08311167  0.93513641  1
  O2-  O201  1  0.54917977  0.57545263  0.26666662  1
  O2-  O202  1  0.54232182  0.58988771  0.60268571  1
  O2-  O203  1  0.53822330  0.58049830  0.92971858  1
  O2-  O204  1  0.16777389  0.19873396  0.27060977  1
  O2-  O205  1  0.16183261  0.20800324  0.60349496  1
  O2-  O206  1  0.16756865  0.19977991  0.93694800  1
  O2-  O207  1  0.16651848  0.69688090  0.27521255  1
  O2-  O208  1  0.16836721  0.70214868  0.60443478  1
  O2-  O209  1  0.16927969  0.70189929  0.93927058  1
  O2-  O210  1  0.66431708  0.21379594  0.26139806  1
  O2-  O211  1  0.66728071  0.20450243  0.60733359  1
  O2-  O212  1  0.66086293  0.20832607  0.93261393  1
  O2-  O213  1  0.66589309  0.71040266  0.26097065  1
  O2-  O214  1  0.66311678  0.70781019  0.60575232  1
  O2-  O215  1  0.66428216  0.71028368  0.92708146  1
  O2-  O216  1  0.08058252  0.45304977  0.05848986  1
  O2-  O217  1  0.08196570  0.46191990  0.40171313  1
  O2-  O218  1  0.08532914  0.45832688  0.73921005  1
  O2-  O219  1  0.08258698  0.96692730  0.06789561  1
  O2-  O220  1  0.08179138  0.96438983  0.40360776  1
  O2-  O221  1  0.08680779  0.96484453  0.73625832  1
  O2-  O222  1  0.58931525  0.45600644  0.06401392  1
  O2-  O223  1  0.58268952  0.44258700  0.39041460  1
  O2-  O224  1  0.57991087  0.46079624  0.73372563  1
  O2-  O225  1  0.58575969  0.95428364  0.06256947  1
  O2-  O226  1  0.58525179  0.95309486  0.38900230  1
  O2-  O227  1  0.58055825  0.95795495  0.73868874  1
  O2-  O228  1  0.19982830  0.33228034  0.06116222  1
  O2-  O229  1  0.20008995  0.32865491  0.39737258  1
  O2-  O230  1  0.21112451  0.33133258  0.73721333  1
  O2-  O231  1  0.20344978  0.83343384  0.06906790  1
  O2-  O232  1  0.19711134  0.82805930  0.40244483  1
  O2-  O233  1  0.20985086  0.83165883  0.73648305  1
  O2-  O234  1  0.70642539  0.33399931  0.06079666  1
  O2-  O235  1  0.71032188  0.33543058  0.39532791  1
  O2-  O236  1  0.70254322  0.33218027  0.73646022  1
  O2-  O237  1  0.70663378  0.83415977  0.06070761  1
  O2-  O238  1  0.70372835  0.83451561  0.39069980  1
  O2-  O239  1  0.70495068  0.83119437  0.73570119  1
  O2-  O240  1  0.45191099  0.41342436  0.26816757  1
  O2-  O241  1  0.45901917  0.41726792  0.59679154  1
  O2-  O242  1  0.46301990  0.40790990  0.93759810  1
  O2-  O243  1  0.45593038  0.91630691  0.26203697  1
  O2-  O244  1  0.45143224  0.91591065  0.61038031  1
  O2-  O245  1  0.45180803  0.91493210  0.93601562  1
  O2-  O246  1  0.96051084  0.41894588  0.26738887  1
  O2-  O247  1  0.95713925  0.41587596  0.60910420  1
  O2-  O248  1  0.95511936  0.42002156  0.92863402  1
  O2-  O249  1  0.95970614  0.92086096  0.26715892  1
  O2-  O250  1  0.96261054  0.91915991  0.60165811  1
  O2-  O251  1  0.95988985  0.92018363  0.93270801  1
  O2-  O252  1  0.33172954  0.29437019  0.26883614  1
  O2-  O253  1  0.33228833  0.28958446  0.59858442  1
  O2-  O254  1  0.33611189  0.29571375  0.94032980  1
  O2-  O255  1  0.32417655  0.79691237  0.27055926  1
  O2-  O256  1  0.33639093  0.79166351  0.60648525  1
  O2-  O257  1  0.33127561  0.79526866  0.94009858  1
  O2-  O258  1  0.83642048  0.28909051  0.26504670  1
  O2-  O259  1  0.83504282  0.29547954  0.60843588  1
  O2-  O260  1  0.83335908  0.28789414  0.92936994  1
  O2-  O261  1  0.83562470  0.79069572  0.26409509  1
  O2-  O262  1  0.83223483  0.79233677  0.60070276  1
  O2-  O263  1  0.83488547  0.79009290  0.93055265  1
  O2-  O264  1  0.41987010  0.04890872  0.05943007  1
  O2-  O265  1  0.42383248  0.04378459  0.39969796  1
  O2-  O266  1  0.41712451  0.05234568  0.72972114  1
  O2-  O267  1  0.41742689  0.53275858  0.06732920  1
  O2-  O268  1  0.42395790  0.54351937  0.40182694  1
  O2-  O269  1  0.41642076  0.54431813  0.72829402  1
  O2-  O270  1  0.91126278  0.04707640  0.06187783  1
  O2-  O271  1  0.91623031  0.04677685  0.39925876  1
  O2-  O272  1  0.92059620  0.04519130  0.73780035  1
  O2-  O273  1  0.91420080  0.54718028  0.05958823  1
  O2-  O274  1  0.91287678  0.54121635  0.40061517  1
  O2-  O275  1  0.92023861  0.54713508  0.73768754  1
  O2-  O276  1  0.29933576  0.16627060  0.06265942  1
  O2-  O277  1  0.29642845  0.16765667  0.40190316  1
  O2-  O278  1  0.29164967  0.16397869  0.73008116  1
  O2-  O279  1  0.29515100  0.66454724  0.06858995  1
  O2-  O280  1  0.29605366  0.66797974  0.40432188  1
  O2-  O281  1  0.29701544  0.66352786  0.73223827  1
  O2-  O282  1  0.78687400  0.16349123  0.06182520  1
  O2-  O283  1  0.78587877  0.16776114  0.39868907  1
  O2-  O284  1  0.79248126  0.16861931  0.73956349  1
  O2-  O285  1  0.78847243  0.66338954  0.06007300  1
  O2-  O286  1  0.78752336  0.66926560  0.39825026  1
  O2-  O287  1  0.79027785  0.66944391  0.73742679  1
