# generated using pymatgen
data_Ca2Al2SiO7
_symmetry_space_group_name_H-M   'P 1'
_cell_length_a   15.45412310
_cell_length_b   15.45335372
_cell_length_c   15.28031333
_cell_angle_alpha   89.99465977
_cell_angle_beta   90.00269585
_cell_angle_gamma   90.00001839
_symmetry_Int_Tables_number   1
_chemical_formula_structural   Ca2Al2SiO7
_chemical_formula_sum   'Ca48 Al48 Si24 O168'
_cell_volume   3649.21431845
_cell_formula_units_Z   24
loop_
 _symmetry_equiv_pos_site_id
 _symmetry_equiv_pos_as_xyz
  1  'x, y, z'
loop_
 _atom_type_symbol
 _atom_type_oxidation_number
  Ca2+  2.0
  Al0+  0.0
  Si0+  0.0
  O2-  -2.0
loop_
 _atom_site_type_symbol
 _atom_site_label
 _atom_site_symmetry_multiplicity
 _atom_site_fract_x
 _atom_site_fract_y
 _atom_site_fract_z
 _atom_site_occupancy
  Ca2+  Ca0  1  0.15983150  0.07841337  0.17312510  1
  Ca2+  Ca1  1  0.16586521  0.07772795  0.50944052  1
  Ca2+  Ca2  1  0.16482402  0.08616580  0.83170099  1
  Ca2+  Ca3  1  0.17132807  0.58944209  0.17069679  1
  Ca2+  Ca4  1  0.17009729  0.57796195  0.51039503  1
  Ca2+  Ca5  1  0.17576103  0.57833731  0.83491227  1
  Ca2+  Ca6  1  0.67252374  0.08169034  0.16902542  1
  Ca2+  Ca7  1  0.66353530  0.08045365  0.50747987  1
  Ca2+  Ca8  1  0.66817302  0.07427100  0.83958203  1
  Ca2+  Ca9  1  0.67297913  0.58025107  0.17251722  1
  Ca2+  Ca10  1  0.66776904  0.58012416  0.50414682  1
  Ca2+  Ca11  1  0.67942607  0.58339942  0.83733579  1
  Ca2+  Ca12  1  0.07850208  0.32039389  0.15737921  1
  Ca2+  Ca13  1  0.09293274  0.32209396  0.49976610  1
  Ca2+  Ca14  1  0.08320696  0.32566337  0.82873323  1
  Ca2+  Ca15  1  0.08093216  0.83004469  0.16280111  1
  Ca2+  Ca16  1  0.08223524  0.83374381  0.49700066  1
  Ca2+  Ca17  1  0.06849217  0.83764525  0.82650635  1
  Ca2+  Ca18  1  0.58997474  0.33020201  0.16759864  1
  Ca2+  Ca19  1  0.58021871  0.32610939  0.49551017  1
  Ca2+  Ca20  1  0.57718490  0.32504389  0.82256070  1
  Ca2+  Ca21  1  0.57902770  0.82988782  0.15882964  1
  Ca2+  Ca22  1  0.58289566  0.82766161  0.49686083  1
  Ca2+  Ca23  1  0.58044343  0.84060600  0.82974518  1
  Ca2+  Ca24  1  0.33454728  0.42381459  0.16739407  1
  Ca2+  Ca25  1  0.32963542  0.42118494  0.51253769  1
  Ca2+  Ca26  1  0.33263544  0.42093603  0.83223976  1
  Ca2+  Ca27  1  0.32734675  0.91492685  0.17103153  1
  Ca2+  Ca28  1  0.31897906  0.92150581  0.50884609  1
  Ca2+  Ca29  1  0.32903297  0.92089009  0.83512317  1
  Ca2+  Ca30  1  0.83314100  0.41733694  0.16870081  1
  Ca2+  Ca31  1  0.82842438  0.42334355  0.50447006  1
  Ca2+  Ca32  1  0.84084374  0.42641397  0.83936087  1
  Ca2+  Ca33  1  0.83608779  0.91921900  0.16124864  1
  Ca2+  Ca34  1  0.82772979  0.91599752  0.50951988  1
  Ca2+  Ca35  1  0.82431865  0.91492959  0.84073362  1
  Ca2+  Ca36  1  0.42465249  0.16513669  0.16439158  1
  Ca2+  Ca37  1  0.42258984  0.16529055  0.50319232  1
  Ca2+  Ca38  1  0.42045343  0.16980792  0.81916074  1
  Ca2+  Ca39  1  0.42177370  0.67063373  0.15923721  1
  Ca2+  Ca40  1  0.41947598  0.66555035  0.49501007  1
  Ca2+  Ca41  1  0.41218898  0.66819337  0.83219525  1
  Ca2+  Ca42  1  0.92461440  0.16818861  0.15556728  1
  Ca2+  Ca43  1  0.93003102  0.16430168  0.49695144  1
  Ca2+  Ca44  1  0.92343856  0.16536290  0.83208766  1
  Ca2+  Ca45  1  0.92203468  0.66918864  0.15965323  1
  Ca2+  Ca46  1  0.91900667  0.67148780  0.49950698  1
  Ca2+  Ca47  1  0.90684317  0.67426507  0.82788461  1
  Al0+  Al48  1  -0.00018832  -0.00255496  -0.00391752  1
  Al0+  Al49  1  -0.00103821  0.00039857  0.33414311  1
  Al0+  Al50  1  -0.00277201  -0.00016599  0.66050203  1
  Al0+  Al51  1  0.00209325  0.49758426  0.00290303  1
  Al0+  Al52  1  0.00109823  0.50233335  0.33066448  1
  Al0+  Al53  1  0.00021336  0.50133792  0.67424250  1
  Al0+  Al54  1  0.49822955  -0.00199028  0.00110410  1
  Al0+  Al55  1  0.50003655  0.00196873  0.32934483  1
  Al0+  Al56  1  0.49830878  -0.00179985  0.66787383  1
  Al0+  Al57  1  0.49963351  0.50001199  0.00405265  1
  Al0+  Al58  1  0.50172464  0.50057494  0.33265557  1
  Al0+  Al59  1  0.50096944  0.49997897  0.66717784  1
  Al0+  Al60  1  0.25190228  0.24932126  -0.00124672  1
  Al0+  Al61  1  0.25191143  0.25084537  0.32726618  1
  Al0+  Al62  1  0.25033665  0.25069225  0.66525265  1
  Al0+  Al63  1  0.25240607  0.74978616  -0.00011024  1
  Al0+  Al64  1  0.24832259  0.75184345  0.33502073  1
  Al0+  Al65  1  0.24820423  0.75053795  0.67399433  1
  Al0+  Al66  1  0.75161532  0.24930486  -0.00192647  1
  Al0+  Al67  1  0.74896809  0.25107624  0.33560779  1
  Al0+  Al68  1  0.75121051  0.24999581  0.66201378  1
  Al0+  Al69  1  0.74944036  0.74693784  0.00721087  1
  Al0+  Al70  1  0.74951126  0.75104589  0.32859478  1
  Al0+  Al71  1  0.74891260  0.75126009  0.66836545  1
  Al0+  Al72  1  0.42948352  0.32257160  0.65121567  1
  Al0+  Al73  1  0.17840469  0.93042644  0.34700966  1
  Al0+  Al74  1  0.17845272  0.42740933  0.68186839  1
  Al0+  Al75  1  0.57222449  0.17631491  0.65227878  1
  Al0+  Al76  1  0.57169030  0.17900332  0.31771578  1
  Al0+  Al77  1  0.92783410  0.32173859  0.98434889  1
  Al0+  Al78  1  0.07133906  0.67955010  0.32126298  1
  Al0+  Al79  1  0.31961198  0.06992664  0.68080073  1
  Al0+  Al80  1  0.57114784  0.67841844  0.31942253  1
  Al0+  Al81  1  0.42938509  0.82081263  0.98500559  1
  Al0+  Al82  1  0.67917380  0.93013841  0.67823118  1
  Al0+  Al83  1  0.32016009  0.57088166  0.01652111  1
  Al0+  Al84  1  0.81902553  0.57037316  0.67852264  1
  Al0+  Al85  1  0.67657430  0.92855489  0.01792240  1
  Al0+  Al86  1  0.67976722  0.42960026  0.34850001  1
  Al0+  Al87  1  0.06918086  0.18098104  0.65165123  1
  Al0+  Al88  1  0.92897740  0.81675388  0.98640527  1
  Al0+  Al89  1  0.07142855  0.17915276  0.31933438  1
  Al0+  Al90  1  0.82177899  0.07048950  0.01414373  1
  Al0+  Al91  1  0.82316215  0.57006706  0.01615302  1
  Al0+  Al92  1  0.32420851  0.57222517  0.68136117  1
  Al0+  Al93  1  0.92717518  0.81987267  0.65243855  1
  Al0+  Al94  1  0.07221498  0.17709666  0.98322455  1
  Al0+  Al95  1  0.17471617  0.92912047  0.68379158  1
  Si0+  Si96  1  0.67763192  0.92903694  0.34784328  1
  Si0+  Si97  1  0.43038888  0.32193526  0.98564428  1
  Si0+  Si98  1  0.67780402  0.42754188  0.01570430  1
  Si0+  Si99  1  0.57068854  0.17859411  0.98586109  1
  Si0+  Si100  1  0.32034021  0.57102696  0.34736552  1
  Si0+  Si101  1  0.81991522  0.07107210  0.34914859  1
  Si0+  Si102  1  0.42806752  0.82130641  0.31839174  1
  Si0+  Si103  1  0.17944179  0.92983929  0.01463213  1
  Si0+  Si104  1  0.42600611  0.82029612  0.65161281  1
  Si0+  Si105  1  0.17924237  0.42836891  0.34584498  1
  Si0+  Si106  1  0.82324995  0.57415718  0.35043868  1
  Si0+  Si107  1  0.07427695  0.67677311  0.98269234  1
  Si0+  Si108  1  0.32360324  0.07376906  0.34913956  1
  Si0+  Si109  1  0.07246207  0.67824704  0.65246664  1
  Si0+  Si110  1  0.82234505  0.07386403  0.68104512  1
  Si0+  Si111  1  0.57095319  0.68056056  0.65357724  1
  Si0+  Si112  1  0.92818811  0.32255132  0.31869653  1
  Si0+  Si113  1  0.92693139  0.82252945  0.31561435  1
  Si0+  Si114  1  0.57104956  0.67676532  0.98292717  1
  Si0+  Si115  1  0.42894096  0.32326028  0.31417723  1
  Si0+  Si116  1  0.92789359  0.32691101  0.64849430  1
  Si0+  Si117  1  0.18007924  0.42603642  0.01963233  1
  Si0+  Si118  1  0.32135013  0.07257525  0.01620373  1
  Si0+  Si119  1  0.67860454  0.42597166  0.68280997  1
  O2-  O120  1  0.24814422  0.00334953  0.05774696  1
  O2-  O121  1  0.25171526  0.00756581  0.39164524  1
  O2-  O122  1  0.24643777  0.00108928  0.73407120  1
  O2-  O123  1  0.24485985  0.49803885  0.06543242  1
  O2-  O124  1  0.24941250  0.50006208  0.38881919  1
  O2-  O125  1  0.25242451  0.49908751  0.72981957  1
  O2-  O126  1  0.74905199  0.00054360  0.06759141  1
  O2-  O127  1  0.74845654  -0.00032552  0.39083585  1
  O2-  O128  1  0.74967846  0.00881254  0.72382871  1
  O2-  O129  1  0.74920719  0.49329367  0.06048793  1
  O2-  O130  1  0.75387674  0.50581217  0.39412473  1
  O2-  O131  1  0.74959169  0.49161685  0.72726933  1
  O2-  O132  1  -0.00237158  0.25492360  0.27394073  1
  O2-  O133  1  -0.00410814  0.25762075  0.60392100  1
  O2-  O134  1  -0.00028218  0.24954082  0.93498985  1
  O2-  O135  1  -0.00394812  0.75297300  0.27376693  1
  O2-  O136  1  0.00499607  0.74764260  0.60685736  1
  O2-  O137  1  0.00093798  0.73994899  0.93812913  1
  O2-  O138  1  0.49705743  0.25356030  0.27003830  1
  O2-  O139  1  0.50232484  0.25072047  0.60197771  1
  O2-  O140  1  0.50091175  0.25060482  0.94419455  1
  O2-  O141  1  0.49734990  0.75396141  0.27316286  1
  O2-  O142  1  0.49481886  0.74628460  0.61041205  1
  O2-  O143  1  0.50590246  0.74808789  0.93767910  1
  O2-  O144  1  0.07199427  0.17818808  0.09756859  1
  O2-  O145  1  0.07157924  0.17957305  0.43220974  1
  O2-  O146  1  0.06670609  0.18071622  0.76415633  1
  O2-  O147  1  0.07513954  0.68147037  0.08903249  1
  O2-  O148  1  0.07128409  0.67804500  0.43410061  1
  O2-  O149  1  0.07154950  0.67810053  0.75785231  1
  O2-  O150  1  0.56931739  0.17999545  0.09138816  1
  O2-  O151  1  0.57006506  0.17737299  0.43007145  1
  O2-  O152  1  0.57095863  0.17773960  0.76639847  1
  O2-  O153  1  0.56744135  0.67619913  0.08890251  1
  O2-  O154  1  0.56965840  0.67995634  0.43308060  1
  O2-  O155  1  0.57321019  0.68260939  0.75840478  1
  O2-  O156  1  0.18133681  0.42845002  0.24085923  1
  O2-  O157  1  0.17881502  0.43050010  0.56704810  1
  O2-  O158  1  0.18328177  0.42491032  0.91451682  1
  O2-  O159  1  0.18032496  0.92965362  0.23330589  1
  O2-  O160  1  0.17749560  0.92873087  0.56965243  1
  O2-  O161  1  0.18066225  0.92944950  0.91013733  1
  O2-  O162  1  0.68242289  0.43007041  0.23519096  1
  O2-  O163  1  0.67838048  0.42883844  0.57703129  1
  O2-  O164  1  0.67404461  0.43033074  0.91028288  1
  O2-  O165  1  0.67731767  0.92982121  0.24319876  1
  O2-  O166  1  0.68062429  0.92724775  0.56430224  1
  O2-  O167  1  0.67547369  0.93126566  0.90431682  1
  O2-  O168  1  0.43053841  0.32138460  0.09106443  1
  O2-  O169  1  0.42791563  0.32472389  0.41908958  1
  O2-  O170  1  0.43323181  0.32270187  0.76547522  1
  O2-  O171  1  0.42823628  0.81892912  0.09872165  1
  O2-  O172  1  0.42836112  0.81964901  0.42416112  1
  O2-  O173  1  0.42784147  0.82146127  0.75656907  1
  O2-  O174  1  0.92956577  0.32058919  0.09874282  1
  O2-  O175  1  0.92916089  0.32242619  0.42429393  1
  O2-  O176  1  0.92747997  0.32659651  0.75373094  1
  O2-  O177  1  0.93402740  0.81760618  0.09992472  1
  O2-  O178  1  0.92430088  0.82163346  0.42118787  1
  O2-  O179  1  0.92423646  0.81738659  0.76529496  1
  O2-  O180  1  0.32532533  0.07149283  0.24303321  1
  O2-  O181  1  0.32009812  0.06614720  0.56677542  1
  O2-  O182  1  0.32367130  0.07317855  0.91171134  1
  O2-  O183  1  0.31960055  0.57094259  0.24215239  1
  O2-  O184  1  0.32294457  0.57307058  0.56683849  1
  O2-  O185  1  0.32080083  0.56821704  0.90413369  1
  O2-  O186  1  0.82048205  0.07057190  0.24424121  1
  O2-  O187  1  0.82271507  0.07128208  0.57471405  1
  O2-  O188  1  0.81882426  0.06989342  0.90081097  1
  O2-  O189  1  0.82361366  0.57287873  0.24499409  1
  O2-  O190  1  0.81613207  0.57087522  0.56501893  1
  O2-  O191  1  0.81907912  0.57121267  0.90298363  1
  O2-  O192  1  0.03815959  0.08269853  0.26646099  1
  O2-  O193  1  0.03601943  0.08565324  0.59545843  1
  O2-  O194  1  0.04483160  0.07878441  0.93132430  1
  O2-  O195  1  0.04382655  0.58326225  0.26369313  1
  O2-  O196  1  0.04544138  0.58451718  0.60686243  1
  O2-  O197  1  0.05587308  0.57983672  0.94277425  1
  O2-  O198  1  0.54078767  0.08311717  0.26121331  1
  O2-  O199  1  0.53990605  0.07862593  0.59874282  1
  O2-  O200  1  0.54016573  0.08711089  0.94064394  1
  O2-  O201  1  0.54009371  0.58279902  0.26416827  1
  O2-  O202  1  0.54837225  0.58721361  0.60645588  1
  O2-  O203  1  0.54193931  0.58382883  0.93744595  1
  O2-  O204  1  0.16868920  0.20703745  0.26454109  1
  O2-  O205  1  0.16621363  0.21002792  0.59742231  1
  O2-  O206  1  0.17179480  0.20656803  0.93303385  1
  O2-  O207  1  0.16731004  0.71219769  0.26575944  1
  O2-  O208  1  0.16677569  0.70300994  0.60663989  1
  O2-  O209  1  0.16649418  0.70610511  0.93726140  1
  O2-  O210  1  0.66830496  0.21190042  0.26455565  1
  O2-  O211  1  0.67153735  0.20174265  0.59854229  1
  O2-  O212  1  0.66265121  0.20370221  0.93874591  1
  O2-  O213  1  0.66750493  0.70780380  0.26431359  1
  O2-  O214  1  0.65909878  0.71429616  0.60275200  1
  O2-  O215  1  0.66667682  0.69867859  0.94098854  1
  O2-  O216  1  0.08558931  0.44707739  0.06539035  1
  O2-  O217  1  0.08694627  0.45512520  0.39239491  1
  O2-  O218  1  0.08185071  0.45632661  0.73765572  1
  O2-  O219  1  0.08729727  0.95501296  0.06241691  1
  O2-  O220  1  0.08068997  0.95827216  0.40022562  1
  O2-  O221  1  0.07487730  0.95800023  0.73224354  1
  O2-  O222  1  0.58590331  0.45496976  0.06517098  1
  O2-  O223  1  0.58279431  0.46111265  0.40175630  1
  O2-  O224  1  0.58638358  0.45383592  0.72959385  1
  O2-  O225  1  0.57784634  0.95779879  0.07084422  1
  O2-  O226  1  0.58478510  0.95626280  0.39389658  1
  O2-  O227  1  0.58197752  0.95623261  0.73226365  1
  O2-  O228  1  0.21133562  0.33367047  0.06661218  1
  O2-  O229  1  0.20876465  0.33633378  0.39237943  1
  O2-  O230  1  0.20684295  0.32999014  0.73492122  1
  O2-  O231  1  0.21098192  0.83897333  0.06249298  1
  O2-  O232  1  0.21086692  0.83470057  0.40273939  1
  O2-  O233  1  0.20195112  0.83144342  0.73732259  1
  O2-  O234  1  0.70160280  0.33297724  0.06079612  1
  O2-  O235  1  0.70972696  0.33335945  0.40394451  1
  O2-  O236  1  0.70065118  0.33072036  0.72679126  1
  O2-  O237  1  0.70350325  0.82966290  0.07005667  1
  O2-  O238  1  0.70537090  0.83617310  0.39396429  1
  O2-  O239  1  0.71240654  0.83602563  0.73461505  1
  O2-  O240  1  0.45700964  0.41608863  0.26734610  1
  O2-  O241  1  0.45802051  0.42150737  0.59778554  1
  O2-  O242  1  0.45857542  0.41385404  0.93917176  1
  O2-  O243  1  0.45211963  0.91503382  0.27186944  1
  O2-  O244  1  0.45647773  0.90995443  0.60210346  1
  O2-  O245  1  0.45776416  0.91823948  0.93114119  1
  O2-  O246  1  0.95174496  0.41681975  0.27274792  1
  O2-  O247  1  0.95324944  0.42133229  0.60362960  1
  O2-  O248  1  0.95782353  0.42072613  0.93315025  1
  O2-  O249  1  0.95419824  0.91578177  0.27019228  1
  O2-  O250  1  0.95422155  0.91588114  0.59562793  1
  O2-  O251  1  0.96014688  0.91225725  0.93169042  1
  O2-  O252  1  0.33625618  0.29855794  0.26488943  1
  O2-  O253  1  0.33142933  0.29555331  0.59763596  1
  O2-  O254  1  0.33888872  0.29450531  0.93859777  1
  O2-  O255  1  0.33506303  0.79427503  0.27195817  1
  O2-  O256  1  0.33315193  0.79370182  0.60521392  1
  O2-  O257  1  0.33386718  0.78801401  0.93065824  1
  O2-  O258  1  0.83477438  0.29604825  0.27340880  1
  O2-  O259  1  0.83385897  0.30273025  0.60186354  1
  O2-  O260  1  0.82863931  0.29717973  0.93068569  1
  O2-  O261  1  0.83404521  0.79814869  0.26769727  1
  O2-  O262  1  0.83210288  0.78462446  0.59676144  1
  O2-  O263  1  0.82975121  0.78743402  0.93695921  1
  O2-  O264  1  0.41136083  0.04137507  0.06569956  1
  O2-  O265  1  0.41672704  0.04574807  0.39507158  1
  O2-  O266  1  0.41659946  0.03893019  0.73511560  1
  O2-  O267  1  0.41630651  0.53800079  0.07167582  1
  O2-  O268  1  0.41255543  0.54354000  0.39342826  1
  O2-  O269  1  0.42302323  0.54566670  0.73488972  1
  O2-  O270  1  0.91997707  0.03831432  0.06727026  1
  O2-  O271  1  0.91102881  0.04199659  0.39747411  1
  O2-  O272  1  0.91389541  0.04422551  0.72686742  1
  O2-  O273  1  0.92112243  0.54206128  0.06985011  1
  O2-  O274  1  0.91715093  0.54810742  0.39613503  1
  O2-  O275  1  0.91578644  0.54687129  0.73458137  1
  O2-  O276  1  0.29777996  0.16532136  0.06465235  1
  O2-  O277  1  0.30150222  0.16966586  0.39135607  1
  O2-  O278  1  0.29585811  0.16970207  0.73153948  1
  O2-  O279  1  0.29044438  0.66814651  0.07075322  1
  O2-  O280  1  0.29345640  0.66303945  0.39442619  1
  O2-  O281  1  0.29495056  0.66903386  0.73625503  1
  O2-  O282  1  0.79472303  0.16994281  0.06716983  1
  O2-  O283  1  0.79285533  0.16260431  0.39674930  1
  O2-  O284  1  0.80272551  0.16964311  0.72497121  1
  O2-  O285  1  0.79051342  0.66380344  0.07414881  1
  O2-  O286  1  0.79649606  0.66871900  0.39419338  1
  O2-  O287  1  0.78124757  0.66378169  0.73366079  1
