# generated using pymatgen
data_Ca2Al2SiO7
_symmetry_space_group_name_H-M   'P 1'
_cell_length_a   15.45437447
_cell_length_b   15.45450429
_cell_length_c   15.28158298
_cell_angle_alpha   90.00282895
_cell_angle_beta   90.00334906
_cell_angle_gamma   90.00225030
_symmetry_Int_Tables_number   1
_chemical_formula_structural   Ca2Al2SiO7
_chemical_formula_sum   'Ca48 Al48 Si24 O168'
_cell_volume   3649.84862907
_cell_formula_units_Z   24
loop_
 _symmetry_equiv_pos_site_id
 _symmetry_equiv_pos_as_xyz
  1  'x, y, z'
loop_
 _atom_type_symbol
 _atom_type_oxidation_number
  Ca2+  2.0
  Al0+  0.0
  Si0+  0.0
  O2-  -2.0
loop_
 _atom_site_type_symbol
 _atom_site_label
 _atom_site_symmetry_multiplicity
 _atom_site_fract_x
 _atom_site_fract_y
 _atom_site_fract_z
 _atom_site_occupancy
  Ca2+  Ca0  1  0.16281578  0.07370987  0.16547716  1
  Ca2+  Ca1  1  0.17004097  0.07696720  0.50706850  1
  Ca2+  Ca2  1  0.17415324  0.08425163  0.84218303  1
  Ca2+  Ca3  1  0.16877361  0.58719846  0.16298041  1
  Ca2+  Ca4  1  0.17123854  0.58243663  0.50894260  1
  Ca2+  Ca5  1  0.17249517  0.58589882  0.84128976  1
  Ca2+  Ca6  1  0.66248945  0.07894176  0.16373146  1
  Ca2+  Ca7  1  0.67056181  0.07596134  0.50826077  1
  Ca2+  Ca8  1  0.66335050  0.07102554  0.84007341  1
  Ca2+  Ca9  1  0.67033619  0.57609811  0.16942363  1
  Ca2+  Ca10  1  0.66168948  0.58245383  0.49970429  1
  Ca2+  Ca11  1  0.67406472  0.57793078  0.84503294  1
  Ca2+  Ca12  1  0.07990490  0.33170387  0.15679868  1
  Ca2+  Ca13  1  0.07984265  0.32481202  0.49685125  1
  Ca2+  Ca14  1  0.09831278  0.32257555  0.83318838  1
  Ca2+  Ca15  1  0.08071632  0.83334034  0.15397679  1
  Ca2+  Ca16  1  0.08696970  0.82840924  0.49895066  1
  Ca2+  Ca17  1  0.07746438  0.82761401  0.83018398  1
  Ca2+  Ca18  1  0.58763094  0.33045814  0.15865955  1
  Ca2+  Ca19  1  0.57667521  0.33762419  0.49576582  1
  Ca2+  Ca20  1  0.58026815  0.32897802  0.83187787  1
  Ca2+  Ca21  1  0.57852612  0.83138826  0.16180158  1
  Ca2+  Ca22  1  0.57132451  0.83291943  0.49565809  1
  Ca2+  Ca23  1  0.57995909  0.83591549  0.82673229  1
  Ca2+  Ca24  1  0.32719580  0.42098485  0.16213837  1
  Ca2+  Ca25  1  0.33649468  0.42504566  0.51077814  1
  Ca2+  Ca26  1  0.33301389  0.42868092  0.83960858  1
  Ca2+  Ca27  1  0.32188818  0.91679375  0.16808054  1
  Ca2+  Ca28  1  0.33323946  0.91753038  0.50637876  1
  Ca2+  Ca29  1  0.33043366  0.92648109  0.84070548  1
  Ca2+  Ca30  1  0.82769719  0.41762941  0.17059822  1
  Ca2+  Ca31  1  0.82840994  0.41220649  0.49941915  1
  Ca2+  Ca32  1  0.82878865  0.42450714  0.84448769  1
  Ca2+  Ca33  1  0.83010879  0.91252748  0.16395085  1
  Ca2+  Ca34  1  0.82554829  0.91050801  0.50837261  1
  Ca2+  Ca35  1  0.82548416  0.90509778  0.83797322  1
  Ca2+  Ca36  1  0.42146228  0.16613324  0.15579780  1
  Ca2+  Ca37  1  0.41274948  0.17089971  0.50314985  1
  Ca2+  Ca38  1  0.41427292  0.16840802  0.82898023  1
  Ca2+  Ca39  1  0.41867971  0.66899730  0.16531139  1
  Ca2+  Ca40  1  0.41619498  0.67844309  0.49493413  1
  Ca2+  Ca41  1  0.41067806  0.67205980  0.82623541  1
  Ca2+  Ca42  1  0.92069207  0.17351497  0.15951548  1
  Ca2+  Ca43  1  0.92290059  0.16878002  0.49689016  1
  Ca2+  Ca44  1  0.93243923  0.16424492  0.83116360  1
  Ca2+  Ca45  1  0.92203746  0.67207049  0.15319611  1
  Ca2+  Ca46  1  0.92145967  0.67062068  0.50229089  1
  Ca2+  Ca47  1  0.92461075  0.67069215  0.83212435  1
  Al0+  Al48  1  -0.00224072  0.00164513  -0.00566184  1
  Al0+  Al49  1  0.00137198  -0.00103949  0.33893788  1
  Al0+  Al50  1  -0.00151463  0.00036281  0.65720643  1
  Al0+  Al51  1  0.00018878  0.50159365  0.00266734  1
  Al0+  Al52  1  -0.00081569  0.49965735  0.33140199  1
  Al0+  Al53  1  -0.00119903  0.49838768  0.66260962  1
  Al0+  Al54  1  0.50102514  0.00104187  0.00406963  1
  Al0+  Al55  1  0.49866789  0.00098825  0.33072814  1
  Al0+  Al56  1  0.50081162  0.00017380  0.66922744  1
  Al0+  Al57  1  0.49983536  0.50061679  0.00758248  1
  Al0+  Al58  1  0.50067087  0.49984447  0.33314611  1
  Al0+  Al59  1  0.49963726  0.49876810  0.66826204  1
  Al0+  Al60  1  0.25202024  0.25296385  0.00503688  1
  Al0+  Al61  1  0.25044167  0.24905013  0.33267503  1
  Al0+  Al62  1  0.25095355  0.24935042  0.65846577  1
  Al0+  Al63  1  0.25073279  0.75155240  0.00391420  1
  Al0+  Al64  1  0.24975725  0.75108126  0.33399783  1
  Al0+  Al65  1  0.25015804  0.75002534  0.66226780  1
  Al0+  Al66  1  0.74886764  0.24761476  -0.00433489  1
  Al0+  Al67  1  0.75051102  0.25106971  0.33545120  1
  Al0+  Al68  1  0.75073445  0.24760234  0.66881065  1
  Al0+  Al69  1  0.74791657  0.74929081  0.00602640  1
  Al0+  Al70  1  0.75071052  0.74828200  0.33166692  1
  Al0+  Al71  1  0.75053309  0.74719825  0.66654971  1
  Al0+  Al72  1  0.57119378  0.67847852  0.31690107  1
  Al0+  Al73  1  0.67998653  0.42936471  0.34936839  1
  Al0+  Al74  1  0.32159512  0.07262917  0.01543926  1
  Al0+  Al75  1  0.07199502  0.18107452  0.98801439  1
  Al0+  Al76  1  0.17665237  0.93090705  0.01125509  1
  Al0+  Al77  1  0.07198749  0.67787709  0.65060238  1
  Al0+  Al78  1  0.82151774  0.57147047  0.01559600  1
  Al0+  Al79  1  0.68090387  0.92861796  0.67897849  1
  Al0+  Al80  1  0.07227775  0.17931340  0.65141726  1
  Al0+  Al81  1  0.42757496  0.82288256  0.31530382  1
  Al0+  Al82  1  0.67981304  0.42660125  0.01427394  1
  Al0+  Al83  1  0.32024832  0.57207196  0.67838469  1
  Al0+  Al84  1  0.67885420  0.92860513  0.01490198  1
  Al0+  Al85  1  0.43022237  0.82249309  0.65556957  1
  Al0+  Al86  1  0.57100602  0.17802059  0.98490341  1
  Al0+  Al87  1  0.07346503  0.67864161  0.98537831  1
  Al0+  Al88  1  0.92949734  0.31959883  0.31917843  1
  Al0+  Al89  1  0.32191814  0.57468918  0.01666836  1
  Al0+  Al90  1  0.17952848  0.92911618  0.34962960  1
  Al0+  Al91  1  0.43136619  0.32114846  0.65389601  1
  Al0+  Al92  1  0.17895211  0.42946442  0.01393317  1
  Al0+  Al93  1  0.31932037  0.07108101  0.67971129  1
  Al0+  Al94  1  0.92714894  0.81974902  0.65008728  1
  Al0+  Al95  1  0.92651294  0.82154813  0.98526687  1
  Si0+  Si96  1  0.57108783  0.18026875  0.32006885  1
  Si0+  Si97  1  0.82156315  0.56889490  0.68108362  1
  Si0+  Si98  1  0.82046763  0.07078599  0.34818405  1
  Si0+  Si99  1  0.57298381  0.17794090  0.64953487  1
  Si0+  Si100  1  0.92509942  0.32166883  0.65006360  1
  Si0+  Si101  1  0.82367056  0.57269283  0.35319307  1
  Si0+  Si102  1  0.67828409  0.42721319  0.68186194  1
  Si0+  Si103  1  0.92914958  0.82177663  0.31870166  1
  Si0+  Si104  1  0.67861221  0.92830369  0.34802558  1
  Si0+  Si105  1  0.57242344  0.67642480  0.65249726  1
  Si0+  Si106  1  0.31971798  0.56886668  0.34964924  1
  Si0+  Si107  1  0.32370158  0.07323390  0.35190048  1
  Si0+  Si108  1  0.82393547  0.07281615  0.68401925  1
  Si0+  Si109  1  0.92740292  0.32277011  0.98309550  1
  Si0+  Si110  1  0.56955158  0.67811915  0.98566307  1
  Si0+  Si111  1  0.82239056  0.07190432  0.01557508  1
  Si0+  Si112  1  0.42999536  0.82109039  0.98526031  1
  Si0+  Si113  1  0.42810582  0.32187449  0.31754611  1
  Si0+  Si114  1  0.07200561  0.17700496  0.31554107  1
  Si0+  Si115  1  0.42907490  0.32355494  0.98402121  1
  Si0+  Si116  1  0.17614828  0.92782819  0.68258006  1
  Si0+  Si117  1  0.17699517  0.42797825  0.67946771  1
  Si0+  Si118  1  0.07064019  0.67916263  0.31826401  1
  Si0+  Si119  1  0.17732890  0.42751967  0.34939971  1
  O2-  O120  1  0.24722431  0.00294839  0.06443620  1
  O2-  O121  1  0.25547517  0.00360996  0.39487551  1
  O2-  O122  1  0.24408689  -0.00269364  0.72648030  1
  O2-  O123  1  0.24690414  0.50464287  0.06560838  1
  O2-  O124  1  0.24910027  0.49724482  0.39262830  1
  O2-  O125  1  0.24243571  0.49975253  0.72304337  1
  O2-  O126  1  0.75498474  0.00240912  0.06117400  1
  O2-  O127  1  0.75095250  -0.00208501  0.39056399  1
  O2-  O128  1  0.75775428  0.00102352  0.72636982  1
  O2-  O129  1  0.75301246  0.49607211  0.06574891  1
  O2-  O130  1  0.75322367  0.50518587  0.39761718  1
  O2-  O131  1  0.75086513  0.49681271  0.72234343  1
  O2-  O132  1  0.00590305  0.24780479  0.27142142  1
  O2-  O133  1  -0.00516618  0.25313329  0.60707084  1
  O2-  O134  1  0.00017914  0.25830947  0.93911017  1
  O2-  O135  1  -0.00041919  0.75049270  0.27715493  1
  O2-  O136  1  0.00250190  0.75190204  0.59879466  1
  O2-  O137  1  0.00061143  0.75076856  0.93691585  1
  O2-  O138  1  0.49806593  0.24906318  0.27750122  1
  O2-  O139  1  0.50690232  0.24830883  0.60400371  1
  O2-  O140  1  0.49682256  0.25382430  0.93983942  1
  O2-  O141  1  0.50146820  0.75219121  0.26605992  1
  O2-  O142  1  0.50371777  0.74567128  0.60936529  1
  O2-  O143  1  0.49845887  0.74789021  0.94205413  1
  O2-  O144  1  0.06723088  0.18105354  0.10131218  1
  O2-  O145  1  0.07084288  0.17853761  0.42133613  1
  O2-  O146  1  0.07371900  0.18131152  0.76437730  1
  O2-  O147  1  0.07190470  0.68174255  0.09982312  1
  O2-  O148  1  0.07014118  0.67845307  0.42335821  1
  O2-  O149  1  0.07056551  0.67589348  0.76330658  1
  O2-  O150  1  0.57028188  0.17917499  0.09890612  1
  O2-  O151  1  0.57134657  0.18026580  0.42532267  1
  O2-  O152  1  0.57332110  0.17897703  0.75466086  1
  O2-  O153  1  0.56891164  0.67946406  0.09063107  1
  O2-  O154  1  0.56835039  0.67985828  0.43117589  1
  O2-  O155  1  0.57337462  0.67561739  0.75816396  1
  O2-  O156  1  0.17781035  0.42755570  0.24483965  1
  O2-  O157  1  0.17866481  0.42881126  0.57304013  1
  O2-  O158  1  0.18458190  0.42646172  0.90025302  1
  O2-  O159  1  0.17538263  0.93137780  0.23701342  1
  O2-  O160  1  0.17940675  0.92942319  0.57637322  1
  O2-  O161  1  0.17920285  0.93104397  0.89775617  1
  O2-  O162  1  0.68261223  0.42653379  0.23720232  1
  O2-  O163  1  0.67824536  0.42737189  0.57653763  1
  O2-  O164  1  0.67992164  0.42960543  0.89993479  1
  O2-  O165  1  0.67931177  0.93021437  0.24318325  1
  O2-  O166  1  0.68070808  0.93154246  0.56498248  1
  O2-  O167  1  0.67757071  0.92861237  0.90179155  1
  O2-  O168  1  0.43002617  0.32282593  0.09019910  1
  O2-  O169  1  0.42842256  0.32261825  0.42284664  1
  O2-  O170  1  0.43347058  0.32283018  0.76633680  1
  O2-  O171  1  0.43202246  0.82054920  0.09036025  1
  O2-  O172  1  0.42936968  0.82295738  0.42941246  1
  O2-  O173  1  0.43177902  0.82273174  0.76866010  1
  O2-  O174  1  0.92571466  0.31840621  0.08900598  1
  O2-  O175  1  0.93035671  0.31581136  0.43261882  1
  O2-  O176  1  0.92127921  0.32260303  0.75503668  1
  O2-  O177  1  0.92770357  0.82125334  0.09986916  1
  O2-  O178  1  0.92749738  0.82036569  0.42356044  1
  O2-  O179  1  0.92409722  0.81560999  0.76275405  1
  O2-  O180  1  0.32415250  0.07605205  0.24687972  1
  O2-  O181  1  0.31872769  0.07047608  0.56618751  1
  O2-  O182  1  0.32166083  0.07140519  0.90155696  1
  O2-  O183  1  0.31831759  0.56790317  0.24490235  1
  O2-  O184  1  0.32162830  0.56935175  0.56461127  1
  O2-  O185  1  0.32455742  0.57322868  0.90296254  1
  O2-  O186  1  0.82039997  0.07113284  0.24335981  1
  O2-  O187  1  0.81970151  0.07673884  0.57780274  1
  O2-  O188  1  0.82160404  0.07324017  0.91029101  1
  O2-  O189  1  0.82505173  0.57213882  0.24831840  1
  O2-  O190  1  0.82101668  0.56856041  0.57577489  1
  O2-  O191  1  0.81810571  0.57055538  0.90119741  1
  O2-  O192  1  0.04200997  0.08354769  0.27226346  1
  O2-  O193  1  0.04138113  0.08454192  0.59348332  1
  O2-  O194  1  0.03925106  0.08716791  0.93055126  1
  O2-  O195  1  0.04372781  0.58702543  0.27156709  1
  O2-  O196  1  0.04105575  0.57955703  0.59606884  1
  O2-  O197  1  0.04682043  0.57900432  0.93384967  1
  O2-  O198  1  0.54587378  0.08815867  0.27191388  1
  O2-  O199  1  0.54523800  0.08553675  0.60242347  1
  O2-  O200  1  0.53943804  0.08118750  0.93194155  1
  O2-  O201  1  0.54123404  0.57990900  0.26509221  1
  O2-  O202  1  0.54669845  0.58306950  0.60587103  1
  O2-  O203  1  0.54405792  0.58486819  0.93988982  1
  O2-  O204  1  0.16719459  0.19968436  0.27206614  1
  O2-  O205  1  0.16539430  0.21226395  0.59181953  1
  O2-  O206  1  0.16986299  0.21235774  0.93616568  1
  O2-  O207  1  0.16272322  0.70663736  0.27251524  1
  O2-  O208  1  0.16968401  0.70540167  0.59489727  1
  O2-  O209  1  0.17287239  0.70691609  0.93439056  1
  O2-  O210  1  0.66222386  0.20969451  0.27303368  1
  O2-  O211  1  0.66797316  0.20131649  0.60411099  1
  O2-  O212  1  0.66717589  0.20604430  0.92824249  1
  O2-  O213  1  0.67150976  0.70357068  0.26616385  1
  O2-  O214  1  0.66541404  0.70023901  0.60466109  1
  O2-  O215  1  0.66118980  0.70694119  0.93911947  1
  O2-  O216  1  0.07935669  0.45162029  0.06687223  1
  O2-  O217  1  0.08541522  0.45603270  0.39662478  1
  O2-  O218  1  0.08123675  0.44671026  0.72332122  1
  O2-  O219  1  0.07760868  0.95966060  0.06381943  1
  O2-  O220  1  0.08345753  0.96007194  0.40626042  1
  O2-  O221  1  0.08008838  0.95221639  0.72255529  1
  O2-  O222  1  0.58283971  0.45522027  0.06895244  1
  O2-  O223  1  0.58216985  0.45968990  0.40290528  1
  O2-  O224  1  0.58769298  0.45578135  0.73019319  1
  O2-  O225  1  0.58534159  0.96363250  0.07185902  1
  O2-  O226  1  0.58660149  0.95840143  0.39419008  1
  O2-  O227  1  0.58632795  0.96220993  0.73442213  1
  O2-  O228  1  0.21141513  0.33479350  0.07300879  1
  O2-  O229  1  0.20388369  0.33413578  0.39534096  1
  O2-  O230  1  0.20746143  0.33509688  0.72269198  1
  O2-  O231  1  0.20673618  0.83468790  0.06718943  1
  O2-  O232  1  0.20999619  0.83191895  0.40346419  1
  O2-  O233  1  0.20136422  0.83350864  0.72542683  1
  O2-  O234  1  0.70618714  0.32649506  0.06462357  1
  O2-  O235  1  0.71251551  0.33334647  0.40529858  1
  O2-  O236  1  0.70406519  0.33416399  0.72782118  1
  O2-  O237  1  0.70738307  0.83350044  0.07211298  1
  O2-  O238  1  0.70620595  0.83586025  0.39437576  1
  O2-  O239  1  0.70829515  0.83022572  0.73139737  1
  O2-  O240  1  0.45696132  0.41266252  0.27019648  1
  O2-  O241  1  0.46380118  0.41687276  0.59716080  1
  O2-  O242  1  0.45659177  0.41750949  0.93944177  1
  O2-  O243  1  0.45481284  0.92223125  0.26379986  1
  O2-  O244  1  0.46412858  0.91752466  0.59933905  1
  O2-  O245  1  0.46136849  0.91235908  0.93966685  1
  O2-  O246  1  0.95727093  0.41737394  0.26645933  1
  O2-  O247  1  0.94949595  0.41413591  0.60096103  1
  O2-  O248  1  0.94774866  0.41838294  0.94037510  1
  O2-  O249  1  0.95677600  0.91480114  0.27388563  1
  O2-  O250  1  0.94676287  0.92006080  0.59687399  1
  O2-  O251  1  0.94927249  0.92061096  0.93175960  1
  O2-  O252  1  0.33544966  0.29554256  0.27083420  1
  O2-  O253  1  0.33691854  0.29083757  0.59501811  1
  O2-  O254  1  0.33555501  0.29913711  0.93847285  1
  O2-  O255  1  0.32932998  0.79116144  0.26438567  1
  O2-  O256  1  0.33471724  0.79315866  0.59895982  1
  O2-  O257  1  0.33745622  0.79604149  0.93905709  1
  O2-  O258  1  0.83340463  0.28606362  0.26613736  1
  O2-  O259  1  0.83208985  0.29330905  0.60230654  1
  O2-  O260  1  0.83579570  0.29350973  0.93496767  1
  O2-  O261  1  0.83681150  0.79578307  0.27155915  1
  O2-  O262  1  0.83033256  0.78502946  0.59501017  1
  O2-  O263  1  0.82728771  0.78964246  0.93570708  1
  O2-  O264  1  0.41832952  0.04165639  0.06965115  1
  O2-  O265  1  0.41823609  0.04898896  0.39788133  1
  O2-  O266  1  0.41683849  0.04296365  0.73249415  1
  O2-  O267  1  0.41760720  0.54237292  0.07296712  1
  O2-  O268  1  0.41154338  0.54026063  0.39617726  1
  O2-  O269  1  0.41612690  0.53915342  0.73297078  1
  O2-  O270  1  0.91535394  0.04803622  0.06347548  1
  O2-  O271  1  0.91229935  0.04496954  0.39699116  1
  O2-  O272  1  0.91977983  0.05054612  0.72567820  1
  O2-  O273  1  0.92050114  0.54817444  0.06866088  1
  O2-  O274  1  0.91677705  0.54398606  0.39974787  1
  O2-  O275  1  0.91330749  0.54042503  0.72804464  1
  O2-  O276  1  0.29850829  0.17165655  0.06855211  1
  O2-  O277  1  0.29689733  0.16740564  0.39812820  1
  O2-  O278  1  0.28952557  0.16961734  0.73019493  1
  O2-  O279  1  0.29559018  0.67205643  0.07220357  1
  O2-  O280  1  0.29133966  0.66120736  0.39555448  1
  O2-  O281  1  0.29242627  0.66961639  0.73124058  1
  O2-  O282  1  0.79402220  0.16449294  0.06253362  1
  O2-  O283  1  0.78974170  0.16063737  0.39797351  1
  O2-  O284  1  0.79745959  0.16523254  0.73225947  1
  O2-  O285  1  0.78862013  0.66655151  0.07186383  1
  O2-  O286  1  0.79784158  0.66689949  0.39923152  1
  O2-  O287  1  0.79266596  0.65946675  0.72913747  1
