# generated using pymatgen
data_Ca2Al2SiO7
_symmetry_space_group_name_H-M   'P 1'
_cell_length_a   15.45231385
_cell_length_b   15.45204018
_cell_length_c   15.27978098
_cell_angle_alpha   90.00055874
_cell_angle_beta   90.00085438
_cell_angle_gamma   89.99929564
_symmetry_Int_Tables_number   1
_chemical_formula_structural   Ca2Al2SiO7
_chemical_formula_sum   'Ca48 Al48 Si24 O168'
_cell_volume   3648.34985702
_cell_formula_units_Z   24
loop_
 _symmetry_equiv_pos_site_id
 _symmetry_equiv_pos_as_xyz
  1  'x, y, z'
loop_
 _atom_type_symbol
 _atom_type_oxidation_number
  Ca2+  2.0
  Al0+  0.0
  Si0+  0.0
  O2-  -2.0
loop_
 _atom_site_type_symbol
 _atom_site_label
 _atom_site_symmetry_multiplicity
 _atom_site_fract_x
 _atom_site_fract_y
 _atom_site_fract_z
 _atom_site_occupancy
  Ca2+  Ca0  1  0.15798399  0.07197682  0.17262724  1
  Ca2+  Ca1  1  0.16681998  0.08101083  0.50143833  1
  Ca2+  Ca2  1  0.17564335  0.07785026  0.83957991  1
  Ca2+  Ca3  1  0.17047241  0.58126921  0.17337923  1
  Ca2+  Ca4  1  0.15384626  0.57216999  0.50102398  1
  Ca2+  Ca5  1  0.16700625  0.58205263  0.83559131  1
  Ca2+  Ca6  1  0.67689848  0.08843360  0.16786226  1
  Ca2+  Ca7  1  0.67994210  0.09047262  0.50485476  1
  Ca2+  Ca8  1  0.67426916  0.09062208  0.83815062  1
  Ca2+  Ca9  1  0.67283165  0.58110714  0.17710156  1
  Ca2+  Ca10  1  0.67339967  0.57169885  0.50009323  1
  Ca2+  Ca11  1  0.66047143  0.57594940  0.83844062  1
  Ca2+  Ca12  1  0.07353555  0.33306461  0.16823510  1
  Ca2+  Ca13  1  0.08070931  0.32900890  0.48583905  1
  Ca2+  Ca14  1  0.07586611  0.33875822  0.82945401  1
  Ca2+  Ca15  1  0.07701209  0.83623166  0.16567243  1
  Ca2+  Ca16  1  0.08186313  0.82274961  0.48915673  1
  Ca2+  Ca17  1  0.08301768  0.83202549  0.83300236  1
  Ca2+  Ca18  1  0.58224142  0.33307661  0.16460647  1
  Ca2+  Ca19  1  0.58184603  0.33502874  0.49624214  1
  Ca2+  Ca20  1  0.58591924  0.32251597  0.82765264  1
  Ca2+  Ca21  1  0.57681236  0.82521706  0.15549131  1
  Ca2+  Ca22  1  0.58089845  0.83376164  0.49616947  1
  Ca2+  Ca23  1  0.57941946  0.82910376  0.83418654  1
  Ca2+  Ca24  1  0.33237460  0.42169237  0.17463758  1
  Ca2+  Ca25  1  0.31930022  0.40713713  0.50060454  1
  Ca2+  Ca26  1  0.32465104  0.42177868  0.83783646  1
  Ca2+  Ca27  1  0.32173349  0.91024240  0.16913888  1
  Ca2+  Ca28  1  0.32560949  0.92316552  0.50370885  1
  Ca2+  Ca29  1  0.32997513  0.91717072  0.84055383  1
  Ca2+  Ca30  1  0.83177616  0.41854740  0.17669085  1
  Ca2+  Ca31  1  0.82867483  0.41523883  0.49966255  1
  Ca2+  Ca32  1  0.82841434  0.41434561  0.83693629  1
  Ca2+  Ca33  1  0.84394290  0.92553796  0.17188613  1
  Ca2+  Ca34  1  0.84240193  0.92817386  0.49892802  1
  Ca2+  Ca35  1  0.83836997  0.92891343  0.84094194  1
  Ca2+  Ca36  1  0.42273118  0.17486686  0.16265126  1
  Ca2+  Ca37  1  0.42107440  0.16948533  0.49514530  1
  Ca2+  Ca38  1  0.42922914  0.15858618  0.82634690  1
  Ca2+  Ca39  1  0.42085536  0.66804149  0.15574653  1
  Ca2+  Ca40  1  0.41865334  0.66586860  0.49628675  1
  Ca2+  Ca41  1  0.41319280  0.66835496  0.83926913  1
  Ca2+  Ca42  1  0.91446375  0.17282059  0.16511016  1
  Ca2+  Ca43  1  0.91945122  0.16951435  0.48952841  1
  Ca2+  Ca44  1  0.91126230  0.16920577  0.83320140  1
  Ca2+  Ca45  1  0.91786470  0.67487230  0.16488981  1
  Ca2+  Ca46  1  0.92518963  0.66932697  0.48890586  1
  Ca2+  Ca47  1  0.92192790  0.67662532  0.82724033  1
  Al0+  Al48  1  0.00108686  0.00122954  0.00204044  1
  Al0+  Al49  1  0.00167855  -0.00128887  0.33786029  1
  Al0+  Al50  1  -0.00015575  0.00145385  0.67209194  1
  Al0+  Al51  1  -0.00217398  0.49897047  -0.00437481  1
  Al0+  Al52  1  0.00136353  0.50085404  0.33181608  1
  Al0+  Al53  1  -0.00142262  0.50138700  0.66832293  1
  Al0+  Al54  1  0.50093731  -0.00005648  -0.00613218  1
  Al0+  Al55  1  0.50069901  -0.00005368  0.33143307  1
  Al0+  Al56  1  0.50159619  -0.00041777  0.66339380  1
  Al0+  Al57  1  0.49785803  0.49837003  -0.00014596  1
  Al0+  Al58  1  0.50020710  0.49981786  0.33406127  1
  Al0+  Al59  1  0.49921181  0.50001708  0.67037675  1
  Al0+  Al60  1  0.24861948  0.24935554  0.00108088  1
  Al0+  Al61  1  0.25264251  0.24981153  0.32584199  1
  Al0+  Al62  1  0.24979494  0.25010782  0.67852479  1
  Al0+  Al63  1  0.25051521  0.74844873  0.00433529  1
  Al0+  Al64  1  0.25049750  0.75039763  0.33585999  1
  Al0+  Al65  1  0.24937212  0.74875486  0.66107297  1
  Al0+  Al66  1  0.75030922  0.25093784  -0.00279809  1
  Al0+  Al67  1  0.74935306  0.24903295  0.33801588  1
  Al0+  Al68  1  0.74921354  0.25042001  0.66998667  1
  Al0+  Al69  1  0.75077287  0.74989916  -0.01059902  1
  Al0+  Al70  1  0.74984701  0.75092778  0.33523301  1
  Al0+  Al71  1  0.74916185  0.75141186  0.66424281  1
  Al0+  Al72  1  0.67791417  0.42848233  0.34772929  1
  Al0+  Al73  1  0.92998945  0.32056929  0.98484461  1
  Al0+  Al74  1  0.07285797  0.67765475  0.31616070  1
  Al0+  Al75  1  0.18110698  0.93022786  0.01403371  1
  Al0+  Al76  1  0.17702214  0.42927449  0.68083761  1
  Al0+  Al77  1  0.92848324  0.82099368  0.31918274  1
  Al0+  Al78  1  0.42702557  0.82003892  0.98535253  1
  Al0+  Al79  1  0.17986940  0.92909827  0.34908041  1
  Al0+  Al80  1  0.57196665  0.67643074  0.98480173  1
  Al0+  Al81  1  0.82278830  0.57328116  0.34720422  1
  Al0+  Al82  1  0.32218623  0.07050274  0.67966747  1
  Al0+  Al83  1  0.57144286  0.17941174  0.65051207  1
  Al0+  Al84  1  0.07004295  0.67975766  0.65215814  1
  Al0+  Al85  1  0.82048926  0.06988174  0.68213549  1
  Al0+  Al86  1  0.92708580  0.32080365  0.32035300  1
  Al0+  Al87  1  0.31917903  0.56782358  0.01421463  1
  Al0+  Al88  1  0.93027636  0.82342021  0.98494758  1
  Al0+  Al89  1  0.81892998  0.07098289  0.01528210  1
  Al0+  Al90  1  0.42986248  0.32140191  0.32052059  1
  Al0+  Al91  1  0.82033167  0.06947961  0.34668052  1
  Al0+  Al92  1  0.56978432  0.18163024  0.98666145  1
  Al0+  Al93  1  0.18058875  0.42876817  0.34377092  1
  Al0+  Al94  1  0.67922850  0.43077912  0.68269463  1
  Al0+  Al95  1  0.07273386  0.17760681  0.31923475  1
  Si0+  Si96  1  0.07236477  0.17725098  0.98147153  1
  Si0+  Si97  1  0.32221714  0.57368766  0.68335856  1
  Si0+  Si98  1  0.68017022  0.42976228  0.01432018  1
  Si0+  Si99  1  0.07291727  0.17928690  0.65481680  1
  Si0+  Si100  1  0.32271741  0.57230323  0.35121940  1
  Si0+  Si101  1  0.82119971  0.57360529  0.68486936  1
  Si0+  Si102  1  0.17989036  0.92684323  0.68319823  1
  Si0+  Si103  1  0.57131892  0.67680258  0.64968157  1
  Si0+  Si104  1  0.56998626  0.67957264  0.32079985  1
  Si0+  Si105  1  0.17433852  0.42694150  0.01828767  1
  Si0+  Si106  1  0.42934546  0.82048535  0.64958505  1
  Si0+  Si107  1  0.42490221  0.32224409  0.98141699  1
  Si0+  Si108  1  0.82119520  0.57286568  0.01235188  1
  Si0+  Si109  1  0.32466123  0.07214868  0.34785933  1
  Si0+  Si110  1  0.67475555  0.92751922  0.34914943  1
  Si0+  Si111  1  0.42681446  0.32237384  0.65200463  1
  Si0+  Si112  1  0.42923595  0.82205129  0.31941243  1
  Si0+  Si113  1  0.57274644  0.17709966  0.31678220  1
  Si0+  Si114  1  0.67691888  0.92571901  0.68447085  1
  Si0+  Si115  1  0.92788035  0.82482916  0.64956673  1
  Si0+  Si116  1  0.92954095  0.31995200  0.65202293  1
  Si0+  Si117  1  0.32588216  0.07277906  0.01782108  1
  Si0+  Si118  1  0.07149707  0.67773909  0.98358866  1
  Si0+  Si119  1  0.67768874  0.92585999  0.01479026  1
  O2-  O120  1  0.25652523  0.00493083  0.06149592  1
  O2-  O121  1  0.25440248  0.00561153  0.39324643  1
  O2-  O122  1  0.24840814  -0.00463778  0.72743076  1
  O2-  O123  1  0.24588252  0.49272033  0.06159729  1
  O2-  O124  1  0.25296990  0.50452712  0.39441215  1
  O2-  O125  1  0.25217073  0.50510696  0.72534747  1
  O2-  O126  1  0.74627285  -0.00684209  0.06098798  1
  O2-  O127  1  0.74458572  -0.00503861  0.39312542  1
  O2-  O128  1  0.74699797  -0.00697650  0.72796451  1
  O2-  O129  1  0.74717210  0.50502947  0.05484621  1
  O2-  O130  1  0.75381534  0.49740354  0.39675728  1
  O2-  O131  1  0.75102057  0.50760064  0.73105692  1
  O2-  O132  1  -0.00105741  0.24858674  0.27008601  1
  O2-  O133  1  0.00282638  0.25051591  0.61137067  1
  O2-  O134  1  0.00698654  0.24881040  0.93651819  1
  O2-  O135  1  -0.00079612  0.74852381  0.26753636  1
  O2-  O136  1  -0.00471601  0.75482608  0.60660730  1
  O2-  O137  1  0.00384329  0.74721090  0.93864983  1
  O2-  O138  1  0.50570636  0.24784868  0.27380770  1
  O2-  O139  1  0.49484847  0.25364480  0.60643557  1
  O2-  O140  1  0.49026341  0.25054422  0.93755117  1
  O2-  O141  1  0.50002286  0.75093804  0.27819380  1
  O2-  O142  1  0.50061322  0.74877482  0.60771492  1
  O2-  O143  1  0.50053513  0.74953715  0.93451382  1
  O2-  O144  1  0.07139748  0.17675811  0.08668266  1
  O2-  O145  1  0.07330211  0.17968036  0.43394453  1
  O2-  O146  1  0.07152987  0.17912024  0.75991774  1
  O2-  O147  1  0.06976601  0.67571015  0.08856494  1
  O2-  O148  1  0.07253938  0.67944887  0.43018457  1
  O2-  O149  1  0.07031093  0.68230870  0.76578861  1
  O2-  O150  1  0.57063565  0.18581530  0.09983004  1
  O2-  O151  1  0.57056052  0.17465655  0.42234930  1
  O2-  O152  1  0.57104100  0.18092160  0.76373540  1
  O2-  O153  1  0.57161063  0.67717172  0.09881202  1
  O2-  O154  1  0.56744617  0.68043651  0.42641162  1
  O2-  O155  1  0.57087180  0.67694020  0.75436709  1
  O2-  O156  1  0.18397596  0.42986782  0.23095558  1
  O2-  O157  1  0.17743959  0.42625252  0.56796097  1
  O2-  O158  1  0.17445383  0.42943475  0.91217468  1
  O2-  O159  1  0.18216313  0.92830635  0.23606279  1
  O2-  O160  1  0.18104678  0.92742008  0.57776063  1
  O2-  O161  1  0.18301288  0.93168131  0.90021528  1
  O2-  O162  1  0.67565382  0.43239927  0.23371448  1
  O2-  O163  1  0.67960209  0.43198043  0.57007793  1
  O2-  O164  1  0.68181285  0.42957197  0.90888802  1
  O2-  O165  1  0.66883741  0.92772488  0.24399430  1
  O2-  O166  1  0.67582488  0.92412681  0.57878985  1
  O2-  O167  1  0.67802851  0.92726329  0.90905056  1
  O2-  O168  1  0.42713514  0.32350768  0.08707250  1
  O2-  O169  1  0.42813062  0.31889998  0.43387636  1
  O2-  O170  1  0.42828388  0.32255005  0.75761385  1
  O2-  O171  1  0.42861004  0.81754480  0.09928417  1
  O2-  O172  1  0.43103119  0.82254974  0.42506546  1
  O2-  O173  1  0.42837778  0.82005219  0.75429531  1
  O2-  O174  1  0.92876825  0.32183551  0.09733429  1
  O2-  O175  1  0.92804515  0.31825033  0.43461013  1
  O2-  O176  1  0.93002470  0.31929745  0.75752433  1
  O2-  O177  1  0.93015617  0.82259044  0.09741762  1
  O2-  O178  1  0.93091601  0.82085090  0.43319139  1
  O2-  O179  1  0.92916789  0.82468529  0.75546077  1
  O2-  O180  1  0.32941524  0.06828629  0.24263579  1
  O2-  O181  1  0.32012569  0.06969174  0.56644433  1
  O2-  O182  1  0.32462911  0.07178036  0.91182021  1
  O2-  O183  1  0.32511306  0.57181379  0.24564721  1
  O2-  O184  1  0.32566713  0.57458070  0.57809604  1
  O2-  O185  1  0.31659034  0.56705557  0.90067438  1
  O2-  O186  1  0.81760636  0.07034666  0.23367676  1
  O2-  O187  1  0.82191837  0.06979636  0.56914417  1
  O2-  O188  1  0.81692618  0.07123917  0.90189449  1
  O2-  O189  1  0.81730733  0.57625023  0.23307824  1
  O2-  O190  1  0.82070346  0.57209907  0.57961395  1
  O2-  O191  1  0.82223959  0.57029253  0.90703031  1
  O2-  O192  1  0.04327484  0.07911371  0.26889810  1
  O2-  O193  1  0.04567106  0.08633967  0.60868120  1
  O2-  O194  1  0.04437664  0.08532982  0.93383601  1
  O2-  O195  1  0.04834350  0.57911107  0.26318367  1
  O2-  O196  1  0.03721474  0.58279118  0.59975244  1
  O2-  O197  1  0.04457438  0.58506791  0.93550580  1
  O2-  O198  1  0.54569212  0.08435188  0.26889756  1
  O2-  O199  1  0.54333457  0.08180957  0.59680601  1
  O2-  O200  1  0.54557387  0.08362524  0.93166765  1
  O2-  O201  1  0.54195674  0.58867250  0.27259433  1
  O2-  O202  1  0.54096466  0.58554209  0.60245435  1
  O2-  O203  1  0.53945278  0.57879691  0.93166642  1
  O2-  O204  1  0.17029657  0.20310654  0.26386434  1
  O2-  O205  1  0.16623875  0.20590346  0.61031696  1
  O2-  O206  1  0.16825641  0.19927570  0.93686683  1
  O2-  O207  1  0.17255450  0.70774018  0.26641047  1
  O2-  O208  1  0.16700602  0.70708658  0.59680743  1
  O2-  O209  1  0.16529723  0.70389728  0.93873955  1
  O2-  O210  1  0.66619472  0.20239632  0.27179650  1
  O2-  O211  1  0.66775382  0.21389047  0.59837641  1
  O2-  O212  1  0.66353587  0.21795320  0.93082398  1
  O2-  O213  1  0.66160928  0.70634160  0.27357068  1
  O2-  O214  1  0.66329693  0.70445934  0.60188890  1
  O2-  O215  1  0.66870820  0.70242410  0.92701291  1
  O2-  O216  1  0.08087770  0.45559804  0.06230728  1
  O2-  O217  1  0.08387813  0.45640882  0.39888296  1
  O2-  O218  1  0.08134048  0.46238236  0.73624457  1
  O2-  O219  1  0.08558738  0.96302130  0.06821431  1
  O2-  O220  1  0.08519012  0.95864366  0.40635278  1
  O2-  O221  1  0.08649716  0.95238990  0.72952796  1
  O2-  O222  1  0.58588255  0.45194870  0.05894982  1
  O2-  O223  1  0.58148463  0.46205929  0.40301509  1
  O2-  O224  1  0.58179714  0.46003755  0.73695419  1
  O2-  O225  1  0.58293232  0.95083792  0.05942798  1
  O2-  O226  1  0.58183126  0.95430692  0.39819461  1
  O2-  O227  1  0.58318634  0.95171245  0.72946158  1
  O2-  O228  1  0.19609017  0.33116095  0.06103395  1
  O2-  O229  1  0.21439484  0.33175657  0.39684378  1
  O2-  O230  1  0.20722665  0.33540043  0.74071400  1
  O2-  O231  1  0.21065699  0.83375436  0.06829254  1
  O2-  O232  1  0.21475434  0.83397513  0.40462891  1
  O2-  O233  1  0.20747136  0.83301349  0.72775715  1
  O2-  O234  1  0.71244627  0.34021680  0.06204266  1
  O2-  O235  1  0.70097743  0.32956358  0.40148939  1
  O2-  O236  1  0.71302421  0.33566600  0.73731585  1
  O2-  O237  1  0.70128489  0.83004292  0.05727019  1
  O2-  O238  1  0.69763650  0.83392263  0.39665828  1
  O2-  O239  1  0.69950689  0.83072489  0.73009915  1
  O2-  O240  1  0.46037375  0.41833648  0.26588235  1
  O2-  O241  1  0.45200581  0.41662387  0.60672074  1
  O2-  O242  1  0.45262191  0.41452429  0.93447719  1
  O2-  O243  1  0.45621137  0.91323083  0.27072307  1
  O2-  O244  1  0.45881333  0.91078825  0.60001865  1
  O2-  O245  1  0.45325404  0.91839161  0.93102449  1
  O2-  O246  1  0.95478830  0.41897780  0.26749725  1
  O2-  O247  1  0.95417749  0.41356366  0.60766487  1
  O2-  O248  1  0.95857053  0.41707696  0.92739555  1
  O2-  O249  1  0.96074431  0.91850398  0.26790968  1
  O2-  O250  1  0.95559769  0.91893022  0.60559982  1
  O2-  O251  1  0.96443097  0.91911563  0.93074042  1
  O2-  O252  1  0.33706149  0.29041559  0.26022390  1
  O2-  O253  1  0.33186367  0.29472402  0.60946791  1
  O2-  O254  1  0.32890210  0.30105882  0.93780937  1
  O2-  O255  1  0.33795007  0.79364852  0.27295803  1
  O2-  O256  1  0.33828404  0.79249260  0.60039651  1
  O2-  O257  1  0.33002469  0.78719119  0.93126985  1
  O2-  O258  1  0.82774433  0.29274951  0.26866192  1
  O2-  O259  1  0.83816479  0.29017865  0.60627904  1
  O2-  O260  1  0.83490825  0.28730820  0.92925763  1
  O2-  O261  1  0.82769815  0.79739124  0.26782313  1
  O2-  O262  1  0.83255576  0.80260636  0.60525328  1
  O2-  O263  1  0.83484414  0.79458504  0.92730688  1
  O2-  O264  1  0.42039688  0.04840970  0.06209139  1
  O2-  O265  1  0.41717323  0.04367194  0.39641129  1
  O2-  O266  1  0.41913852  0.03746269  0.73171922  1
  O2-  O267  1  0.41652407  0.53793975  0.06874879  1
  O2-  O268  1  0.41582927  0.54595102  0.39802195  1
  O2-  O269  1  0.41470447  0.54805497  0.73180884  1
  O2-  O270  1  0.91684146  0.04283287  0.06645461  1
  O2-  O271  1  0.91573650  0.03849768  0.40288332  1
  O2-  O272  1  0.91746934  0.04165233  0.73838026  1
  O2-  O273  1  0.91226671  0.54253245  0.05942711  1
  O2-  O274  1  0.92182629  0.54779187  0.39914503  1
  O2-  O275  1  0.91348596  0.54623375  0.73250160  1
  O2-  O276  1  0.30150489  0.16795526  0.06179864  1
  O2-  O277  1  0.30117174  0.16667266  0.39185123  1
  O2-  O278  1  0.29341754  0.16464074  0.73924401  1
  O2-  O279  1  0.29114163  0.66404493  0.06964430  1
  O2-  O280  1  0.30047346  0.66651306  0.39754248  1
  O2-  O281  1  0.29508673  0.66752546  0.72878345  1
  O2-  O282  1  0.78415966  0.16742132  0.06722874  1
  O2-  O283  1  0.78929259  0.16462743  0.40356845  1
  O2-  O284  1  0.78726409  0.16559120  0.73602545  1
  O2-  O285  1  0.79575744  0.66644882  0.05688078  1
  O2-  O286  1  0.78989968  0.66958959  0.40331547  1
  O2-  O287  1  0.79745935  0.66943151  0.72792885  1
