# generated using pymatgen
data_Ca2Al2SiO7
_symmetry_space_group_name_H-M   'P 1'
_cell_length_a   15.46159600
_cell_length_b   15.45999046
_cell_length_c   15.28527494
_cell_angle_alpha   90.00273424
_cell_angle_beta   90.00893764
_cell_angle_gamma   89.98797973
_symmetry_Int_Tables_number   1
_chemical_formula_structural   Ca2Al2SiO7
_chemical_formula_sum   'Ca48 Al48 Si24 O168'
_cell_volume   3653.73278898
_cell_formula_units_Z   24
loop_
 _symmetry_equiv_pos_site_id
 _symmetry_equiv_pos_as_xyz
  1  'x, y, z'
loop_
 _atom_type_symbol
 _atom_type_oxidation_number
  Ca2+  2.0
  Al0+  0.0
  Si0+  0.0
  O2-  -2.0
loop_
 _atom_site_type_symbol
 _atom_site_label
 _atom_site_symmetry_multiplicity
 _atom_site_fract_x
 _atom_site_fract_y
 _atom_site_fract_z
 _atom_site_occupancy
  Ca2+  Ca0  1  0.16917864  0.07187221  0.17877942  1
  Ca2+  Ca1  1  0.16401419  0.08742690  0.50103827  1
  Ca2+  Ca2  1  0.16069780  0.07776977  0.83902608  1
  Ca2+  Ca3  1  0.15388581  0.57471084  0.17008762  1
  Ca2+  Ca4  1  0.15960775  0.58163689  0.50064182  1
  Ca2+  Ca5  1  0.15948607  0.57964364  0.84155878  1
  Ca2+  Ca6  1  0.67253302  0.08591964  0.17045625  1
  Ca2+  Ca7  1  0.66638516  0.07367634  0.50122942  1
  Ca2+  Ca8  1  0.67419289  0.08458068  0.84237666  1
  Ca2+  Ca9  1  0.67465540  0.58994848  0.16607231  1
  Ca2+  Ca10  1  0.67510783  0.57883906  0.51472209  1
  Ca2+  Ca11  1  0.67604303  0.58282280  0.83551009  1
  Ca2+  Ca12  1  0.07786719  0.33426228  0.16543111  1
  Ca2+  Ca13  1  0.07349464  0.33018784  0.49101259  1
  Ca2+  Ca14  1  0.07207516  0.33356179  0.82883163  1
  Ca2+  Ca15  1  0.09566878  0.82465340  0.16315062  1
  Ca2+  Ca16  1  0.08170478  0.82331630  0.49578174  1
  Ca2+  Ca17  1  0.07952433  0.82448351  0.82665598  1
  Ca2+  Ca18  1  0.57941751  0.32552721  0.15794133  1
  Ca2+  Ca19  1  0.57654029  0.34139170  0.50065153  1
  Ca2+  Ca20  1  0.58038700  0.33288339  0.82732996  1
  Ca2+  Ca21  1  0.57719082  0.83787251  0.16379672  1
  Ca2+  Ca22  1  0.58298263  0.82837063  0.49213147  1
  Ca2+  Ca23  1  0.58853860  0.81862873  0.83010365  1
  Ca2+  Ca24  1  0.31715169  0.41674896  0.17171554  1
  Ca2+  Ca25  1  0.32484395  0.41117365  0.50453681  1
  Ca2+  Ca26  1  0.32613425  0.41552067  0.83727682  1
  Ca2+  Ca27  1  0.32549361  0.91829147  0.17691706  1
  Ca2+  Ca28  1  0.32978911  0.91733285  0.49561783  1
  Ca2+  Ca29  1  0.32339005  0.91739946  0.83973067  1
  Ca2+  Ca30  1  0.84375644  0.42132639  0.16717516  1
  Ca2+  Ca31  1  0.83176204  0.41768552  0.50890363  1
  Ca2+  Ca32  1  0.84038982  0.42537729  0.83671338  1
  Ca2+  Ca33  1  0.82780690  0.92480543  0.17026211  1
  Ca2+  Ca34  1  0.83191331  0.91138747  0.50458141  1
  Ca2+  Ca35  1  0.84064583  0.92436119  0.83866034  1
  Ca2+  Ca36  1  0.42096810  0.15948310  0.16491613  1
  Ca2+  Ca37  1  0.41348711  0.16889289  0.49702284  1
  Ca2+  Ca38  1  0.42322211  0.17207888  0.82977021  1
  Ca2+  Ca39  1  0.42179508  0.67401100  0.16212971  1
  Ca2+  Ca40  1  0.42448140  0.67095310  0.49544033  1
  Ca2+  Ca41  1  0.43074150  0.66000853  0.82942638  1
  Ca2+  Ca42  1  0.91549659  0.17832490  0.16108923  1
  Ca2+  Ca43  1  0.92691187  0.17699375  0.49545692  1
  Ca2+  Ca44  1  0.91772236  0.17707081  0.82734558  1
  Ca2+  Ca45  1  0.92624271  0.66745765  0.16119249  1
  Ca2+  Ca46  1  0.92280611  0.66525768  0.50112721  1
  Ca2+  Ca47  1  0.92254134  0.66518675  0.82782147  1
  Al0+  Al48  1  -0.00075037  0.00070853  0.01288910  1
  Al0+  Al49  1  -0.00054453  -0.00024360  0.33557927  1
  Al0+  Al50  1  -0.00042444  -0.00167396  0.66022862  1
  Al0+  Al51  1  -0.00103832  0.50073444  0.00077085  1
  Al0+  Al52  1  -0.00035094  0.50136440  0.33216788  1
  Al0+  Al53  1  -0.00027436  0.49920404  0.66420386  1
  Al0+  Al54  1  0.49909786  0.00027165  -0.00771154  1
  Al0+  Al55  1  0.50047935  -0.00092894  0.33786117  1
  Al0+  Al56  1  0.49833853  0.00011411  0.67092993  1
  Al0+  Al57  1  0.49957130  0.50051974  -0.00247857  1
  Al0+  Al58  1  0.50070256  0.49989765  0.32952031  1
  Al0+  Al59  1  0.49922461  0.49902300  0.66173695  1
  Al0+  Al60  1  0.24962330  0.24972580  0.00503770  1
  Al0+  Al61  1  0.24919578  0.25077444  0.33679689  1
  Al0+  Al62  1  0.25327503  0.24854805  0.66405294  1
  Al0+  Al63  1  0.25135279  0.74919665  -0.00169199  1
  Al0+  Al64  1  0.25333106  0.75009052  0.32949490  1
  Al0+  Al65  1  0.25146381  0.74997076  0.66558057  1
  Al0+  Al66  1  0.74902043  0.25109740  -0.00451430  1
  Al0+  Al67  1  0.74930288  0.25221083  0.33185417  1
  Al0+  Al68  1  0.74766057  0.24672883  0.66551613  1
  Al0+  Al69  1  0.74975271  0.75064824  0.00155646  1
  Al0+  Al70  1  0.75263440  0.74936861  0.33685884  1
  Al0+  Al71  1  0.74972231  0.74821236  0.66407305  1
  Al0+  Al72  1  0.07023296  0.68062465  0.98684890  1
  Al0+  Al73  1  0.43251926  0.82088105  0.31983127  1
  Al0+  Al74  1  0.81987205  0.57154932  0.01518345  1
  Al0+  Al75  1  0.92864988  0.82109336  0.65281506  1
  Al0+  Al76  1  0.81984861  0.07414580  0.01360520  1
  Al0+  Al77  1  0.82220569  0.56988587  0.68308788  1
  Al0+  Al78  1  0.93040134  0.32091637  0.98500352  1
  Al0+  Al79  1  0.32064240  0.07059033  0.34972829  1
  Al0+  Al80  1  0.92801998  0.32082338  0.31636788  1
  Al0+  Al81  1  0.43102774  0.31973858  0.65305092  1
  Al0+  Al82  1  0.07030020  0.68212120  0.31864554  1
  Al0+  Al83  1  0.17733681  0.92584138  0.35153710  1
  Al0+  Al84  1  0.92704967  0.32106895  0.65203157  1
  Al0+  Al85  1  0.17914644  0.43206269  0.34895711  1
  Al0+  Al86  1  0.07188136  0.17824241  0.65386715  1
  Al0+  Al87  1  0.07290343  0.17799172  0.31613992  1
  Al0+  Al88  1  0.07344016  0.67772251  0.65191003  1
  Al0+  Al89  1  0.67659341  0.42677757  0.68210876  1
  Al0+  Al90  1  0.17861768  0.42989672  0.01274824  1
  Al0+  Al91  1  0.17926848  0.92800206  0.01292193  1
  Al0+  Al92  1  0.68135725  0.93000381  0.34628899  1
  Al0+  Al93  1  0.57238539  0.67925219  0.98628443  1
  Al0+  Al94  1  0.57039425  0.17896740  0.98650980  1
  Al0+  Al95  1  0.57003740  0.67968698  0.65220781  1
  Si0+  Si96  1  0.42584491  0.32191801  0.98463575  1
  Si0+  Si97  1  0.42790718  0.32283967  0.31693645  1
  Si0+  Si98  1  0.82120417  0.07553575  0.35178190  1
  Si0+  Si99  1  0.82008327  0.56968439  0.34885270  1
  Si0+  Si100  1  0.92520877  0.82267328  0.31522632  1
  Si0+  Si101  1  0.17922270  0.92882036  0.68138282  1
  Si0+  Si102  1  0.07250666  0.17618256  0.98674268  1
  Si0+  Si103  1  0.67705013  0.92815178  0.68287027  1
  Si0+  Si104  1  0.32097525  0.57196132  0.68056332  1
  Si0+  Si105  1  0.32480920  0.57157850  0.01638004  1
  Si0+  Si106  1  0.67609380  0.42870144  0.01666930  1
  Si0+  Si107  1  0.56928193  0.17969277  0.32035910  1
  Si0+  Si108  1  0.82113017  0.06834859  0.68039402  1
  Si0+  Si109  1  0.57163665  0.17451764  0.64843062  1
  Si0+  Si110  1  0.92766082  0.82447006  0.98717651  1
  Si0+  Si111  1  0.42814610  0.82383828  0.65006726  1
  Si0+  Si112  1  0.32128470  0.07220371  0.68522196  1
  Si0+  Si113  1  0.32573043  0.57147724  0.34974546  1
  Si0+  Si114  1  0.67665225  0.42822315  0.34678284  1
  Si0+  Si115  1  0.67701226  0.92885938  0.01449926  1
  Si0+  Si116  1  0.18036842  0.42817523  0.68082788  1
  Si0+  Si117  1  0.57481330  0.67710721  0.31602372  1
  Si0+  Si118  1  0.42799326  0.82187967  0.98077983  1
  Si0+  Si119  1  0.32287961  0.07124349  0.01521348  1
  O2-  O120  1  0.25353795  0.00387637  0.05861279  1
  O2-  O121  1  0.24464620  0.00317995  0.40125246  1
  O2-  O122  1  0.24844057  0.00183026  0.72494098  1
  O2-  O123  1  0.25383724  0.50514721  0.05948486  1
  O2-  O124  1  0.25596762  0.50513189  0.39563856  1
  O2-  O125  1  0.24687386  0.50407509  0.72303837  1
  O2-  O126  1  0.74321909  -0.00029598  0.05861287  1
  O2-  O127  1  0.75771439  0.00153057  0.39594584  1
  O2-  O128  1  0.74957192  -0.00223671  0.72437301  1
  O2-  O129  1  0.74394590  0.49724100  0.06236340  1
  O2-  O130  1  0.74650227  0.49998127  0.38836641  1
  O2-  O131  1  0.75184035  0.49504429  0.73257389  1
  O2-  O132  1  -0.00148986  0.24738744  0.26603695  1
  O2-  O133  1  0.00283860  0.25256147  0.60347755  1
  O2-  O134  1  0.00518538  0.24472434  0.94074928  1
  O2-  O135  1  0.00030584  0.76145965  0.27113317  1
  O2-  O136  1  -0.00018847  0.74841358  0.60307614  1
  O2-  O137  1  -0.00282130  0.75754265  0.94194319  1
  O2-  O138  1  0.49817544  0.25013836  0.27660978  1
  O2-  O139  1  0.50712219  0.24699759  0.60459471  1
  O2-  O140  1  0.49557301  0.25412485  0.94093569  1
  O2-  O141  1  0.50724886  0.74650723  0.27196573  1
  O2-  O142  1  0.49826253  0.75707701  0.60577374  1
  O2-  O143  1  0.49720020  0.75315744  0.93802354  1
  O2-  O144  1  0.07235056  0.17710141  0.09174709  1
  O2-  O145  1  0.07115623  0.18324350  0.42975841  1
  O2-  O146  1  0.06948969  0.17696740  0.76815234  1
  O2-  O147  1  0.06881849  0.68089855  0.09985894  1
  O2-  O148  1  0.06677735  0.68018031  0.43146647  1
  O2-  O149  1  0.07551193  0.68077282  0.76568933  1
  O2-  O150  1  0.56802014  0.17883409  0.10024193  1
  O2-  O151  1  0.56977271  0.18109343  0.42535568  1
  O2-  O152  1  0.56839363  0.17134791  0.75392703  1
  O2-  O153  1  0.57048714  0.68187318  0.09948142  1
  O2-  O154  1  0.57315632  0.67624777  0.42151609  1
  O2-  O155  1  0.56883039  0.68049160  0.76544352  1
  O2-  O156  1  0.17991827  0.43363124  0.23569545  1
  O2-  O157  1  0.18299558  0.42744677  0.57580948  1
  O2-  O158  1  0.18090287  0.42949635  0.89909344  1
  O2-  O159  1  0.18417506  0.92477233  0.23781442  1
  O2-  O160  1  0.18220028  0.92706828  0.57702197  1
  O2-  O161  1  0.17966887  0.92966567  0.89892727  1
  O2-  O162  1  0.67289858  0.42751273  0.24185406  1
  O2-  O163  1  0.67566464  0.43119271  0.56782079  1
  O2-  O164  1  0.67416186  0.42995406  0.91154115  1
  O2-  O165  1  0.68072744  0.93328666  0.23302666  1
  O2-  O166  1  0.67425923  0.93084149  0.57769320  1
  O2-  O167  1  0.67855501  0.92861639  0.90872439  1
  O2-  O168  1  0.42658075  0.32178144  0.09035511  1
  O2-  O169  1  0.43090642  0.32568107  0.42190286  1
  O2-  O170  1  0.42832368  0.31650483  0.76629860  1
  O2-  O171  1  0.42950932  0.82355056  0.08630505  1
  O2-  O172  1  0.43549763  0.81904062  0.43303299  1
  O2-  O173  1  0.42788351  0.82330046  0.75575310  1
  O2-  O174  1  0.93103094  0.32085733  0.09775317  1
  O2-  O175  1  0.92574955  0.32060520  0.42971998  1
  O2-  O176  1  0.92924275  0.32015725  0.76583867  1
  O2-  O177  1  0.92524860  0.82273626  0.09260221  1
  O2-  O178  1  0.92011714  0.81645521  0.42040123  1
  O2-  O179  1  0.93262737  0.82678041  0.76663075  1
  O2-  O180  1  0.32505422  0.06688029  0.23584368  1
  O2-  O181  1  0.32531329  0.07192657  0.58082562  1
  O2-  O182  1  0.32298511  0.07112728  0.90936803  1
  O2-  O183  1  0.33028117  0.56724934  0.24430685  1
  O2-  O184  1  0.32201485  0.57194266  0.57556733  1
  O2-  O185  1  0.32731211  0.56927946  0.91051141  1
  O2-  O186  1  0.81536139  0.07760580  0.24610090  1
  O2-  O187  1  0.81827268  0.06692006  0.57543907  1
  O2-  O188  1  0.82044492  0.07158675  0.90003662  1
  O2-  O189  1  0.81879569  0.57124656  0.24349380  1
  O2-  O190  1  0.81964320  0.57045544  0.56899882  1
  O2-  O191  1  0.82026389  0.57191307  0.90276507  1
  O2-  O192  1  0.04945521  0.07580033  0.26866044  1
  O2-  O193  1  0.04241359  0.08178958  0.59857753  1
  O2-  O194  1  0.04564619  0.08145940  0.94347434  1
  O2-  O195  1  0.03351474  0.58737432  0.26499716  1
  O2-  O196  1  0.04706085  0.57919848  0.59964956  1
  O2-  O197  1  0.03697455  0.58516191  0.93333140  1
  O2-  O198  1  0.54153643  0.08815168  0.27323770  1
  O2-  O199  1  0.53989122  0.08217635  0.60246446  1
  O2-  O200  1  0.54099317  0.08352913  0.92848329  1
  O2-  O201  1  0.54859801  0.58408684  0.26852112  1
  O2-  O202  1  0.53650046  0.58523266  0.59687853  1
  O2-  O203  1  0.54130326  0.58263221  0.93195639  1
  O2-  O204  1  0.17223561  0.20736198  0.26563232  1
  O2-  O205  1  0.17210168  0.20136560  0.60356161  1
  O2-  O206  1  0.16784025  0.19929394  0.94205257  1
  O2-  O207  1  0.16964690  0.70510732  0.26628023  1
  O2-  O208  1  0.17191640  0.70704213  0.59916936  1
  O2-  O209  1  0.16900465  0.70593716  0.93392272  1
  O2-  O210  1  0.66008845  0.20878630  0.27171739  1
  O2-  O211  1  0.66633021  0.19276347  0.60285211  1
  O2-  O212  1  0.66516078  0.20933492  0.92988075  1
  O2-  O213  1  0.66918146  0.70293941  0.27241962  1
  O2-  O214  1  0.66585295  0.70887194  0.59730848  1
  O2-  O215  1  0.66799618  0.71248875  0.93176334  1
  O2-  O216  1  0.08390169  0.46302611  0.06773773  1
  O2-  O217  1  0.08297212  0.46542765  0.40206945  1
  O2-  O218  1  0.08718987  0.45197253  0.72661403  1
  O2-  O219  1  0.08416970  0.95402695  0.07113025  1
  O2-  O220  1  0.07509196  0.94544607  0.40048229  1
  O2-  O221  1  0.08643294  0.95594636  0.72700984  1
  O2-  O222  1  0.58136872  0.45259098  0.06280612  1
  O2-  O223  1  0.58422439  0.45542644  0.39422756  1
  O2-  O224  1  0.57759358  0.45780471  0.73318773  1
  O2-  O225  1  0.58137846  0.95346397  0.05713870  1
  O2-  O226  1  0.58728559  0.96291773  0.40346716  1
  O2-  O227  1  0.58597981  0.95688070  0.73199302  1
  O2-  O228  1  0.20966843  0.33390567  0.06895012  1
  O2-  O229  1  0.21068528  0.33600638  0.40274896  1
  O2-  O230  1  0.21434798  0.33792450  0.72804787  1
  O2-  O231  1  0.21366382  0.83179367  0.06576397  1
  O2-  O232  1  0.21431142  0.82876046  0.40272975  1
  O2-  O233  1  0.21055321  0.83800702  0.73014085  1
  O2-  O234  1  0.70112297  0.33446602  0.06117024  1
  O2-  O235  1  0.70330881  0.33682353  0.39549999  1
  O2-  O236  1  0.69582947  0.32375958  0.72995121  1
  O2-  O237  1  0.70272879  0.83693536  0.06316069  1
  O2-  O238  1  0.70953881  0.83230798  0.40074922  1
  O2-  O239  1  0.70309492  0.83537370  0.72794243  1
  O2-  O240  1  0.45758101  0.41310132  0.26702217  1
  O2-  O241  1  0.45825149  0.41529879  0.59543072  1
  O2-  O242  1  0.44998887  0.41551028  0.93805276  1
  O2-  O243  1  0.46586922  0.91695570  0.26572745  1
  O2-  O244  1  0.45257824  0.91847004  0.60610360  1
  O2-  O245  1  0.45128546  0.91510781  0.93244798  1
  O2-  O246  1  0.95975239  0.41881751  0.26514774  1
  O2-  O247  1  0.95289338  0.41948260  0.59941314  1
  O2-  O248  1  0.96398076  0.41649389  0.93164729  1
  O2-  O249  1  0.94031923  0.92053904  0.27512606  1
  O2-  O250  1  0.95596822  0.91727268  0.59533126  1
  O2-  O251  1  0.95289361  0.91971066  0.94415830  1
  O2-  O252  1  0.33607986  0.29602838  0.27093786  1
  O2-  O253  1  0.33678637  0.28612647  0.59665633  1
  O2-  O254  1  0.33272097  0.29446339  0.93805602  1
  O2-  O255  1  0.33788045  0.78997958  0.26287865  1
  O2-  O256  1  0.33588968  0.79636196  0.60328532  1
  O2-  O257  1  0.33547226  0.79493964  0.93357846  1
  O2-  O258  1  0.82794665  0.29483665  0.26367025  1
  O2-  O259  1  0.82854274  0.29044372  0.60034205  1
  O2-  O260  1  0.83340170  0.29204880  0.93171495  1
  O2-  O261  1  0.83411214  0.79029997  0.26669905  1
  O2-  O262  1  0.82987408  0.79501004  0.59983655  1
  O2-  O263  1  0.83401800  0.80021795  0.94066467  1
  O2-  O264  1  0.41719578  0.04402888  0.05965398  1
  O2-  O265  1  0.41767552  0.03895169  0.40481032  1
  O2-  O266  1  0.41206863  0.04226504  0.73514865  1
  O2-  O267  1  0.41748938  0.54524922  0.06473633  1
  O2-  O268  1  0.41948859  0.54437712  0.39645068  1
  O2-  O269  1  0.41103268  0.53899075  0.72833764  1
  O2-  O270  1  0.91331949  0.04415317  0.07335161  1
  O2-  O271  1  0.91662027  0.05553405  0.39490704  1
  O2-  O272  1  0.91292116  0.03968992  0.72757250  1
  O2-  O273  1  0.91505122  0.53853793  0.07007314  1
  O2-  O274  1  0.91044837  0.53982010  0.39615507  1
  O2-  O275  1  0.92225947  0.54342046  0.73502992  1
  O2-  O276  1  0.30247165  0.16546306  0.06211647  1
  O2-  O277  1  0.29804073  0.17101413  0.40152604  1
  O2-  O278  1  0.29564979  0.16416120  0.73366571  1
  O2-  O279  1  0.30257090  0.66668458  0.06010468  1
  O2-  O280  1  0.30309176  0.66622313  0.39331505  1
  O2-  O281  1  0.29909427  0.66510326  0.72898325  1
  O2-  O282  1  0.78523064  0.16962399  0.06760847  1
  O2-  O283  1  0.78839089  0.16679098  0.39868990  1
  O2-  O284  1  0.79292678  0.15974806  0.72848111  1
  O2-  O285  1  0.78830155  0.66810608  0.07027022  1
  O2-  O286  1  0.79420932  0.66129371  0.39759404  1
  O2-  O287  1  0.79114944  0.66900614  0.73423981  1
