# generated using pymatgen
data_Ca2Al2SiO7
_symmetry_space_group_name_H-M   'P 1'
_cell_length_a   15.46260286
_cell_length_b   15.46559594
_cell_length_c   15.28828323
_cell_angle_alpha   89.99912840
_cell_angle_beta   89.98785187
_cell_angle_gamma   89.99682144
_symmetry_Int_Tables_number   1
_chemical_formula_structural   Ca2Al2SiO7
_chemical_formula_sum   'Ca48 Al48 Si24 O168'
_cell_volume   3656.01501495
_cell_formula_units_Z   24
loop_
 _symmetry_equiv_pos_site_id
 _symmetry_equiv_pos_as_xyz
  1  'x, y, z'
loop_
 _atom_type_symbol
 _atom_type_oxidation_number
  Ca2+  2.0
  Al0+  0.0
  Si0+  0.0
  O2-  -2.0
loop_
 _atom_site_type_symbol
 _atom_site_label
 _atom_site_symmetry_multiplicity
 _atom_site_fract_x
 _atom_site_fract_y
 _atom_site_fract_z
 _atom_site_occupancy
  Ca2+  Ca0  1  0.17094132  0.08511885  0.17153198  1
  Ca2+  Ca1  1  0.16881703  0.08452253  0.50350206  1
  Ca2+  Ca2  1  0.17652125  0.08114258  0.83840474  1
  Ca2+  Ca3  1  0.17145020  0.58427899  0.16815889  1
  Ca2+  Ca4  1  0.16906268  0.58253394  0.50492132  1
  Ca2+  Ca5  1  0.17325133  0.59309266  0.83775229  1
  Ca2+  Ca6  1  0.66757957  0.07458827  0.17228964  1
  Ca2+  Ca7  1  0.66581319  0.06771412  0.50534718  1
  Ca2+  Ca8  1  0.66620047  0.07505977  0.83377019  1
  Ca2+  Ca9  1  0.67280792  0.59066713  0.16872105  1
  Ca2+  Ca10  1  0.67804673  0.58437656  0.50468870  1
  Ca2+  Ca11  1  0.67863263  0.57831244  0.84061776  1
  Ca2+  Ca12  1  0.08221211  0.33804307  0.17140863  1
  Ca2+  Ca13  1  0.07338076  0.33466857  0.49132671  1
  Ca2+  Ca14  1  0.07582333  0.33354533  0.82709911  1
  Ca2+  Ca15  1  0.07517150  0.82712815  0.16113391  1
  Ca2+  Ca16  1  0.07123437  0.82694563  0.49850735  1
  Ca2+  Ca17  1  0.07688267  0.82029069  0.82661014  1
  Ca2+  Ca18  1  0.57873524  0.33506491  0.15534621  1
  Ca2+  Ca19  1  0.58520605  0.33458029  0.49924933  1
  Ca2+  Ca20  1  0.58151268  0.34407472  0.83188551  1
  Ca2+  Ca21  1  0.57909661  0.82311387  0.16709391  1
  Ca2+  Ca22  1  0.58240660  0.82975525  0.48970344  1
  Ca2+  Ca23  1  0.58102461  0.82760236  0.83395354  1
  Ca2+  Ca24  1  0.33201968  0.42268933  0.16707490  1
  Ca2+  Ca25  1  0.32467315  0.42312458  0.50434909  1
  Ca2+  Ca26  1  0.33354491  0.42915953  0.83920058  1
  Ca2+  Ca27  1  0.34467150  0.91868682  0.16803641  1
  Ca2+  Ca28  1  0.33387747  0.92032039  0.50660886  1
  Ca2+  Ca29  1  0.33900299  0.92640712  0.84122347  1
  Ca2+  Ca30  1  0.83194726  0.42912960  0.17157779  1
  Ca2+  Ca31  1  0.83496327  0.42466285  0.50685667  1
  Ca2+  Ca32  1  0.82847002  0.42346311  0.83795917  1
  Ca2+  Ca33  1  0.82733624  0.91181076  0.17773328  1
  Ca2+  Ca34  1  0.82452870  0.90525266  0.50379053  1
  Ca2+  Ca35  1  0.82788490  0.90568293  0.83095144  1
  Ca2+  Ca36  1  0.41536439  0.17419761  0.15822166  1
  Ca2+  Ca37  1  0.41597086  0.16517055  0.49793605  1
  Ca2+  Ca38  1  0.41144691  0.17074039  0.83292960  1
  Ca2+  Ca39  1  0.42732534  0.67169195  0.15475271  1
  Ca2+  Ca40  1  0.42580462  0.66913622  0.49137546  1
  Ca2+  Ca41  1  0.42066269  0.66020298  0.83104063  1
  Ca2+  Ca42  1  0.92207525  0.17231725  0.16633148  1
  Ca2+  Ca43  1  0.91920221  0.18122379  0.49119292  1
  Ca2+  Ca44  1  0.91598624  0.17510491  0.82438090  1
  Ca2+  Ca45  1  0.91667208  0.66404531  0.16443351  1
  Ca2+  Ca46  1  0.91036847  0.67033864  0.49746606  1
  Ca2+  Ca47  1  0.92533333  0.65860756  0.82682348  1
  Al0+  Al48  1  0.00071055  0.00086926  -0.00181329  1
  Al0+  Al49  1  0.00173324  0.00145110  0.32704091  1
  Al0+  Al50  1  -0.00000085  -0.00099111  0.66347028  1
  Al0+  Al51  1  -0.00087558  0.49941080  -0.00051889  1
  Al0+  Al52  1  0.00084986  0.50003286  0.33725387  1
  Al0+  Al53  1  0.00174710  0.49763519  0.66141292  1
  Al0+  Al54  1  0.50102906  0.00192717  0.00210640  1
  Al0+  Al55  1  0.50103719  0.00120187  0.33467928  1
  Al0+  Al56  1  0.50090975  0.00093917  0.67525742  1
  Al0+  Al57  1  0.49862204  0.49934170  -0.00168271  1
  Al0+  Al58  1  0.50156087  0.49946573  0.32957208  1
  Al0+  Al59  1  0.49784239  0.49919469  0.66831330  1
  Al0+  Al60  1  0.25058944  0.24848590  -0.00061014  1
  Al0+  Al61  1  0.25046041  0.25063729  0.33536921  1
  Al0+  Al62  1  0.25143779  0.25053613  0.67004966  1
  Al0+  Al63  1  0.24742081  0.75288392  -0.00188019  1
  Al0+  Al64  1  0.25017377  0.75457396  0.33228666  1
  Al0+  Al65  1  0.24953723  0.75157883  0.66572096  1
  Al0+  Al66  1  0.74984257  0.24800300  0.00320193  1
  Al0+  Al67  1  0.75071062  0.25058551  0.32776961  1
  Al0+  Al68  1  0.74737232  0.24718802  0.66377373  1
  Al0+  Al69  1  0.74799385  0.75064504  0.00080366  1
  Al0+  Al70  1  0.74919504  0.74960924  0.33387239  1
  Al0+  Al71  1  0.74866382  0.74772000  0.67388079  1
  Al0+  Al72  1  0.07288575  0.18020137  0.31783487  1
  Al0+  Al73  1  0.68103172  0.93159171  0.34656205  1
  Al0+  Al74  1  0.67873197  0.42790801  0.01571394  1
  Al0+  Al75  1  0.92720403  0.31913772  0.65341587  1
  Al0+  Al76  1  0.57067796  0.67773485  0.31931586  1
  Al0+  Al77  1  0.42924352  0.82262773  0.98391494  1
  Al0+  Al78  1  0.81934633  0.56984798  0.34803980  1
  Al0+  Al79  1  0.92649707  0.81914496  0.65166654  1
  Al0+  Al80  1  0.32028599  0.06991946  0.01661828  1
  Al0+  Al81  1  0.67942806  0.92713665  0.68212692  1
  Al0+  Al82  1  0.31926859  0.57258410  0.67835113  1
  Al0+  Al83  1  0.18215994  0.43039165  0.34682944  1
  Al0+  Al84  1  0.57113866  0.67809443  0.98152631  1
  Al0+  Al85  1  0.31960116  0.57354051  0.01341139  1
  Al0+  Al86  1  0.82183006  0.57128833  0.01680521  1
  Al0+  Al87  1  0.42779681  0.82357458  0.32041064  1
  Al0+  Al88  1  0.32018268  0.07056559  0.68118698  1
  Al0+  Al89  1  0.42849117  0.32057455  0.98521383  1
  Al0+  Al90  1  0.06908681  0.67824132  0.98782150  1
  Al0+  Al91  1  0.07350085  0.67752305  0.64966434  1
  Al0+  Al92  1  0.92815680  0.32417130  0.31525648  1
  Al0+  Al93  1  0.82275006  0.56926847  0.68213411  1
  Al0+  Al94  1  0.92903674  0.81957098  0.32031819  1
  Al0+  Al95  1  0.67830558  0.42598774  0.67997008  1
  Si0+  Si96  1  0.82452065  0.07374662  0.34904108  1
  Si0+  Si97  1  0.17875673  0.42765626  0.68333776  1
  Si0+  Si98  1  0.31988110  0.07003585  0.34859100  1
  Si0+  Si99  1  0.82363545  0.07161730  0.01519069  1
  Si0+  Si100  1  0.68035555  0.93058181  0.01695706  1
  Si0+  Si101  1  0.17601448  0.92848183  0.68392312  1
  Si0+  Si102  1  0.07112352  0.17771977  0.98301911  1
  Si0+  Si103  1  0.07397962  0.17844177  0.65135919  1
  Si0+  Si104  1  0.32390640  0.57457011  0.34760663  1
  Si0+  Si105  1  0.57100327  0.17847546  0.31942144  1
  Si0+  Si106  1  0.17555215  0.92848212  0.34946023  1
  Si0+  Si107  1  0.56860451  0.67795146  0.65254225  1
  Si0+  Si108  1  0.17746001  0.42703286  0.01542415  1
  Si0+  Si109  1  0.57345928  0.17850147  0.98211331  1
  Si0+  Si110  1  0.43094811  0.82416256  0.65363855  1
  Si0+  Si111  1  0.92715140  0.82408270  0.98426136  1
  Si0+  Si112  1  0.42968599  0.31977923  0.31998818  1
  Si0+  Si113  1  0.42861130  0.32101841  0.65014813  1
  Si0+  Si114  1  0.67583892  0.42464453  0.34918818  1
  Si0+  Si115  1  0.56895850  0.17640122  0.65108408  1
  Si0+  Si116  1  0.07358052  0.67799783  0.31694767  1
  Si0+  Si117  1  0.92885138  0.31882417  0.98501396  1
  Si0+  Si118  1  0.17607477  0.92967824  0.01841329  1
  Si0+  Si119  1  0.82216227  0.07135823  0.68072878  1
  O2-  O120  1  0.24813071  -0.00591544  0.06465369  1
  O2-  O121  1  0.24973690  -0.00190501  0.39029065  1
  O2-  O122  1  0.24521638  -0.00320178  0.72824149  1
  O2-  O123  1  0.24505099  0.49752607  0.05861673  1
  O2-  O124  1  0.25396446  0.50811136  0.39332214  1
  O2-  O125  1  0.24173061  0.50142452  0.72653794  1
  O2-  O126  1  0.75624994  -0.00237107  0.05757469  1
  O2-  O127  1  0.75753302  0.00434715  0.39438382  1
  O2-  O128  1  0.75922579  -0.00166505  0.72693298  1
  O2-  O129  1  0.74712885  0.50191341  0.06715223  1
  O2-  O130  1  0.74522921  0.49252467  0.39218313  1
  O2-  O131  1  0.75196659  0.49513800  0.73045917  1
  O2-  O132  1  0.00025318  0.25081156  0.26643749  1
  O2-  O133  1  0.00312449  0.24438741  0.60780699  1
  O2-  O134  1  0.00012433  0.24837119  0.94139842  1
  O2-  O135  1  0.00417645  0.74609927  0.27303241  1
  O2-  O136  1  -0.00346517  0.74536215  0.60109668  1
  O2-  O137  1  -0.00806463  0.75136862  0.94206661  1
  O2-  O138  1  0.50548471  0.25415615  0.27770573  1
  O2-  O139  1  0.49998090  0.24969940  0.60844079  1
  O2-  O140  1  0.50739256  0.24962954  0.93817193  1
  O2-  O141  1  0.49269342  0.74505944  0.27166245  1
  O2-  O142  1  0.49902783  0.75111902  0.61049511  1
  O2-  O143  1  0.49546324  0.74704039  0.93114215  1
  O2-  O144  1  0.07055905  0.17593166  0.08761968  1
  O2-  O145  1  0.07383270  0.18163096  0.43161561  1
  O2-  O146  1  0.07444771  0.18002929  0.75741694  1
  O2-  O147  1  0.06885703  0.67985209  0.10118278  1
  O2-  O148  1  0.07578604  0.68042219  0.42224064  1
  O2-  O149  1  0.07452015  0.68108864  0.76334551  1
  O2-  O150  1  0.57215108  0.17722527  0.08818957  1
  O2-  O151  1  0.56774667  0.17568187  0.42462351  1
  O2-  O152  1  0.56819837  0.17330401  0.75566181  1
  O2-  O153  1  0.57287741  0.68244556  0.09501365  1
  O2-  O154  1  0.57007661  0.67894734  0.43377127  1
  O2-  O155  1  0.56695153  0.67744128  0.75709104  1
  O2-  O156  1  0.18619693  0.42945939  0.23365619  1
  O2-  O157  1  0.18358974  0.42312914  0.57789899  1
  O2-  O158  1  0.17685500  0.42479551  0.90978235  1
  O2-  O159  1  0.17299509  0.92878112  0.24479472  1
  O2-  O160  1  0.17721650  0.93040350  0.57802576  1
  O2-  O161  1  0.17229065  0.93558230  0.91304775  1
  O2-  O162  1  0.67391453  0.42239081  0.24411813  1
  O2-  O163  1  0.67718123  0.42774919  0.56611535  1
  O2-  O164  1  0.68478369  0.42520722  0.90240286  1
  O2-  O165  1  0.68121296  0.93523073  0.23338846  1
  O2-  O166  1  0.67531565  0.93005400  0.56916541  1
  O2-  O167  1  0.68039011  0.93251239  0.91172087  1
  O2-  O168  1  0.42680984  0.31640184  0.09899632  1
  O2-  O169  1  0.42900360  0.31764490  0.42542495  1
  O2-  O170  1  0.42719782  0.31989975  0.75478745  1
  O2-  O171  1  0.43487900  0.82352846  0.09732397  1
  O2-  O172  1  0.42990246  0.82577645  0.43472344  1
  O2-  O173  1  0.43314666  0.82583355  0.75815077  1
  O2-  O174  1  0.93012900  0.31717264  0.08961852  1
  O2-  O175  1  0.92840548  0.32120711  0.42891362  1
  O2-  O176  1  0.92917238  0.31571006  0.76723225  1
  O2-  O177  1  0.92985622  0.82863430  0.08992107  1
  O2-  O178  1  0.92899285  0.81878955  0.43294644  1
  O2-  O179  1  0.93011195  0.82151829  0.76531639  1
  O2-  O180  1  0.32047737  0.07143569  0.24378837  1
  O2-  O181  1  0.32077423  0.06958336  0.56745639  1
  O2-  O182  1  0.31748646  0.07058153  0.90356213  1
  O2-  O183  1  0.32319929  0.57214632  0.24223401  1
  O2-  O184  1  0.32232197  0.56853189  0.56490073  1
  O2-  O185  1  0.31743325  0.57102138  0.90021167  1
  O2-  O186  1  0.82143366  0.07309935  0.24298978  1
  O2-  O187  1  0.81802831  0.07419686  0.57557349  1
  O2-  O188  1  0.82306804  0.07398865  0.91007488  1
  O2-  O189  1  0.81892208  0.57037675  0.23522634  1
  O2-  O190  1  0.81859205  0.57090701  0.56844938  1
  O2-  O191  1  0.82560840  0.56703903  0.90359464  1
  O2-  O192  1  0.04704021  0.08249520  0.26209885  1
  O2-  O193  1  0.05303126  0.08362989  0.60627361  1
  O2-  O194  1  0.04284462  0.08680433  0.93358382  1
  O2-  O195  1  0.04888418  0.58409306  0.27282648  1
  O2-  O196  1  0.05374315  0.57659547  0.59930882  1
  O2-  O197  1  0.04178061  0.58075818  0.93282897  1
  O2-  O198  1  0.53783172  0.08986348  0.26939974  1
  O2-  O199  1  0.53596580  0.08609063  0.60272456  1
  O2-  O200  1  0.54392138  0.08654306  0.93560993  1
  O2-  O201  1  0.54879599  0.57801084  0.26558179  1
  O2-  O202  1  0.53798721  0.58739101  0.60401453  1
  O2-  O203  1  0.54532692  0.57865605  0.93074208  1
  O2-  O204  1  0.17133651  0.21070948  0.26508398  1
  O2-  O205  1  0.16746463  0.20618095  0.60577117  1
  O2-  O206  1  0.16248651  0.20612138  0.93567184  1
  O2-  O207  1  0.16693550  0.70519630  0.27080118  1
  O2-  O208  1  0.17074014  0.71087146  0.59511106  1
  O2-  O209  1  0.16374864  0.71205695  0.93210697  1
  O2-  O210  1  0.66413256  0.19849797  0.27138850  1
  O2-  O211  1  0.66040849  0.20007200  0.60111712  1
  O2-  O212  1  0.66889925  0.19897744  0.93716474  1
  O2-  O213  1  0.66549612  0.71399131  0.26556480  1
  O2-  O214  1  0.66135505  0.70579153  0.60816763  1
  O2-  O215  1  0.66903324  0.71176120  0.92935980  1
  O2-  O216  1  0.08413699  0.45186447  0.06177054  1
  O2-  O217  1  0.08540549  0.45753631  0.40154304  1
  O2-  O218  1  0.08304848  0.44611425  0.72660795  1
  O2-  O219  1  0.08370670  0.96049269  0.06565910  1
  O2-  O220  1  0.08537499  0.96029603  0.39806833  1
  O2-  O221  1  0.08270428  0.95455818  0.73066423  1
  O2-  O222  1  0.57717059  0.44962231  0.06386652  1
  O2-  O223  1  0.58122125  0.44879432  0.39520057  1
  O2-  O224  1  0.57955754  0.45504753  0.73113802  1
  O2-  O225  1  0.59147385  0.96536789  0.06490732  1
  O2-  O226  1  0.58566694  0.96647142  0.40190485  1
  O2-  O227  1  0.58724297  0.96538980  0.73946508  1
  O2-  O228  1  0.20526377  0.33410200  0.06153162  1
  O2-  O229  1  0.21669586  0.33537423  0.40282666  1
  O2-  O230  1  0.20902924  0.33651580  0.73245026  1
  O2-  O231  1  0.19598940  0.83491468  0.06293272  1
  O2-  O232  1  0.20177849  0.83700990  0.39893011  1
  O2-  O233  1  0.20192867  0.83531040  0.72931404  1
  O2-  O234  1  0.70639359  0.32816021  0.06824951  1
  O2-  O235  1  0.69948967  0.32932346  0.39390376  1
  O2-  O236  1  0.69977425  0.32455106  0.73020702  1
  O2-  O237  1  0.70424709  0.83824380  0.06412677  1
  O2-  O238  1  0.71039623  0.83526372  0.40047575  1
  O2-  O239  1  0.70673769  0.83189327  0.73950448  1
  O2-  O240  1  0.45134620  0.41266387  0.27227262  1
  O2-  O241  1  0.45614188  0.41193159  0.60077181  1
  O2-  O242  1  0.45454191  0.41720240  0.93013154  1
  O2-  O243  1  0.46267892  0.92023336  0.26720375  1
  O2-  O244  1  0.46145300  0.91581076  0.60693488  1
  O2-  O245  1  0.46342473  0.92101129  0.93280006  1
  O2-  O246  1  0.96194881  0.42134672  0.26367489  1
  O2-  O247  1  0.95856833  0.41381548  0.59750159  1
  O2-  O248  1  0.95737975  0.40982552  0.93728179  1
  O2-  O249  1  0.95729729  0.91679766  0.26602541  1
  O2-  O250  1  0.95408564  0.91890174  0.59900969  1
  O2-  O251  1  0.95556550  0.91654311  0.93617712  1
  O2-  O252  1  0.34097892  0.28557212  0.27190654  1
  O2-  O253  1  0.33722972  0.29057329  0.60245654  1
  O2-  O254  1  0.33348228  0.28454866  0.93053432  1
  O2-  O255  1  0.32625354  0.80727135  0.26916847  1
  O2-  O256  1  0.33711856  0.80176753  0.60799891  1
  O2-  O257  1  0.32673502  0.80546644  0.93602614  1
  O2-  O258  1  0.82985524  0.29574815  0.26157893  1
  O2-  O259  1  0.83134542  0.28676480  0.59859016  1
  O2-  O260  1  0.83763718  0.28728334  0.93873722  1
  O2-  O261  1  0.83323251  0.78889387  0.26601027  1
  O2-  O262  1  0.82572518  0.79193484  0.60253315  1
  O2-  O263  1  0.83165417  0.80338833  0.94176328  1
  O2-  O264  1  0.41880510  0.04347614  0.06962386  1
  O2-  O265  1  0.41189693  0.04346207  0.39663447  1
  O2-  O266  1  0.41526600  0.04070045  0.73745349  1
  O2-  O267  1  0.41560023  0.54096203  0.06654771  1
  O2-  O268  1  0.41709705  0.54550228  0.39330381  1
  O2-  O269  1  0.41307514  0.53619688  0.73353655  1
  O2-  O270  1  0.91690351  0.04745946  0.06156669  1
  O2-  O271  1  0.91988492  0.05191633  0.39189740  1
  O2-  O272  1  0.91842873  0.05298564  0.72490445  1
  O2-  O273  1  0.91952819  0.53878731  0.06973593  1
  O2-  O274  1  0.91684659  0.54210688  0.40129631  1
  O2-  O275  1  0.92321895  0.54106628  0.73054880  1
  O2-  O276  1  0.28660143  0.16612727  0.06994954  1
  O2-  O277  1  0.29146694  0.16087469  0.39781512  1
  O2-  O278  1  0.29067415  0.16748283  0.73558271  1
  O2-  O279  1  0.28873113  0.67051414  0.06655676  1
  O2-  O280  1  0.30152093  0.66998507  0.39180635  1
  O2-  O281  1  0.29411152  0.67086283  0.73159501  1
  O2-  O282  1  0.79337161  0.16083507  0.06593577  1
  O2-  O283  1  0.79682299  0.16771446  0.39337350  1
  O2-  O284  1  0.78972339  0.16155053  0.73012414  1
  O2-  O285  1  0.79573792  0.67212608  0.06665138  1
  O2-  O286  1  0.78522536  0.66520665  0.40231645  1
  O2-  O287  1  0.79364338  0.66589270  0.73738530  1
