# generated using pymatgen
data_Ca2Al2SiO7
_symmetry_space_group_name_H-M   'P 1'
_cell_length_a   15.47316389
_cell_length_b   15.47676700
_cell_length_c   15.29587633
_cell_angle_alpha   90.00376103
_cell_angle_beta   89.98797404
_cell_angle_gamma   89.99478066
_symmetry_Int_Tables_number   1
_chemical_formula_structural   Ca2Al2SiO7
_chemical_formula_sum   'Ca48 Al48 Si24 O168'
_cell_volume   3662.97302977
_cell_formula_units_Z   24
loop_
 _symmetry_equiv_pos_site_id
 _symmetry_equiv_pos_as_xyz
  1  'x, y, z'
loop_
 _atom_type_symbol
 _atom_type_oxidation_number
  Ca2+  2.0
  Al0+  0.0
  Si0+  0.0
  O2-  -2.0
loop_
 _atom_site_type_symbol
 _atom_site_label
 _atom_site_symmetry_multiplicity
 _atom_site_fract_x
 _atom_site_fract_y
 _atom_site_fract_z
 _atom_site_occupancy
  Ca2+  Ca0  1  0.17097772  0.07357258  0.17040821  1
  Ca2+  Ca1  1  0.16763209  0.08044022  0.50062087  1
  Ca2+  Ca2  1  0.18028835  0.07838736  0.84010515  1
  Ca2+  Ca3  1  0.16148781  0.58663750  0.17112856  1
  Ca2+  Ca4  1  0.16398387  0.58359667  0.49796122  1
  Ca2+  Ca5  1  0.16548428  0.58123836  0.84190172  1
  Ca2+  Ca6  1  0.67145637  0.07889753  0.16671163  1
  Ca2+  Ca7  1  0.67588120  0.08271178  0.50062017  1
  Ca2+  Ca8  1  0.67353946  0.08793401  0.84090374  1
  Ca2+  Ca9  1  0.66634072  0.57613423  0.16568692  1
  Ca2+  Ca10  1  0.66668737  0.58004689  0.50330256  1
  Ca2+  Ca11  1  0.67282289  0.57526299  0.84502825  1
  Ca2+  Ca12  1  0.07705625  0.32368150  0.17035656  1
  Ca2+  Ca13  1  0.07648025  0.32166776  0.48904611  1
  Ca2+  Ca14  1  0.08094899  0.32952050  0.83258905  1
  Ca2+  Ca15  1  0.08558161  0.82990989  0.16195193  1
  Ca2+  Ca16  1  0.07356085  0.83478242  0.48950591  1
  Ca2+  Ca17  1  0.07896393  0.83481660  0.83448650  1
  Ca2+  Ca18  1  0.57733267  0.32712338  0.15709601  1
  Ca2+  Ca19  1  0.57487418  0.32365543  0.49676897  1
  Ca2+  Ca20  1  0.57909214  0.32270919  0.83222085  1
  Ca2+  Ca21  1  0.57500275  0.84953452  0.16209651  1
  Ca2+  Ca22  1  0.57789706  0.83810930  0.49163944  1
  Ca2+  Ca23  1  0.57831534  0.84619642  0.83725758  1
  Ca2+  Ca24  1  0.34036368  0.41708095  0.17283005  1
  Ca2+  Ca25  1  0.33597085  0.41161155  0.50387468  1
  Ca2+  Ca26  1  0.33939391  0.41362521  0.83790857  1
  Ca2+  Ca27  1  0.32700987  0.91251793  0.17052553  1
  Ca2+  Ca28  1  0.32659613  0.91910891  0.50073835  1
  Ca2+  Ca29  1  0.33216553  0.92706855  0.84548897  1
  Ca2+  Ca30  1  0.83419588  0.41983681  0.16774436  1
  Ca2+  Ca31  1  0.83669092  0.41556761  0.50120964  1
  Ca2+  Ca32  1  0.82406859  0.42225859  0.84832634  1
  Ca2+  Ca33  1  0.82491549  0.92432431  0.17656749  1
  Ca2+  Ca34  1  0.83868273  0.92412832  0.50274664  1
  Ca2+  Ca35  1  0.82738194  0.92535155  0.84068566  1
  Ca2+  Ca36  1  0.42095562  0.17359265  0.15313940  1
  Ca2+  Ca37  1  0.41704874  0.16964867  0.49754626  1
  Ca2+  Ca38  1  0.42811417  0.16306161  0.82840828  1
  Ca2+  Ca39  1  0.41772625  0.68103872  0.16327452  1
  Ca2+  Ca40  1  0.42019165  0.67407634  0.49111410  1
  Ca2+  Ca41  1  0.41846614  0.67498665  0.83583864  1
  Ca2+  Ca42  1  0.91618761  0.15758731  0.16614023  1
  Ca2+  Ca43  1  0.91780017  0.16573325  0.48868342  1
  Ca2+  Ca44  1  0.91403810  0.15913281  0.82956352  1
  Ca2+  Ca45  1  0.92411277  0.67201111  0.16216658  1
  Ca2+  Ca46  1  0.92053394  0.68227264  0.49125010  1
  Ca2+  Ca47  1  0.91777539  0.67159439  0.83173224  1
  Al0+  Al48  1  0.00256385  -0.00116399  0.00323412  1
  Al0+  Al49  1  0.00137517  -0.00085540  0.33284105  1
  Al0+  Al50  1  -0.00016370  -0.00113138  0.66768395  1
  Al0+  Al51  1  0.00141350  0.50094314  -0.00089746  1
  Al0+  Al52  1  0.00092469  0.49841371  0.33026476  1
  Al0+  Al53  1  0.00187583  0.50004096  0.66821465  1
  Al0+  Al54  1  0.50061341  0.00458963  -0.00362967  1
  Al0+  Al55  1  0.50045859  0.00147464  0.33411058  1
  Al0+  Al56  1  0.50071977  -0.00000369  0.66236581  1
  Al0+  Al57  1  0.49948539  0.50202563  0.00068130  1
  Al0+  Al58  1  0.50006144  0.50068433  0.33304665  1
  Al0+  Al59  1  0.49892179  0.50048342  0.66487469  1
  Al0+  Al60  1  0.24630710  0.25187183  -0.00009026  1
  Al0+  Al61  1  0.24782041  0.25217650  0.32707866  1
  Al0+  Al62  1  0.24816378  0.25018990  0.66857968  1
  Al0+  Al63  1  0.24993422  0.74740015  -0.00753769  1
  Al0+  Al64  1  0.25277701  0.74964189  0.33380717  1
  Al0+  Al65  1  0.24974375  0.74671464  0.66793274  1
  Al0+  Al66  1  0.74889614  0.25205228  0.00473455  1
  Al0+  Al67  1  0.74751074  0.25268630  0.33455114  1
  Al0+  Al68  1  0.74797722  0.25052141  0.66629216  1
  Al0+  Al69  1  0.75026324  0.75012141  0.00698576  1
  Al0+  Al70  1  0.74942683  0.74628116  0.33410718  1
  Al0+  Al71  1  0.75042092  0.74958450  0.66313269  1
  Al0+  Al72  1  0.57330988  0.17666573  0.64768819  1
  Al0+  Al73  1  0.82083333  0.07120743  0.67985054  1
  Al0+  Al74  1  0.67765499  0.43022901  0.01620416  1
  Al0+  Al75  1  0.82039830  0.07087800  0.34891835  1
  Al0+  Al76  1  0.67771661  0.92961377  0.01321828  1
  Al0+  Al77  1  0.18248304  0.92623265  0.01427047  1
  Al0+  Al78  1  0.42819969  0.32035139  0.65095451  1
  Al0+  Al79  1  0.42632746  0.32323566  0.98450305  1
  Al0+  Al80  1  0.07134299  0.68069116  0.31941054  1
  Al0+  Al81  1  0.07037170  0.17621498  0.31762796  1
  Al0+  Al82  1  0.43227172  0.82184208  0.32124965  1
  Al0+  Al83  1  0.92667756  0.82226209  0.31640706  1
  Al0+  Al84  1  0.42948707  0.32079717  0.31973199  1
  Al0+  Al85  1  0.06939337  0.67909091  0.98406550  1
  Al0+  Al86  1  0.93040405  0.81997785  0.65409224  1
  Al0+  Al87  1  0.82271036  0.07172885  0.01465542  1
  Al0+  Al88  1  0.57195890  0.18017104  0.98434119  1
  Al0+  Al89  1  0.32127898  0.07369531  0.01442204  1
  Al0+  Al90  1  0.92608073  0.32037608  0.31872067  1
  Al0+  Al91  1  0.18095297  0.92726458  0.34735577  1
  Al0+  Al92  1  0.67739409  0.92683396  0.34996380  1
  Al0+  Al93  1  0.43063361  0.82141892  0.98619398  1
  Al0+  Al94  1  0.82402264  0.57194907  0.01632140  1
  Al0+  Al95  1  0.32058908  0.07032672  0.67872056  1
  Si0+  Si96  1  0.32026557  0.56991555  0.01502193  1
  Si0+  Si97  1  0.32060007  0.07514867  0.34862318  1
  Si0+  Si98  1  0.82355115  0.56817440  0.35086409  1
  Si0+  Si99  1  0.57128907  0.17874903  0.31541592  1
  Si0+  Si100  1  0.67861363  0.92538953  0.68193796  1
  Si0+  Si101  1  0.32216487  0.57131110  0.68314871  1
  Si0+  Si102  1  0.06927723  0.18001315  0.65420700  1
  Si0+  Si103  1  0.07002694  0.17667711  0.98275470  1
  Si0+  Si104  1  0.92856074  0.32291806  0.65535840  1
  Si0+  Si105  1  0.07313579  0.67527162  0.64913335  1
  Si0+  Si106  1  0.67640873  0.43119841  0.35150941  1
  Si0+  Si107  1  0.17732098  0.42906677  0.01656336  1
  Si0+  Si108  1  0.17836989  0.92565859  0.68324662  1
  Si0+  Si109  1  0.56987229  0.67864687  0.65276181  1
  Si0+  Si110  1  0.92662989  0.82337410  0.98346951  1
  Si0+  Si111  1  0.17859119  0.42887184  0.34928672  1
  Si0+  Si112  1  0.32160308  0.56948897  0.34928517  1
  Si0+  Si113  1  0.17904470  0.42976505  0.68245661  1
  Si0+  Si114  1  0.93066229  0.32047266  0.98564082  1
  Si0+  Si115  1  0.67823502  0.43070706  0.68100031  1
  Si0+  Si116  1  0.57360657  0.67809131  0.98404750  1
  Si0+  Si117  1  0.57234129  0.67604581  0.31698419  1
  Si0+  Si118  1  0.82112879  0.57107622  0.68019498  1
  Si0+  Si119  1  0.42781974  0.82085140  0.65176965  1
  O2-  O120  1  0.25500463  -0.00298608  0.06486751  1
  O2-  O121  1  0.25311650  0.00520844  0.39363932  1
  O2-  O122  1  0.25078239  -0.00917493  0.72569814  1
  O2-  O123  1  0.25393642  0.49471986  0.05694651  1
  O2-  O124  1  0.25089970  0.49846709  0.39232254  1
  O2-  O125  1  0.25086084  0.50014417  0.72458496  1
  O2-  O126  1  0.75294151  -0.00254257  0.06313472  1
  O2-  O127  1  0.75248006  -0.00466595  0.40081708  1
  O2-  O128  1  0.74455487  -0.00270821  0.72448923  1
  O2-  O129  1  0.75051223  0.50157048  0.06629656  1
  O2-  O130  1  0.75096022  0.49872801  0.39449718  1
  O2-  O131  1  0.75265248  0.49851341  0.72307649  1
  O2-  O132  1  -0.00901842  0.24186791  0.26927794  1
  O2-  O133  1  -0.00590832  0.24738083  0.61308886  1
  O2-  O134  1  -0.00459150  0.24494374  0.94066194  1
  O2-  O135  1  0.00197382  0.75300221  0.26740467  1
  O2-  O136  1  0.00697718  0.74642624  0.60746230  1
  O2-  O137  1  -0.00589897  0.75309546  0.93821506  1
  O2-  O138  1  0.49919832  0.24409604  0.27203959  1
  O2-  O139  1  0.49706917  0.24644259  0.60019000  1
  O2-  O140  1  0.49605844  0.24949568  0.93497718  1
  O2-  O141  1  0.51300665  0.75324989  0.27489767  1
  O2-  O142  1  0.50077526  0.75119132  0.61033299  1
  O2-  O143  1  0.51011622  0.75114857  0.93863288  1
  O2-  O144  1  0.07190466  0.17873225  0.08716616  1
  O2-  O145  1  0.07404601  0.18168243  0.43225202  1
  O2-  O146  1  0.06994518  0.18292656  0.75940718  1
  O2-  O147  1  0.07025051  0.67784781  0.09639012  1
  O2-  O148  1  0.06894891  0.67936096  0.43366066  1
  O2-  O149  1  0.07254148  0.67077983  0.75428377  1
  O2-  O150  1  0.57199343  0.18258816  0.09781764  1
  O2-  O151  1  0.57132407  0.18123969  0.42131723  1
  O2-  O152  1  0.57638440  0.18017605  0.76057175  1
  O2-  O153  1  0.56815996  0.67282772  0.08897349  1
  O2-  O154  1  0.56682251  0.67049095  0.42324177  1
  O2-  O155  1  0.56910277  0.67558518  0.75734594  1
  O2-  O156  1  0.17840683  0.43014277  0.24456478  1
  O2-  O157  1  0.17600540  0.43110140  0.57766510  1
  O2-  O158  1  0.17417915  0.43105172  0.91081351  1
  O2-  O159  1  0.18555103  0.92318020  0.23513218  1
  O2-  O160  1  0.17829191  0.92534773  0.57766234  1
  O2-  O161  1  0.18222267  0.92879597  0.89988574  1
  O2-  O162  1  0.67240953  0.43521422  0.24729015  1
  O2-  O163  1  0.67825710  0.43404589  0.57564825  1
  O2-  O164  1  0.68016349  0.43234097  0.90158576  1
  O2-  O165  1  0.67563514  0.93084764  0.23721234  1
  O2-  O166  1  0.68039042  0.92140166  0.57678815  1
  O2-  O167  1  0.68066710  0.92994962  0.89893263  1
  O2-  O168  1  0.42864211  0.32378928  0.09809577  1
  O2-  O169  1  0.43106750  0.32172657  0.43294194  1
  O2-  O170  1  0.43099087  0.32414649  0.76348705  1
  O2-  O171  1  0.42859279  0.81710295  0.09883093  1
  O2-  O172  1  0.43026118  0.81655406  0.43517213  1
  O2-  O173  1  0.42733078  0.81908078  0.75669425  1
  O2-  O174  1  0.93526028  0.32319268  0.09000616  1
  O2-  O175  1  0.93125781  0.32307620  0.43346664  1
  O2-  O176  1  0.93205739  0.32721481  0.76029843  1
  O2-  O177  1  0.92845363  0.82307458  0.08830702  1
  O2-  O178  1  0.92872376  0.81927508  0.43086637  1
  O2-  O179  1  0.93014881  0.81656326  0.76703615  1
  O2-  O180  1  0.31947825  0.07558032  0.24364374  1
  O2-  O181  1  0.31594515  0.07014424  0.56536677  1
  O2-  O182  1  0.31876944  0.07179785  0.90014128  1
  O2-  O183  1  0.32313876  0.56858495  0.24451628  1
  O2-  O184  1  0.32225384  0.57381171  0.57821087  1
  O2-  O185  1  0.31909655  0.57060016  0.90932715  1
  O2-  O186  1  0.81626120  0.07208359  0.23614145  1
  O2-  O187  1  0.82388411  0.07162367  0.56749520  1
  O2-  O188  1  0.82240424  0.07047028  0.90029289  1
  O2-  O189  1  0.82440835  0.56599701  0.24652010  1
  O2-  O190  1  0.82034888  0.56947850  0.57507070  1
  O2-  O191  1  0.82325171  0.56806633  0.90134912  1
  O2-  O192  1  0.05134064  0.07667505  0.26573890  1
  O2-  O193  1  0.04648631  0.08679888  0.60819437  1
  O2-  O194  1  0.04624096  0.08426236  0.93448209  1
  O2-  O195  1  0.04334279  0.58181604  0.26829526  1
  O2-  O196  1  0.04600171  0.58194749  0.60236230  1
  O2-  O197  1  0.03869010  0.58225701  0.92838064  1
  O2-  O198  1  0.54915365  0.08428172  0.27177732  1
  O2-  O199  1  0.54781450  0.07743810  0.59491119  1
  O2-  O200  1  0.54653435  0.08297708  0.92741062  1
  O2-  O201  1  0.53610797  0.58757465  0.26801669  1
  O2-  O202  1  0.53939088  0.58900188  0.60200601  1
  O2-  O203  1  0.54105075  0.58791436  0.93406587  1
  O2-  O204  1  0.16374766  0.21502695  0.26195781  1
  O2-  O205  1  0.15812899  0.21326092  0.60525190  1
  O2-  O206  1  0.15895151  0.21115494  0.93310871  1
  O2-  O207  1  0.17189383  0.70372483  0.26959815  1
  O2-  O208  1  0.16883972  0.69644387  0.60506486  1
  O2-  O209  1  0.16528356  0.70729828  0.92661703  1
  O2-  O210  1  0.66271629  0.21019116  0.27039246  1
  O2-  O211  1  0.66986659  0.21219833  0.59392641  1
  O2-  O212  1  0.67012579  0.21373618  0.93196155  1
  O2-  O213  1  0.66941144  0.68727628  0.27576970  1
  O2-  O214  1  0.66223751  0.70246450  0.60427053  1
  O2-  O215  1  0.67002016  0.69638087  0.94070728  1
  O2-  O216  1  0.08910770  0.46378220  0.06494770  1
  O2-  O217  1  0.08796293  0.45872580  0.39886983  1
  O2-  O218  1  0.08807395  0.45892456  0.73274137  1
  O2-  O219  1  0.08438504  0.95406542  0.06591306  1
  O2-  O220  1  0.08401577  0.95606089  0.40145956  1
  O2-  O221  1  0.08656833  0.95514312  0.73009335  1
  O2-  O222  1  0.58020694  0.46231659  0.06903021  1
  O2-  O223  1  0.58709632  0.46530708  0.40149114  1
  O2-  O224  1  0.58791600  0.46346520  0.72768845  1
  O2-  O225  1  0.58034453  0.96171305  0.06459533  1
  O2-  O226  1  0.57901892  0.95812871  0.40385669  1
  O2-  O227  1  0.58266411  0.94765960  0.72403217  1
  O2-  O228  1  0.19702239  0.33580649  0.06315110  1
  O2-  O229  1  0.20606640  0.33721007  0.39753352  1
  O2-  O230  1  0.20420199  0.33838332  0.73164323  1
  O2-  O231  1  0.21078589  0.82629282  0.06307025  1
  O2-  O232  1  0.21619494  0.83241806  0.40417364  1
  O2-  O233  1  0.19965318  0.82971606  0.72713960  1
  O2-  O234  1  0.70634395  0.33405545  0.07069551  1
  O2-  O235  1  0.70063610  0.33903160  0.39952397  1
  O2-  O236  1  0.70397788  0.33880187  0.72766043  1
  O2-  O237  1  0.69514494  0.82860392  0.06481702  1
  O2-  O238  1  0.69692786  0.82337245  0.39842735  1
  O2-  O239  1  0.70576275  0.83218063  0.72894886  1
  O2-  O240  1  0.46226383  0.41771602  0.26805519  1
  O2-  O241  1  0.45744348  0.41990739  0.59859202  1
  O2-  O242  1  0.45560408  0.42273462  0.93340684  1
  O2-  O243  1  0.45542969  0.92025655  0.26848391  1
  O2-  O244  1  0.45252670  0.91191626  0.60276791  1
  O2-  O245  1  0.45864567  0.91807823  0.93117966  1
  O2-  O246  1  0.96399050  0.41458741  0.26466914  1
  O2-  O247  1  0.96108921  0.41298093  0.60610044  1
  O2-  O248  1  0.96462781  0.40962026  0.93586028  1
  O2-  O249  1  0.95064887  0.92171264  0.26726876  1
  O2-  O250  1  0.96171544  0.91642177  0.59999362  1
  O2-  O251  1  0.95654719  0.91568521  0.93604629  1
  O2-  O252  1  0.33067837  0.29972269  0.26746845  1
  O2-  O253  1  0.32689425  0.29549722  0.60124552  1
  O2-  O254  1  0.32421619  0.30189180  0.93544612  1
  O2-  O255  1  0.33933724  0.78231794  0.26734938  1
  O2-  O256  1  0.33621902  0.78913916  0.60555571  1
  O2-  O257  1  0.33816719  0.78318442  0.92837331  1
  O2-  O258  1  0.82398037  0.30526797  0.27024264  1
  O2-  O259  1  0.83507285  0.30256165  0.60928750  1
  O2-  O260  1  0.83629634  0.29999824  0.94090044  1
  O2-  O261  1  0.82857814  0.78920829  0.26652978  1
  O2-  O262  1  0.83506833  0.78674112  0.59851192  1
  O2-  O263  1  0.83205809  0.79786628  0.93886649  1
  O2-  O264  1  0.42204978  0.05292602  0.06242953  1
  O2-  O265  1  0.41449608  0.05063025  0.39436065  1
  O2-  O266  1  0.41953024  0.04223300  0.72920955  1
  O2-  O267  1  0.41263480  0.54784845  0.06317026  1
  O2-  O268  1  0.41288528  0.54120160  0.39865090  1
  O2-  O269  1  0.41400564  0.54405342  0.73075908  1
  O2-  O270  1  0.92240744  0.04669625  0.06500035  1
  O2-  O271  1  0.92168993  0.04791382  0.39903530  1
  O2-  O272  1  0.91785084  0.04029846  0.73416284  1
  O2-  O273  1  0.92087882  0.53827387  0.06823241  1
  O2-  O274  1  0.91417421  0.53675830  0.39935367  1
  O2-  O275  1  0.91438880  0.54568282  0.72621275  1
  O2-  O276  1  0.28775856  0.17098377  0.06598114  1
  O2-  O277  1  0.29176022  0.16867321  0.39416646  1
  O2-  O278  1  0.28530132  0.16529920  0.73310148  1
  O2-  O279  1  0.28765085  0.66003430  0.06133269  1
  O2-  O280  1  0.29353602  0.65983285  0.39940452  1
  O2-  O281  1  0.29433829  0.66240215  0.73283402  1
  O2-  O282  1  0.79635319  0.17041842  0.06618883  1
  O2-  O283  1  0.79017554  0.17095646  0.40070544  1
  O2-  O284  1  0.79359163  0.17019997  0.73212713  1
  O2-  O285  1  0.79992284  0.67017576  0.06935029  1
  O2-  O286  1  0.79598730  0.65967797  0.39932812  1
  O2-  O287  1  0.79080821  0.66177782  0.72766042  1
