# generated using pymatgen
data_Ca2Al2SiO7
_symmetry_space_group_name_H-M   'P 1'
_cell_length_a   15.45721544
_cell_length_b   15.45639278
_cell_length_c   15.28280392
_cell_angle_alpha   90.00510103
_cell_angle_beta   90.01592213
_cell_angle_gamma   90.00742792
_symmetry_Int_Tables_number   1
_chemical_formula_structural   Ca2Al2SiO7
_chemical_formula_sum   'Ca48 Al48 Si24 O168'
_cell_volume   3651.25718341
_cell_formula_units_Z   24
loop_
 _symmetry_equiv_pos_site_id
 _symmetry_equiv_pos_as_xyz
  1  'x, y, z'
loop_
 _atom_type_symbol
 _atom_type_oxidation_number
  Ca2+  2.0
  Al0+  0.0
  Si0+  0.0
  O2-  -2.0
loop_
 _atom_site_type_symbol
 _atom_site_label
 _atom_site_symmetry_multiplicity
 _atom_site_fract_x
 _atom_site_fract_y
 _atom_site_fract_z
 _atom_site_occupancy
  Ca2+  Ca0  1  0.16769274  0.07132212  0.17000771  1
  Ca2+  Ca1  1  0.17183134  0.07515846  0.51347379  1
  Ca2+  Ca2  1  0.16818413  0.07860558  0.83242287  1
  Ca2+  Ca3  1  0.17411412  0.58063699  0.16504219  1
  Ca2+  Ca4  1  0.16837526  0.57736042  0.51049985  1
  Ca2+  Ca5  1  0.16781206  0.57528093  0.84093654  1
  Ca2+  Ca6  1  0.66546630  0.08046736  0.16962865  1
  Ca2+  Ca7  1  0.66786137  0.07944616  0.50407519  1
  Ca2+  Ca8  1  0.67881198  0.08213608  0.84377927  1
  Ca2+  Ca9  1  0.65642190  0.57987637  0.16630301  1
  Ca2+  Ca10  1  0.65898919  0.58134433  0.50762564  1
  Ca2+  Ca11  1  0.65681018  0.57383318  0.83727338  1
  Ca2+  Ca12  1  0.07576578  0.33283733  0.15563929  1
  Ca2+  Ca13  1  0.09139441  0.32362260  0.50175952  1
  Ca2+  Ca14  1  0.08014599  0.33371139  0.82552551  1
  Ca2+  Ca15  1  0.08674858  0.83743109  0.16134143  1
  Ca2+  Ca16  1  0.08167471  0.84054449  0.50162827  1
  Ca2+  Ca17  1  0.08151274  0.83427656  0.82249197  1
  Ca2+  Ca18  1  0.58961539  0.32061349  0.15767321  1
  Ca2+  Ca19  1  0.57895342  0.32937655  0.50028246  1
  Ca2+  Ca20  1  0.58129004  0.33247835  0.82853417  1
  Ca2+  Ca21  1  0.58539163  0.82872219  0.15977389  1
  Ca2+  Ca22  1  0.57961005  0.82602784  0.48825345  1
  Ca2+  Ca23  1  0.59208711  0.82075418  0.82967616  1
  Ca2+  Ca24  1  0.33585099  0.42291372  0.16223374  1
  Ca2+  Ca25  1  0.33237701  0.41726447  0.51226482  1
  Ca2+  Ca26  1  0.32454416  0.41755797  0.83647372  1
  Ca2+  Ca27  1  0.32461452  0.90883223  0.17229050  1
  Ca2+  Ca28  1  0.32781914  0.91852266  0.50496514  1
  Ca2+  Ca29  1  0.32293407  0.91723271  0.83448047  1
  Ca2+  Ca30  1  0.82921122  0.41352047  0.16266209  1
  Ca2+  Ca31  1  0.82312037  0.42116994  0.50811787  1
  Ca2+  Ca32  1  0.82245453  0.41316018  0.83960824  1
  Ca2+  Ca33  1  0.81864842  0.91972922  0.16612198  1
  Ca2+  Ca34  1  0.82783024  0.91889398  0.50696740  1
  Ca2+  Ca35  1  0.83536088  0.92641302  0.83751039  1
  Ca2+  Ca36  1  0.43132647  0.16193854  0.16300457  1
  Ca2+  Ca37  1  0.41382695  0.17213129  0.49834870  1
  Ca2+  Ca38  1  0.41977242  0.16987743  0.82654625  1
  Ca2+  Ca39  1  0.42275280  0.67181103  0.16240580  1
  Ca2+  Ca40  1  0.42676538  0.67260103  0.49519436  1
  Ca2+  Ca41  1  0.42300096  0.66140300  0.83207321  1
  Ca2+  Ca42  1  0.91510674  0.17108872  0.15699489  1
  Ca2+  Ca43  1  0.92071789  0.15930828  0.50554735  1
  Ca2+  Ca44  1  0.91779955  0.16623805  0.82927942  1
  Ca2+  Ca45  1  0.91897116  0.66978949  0.16123640  1
  Ca2+  Ca46  1  0.92258982  0.67276547  0.50428256  1
  Ca2+  Ca47  1  0.92426074  0.67661533  0.82251803  1
  Al0+  Al48  1  0.00014016  0.00168602  0.00905591  1
  Al0+  Al49  1  -0.00028095  0.00020078  0.33530274  1
  Al0+  Al50  1  -0.00193013  0.00109809  0.66506899  1
  Al0+  Al51  1  -0.00131192  0.49940314  -0.00105282  1
  Al0+  Al52  1  -0.00097494  0.50037565  0.33415604  1
  Al0+  Al53  1  -0.00251983  0.50115991  0.66498355  1
  Al0+  Al54  1  0.49925950  -0.00177518  -0.00500887  1
  Al0+  Al55  1  0.49832464  0.00110437  0.33068786  1
  Al0+  Al56  1  0.50065801  -0.00119764  0.67174197  1
  Al0+  Al57  1  0.49937638  0.49976058  0.00608836  1
  Al0+  Al58  1  0.49884010  0.50000312  0.33154936  1
  Al0+  Al59  1  0.49908449  0.49819394  0.66165507  1
  Al0+  Al60  1  0.24999620  0.24821237  0.00649542  1
  Al0+  Al61  1  0.24813762  0.25012493  0.32790351  1
  Al0+  Al62  1  0.25061596  0.25096640  0.66639125  1
  Al0+  Al63  1  0.25129275  0.74884865  0.00676283  1
  Al0+  Al64  1  0.24955660  0.74735428  0.33604083  1
  Al0+  Al65  1  0.25264898  0.74881419  0.66606513  1
  Al0+  Al66  1  0.75191505  0.25119409  -0.00110681  1
  Al0+  Al67  1  0.75106431  0.25227013  0.33238158  1
  Al0+  Al68  1  0.74944168  0.24979676  0.67268173  1
  Al0+  Al69  1  0.75147712  0.75066109  -0.00292552  1
  Al0+  Al70  1  0.75296996  0.74943328  0.33326359  1
  Al0+  Al71  1  0.75198756  0.74821187  0.65680688  1
  Al0+  Al72  1  0.42757570  0.82113346  0.31834113  1
  Al0+  Al73  1  0.18076954  0.93059134  0.01336246  1
  Al0+  Al74  1  0.32111520  0.57009610  0.01606948  1
  Al0+  Al75  1  0.32336251  0.07304221  0.68176004  1
  Al0+  Al76  1  0.67780665  0.92920371  0.34681860  1
  Al0+  Al77  1  0.17608841  0.42680924  0.01546275  1
  Al0+  Al78  1  0.43000820  0.31827745  0.65502540  1
  Al0+  Al79  1  0.07429792  0.67743919  0.65279013  1
  Al0+  Al80  1  0.57045923  0.67980991  0.98514121  1
  Al0+  Al81  1  0.82028152  0.07196191  0.01680956  1
  Al0+  Al82  1  0.67820167  0.43139501  0.67946879  1
  Al0+  Al83  1  0.17748529  0.42979271  0.67829493  1
  Al0+  Al84  1  0.57110840  0.18136429  0.32125445  1
  Al0+  Al85  1  0.57334739  0.67921767  0.31602080  1
  Al0+  Al86  1  0.93082038  0.82309285  0.65047820  1
  Al0+  Al87  1  0.81891606  0.06958835  0.68014702  1
  Al0+  Al88  1  0.17922722  0.92859296  0.34977600  1
  Al0+  Al89  1  0.57128892  0.17745319  0.98412794  1
  Al0+  Al90  1  0.67946222  0.43050278  0.01411777  1
  Al0+  Al91  1  0.67812643  0.92684302  0.01250796  1
  Al0+  Al92  1  0.17981943  0.92829339  0.68104936  1
  Al0+  Al93  1  0.56900254  0.67936757  0.65304693  1
  Al0+  Al94  1  0.06996797  0.18159117  0.65461280  1
  Al0+  Al95  1  0.93066602  0.32150526  0.98440092  1
  Si0+  Si96  1  0.42773249  0.32105703  0.98446922  1
  Si0+  Si97  1  0.32067710  0.56842364  0.35095175  1
  Si0+  Si98  1  0.93109711  0.82231849  0.98711795  1
  Si0+  Si99  1  0.07041573  0.17797797  0.31719876  1
  Si0+  Si100  1  0.82153449  0.57358834  0.68330055  1
  Si0+  Si101  1  0.32275604  0.57097323  0.68137987  1
  Si0+  Si102  1  0.57422165  0.17638928  0.65200087  1
  Si0+  Si103  1  0.93077364  0.82225164  0.31587997  1
  Si0+  Si104  1  0.07276409  0.17669123  0.98461379  1
  Si0+  Si105  1  0.42816916  0.82485830  0.65048489  1
  Si0+  Si106  1  0.67979841  0.42974053  0.34819151  1
  Si0+  Si107  1  0.82379442  0.57128080  0.34937448  1
  Si0+  Si108  1  0.82047279  0.07433444  0.35119658  1
  Si0+  Si109  1  0.42531802  0.32283380  0.31436578  1
  Si0+  Si110  1  0.92462934  0.32250615  0.64906964  1
  Si0+  Si111  1  0.42462102  0.82104635  0.98104950  1
  Si0+  Si112  1  0.67780050  0.92424085  0.68134727  1
  Si0+  Si113  1  0.32115992  0.07439416  0.34920595  1
  Si0+  Si114  1  0.06975503  0.67710870  0.31705359  1
  Si0+  Si115  1  0.32427968  0.07305962  0.01824691  1
  Si0+  Si116  1  0.93063803  0.32232640  0.31902703  1
  Si0+  Si117  1  0.17708879  0.42928477  0.34842591  1
  Si0+  Si118  1  0.82235196  0.57331021  0.01522103  1
  Si0+  Si119  1  0.07206290  0.68001658  0.98739602  1
  O2-  O120  1  0.25663221  0.00291298  0.06215918  1
  O2-  O121  1  0.25407718  0.00424533  0.39352717  1
  O2-  O122  1  0.25215762  -0.00033202  0.73101013  1
  O2-  O123  1  0.24891465  0.49737804  0.06629576  1
  O2-  O124  1  0.25186030  0.49472043  0.39226385  1
  O2-  O125  1  0.24676839  0.50960061  0.72417575  1
  O2-  O126  1  0.74403628  0.00342684  0.06491809  1
  O2-  O127  1  0.75107672  0.00573983  0.39389877  1
  O2-  O128  1  0.74321091  -0.00432632  0.72552915  1
  O2-  O129  1  0.75198640  0.50744799  0.06160000  1
  O2-  O130  1  0.74592532  0.50602548  0.38948536  1
  O2-  O131  1  0.75265099  0.50567244  0.72725769  1
  O2-  O132  1  -0.00026788  0.24975850  0.27637617  1
  O2-  O133  1  -0.00341929  0.25727900  0.60446024  1
  O2-  O134  1  0.00880880  0.24948367  0.94026947  1
  O2-  O135  1  0.00323705  0.75202823  0.27374652  1
  O2-  O136  1  0.00659405  0.75325565  0.60128522  1
  O2-  O137  1  0.00324399  0.75250078  0.94523423  1
  O2-  O138  1  0.49552179  0.25486160  0.27250675  1
  O2-  O139  1  0.50194388  0.24108115  0.60725903  1
  O2-  O140  1  0.49439694  0.25111873  0.93943914  1
  O2-  O141  1  0.50458883  0.75481129  0.26694454  1
  O2-  O142  1  0.50002221  0.75904530  0.60668714  1
  O2-  O143  1  0.49794223  0.75646163  0.93772449  1
  O2-  O144  1  0.06948122  0.17648272  0.09096886  1
  O2-  O145  1  0.07239664  0.17896992  0.42217022  1
  O2-  O146  1  0.06888861  0.18231067  0.76740412  1
  O2-  O147  1  0.06966986  0.68046660  0.09325765  1
  O2-  O148  1  0.06683699  0.67218446  0.42146089  1
  O2-  O149  1  0.07062370  0.67637251  0.76665101  1
  O2-  O150  1  0.57075557  0.17955585  0.09792277  1
  O2-  O151  1  0.57271789  0.18535230  0.43433529  1
  O2-  O152  1  0.57515915  0.18016936  0.75722887  1
  O2-  O153  1  0.56965376  0.68090511  0.09802288  1
  O2-  O154  1  0.56978763  0.67693163  0.42975678  1
  O2-  O155  1  0.56716551  0.67728942  0.76611163  1
  O2-  O156  1  0.17433952  0.43221526  0.24375691  1
  O2-  O157  1  0.18165157  0.42889797  0.56427493  1
  O2-  O158  1  0.17535458  0.42941804  0.90206167  1
  O2-  O159  1  0.17846249  0.93053397  0.23640993  1
  O2-  O160  1  0.18192182  0.93080115  0.56729646  1
  O2-  O161  1  0.17883019  0.93022965  0.90090955  1
  O2-  O162  1  0.68308550  0.42698249  0.24332807  1
  O2-  O163  1  0.67947291  0.43183696  0.56541474  1
  O2-  O164  1  0.67875938  0.43163766  0.90121806  1
  O2-  O165  1  0.68115742  0.92914710  0.23409167  1
  O2-  O166  1  0.67839806  0.92581455  0.57529671  1
  O2-  O167  1  0.68551053  0.92349992  0.89923050  1
  O2-  O168  1  0.42987153  0.31961716  0.09055255  1
  O2-  O169  1  0.42325211  0.32318711  0.42002413  1
  O2-  O170  1  0.43110103  0.32091883  0.76776986  1
  O2-  O171  1  0.42173444  0.81836304  0.08664730  1
  O2-  O172  1  0.42762898  0.81697653  0.43209263  1
  O2-  O173  1  0.42651726  0.82357141  0.75585198  1
  O2-  O174  1  0.93147313  0.32084943  0.09865585  1
  O2-  O175  1  0.93088274  0.32457797  0.42382457  1
  O2-  O176  1  0.92398410  0.32128141  0.75429331  1
  O2-  O177  1  0.93150388  0.81939804  0.09275048  1
  O2-  O178  1  0.93118121  0.82171571  0.42055982  1
  O2-  O179  1  0.93046529  0.82125828  0.76455705  1
  O2-  O180  1  0.31749144  0.07698610  0.24369589  1
  O2-  O181  1  0.32164091  0.07313628  0.56765831  1
  O2-  O182  1  0.32178335  0.07546851  0.91305040  1
  O2-  O183  1  0.31926780  0.56824979  0.24613031  1
  O2-  O184  1  0.32417974  0.56696437  0.57529312  1
  O2-  O185  1  0.31901706  0.57005079  0.90244861  1
  O2-  O186  1  0.82152493  0.07583307  0.24596251  1
  O2-  O187  1  0.81636132  0.07006257  0.56638136  1
  O2-  O188  1  0.82381485  0.06870389  0.90344999  1
  O2-  O189  1  0.83083919  0.56803573  0.24463973  1
  O2-  O190  1  0.82148544  0.57139242  0.57702685  1
  O2-  O191  1  0.82369272  0.57282397  0.91011799  1
  O2-  O192  1  0.04111616  0.08648565  0.26991758  1
  O2-  O193  1  0.03662870  0.08697974  0.59801316  1
  O2-  O194  1  0.04191301  0.08416693  0.93982920  1
  O2-  O195  1  0.03661260  0.58718950  0.26781162  1
  O2-  O196  1  0.04012852  0.58106961  0.59634987  1
  O2-  O197  1  0.04273046  0.58891477  0.94046818  1
  O2-  O198  1  0.54158705  0.08522415  0.26598739  1
  O2-  O199  1  0.55355745  0.08017800  0.60908432  1
  O2-  O200  1  0.54465798  0.07992250  0.92985972  1
  O2-  O201  1  0.54110675  0.58023912  0.26555707  1
  O2-  O202  1  0.53349608  0.58534168  0.59643665  1
  O2-  O203  1  0.53665355  0.58181898  0.93524450  1
  O2-  O204  1  0.16133571  0.20506673  0.26722139  1
  O2-  O205  1  0.16539099  0.21289458  0.59788464  1
  O2-  O206  1  0.16938216  0.19622885  0.94308158  1
  O2-  O207  1  0.16308895  0.70132617  0.27181006  1
  O2-  O208  1  0.17492661  0.69830552  0.60067513  1
  O2-  O209  1  0.16497635  0.70528077  0.94262124  1
  O2-  O210  1  0.66741422  0.21476879  0.26669375  1
  O2-  O211  1  0.66583073  0.20724317  0.60454447  1
  O2-  O212  1  0.66749258  0.21148707  0.93270683  1
  O2-  O213  1  0.67544237  0.70020901  0.26724644  1
  O2-  O214  1  0.66703909  0.70224406  0.59799004  1
  O2-  O215  1  0.66871636  0.70759529  0.93169266  1
  O2-  O216  1  0.07839292  0.45879267  0.06895397  1
  O2-  O217  1  0.08668739  0.46029622  0.39673307  1
  O2-  O218  1  0.07807470  0.45466517  0.72910904  1
  O2-  O219  1  0.08626170  0.96209156  0.07190101  1
  O2-  O220  1  0.08188037  0.96092465  0.40158597  1
  O2-  O221  1  0.08069355  0.95759532  0.73044750  1
  O2-  O222  1  0.58388484  0.45799299  0.07117698  1
  O2-  O223  1  0.58524388  0.45250176  0.39287012  1
  O2-  O224  1  0.58176598  0.46330046  0.73208274  1
  O2-  O225  1  0.57605140  0.94738246  0.06054414  1
  O2-  O226  1  0.57985961  0.95801642  0.39922327  1
  O2-  O227  1  0.58327662  0.94263054  0.72757150  1
  O2-  O228  1  0.20178099  0.32818896  0.07023841  1
  O2-  O229  1  0.20102162  0.33407973  0.39113395  1
  O2-  O230  1  0.21181115  0.33581563  0.73291290  1
  O2-  O231  1  0.20923057  0.83396326  0.06916331  1
  O2-  O232  1  0.20637789  0.82980552  0.40095383  1
  O2-  O233  1  0.20680952  0.82844112  0.73249514  1
  O2-  O234  1  0.71579673  0.33606696  0.06860809  1
  O2-  O235  1  0.71355468  0.34067617  0.39773443  1
  O2-  O236  1  0.70823062  0.33549950  0.73400677  1
  O2-  O237  1  0.71369880  0.83087126  0.06759246  1
  O2-  O238  1  0.71208680  0.83238271  0.39953424  1
  O2-  O239  1  0.70772777  0.83042460  0.72390858  1
  O2-  O240  1  0.45097953  0.41654581  0.26946239  1
  O2-  O241  1  0.46382413  0.41171642  0.59545248  1
  O2-  O242  1  0.45430331  0.41487253  0.94080709  1
  O2-  O243  1  0.44540356  0.92256013  0.26793855  1
  O2-  O244  1  0.45043244  0.91974404  0.60475268  1
  O2-  O245  1  0.44258415  0.91639181  0.93636652  1
  O2-  O246  1  0.96068170  0.41302141  0.27006156  1
  O2-  O247  1  0.94473236  0.41773922  0.60403338  1
  O2-  O248  1  0.95713166  0.41936916  0.93032047  1
  O2-  O249  1  0.95768834  0.91480040  0.26929430  1
  O2-  O250  1  0.95572200  0.92089057  0.59484120  1
  O2-  O251  1  0.95981440  0.91504862  0.94312730  1
  O2-  O252  1  0.33171650  0.29842295  0.26676528  1
  O2-  O253  1  0.33425254  0.29027812  0.59733067  1
  O2-  O254  1  0.33174983  0.29734971  0.94201292  1
  O2-  O255  1  0.33013547  0.78503877  0.26605174  1
  O2-  O256  1  0.33615459  0.79662651  0.60240412  1
  O2-  O257  1  0.33271421  0.78840553  0.93479736  1
  O2-  O258  1  0.83868993  0.29597065  0.27105984  1
  O2-  O259  1  0.83240926  0.29183017  0.60199464  1
  O2-  O260  1  0.83522647  0.28972277  0.93024804  1
  O2-  O261  1  0.84043763  0.79117542  0.26768614  1
  O2-  O262  1  0.83554905  0.78968225  0.59249352  1
  O2-  O263  1  0.84117024  0.79418649  0.93730343  1
  O2-  O264  1  0.41864171  0.04746035  0.06204688  1
  O2-  O265  1  0.41576842  0.05351861  0.39422283  1
  O2-  O266  1  0.42220639  0.04750731  0.73589417  1
  O2-  O267  1  0.41684124  0.53992287  0.07349913  1
  O2-  O268  1  0.41334250  0.54163035  0.39789739  1
  O2-  O269  1  0.41243683  0.53595935  0.72842123  1
  O2-  O270  1  0.91632243  0.04130367  0.07376215  1
  O2-  O271  1  0.91408998  0.04626288  0.39623901  1
  O2-  O272  1  0.91513114  0.03932418  0.73397177  1
  O2-  O273  1  0.91440830  0.54510127  0.06408914  1
  O2-  O274  1  0.91187530  0.53592241  0.40042338  1
  O2-  O275  1  0.91507904  0.54932633  0.72942876  1
  O2-  O276  1  0.29956229  0.16509899  0.06843479  1
  O2-  O277  1  0.29261995  0.16871166  0.39409152  1
  O2-  O278  1  0.29252492  0.17014591  0.73477682  1
  O2-  O279  1  0.29004135  0.66583436  0.07335641  1
  O2-  O280  1  0.29015339  0.65848392  0.39943246  1
  O2-  O281  1  0.30726957  0.66673718  0.72569322  1
  O2-  O282  1  0.79434551  0.17118574  0.06840013  1
  O2-  O283  1  0.79649397  0.16876223  0.39711689  1
  O2-  O284  1  0.79079883  0.16583802  0.73572651  1
  O2-  O285  1  0.80011214  0.66751819  0.06151842  1
  O2-  O286  1  0.80328252  0.66487774  0.39571555  1
  O2-  O287  1  0.79793664  0.66844565  0.72674098  1
