# generated using pymatgen
data_Ca2Al2SiO7
_symmetry_space_group_name_H-M   'P 1'
_cell_length_a   15.45405063
_cell_length_b   15.45324918
_cell_length_c   15.28089351
_cell_angle_alpha   90.00259368
_cell_angle_beta   89.99868394
_cell_angle_gamma   90.01266773
_symmetry_Int_Tables_number   1
_chemical_formula_structural   Ca2Al2SiO7
_chemical_formula_sum   'Ca48 Al48 Si24 O168'
_cell_volume   3649.31100090
_cell_formula_units_Z   24
loop_
 _symmetry_equiv_pos_site_id
 _symmetry_equiv_pos_as_xyz
  1  'x, y, z'
loop_
 _atom_type_symbol
 _atom_type_oxidation_number
  Ca2+  2.0
  Al0+  0.0
  Si0+  0.0
  O2-  -2.0
loop_
 _atom_site_type_symbol
 _atom_site_label
 _atom_site_symmetry_multiplicity
 _atom_site_fract_x
 _atom_site_fract_y
 _atom_site_fract_z
 _atom_site_occupancy
  Ca2+  Ca0  1  0.16485831  0.07680768  0.16341473  1
  Ca2+  Ca1  1  0.16344305  0.07797471  0.50351880  1
  Ca2+  Ca2  1  0.17034852  0.08376064  0.84253193  1
  Ca2+  Ca3  1  0.17996152  0.58733185  0.16935561  1
  Ca2+  Ca4  1  0.17806403  0.57770488  0.50729389  1
  Ca2+  Ca5  1  0.17962777  0.57697160  0.83575008  1
  Ca2+  Ca6  1  0.66591456  0.08044411  0.16928880  1
  Ca2+  Ca7  1  0.67293956  0.07914847  0.50334927  1
  Ca2+  Ca8  1  0.65892035  0.07127420  0.83980437  1
  Ca2+  Ca9  1  0.67056244  0.57020546  0.16538372  1
  Ca2+  Ca10  1  0.66992629  0.58262529  0.50562681  1
  Ca2+  Ca11  1  0.67234189  0.58505633  0.83952098  1
  Ca2+  Ca12  1  0.07461723  0.32840387  0.15867686  1
  Ca2+  Ca13  1  0.08066511  0.33152970  0.49782459  1
  Ca2+  Ca14  1  0.09303634  0.32275255  0.82684201  1
  Ca2+  Ca15  1  0.08091568  0.83925238  0.15919039  1
  Ca2+  Ca16  1  0.08648116  0.83075215  0.49371470  1
  Ca2+  Ca17  1  0.07781692  0.83676785  0.83515758  1
  Ca2+  Ca18  1  0.58356652  0.33039918  0.15592291  1
  Ca2+  Ca19  1  0.57872717  0.34125353  0.49692231  1
  Ca2+  Ca20  1  0.57553662  0.33512821  0.83543491  1
  Ca2+  Ca21  1  0.57755281  0.83480605  0.16062346  1
  Ca2+  Ca22  1  0.57472230  0.82949705  0.50178123  1
  Ca2+  Ca23  1  0.58117222  0.82969453  0.82169918  1
  Ca2+  Ca24  1  0.34256784  0.42789271  0.16728022  1
  Ca2+  Ca25  1  0.33224954  0.42645331  0.51074379  1
  Ca2+  Ca26  1  0.34147352  0.42269290  0.83679683  1
  Ca2+  Ca27  1  0.32489241  0.92070739  0.17098561  1
  Ca2+  Ca28  1  0.33372904  0.91162304  0.50162678  1
  Ca2+  Ca29  1  0.33140710  0.92393127  0.84363194  1
  Ca2+  Ca30  1  0.82267087  0.40826054  0.17147194  1
  Ca2+  Ca31  1  0.82840106  0.41684451  0.50436870  1
  Ca2+  Ca32  1  0.82812537  0.43091200  0.84138508  1
  Ca2+  Ca33  1  0.82972886  0.92089866  0.16577069  1
  Ca2+  Ca34  1  0.82816082  0.92320334  0.50552499  1
  Ca2+  Ca35  1  0.82023075  0.91191481  0.84058290  1
  Ca2+  Ca36  1  0.42168726  0.17391818  0.15180372  1
  Ca2+  Ca37  1  0.41812477  0.17467893  0.50009922  1
  Ca2+  Ca38  1  0.41599995  0.17515533  0.83300412  1
  Ca2+  Ca39  1  0.41198989  0.66863025  0.16488827  1
  Ca2+  Ca40  1  0.41401852  0.67120019  0.49762288  1
  Ca2+  Ca41  1  0.42045325  0.66954667  0.82371793  1
  Ca2+  Ca42  1  0.91775436  0.16675864  0.16247739  1
  Ca2+  Ca43  1  0.91949784  0.16981071  0.49318847  1
  Ca2+  Ca44  1  0.93153368  0.16465197  0.82966563  1
  Ca2+  Ca45  1  0.91704265  0.67351507  0.15598266  1
  Ca2+  Ca46  1  0.91737344  0.66352970  0.49885740  1
  Ca2+  Ca47  1  0.90751784  0.66994081  0.83075416  1
  Al0+  Al48  1  -0.00182719  -0.00121783  -0.00693322  1
  Al0+  Al49  1  0.00008626  -0.00073201  0.34146945  1
  Al0+  Al50  1  0.00025069  0.00080623  0.66167498  1
  Al0+  Al51  1  0.00244191  0.50275888  0.00187556  1
  Al0+  Al52  1  0.00030486  0.49930599  0.32572391  1
  Al0+  Al53  1  -0.00025737  0.49944036  0.67507541  1
  Al0+  Al54  1  0.49862634  0.00091378  0.00568832  1
  Al0+  Al55  1  0.49830968  -0.00073032  0.33036262  1
  Al0+  Al56  1  0.49939978  0.00040857  0.66465422  1
  Al0+  Al57  1  0.50204487  0.50196062  0.00464844  1
  Al0+  Al58  1  0.50168025  0.50171753  0.34078053  1
  Al0+  Al59  1  0.50176350  0.50053029  0.66162494  1
  Al0+  Al60  1  0.24978727  0.25153303  -0.00220702  1
  Al0+  Al61  1  0.25028723  0.24901693  0.33082600  1
  Al0+  Al62  1  0.25011698  0.24737368  0.65685543  1
  Al0+  Al63  1  0.24788020  0.74936082  0.00537381  1
  Al0+  Al64  1  0.25031512  0.75061460  0.33688154  1
  Al0+  Al65  1  0.24746018  0.74980244  0.66788970  1
  Al0+  Al66  1  0.74996638  0.24883231  -0.00562732  1
  Al0+  Al67  1  0.75011801  0.24916482  0.33978595  1
  Al0+  Al68  1  0.75241111  0.24900504  0.66960060  1
  Al0+  Al69  1  0.74970509  0.75119867  0.00645350  1
  Al0+  Al70  1  0.74906139  0.74859854  0.33159219  1
  Al0+  Al71  1  0.74899546  0.75134197  0.66625661  1
  Al0+  Al72  1  0.32092645  0.07388738  0.01479235  1
  Al0+  Al73  1  0.31967871  0.56967184  0.34898459  1
  Al0+  Al74  1  0.92889468  0.81880215  0.98624058  1
  Al0+  Al75  1  0.81932346  0.06918882  0.34629990  1
  Al0+  Al76  1  0.57274444  0.67939836  0.65182959  1
  Al0+  Al77  1  0.82006812  0.57061991  0.67919315  1
  Al0+  Al78  1  0.67971053  0.93211142  0.67844403  1
  Al0+  Al79  1  0.06867135  0.18073893  0.98695865  1
  Al0+  Al80  1  0.32160084  0.57008807  0.01404526  1
  Al0+  Al81  1  0.42597851  0.82234822  0.65336377  1
  Al0+  Al82  1  0.92863983  0.31962317  0.32010312  1
  Al0+  Al83  1  0.18058238  0.93128135  0.34833002  1
  Al0+  Al84  1  0.82311655  0.57264753  0.01689749  1
  Al0+  Al85  1  0.07134245  0.17880978  0.64971221  1
  Al0+  Al86  1  0.43140415  0.32043561  0.65142472  1
  Al0+  Al87  1  0.43041843  0.32383318  0.98639027  1
  Al0+  Al88  1  0.17742050  0.93045075  0.01313255  1
  Al0+  Al89  1  0.68152981  0.42825972  0.01349717  1
  Al0+  Al90  1  0.67690617  0.92900902  0.01422419  1
  Al0+  Al91  1  0.18007826  0.42628105  0.68054296  1
  Al0+  Al92  1  0.68139527  0.42891121  0.34867110  1
  Al0+  Al93  1  0.32255264  0.57139018  0.68244135  1
  Al0+  Al94  1  0.42876674  0.81964621  0.31699477  1
  Al0+  Al95  1  0.57276953  0.17606969  0.98445705  1
  Si0+  Si96  1  0.06965084  0.67776500  0.65262767  1
  Si0+  Si97  1  0.07164794  0.17566617  0.31519217  1
  Si0+  Si98  1  0.57275827  0.67677585  0.31361959  1
  Si0+  Si99  1  0.42641835  0.82067384  0.98758626  1
  Si0+  Si100  1  0.32397595  0.07373385  0.35140751  1
  Si0+  Si101  1  0.92850333  0.32315513  0.65141235  1
  Si0+  Si102  1  0.42937737  0.32265436  0.31901481  1
  Si0+  Si103  1  0.82433960  0.57279868  0.34884861  1
  Si0+  Si104  1  0.17669215  0.92832530  0.68192037  1
  Si0+  Si105  1  0.56969453  0.68182223  0.98751299  1
  Si0+  Si106  1  0.92868206  0.82169026  0.31998949  1
  Si0+  Si107  1  0.57395072  0.17702198  0.64905464  1
  Si0+  Si108  1  0.57042620  0.17991802  0.32024880  1
  Si0+  Si109  1  0.67535957  0.92584907  0.35063811  1
  Si0+  Si110  1  0.07086631  0.67957744  0.31881515  1
  Si0+  Si111  1  0.67735174  0.42564446  0.68417776  1
  Si0+  Si112  1  0.17808460  0.42638593  0.01779942  1
  Si0+  Si113  1  0.82205873  0.07052846  0.01291221  1
  Si0+  Si114  1  0.82424735  0.07221963  0.68523438  1
  Si0+  Si115  1  0.07462696  0.67724330  0.98138707  1
  Si0+  Si116  1  0.17609355  0.42628540  0.34761051  1
  Si0+  Si117  1  0.32006361  0.06967033  0.67921745  1
  Si0+  Si118  1  0.92679243  0.32510525  0.98151889  1
  Si0+  Si119  1  0.92867530  0.82005066  0.65006194  1
  O2-  O120  1  0.24989101  0.00073733  0.06455457  1
  O2-  O121  1  0.25427178  0.00631942  0.39631194  1
  O2-  O122  1  0.25125409  -0.00383851  0.72150317  1
  O2-  O123  1  0.24734415  0.49478280  0.06177742  1
  O2-  O124  1  0.24733476  0.49132905  0.39281571  1
  O2-  O125  1  0.25475921  0.49491654  0.73164364  1
  O2-  O126  1  0.74845368  0.00800010  0.05873830  1
  O2-  O127  1  0.74595619  -0.00684873  0.39364842  1
  O2-  O128  1  0.75210971  0.00732620  0.72832426  1
  O2-  O129  1  0.75890089  0.49353246  0.06591504  1
  O2-  O130  1  0.75688367  0.50394558  0.39382541  1
  O2-  O131  1  0.74489798  0.49653841  0.72584645  1
  O2-  O132  1  0.00519013  0.24699209  0.27225740  1
  O2-  O133  1  -0.00393683  0.25409777  0.60547344  1
  O2-  O134  1  -0.00228087  0.25839834  0.93788957  1
  O2-  O135  1  -0.00328635  0.74813537  0.27778762  1
  O2-  O136  1  -0.00016026  0.74928600  0.60776955  1
  O2-  O137  1  0.00131796  0.74207534  0.93820781  1
  O2-  O138  1  0.49761054  0.24888771  0.27763555  1
  O2-  O139  1  0.51066524  0.25005935  0.60348019  1
  O2-  O140  1  0.50013317  0.24888366  0.93676236  1
  O2-  O141  1  0.50575836  0.74740909  0.26953821  1
  O2-  O142  1  0.49523347  0.74706162  0.60341525  1
  O2-  O143  1  0.49893309  0.75251153  0.94434484  1
  O2-  O144  1  0.06462092  0.18005237  0.10039810  1
  O2-  O145  1  0.07037973  0.17566047  0.42082880  1
  O2-  O146  1  0.07027251  0.17608158  0.76271429  1
  O2-  O147  1  0.07638840  0.67972889  0.08740083  1
  O2-  O148  1  0.06959024  0.67933693  0.42435718  1
  O2-  O149  1  0.06996478  0.68037290  0.75733279  1
  O2-  O150  1  0.57298152  0.17721010  0.09890004  1
  O2-  O151  1  0.56930338  0.17976833  0.42559254  1
  O2-  O152  1  0.57059035  0.17385370  0.75397120  1
  O2-  O153  1  0.56823033  0.68215769  0.09279375  1
  O2-  O154  1  0.57486096  0.67763097  0.41899406  1
  O2-  O155  1  0.57498309  0.68309931  0.76589422  1
  O2-  O156  1  0.17545081  0.42787982  0.24214512  1
  O2-  O157  1  0.17863365  0.43027804  0.56628840  1
  O2-  O158  1  0.17810844  0.42725427  0.91238445  1
  O2-  O159  1  0.17809453  0.93254701  0.23577069  1
  O2-  O160  1  0.17489016  0.92930497  0.57657097  1
  O2-  O161  1  0.17912395  0.93078468  0.89916851  1
  O2-  O162  1  0.68122318  0.42712310  0.23592245  1
  O2-  O163  1  0.68107140  0.42413633  0.57822955  1
  O2-  O164  1  0.67975896  0.43328305  0.90010364  1
  O2-  O165  1  0.67571036  0.92697744  0.24502806  1
  O2-  O166  1  0.68324438  0.93372974  0.56500026  1
  O2-  O167  1  0.67813155  0.92644779  0.90104444  1
  O2-  O168  1  0.43355275  0.32403933  0.10075876  1
  O2-  O169  1  0.43006593  0.32110147  0.42419027  1
  O2-  O170  1  0.43076547  0.31850948  0.76404204  1
  O2-  O171  1  0.42686145  0.81801936  0.09286631  1
  O2-  O172  1  0.42964832  0.81838878  0.42995798  1
  O2-  O173  1  0.42753624  0.82478075  0.76729816  1
  O2-  O174  1  0.92677462  0.32148491  0.08757096  1
  O2-  O175  1  0.93025423  0.31959539  0.43336261  1
  O2-  O176  1  0.92830141  0.32170570  0.75665817  1
  O2-  O177  1  0.93070998  0.82004043  0.09999633  1
  O2-  O178  1  0.92914128  0.82060803  0.42545320  1
  O2-  O179  1  0.92854195  0.82052575  0.75499291  1
  O2-  O180  1  0.32407058  0.07426004  0.24636219  1
  O2-  O181  1  0.31945371  0.06923190  0.57375617  1
  O2-  O182  1  0.32011745  0.07186895  0.90053446  1
  O2-  O183  1  0.31883910  0.56956030  0.23561678  1
  O2-  O184  1  0.31750233  0.57209295  0.56868368  1
  O2-  O185  1  0.32198884  0.57160770  0.90146504  1
  O2-  O186  1  0.81892629  0.06771264  0.23313552  1
  O2-  O187  1  0.82451709  0.07065034  0.57921135  1
  O2-  O188  1  0.82410949  0.06570564  0.90749746  1
  O2-  O189  1  0.82367311  0.57432238  0.24385437  1
  O2-  O190  1  0.82185484  0.56901516  0.56561551  1
  O2-  O191  1  0.81733547  0.57473822  0.90331693  1
  O2-  O192  1  0.04103154  0.08225425  0.27183762  1
  O2-  O193  1  0.03798051  0.08285331  0.59384347  1
  O2-  O194  1  0.03567848  0.08612180  0.92997028  1
  O2-  O195  1  0.04786835  0.58799858  0.26856538  1
  O2-  O196  1  0.03995685  0.58599643  0.60592067  1
  O2-  O197  1  0.05501075  0.58179265  0.93671142  1
  O2-  O198  1  0.54585826  0.08707454  0.27301898  1
  O2-  O199  1  0.54312275  0.08637810  0.59940603  1
  O2-  O200  1  0.54125274  0.07732200  0.93312875  1
  O2-  O201  1  0.54319559  0.58329950  0.26940936  1
  O2-  O202  1  0.55213872  0.57982558  0.59822382  1
  O2-  O203  1  0.54257968  0.59028672  0.94026147  1
  O2-  O204  1  0.16709911  0.19741592  0.27072078  1
  O2-  O205  1  0.16601259  0.20626505  0.59070457  1
  O2-  O206  1  0.16593032  0.20879621  0.93274376  1
  O2-  O207  1  0.16104595  0.71206379  0.27173344  1
  O2-  O208  1  0.16038055  0.70637457  0.60301404  1
  O2-  O209  1  0.16617485  0.70841984  0.93398970  1
  O2-  O210  1  0.66207566  0.20904521  0.27450212  1
  O2-  O211  1  0.67104157  0.19737293  0.60676194  1
  O2-  O212  1  0.67118755  0.20039477  0.92914514  1
  O2-  O213  1  0.66753962  0.69981977  0.26756553  1
  O2-  O214  1  0.66848870  0.71408924  0.59522183  1
  O2-  O215  1  0.66175823  0.71069524  0.94201512  1
  O2-  O216  1  0.08433459  0.45218219  0.06417526  1
  O2-  O217  1  0.08281131  0.45505359  0.39304970  1
  O2-  O218  1  0.08356357  0.45535610  0.73626806  1
  O2-  O219  1  0.07868755  0.96130356  0.06447476  1
  O2-  O220  1  0.08458946  0.95920300  0.40595680  1
  O2-  O221  1  0.08520668  0.95987882  0.72776519  1
  O2-  O222  1  0.58678979  0.46309779  0.06995988  1
  O2-  O223  1  0.58645322  0.46154231  0.40444973  1
  O2-  O224  1  0.58279527  0.44953753  0.72679243  1
  O2-  O225  1  0.58121411  0.95678816  0.07082559  1
  O2-  O226  1  0.58233155  0.95446521  0.39581831  1
  O2-  O227  1  0.58215413  0.96087484  0.73166069  1
  O2-  O228  1  0.20073646  0.33294866  0.06458187  1
  O2-  O229  1  0.19776716  0.33046441  0.39146967  1
  O2-  O230  1  0.20613324  0.32472210  0.72703988  1
  O2-  O231  1  0.20315180  0.83227437  0.06744841  1
  O2-  O232  1  0.21107927  0.83499501  0.40327801  1
  O2-  O233  1  0.19770304  0.83513248  0.72853407  1
  O2-  O234  1  0.70526079  0.32679340  0.06387101  1
  O2-  O235  1  0.71130291  0.33385026  0.40579319  1
  O2-  O236  1  0.70285598  0.33189931  0.73022582  1
  O2-  O237  1  0.71189561  0.83635761  0.07251676  1
  O2-  O238  1  0.70108690  0.83134859  0.39462478  1
  O2-  O239  1  0.71306121  0.83679885  0.73233759  1
  O2-  O240  1  0.46030557  0.41483029  0.27480884  1
  O2-  O241  1  0.45889664  0.41723186  0.59567093  1
  O2-  O242  1  0.46381444  0.42139766  0.93394321  1
  O2-  O243  1  0.45642733  0.91795940  0.26371235  1
  O2-  O244  1  0.45761307  0.91924043  0.59756475  1
  O2-  O245  1  0.45120149  0.91435929  0.94373470  1
  O2-  O246  1  0.95558795  0.41623924  0.26300488  1
  O2-  O247  1  0.95456755  0.41719609  0.60600824  1
  O2-  O248  1  0.95088908  0.42100182  0.93965818  1
  O2-  O249  1  0.95982209  0.91306278  0.27420658  1
  O2-  O250  1  0.95743014  0.91152150  0.60191271  1
  O2-  O251  1  0.96028599  0.91269728  0.92764544  1
  O2-  O252  1  0.33587760  0.29915214  0.27235540  1
  O2-  O253  1  0.33790783  0.28478884  0.59367768  1
  O2-  O254  1  0.33097426  0.29925733  0.93447337  1
  O2-  O255  1  0.33169763  0.78653709  0.26509446  1
  O2-  O256  1  0.32573472  0.79672265  0.60121265  1
  O2-  O257  1  0.33460158  0.79193030  0.94113341  1
  O2-  O258  1  0.83238934  0.28410383  0.26804709  1
  O2-  O259  1  0.83431499  0.29702220  0.60505458  1
  O2-  O260  1  0.83430243  0.29998197  0.93384438  1
  O2-  O261  1  0.83548172  0.79764295  0.27287586  1
  O2-  O262  1  0.83813740  0.79206585  0.60087442  1
  O2-  O263  1  0.83100921  0.78787282  0.93398202  1
  O2-  O264  1  0.41772821  0.04612192  0.07052603  1
  O2-  O265  1  0.41725577  0.04647152  0.39780625  1
  O2-  O266  1  0.41242853  0.04526749  0.72652365  1
  O2-  O267  1  0.41710088  0.54083856  0.07098614  1
  O2-  O268  1  0.41653030  0.54231937  0.40302966  1
  O2-  O269  1  0.42384489  0.54691629  0.73024622  1
  O2-  O270  1  0.91234779  0.03781135  0.06121273  1
  O2-  O271  1  0.91426709  0.03880736  0.40411274  1
  O2-  O272  1  0.91712683  0.04135055  0.72937732  1
  O2-  O273  1  0.92595427  0.55545618  0.06500485  1
  O2-  O274  1  0.91966474  0.54857911  0.39232613  1
  O2-  O275  1  0.91512538  0.54232540  0.73719729  1
  O2-  O276  1  0.29211622  0.17218921  0.06755386  1
  O2-  O277  1  0.29951634  0.16866171  0.39661350  1
  O2-  O278  1  0.28870316  0.16050873  0.72476515  1
  O2-  O279  1  0.28731931  0.66484725  0.07036638  1
  O2-  O280  1  0.28432502  0.66435335  0.40276000  1
  O2-  O281  1  0.28944430  0.66902535  0.73475900  1
  O2-  O282  1  0.80366102  0.16679287  0.05583309  1
  O2-  O283  1  0.78709700  0.16281776  0.40500876  1
  O2-  O284  1  0.80535100  0.16744148  0.73007021  1
  O2-  O285  1  0.78865645  0.66755532  0.07261586  1
  O2-  O286  1  0.79836572  0.66690076  0.39539105  1
  O2-  O287  1  0.78990674  0.66791550  0.73162202  1
