# generated using pymatgen
data_Ca2Al2SiO7
_symmetry_space_group_name_H-M   'P 1'
_cell_length_a   15.46138094
_cell_length_b   15.46072271
_cell_length_c   15.28571112
_cell_angle_alpha   89.99582586
_cell_angle_beta   89.99963254
_cell_angle_gamma   90.00285927
_symmetry_Int_Tables_number   1
_chemical_formula_structural   Ca2Al2SiO7
_chemical_formula_sum   'Ca48 Al48 Si24 O168'
_cell_volume   3653.95939997
_cell_formula_units_Z   24
loop_
 _symmetry_equiv_pos_site_id
 _symmetry_equiv_pos_as_xyz
  1  'x, y, z'
loop_
 _atom_type_symbol
 _atom_type_oxidation_number
  Ca2+  2.0
  Al0+  0.0
  Si0+  0.0
  O2-  -2.0
loop_
 _atom_site_type_symbol
 _atom_site_label
 _atom_site_symmetry_multiplicity
 _atom_site_fract_x
 _atom_site_fract_y
 _atom_site_fract_z
 _atom_site_occupancy
  Ca2+  Ca0  1  0.16023625  0.08036389  0.16755097  1
  Ca2+  Ca1  1  0.16725322  0.08096139  0.50782203  1
  Ca2+  Ca2  1  0.16471707  0.07852869  0.83441267  1
  Ca2+  Ca3  1  0.17607628  0.58054865  0.17790138  1
  Ca2+  Ca4  1  0.16878428  0.58182159  0.49709438  1
  Ca2+  Ca5  1  0.17677335  0.57983745  0.84259182  1
  Ca2+  Ca6  1  0.67989545  0.08062410  0.17197890  1
  Ca2+  Ca7  1  0.67387631  0.08432762  0.49989750  1
  Ca2+  Ca8  1  0.67466089  0.07846004  0.84648369  1
  Ca2+  Ca9  1  0.66491181  0.57667894  0.17205078  1
  Ca2+  Ca10  1  0.66682613  0.58153975  0.49874165  1
  Ca2+  Ca11  1  0.66063646  0.58054850  0.83999383  1
  Ca2+  Ca12  1  0.08936194  0.32250922  0.16408910  1
  Ca2+  Ca13  1  0.08639255  0.32211076  0.49236178  1
  Ca2+  Ca14  1  0.07749557  0.31922944  0.82385060  1
  Ca2+  Ca15  1  0.08043824  0.83074227  0.16699343  1
  Ca2+  Ca16  1  0.08282485  0.82861596  0.48928175  1
  Ca2+  Ca17  1  0.08851026  0.83826485  0.83315654  1
  Ca2+  Ca18  1  0.58197733  0.34420706  0.16568221  1
  Ca2+  Ca19  1  0.57220695  0.33614160  0.49422324  1
  Ca2+  Ca20  1  0.57906563  0.33512463  0.82929427  1
  Ca2+  Ca21  1  0.57139751  0.82921475  0.15552901  1
  Ca2+  Ca22  1  0.57588682  0.82763987  0.49212093  1
  Ca2+  Ca23  1  0.58678055  0.82334042  0.83113913  1
  Ca2+  Ca24  1  0.33276273  0.42941549  0.17695436  1
  Ca2+  Ca25  1  0.33302086  0.41439682  0.49714148  1
  Ca2+  Ca26  1  0.33741925  0.42143772  0.83737418  1
  Ca2+  Ca27  1  0.33046640  0.90925827  0.16965065  1
  Ca2+  Ca28  1  0.32811386  0.92213772  0.50798714  1
  Ca2+  Ca29  1  0.32316438  0.91797571  0.83906481  1
  Ca2+  Ca30  1  0.81970382  0.42102264  0.17724050  1
  Ca2+  Ca31  1  0.83366232  0.41881624  0.50080552  1
  Ca2+  Ca32  1  0.82812499  0.41479921  0.83926109  1
  Ca2+  Ca33  1  0.83402959  0.92361443  0.17031290  1
  Ca2+  Ca34  1  0.84213261  0.92121830  0.49841830  1
  Ca2+  Ca35  1  0.82649253  0.92415565  0.84432088  1
  Ca2+  Ca36  1  0.41703383  0.17681088  0.16585760  1
  Ca2+  Ca37  1  0.40881156  0.17624005  0.49583033  1
  Ca2+  Ca38  1  0.41498774  0.17233469  0.82438670  1
  Ca2+  Ca39  1  0.41341642  0.67231070  0.15968541  1
  Ca2+  Ca40  1  0.41868431  0.67019265  0.49227762  1
  Ca2+  Ca41  1  0.42506100  0.66876240  0.83594392  1
  Ca2+  Ca42  1  0.92421603  0.15875244  0.16296519  1
  Ca2+  Ca43  1  0.92795814  0.16734484  0.49332957  1
  Ca2+  Ca44  1  0.92376053  0.16617793  0.82994335  1
  Ca2+  Ca45  1  0.91723643  0.66474952  0.17004126  1
  Ca2+  Ca46  1  0.92256866  0.67297164  0.48644460  1
  Ca2+  Ca47  1  0.91789949  0.67072919  0.82858336  1
  Al0+  Al48  1  0.00222908  -0.00046845  0.00161781  1
  Al0+  Al49  1  -0.00015746  -0.00057345  0.33038593  1
  Al0+  Al50  1  -0.00121733  -0.00010409  0.66858616  1
  Al0+  Al51  1  0.00003140  0.49884401  -0.00188947  1
  Al0+  Al52  1  -0.00017901  0.49746290  0.33630191  1
  Al0+  Al53  1  -0.00083076  0.50166856  0.66654655  1
  Al0+  Al54  1  0.49727043  0.00209637  -0.00123545  1
  Al0+  Al55  1  0.50029644  0.00086008  0.32960737  1
  Al0+  Al56  1  0.50075432  -0.00085578  0.67089177  1
  Al0+  Al57  1  0.49959516  0.50256329  0.00360883  1
  Al0+  Al58  1  0.49907070  0.50053876  0.33842278  1
  Al0+  Al59  1  0.50136130  0.50006974  0.65905164  1
  Al0+  Al60  1  0.24890028  0.24836536  -0.00720529  1
  Al0+  Al61  1  0.25170366  0.24990698  0.32555983  1
  Al0+  Al62  1  0.24978650  0.25060164  0.66419328  1
  Al0+  Al63  1  0.24971555  0.75126637  0.00248811  1
  Al0+  Al64  1  0.24952765  0.74921864  0.33141870  1
  Al0+  Al65  1  0.25126096  0.74918747  0.67196517  1
  Al0+  Al66  1  0.74978127  0.25172505  0.00838679  1
  Al0+  Al67  1  0.75041105  0.24739815  0.34398807  1
  Al0+  Al68  1  0.74891353  0.25154477  0.66481075  1
  Al0+  Al69  1  0.75022453  0.74978162  -0.00071811  1
  Al0+  Al70  1  0.74878667  0.75060399  0.33230235  1
  Al0+  Al71  1  0.75119399  0.74781888  0.66181933  1
  Al0+  Al72  1  0.31959362  0.57300377  0.35083852  1
  Al0+  Al73  1  0.67806594  0.42840944  0.35285142  1
  Al0+  Al74  1  0.57150844  0.67996356  0.65030018  1
  Al0+  Al75  1  0.82116998  0.57254263  0.34908667  1
  Al0+  Al76  1  0.42881032  0.82250279  0.32089484  1
  Al0+  Al77  1  0.42992611  0.31962371  0.65320600  1
  Al0+  Al78  1  0.82080921  0.07031345  0.01513177  1
  Al0+  Al79  1  0.82279304  0.06806748  0.35009345  1
  Al0+  Al80  1  0.18129794  0.93089621  0.01685294  1
  Al0+  Al81  1  0.17959552  0.42543894  0.34752981  1
  Al0+  Al82  1  0.06865152  0.17850464  0.65016879  1
  Al0+  Al83  1  0.43156865  0.32110873  0.31765609  1
  Al0+  Al84  1  0.67975001  0.43137050  0.01197915  1
  Al0+  Al85  1  0.92796542  0.82114451  0.31697368  1
  Al0+  Al86  1  0.57105538  0.67978700  0.98596058  1
  Al0+  Al87  1  0.06990231  0.17823378  0.98338462  1
  Al0+  Al88  1  0.42579947  0.82414729  0.98217781  1
  Al0+  Al89  1  0.32165552  0.07350137  0.68104807  1
  Al0+  Al90  1  0.67580934  0.92642591  0.01463824  1
  Al0+  Al91  1  0.31908429  0.56913994  0.01246913  1
  Al0+  Al92  1  0.17815028  0.92807945  0.68112342  1
  Al0+  Al93  1  0.92675961  0.32330219  0.65092052  1
  Al0+  Al94  1  0.07079242  0.67579342  0.31820139  1
  Al0+  Al95  1  0.07089029  0.17997925  0.31780768  1
  Si0+  Si96  1  0.32288803  0.56985136  0.68270385  1
  Si0+  Si97  1  0.81898874  0.07131772  0.68194367  1
  Si0+  Si98  1  0.43084866  0.32152810  0.98559739  1
  Si0+  Si99  1  0.82593198  0.57326049  0.01511537  1
  Si0+  Si100  1  0.67567354  0.92910232  0.35028005  1
  Si0+  Si101  1  0.18018437  0.93028446  0.34651455  1
  Si0+  Si102  1  0.32255535  0.07109446  0.34542675  1
  Si0+  Si103  1  0.57087778  0.67852414  0.31642763  1
  Si0+  Si104  1  0.07360733  0.67909458  0.65421913  1
  Si0+  Si105  1  0.92611004  0.32249948  0.98530291  1
  Si0+  Si106  1  0.07103776  0.67747479  0.98454992  1
  Si0+  Si107  1  0.57415214  0.17789598  0.31645699  1
  Si0+  Si108  1  0.68024398  0.92598668  0.67983331  1
  Si0+  Si109  1  0.57312856  0.17469136  0.65139018  1
  Si0+  Si110  1  0.17768508  0.42988955  0.68206604  1
  Si0+  Si111  1  0.17694947  0.42594125  0.01353896  1
  Si0+  Si112  1  0.93025679  0.82012640  0.98423980  1
  Si0+  Si113  1  0.82135827  0.57203264  0.68283783  1
  Si0+  Si114  1  0.42771682  0.82190258  0.65102601  1
  Si0+  Si115  1  0.32246173  0.07622570  0.01809665  1
  Si0+  Si116  1  0.67866664  0.43089637  0.68227076  1
  Si0+  Si117  1  0.92961671  0.81951409  0.65393289  1
  Si0+  Si118  1  0.92533398  0.32083528  0.31666423  1
  Si0+  Si119  1  0.57291804  0.18035836  0.98720355  1
  O2-  O120  1  0.25806437  0.00399562  0.06277220  1
  O2-  O121  1  0.25262439  -0.00045274  0.38813774  1
  O2-  O122  1  0.25014485  0.00071820  0.73079820  1
  O2-  O123  1  0.24339289  0.49540819  0.05805863  1
  O2-  O124  1  0.24787922  0.49998575  0.40028364  1
  O2-  O125  1  0.25046865  0.49949405  0.72465428  1
  O2-  O126  1  0.74739823  -0.00107541  0.06424760  1
  O2-  O127  1  0.74790689  -0.00700982  0.39702362  1
  O2-  O128  1  0.74573373  0.00190865  0.72304217  1
  O2-  O129  1  0.75564906  0.50549858  0.05669867  1
  O2-  O130  1  0.75138724  0.49989050  0.40219986  1
  O2-  O131  1  0.75234872  0.49907192  0.72517365  1
  O2-  O132  1  -0.00393517  0.25517028  0.27119302  1
  O2-  O133  1  -0.00128522  0.25224415  0.59987342  1
  O2-  O134  1  -0.00509714  0.25464154  0.94003558  1
  O2-  O135  1  -0.00361134  0.74528537  0.26762016  1
  O2-  O136  1  0.00601727  0.75378471  0.61364295  1
  O2-  O137  1  -0.00172149  0.74630630  0.94077855  1
  O2-  O138  1  0.51044143  0.25063755  0.27107078  1
  O2-  O139  1  0.50004580  0.23908875  0.60831572  1
  O2-  O140  1  0.50034650  0.24906298  0.94308593  1
  O2-  O141  1  0.50246638  0.74741078  0.27362249  1
  O2-  O142  1  0.49697685  0.75520691  0.60508328  1
  O2-  O143  1  0.50325291  0.75576228  0.93443824  1
  O2-  O144  1  0.07045995  0.18006405  0.09630335  1
  O2-  O145  1  0.07132941  0.17802906  0.43078184  1
  O2-  O146  1  0.06535361  0.17813476  0.76392761  1
  O2-  O147  1  0.06961862  0.67576850  0.08879962  1
  O2-  O148  1  0.07273625  0.68207186  0.43267342  1
  O2-  O149  1  0.07139553  0.67663768  0.75970660  1
  O2-  O150  1  0.57308666  0.18232060  0.09193577  1
  O2-  O151  1  0.57007455  0.17448511  0.42219313  1
  O2-  O152  1  0.57702039  0.17790769  0.75726173  1
  O2-  O153  1  0.56853040  0.67685751  0.09883784  1
  O2-  O154  1  0.57024603  0.68142679  0.42266219  1
  O2-  O155  1  0.57210434  0.67944770  0.76324910  1
  O2-  O156  1  0.18463394  0.42448081  0.23360299  1
  O2-  O157  1  0.17670324  0.43152113  0.57754552  1
  O2-  O158  1  0.17751066  0.42836959  0.90729220  1
  O2-  O159  1  0.17992598  0.93127181  0.24154616  1
  O2-  O160  1  0.17914417  0.92528063  0.56735125  1
  O2-  O161  1  0.17981873  0.93219411  0.90369989  1
  O2-  O162  1  0.67849836  0.43083605  0.23893531  1
  O2-  O163  1  0.67785821  0.43253795  0.57808858  1
  O2-  O164  1  0.67989661  0.43046994  0.89813178  1
  O2-  O165  1  0.67357250  0.93372537  0.24538931  1
  O2-  O166  1  0.68221919  0.92578750  0.57483824  1
  O2-  O167  1  0.68164307  0.92837268  0.89982186  1
  O2-  O168  1  0.43105216  0.32123922  0.09034533  1
  O2-  O169  1  0.43024157  0.31633495  0.43072716  1
  O2-  O170  1  0.43466406  0.32306156  0.76704238  1
  O2-  O171  1  0.42506821  0.81894630  0.09572941  1
  O2-  O172  1  0.43083238  0.82432130  0.43459869  1
  O2-  O173  1  0.42802707  0.82001838  0.75604249  1
  O2-  O174  1  0.92672009  0.32470392  0.09034376  1
  O2-  O175  1  0.92596615  0.31710301  0.42230707  1
  O2-  O176  1  0.92676498  0.32177928  0.76518165  1
  O2-  O177  1  0.93128779  0.82005140  0.08861113  1
  O2-  O178  1  0.93384361  0.82307708  0.43148539  1
  O2-  O179  1  0.92568615  0.81661318  0.75918901  1
  O2-  O180  1  0.32328815  0.07102027  0.24048922  1
  O2-  O181  1  0.32142645  0.07108636  0.56691901  1
  O2-  O182  1  0.32030007  0.08019714  0.91270751  1
  O2-  O183  1  0.31924307  0.57238839  0.23722477  1
  O2-  O184  1  0.32124540  0.57243980  0.57823414  1
  O2-  O185  1  0.31961453  0.56542428  0.89832064  1
  O2-  O186  1  0.82212713  0.06747801  0.23739579  1
  O2-  O187  1  0.82024783  0.06887517  0.57711333  1
  O2-  O188  1  0.81889018  0.06987635  0.90050847  1
  O2-  O189  1  0.81800926  0.57082244  0.23511287  1
  O2-  O190  1  0.82140654  0.57505002  0.57872307  1
  O2-  O191  1  0.82897554  0.57184271  0.90896515  1
  O2-  O192  1  0.03773073  0.08413736  0.26447438  1
  O2-  O193  1  0.03876480  0.07933261  0.59909655  1
  O2-  O194  1  0.03728416  0.08172443  0.93024218  1
  O2-  O195  1  0.04693620  0.57543223  0.26715084  1
  O2-  O196  1  0.04291804  0.58919311  0.60600718  1
  O2-  O197  1  0.04599601  0.58487249  0.93507276  1
  O2-  O198  1  0.54434970  0.08702213  0.26749065  1
  O2-  O199  1  0.55430190  0.07876124  0.60699224  1
  O2-  O200  1  0.54879502  0.08822991  0.93854339  1
  O2-  O201  1  0.54539902  0.58409183  0.27384586  1
  O2-  O202  1  0.54016715  0.58489993  0.59536537  1
  O2-  O203  1  0.53617347  0.58278641  0.93120798  1
  O2-  O204  1  0.16664601  0.20918323  0.26141063  1
  O2-  O205  1  0.16818172  0.20545548  0.59996705  1
  O2-  O206  1  0.16589884  0.20876988  0.92688164  1
  O2-  O207  1  0.16716117  0.70871395  0.26456491  1
  O2-  O208  1  0.16675779  0.70341432  0.60814714  1
  O2-  O209  1  0.16138714  0.70843350  0.93657160  1
  O2-  O210  1  0.67039734  0.19936215  0.27500126  1
  O2-  O211  1  0.66442355  0.20448469  0.60304754  1
  O2-  O212  1  0.66434215  0.21050637  0.93933954  1
  O2-  O213  1  0.66484708  0.70150649  0.27105000  1
  O2-  O214  1  0.66793996  0.71067462  0.59576918  1
  O2-  O215  1  0.67176824  0.70246632  0.93200768  1
  O2-  O216  1  0.08223735  0.44848270  0.05822650  1
  O2-  O217  1  0.07955343  0.44667428  0.39968897  1
  O2-  O218  1  0.08663948  0.45979618  0.73087286  1
  O2-  O219  1  0.08542286  0.96288965  0.07045434  1
  O2-  O220  1  0.08919205  0.95942810  0.39392705  1
  O2-  O221  1  0.07879538  0.95512975  0.73464691  1
  O2-  O222  1  0.58470669  0.46311274  0.06738274  1
  O2-  O223  1  0.58060179  0.45889657  0.40598619  1
  O2-  O224  1  0.58742053  0.46236689  0.72929519  1
  O2-  O225  1  0.57564721  0.95306497  0.06349921  1
  O2-  O226  1  0.58393331  0.96014121  0.39885224  1
  O2-  O227  1  0.58670317  0.94606742  0.72696589  1
  O2-  O228  1  0.20405524  0.33200649  0.05671072  1
  O2-  O229  1  0.21498085  0.32815538  0.39988361  1
  O2-  O230  1  0.20500747  0.33783976  0.72886121  1
  O2-  O231  1  0.20823835  0.83326578  0.06994549  1
  O2-  O232  1  0.20630761  0.83824087  0.39362012  1
  O2-  O233  1  0.20634635  0.82961219  0.73662417  1
  O2-  O234  1  0.70707458  0.33629732  0.07000421  1
  O2-  O235  1  0.70226988  0.32904233  0.40558635  1
  O2-  O236  1  0.70282285  0.33718454  0.72907052  1
  O2-  O237  1  0.70436010  0.82790870  0.06618988  1
  O2-  O238  1  0.69621277  0.83363028  0.39400532  1
  O2-  O239  1  0.71483494  0.83605414  0.72719652  1
  O2-  O240  1  0.46000077  0.41974028  0.26688002  1
  O2-  O241  1  0.46463846  0.41318519  0.59692621  1
  O2-  O242  1  0.46123360  0.41238259  0.93814789  1
  O2-  O243  1  0.45849922  0.91861324  0.26503072  1
  O2-  O244  1  0.45196131  0.91691342  0.60666478  1
  O2-  O245  1  0.44564029  0.92619123  0.93251091  1
  O2-  O246  1  0.94541973  0.41621455  0.27302801  1
  O2-  O247  1  0.95261346  0.42376283  0.60130634  1
  O2-  O248  1  0.94985163  0.41633794  0.93667480  1
  O2-  O249  1  0.96203856  0.91655881  0.26254150  1
  O2-  O250  1  0.95190215  0.91307543  0.60838531  1
  O2-  O251  1  0.96172175  0.91038951  0.93595137  1
  O2-  O252  1  0.33851220  0.28628035  0.26016422  1
  O2-  O253  1  0.33237683  0.29435318  0.59918718  1
  O2-  O254  1  0.33894077  0.29548254  0.93683629  1
  O2-  O255  1  0.33255577  0.79244019  0.26737778  1
  O2-  O256  1  0.33394638  0.79403506  0.60603336  1
  O2-  O257  1  0.32866121  0.78927114  0.92948521  1
  O2-  O258  1  0.83100767  0.29202601  0.27376479  1
  O2-  O259  1  0.82732475  0.29717940  0.59952067  1
  O2-  O260  1  0.83195879  0.29610563  0.93977542  1
  O2-  O261  1  0.82729477  0.79870385  0.26633585  1
  O2-  O262  1  0.84145972  0.78739478  0.60266689  1
  O2-  O263  1  0.83801792  0.79498645  0.93538724  1
  O2-  O264  1  0.41828464  0.05803724  0.06215588  1
  O2-  O265  1  0.41459868  0.04523253  0.39372073  1
  O2-  O266  1  0.42217345  0.04949599  0.73387766  1
  O2-  O267  1  0.41361100  0.53777890  0.06804657  1
  O2-  O268  1  0.41739586  0.54473103  0.40387205  1
  O2-  O269  1  0.41461328  0.53782055  0.72774817  1
  O2-  O270  1  0.91790415  0.03821716  0.06650161  1
  O2-  O271  1  0.91879713  0.03413870  0.40418459  1
  O2-  O272  1  0.90936043  0.04125517  0.73056106  1
  O2-  O273  1  0.91913774  0.54709924  0.06196369  1
  O2-  O274  1  0.92063793  0.54729946  0.40177703  1
  O2-  O275  1  0.91392971  0.54753516  0.73180574  1
  O2-  O276  1  0.29178622  0.16892315  0.06413463  1
  O2-  O277  1  0.29248155  0.16230948  0.39150360  1
  O2-  O278  1  0.29435963  0.17271212  0.73399816  1
  O2-  O279  1  0.28824174  0.66515799  0.06514264  1
  O2-  O280  1  0.28945915  0.67117309  0.40457512  1
  O2-  O281  1  0.29595138  0.66100030  0.73213726  1
  O2-  O282  1  0.79412230  0.16809560  0.06925615  1
  O2-  O283  1  0.79198417  0.16248775  0.40783880  1
  O2-  O284  1  0.79206186  0.16407522  0.72817017  1
  O2-  O285  1  0.80319398  0.66751784  0.05936869  1
  O2-  O286  1  0.79343142  0.67232474  0.40152221  1
  O2-  O287  1  0.79103015  0.66329490  0.73116801  1
