# generated using pymatgen
data_Ca2Al2SiO7
_symmetry_space_group_name_H-M   'P 1'
_cell_length_a   15.47011246
_cell_length_b   15.46757687
_cell_length_c   15.29119493
_cell_angle_alpha   90.00504048
_cell_angle_beta   89.97714183
_cell_angle_gamma   89.98132017
_symmetry_Int_Tables_number   1
_chemical_formula_structural   Ca2Al2SiO7
_chemical_formula_sum   'Ca48 Al48 Si24 O168'
_cell_volume   3658.95542908
_cell_formula_units_Z   24
loop_
 _symmetry_equiv_pos_site_id
 _symmetry_equiv_pos_as_xyz
  1  'x, y, z'
loop_
 _atom_type_symbol
 _atom_type_oxidation_number
  Ca2+  2.0
  Al0+  0.0
  Si0+  0.0
  O2-  -2.0
loop_
 _atom_site_type_symbol
 _atom_site_label
 _atom_site_symmetry_multiplicity
 _atom_site_fract_x
 _atom_site_fract_y
 _atom_site_fract_z
 _atom_site_occupancy
  Ca2+  Ca0  1  0.17620702  0.08639838  0.16702766  1
  Ca2+  Ca1  1  0.17648717  0.08159164  0.50575194  1
  Ca2+  Ca2  1  0.18124006  0.08547275  0.83786735  1
  Ca2+  Ca3  1  0.16832693  0.58359817  0.17338840  1
  Ca2+  Ca4  1  0.17102953  0.57959675  0.50848141  1
  Ca2+  Ca5  1  0.17262456  0.57784964  0.83055470  1
  Ca2+  Ca6  1  0.67466608  0.08220581  0.17692385  1
  Ca2+  Ca7  1  0.67001366  0.08649046  0.49915103  1
  Ca2+  Ca8  1  0.67377177  0.09089298  0.83463922  1
  Ca2+  Ca9  1  0.65393901  0.57449584  0.17161354  1
  Ca2+  Ca10  1  0.65848671  0.57631159  0.49737163  1
  Ca2+  Ca11  1  0.66388462  0.57597977  0.84314023  1
  Ca2+  Ca12  1  0.06846249  0.33148192  0.16299280  1
  Ca2+  Ca13  1  0.07356767  0.33757189  0.49672974  1
  Ca2+  Ca14  1  0.07193161  0.33542434  0.82722769  1
  Ca2+  Ca15  1  0.07897972  0.83165438  0.17065390  1
  Ca2+  Ca16  1  0.07871038  0.82709888  0.48919577  1
  Ca2+  Ca17  1  0.08287861  0.83377284  0.83094835  1
  Ca2+  Ca18  1  0.58048487  0.33370016  0.16556235  1
  Ca2+  Ca19  1  0.58167544  0.32220025  0.49122633  1
  Ca2+  Ca20  1  0.57994642  0.32907855  0.83281783  1
  Ca2+  Ca21  1  0.58097057  0.83154432  0.16328687  1
  Ca2+  Ca22  1  0.57382746  0.83041100  0.48887871  1
  Ca2+  Ca23  1  0.57534407  0.83085159  0.83024205  1
  Ca2+  Ca24  1  0.33929346  0.41520507  0.17442771  1
  Ca2+  Ca25  1  0.32866539  0.42163511  0.50817061  1
  Ca2+  Ca26  1  0.33374028  0.41951653  0.83904368  1
  Ca2+  Ca27  1  0.34305027  0.91803776  0.16813819  1
  Ca2+  Ca28  1  0.33896973  0.91730511  0.50621092  1
  Ca2+  Ca29  1  0.34483095  0.92500407  0.83500351  1
  Ca2+  Ca30  1  0.82168849  0.41100087  0.17269392  1
  Ca2+  Ca31  1  0.83008790  0.40965837  0.49940034  1
  Ca2+  Ca32  1  0.82748042  0.41098152  0.84054482  1
  Ca2+  Ca33  1  0.82798992  0.92649112  0.18059820  1
  Ca2+  Ca34  1  0.82925205  0.92400361  0.50211355  1
  Ca2+  Ca35  1  0.83229824  0.93220382  0.84155849  1
  Ca2+  Ca36  1  0.42278117  0.17490673  0.16191815  1
  Ca2+  Ca37  1  0.42742655  0.16673833  0.49383736  1
  Ca2+  Ca38  1  0.41889880  0.16646715  0.82647792  1
  Ca2+  Ca39  1  0.43069321  0.67686447  0.16379002  1
  Ca2+  Ca40  1  0.41577281  0.67504279  0.49306546  1
  Ca2+  Ca41  1  0.41800543  0.67471077  0.82992297  1
  Ca2+  Ca42  1  0.90337292  0.17463625  0.16486139  1
  Ca2+  Ca43  1  0.90858857  0.17320974  0.49661646  1
  Ca2+  Ca44  1  0.90805168  0.17531211  0.82812656  1
  Ca2+  Ca45  1  0.91831762  0.66983336  0.16917004  1
  Ca2+  Ca46  1  0.92574736  0.67245998  0.48876871  1
  Ca2+  Ca47  1  0.91759520  0.66779482  0.82889036  1
  Al0+  Al48  1  0.00318507  0.00088417  0.00441859  1
  Al0+  Al49  1  0.00386617  0.00097639  0.33474927  1
  Al0+  Al50  1  -0.00089117  0.00215389  0.67132726  1
  Al0+  Al51  1  -0.00000098  0.49985793  -0.00408537  1
  Al0+  Al52  1  0.00003021  0.49815494  0.32570111  1
  Al0+  Al53  1  -0.00172236  0.50051592  0.66664914  1
  Al0+  Al54  1  0.50180295  0.00036215  0.00118292  1
  Al0+  Al55  1  0.50224447  0.00195626  0.32988731  1
  Al0+  Al56  1  0.50129644  -0.00204258  0.66248006  1
  Al0+  Al57  1  0.49911772  0.49981025  -0.00332977  1
  Al0+  Al58  1  0.49800791  0.50158815  0.33554947  1
  Al0+  Al59  1  0.49969687  0.49997937  0.67240728  1
  Al0+  Al60  1  0.24852500  0.24977326  0.00125819  1
  Al0+  Al61  1  0.24798879  0.25111803  0.33296717  1
  Al0+  Al62  1  0.24650903  0.24920771  0.67424782  1
  Al0+  Al63  1  0.24902660  0.74939687  -0.00354778  1
  Al0+  Al64  1  0.25068129  0.75028421  0.32585619  1
  Al0+  Al65  1  0.24933082  0.74877026  0.66820388  1
  Al0+  Al66  1  0.74864125  0.25216407  0.00381211  1
  Al0+  Al67  1  0.74914600  0.25123152  0.33477593  1
  Al0+  Al68  1  0.74896714  0.25010953  0.66257393  1
  Al0+  Al69  1  0.75255211  0.74934755  -0.00524225  1
  Al0+  Al70  1  0.75116734  0.74898164  0.33136559  1
  Al0+  Al71  1  0.74875667  0.74912796  0.66654918  1
  Al0+  Al72  1  0.57255215  0.67769091  0.32055214  1
  Al0+  Al73  1  0.67849304  0.43218378  0.01411172  1
  Al0+  Al74  1  0.42938252  0.82203467  0.98255552  1
  Al0+  Al75  1  0.42680402  0.32020118  0.98565446  1
  Al0+  Al76  1  0.81913598  0.07080745  0.68158996  1
  Al0+  Al77  1  0.32293036  0.06906207  0.67801904  1
  Al0+  Al78  1  0.42983391  0.82296463  0.31782332  1
  Al0+  Al79  1  0.92878446  0.82359667  0.31991895  1
  Al0+  Al80  1  0.67782357  0.92658771  0.34886028  1
  Al0+  Al81  1  0.92957455  0.31813181  0.31922277  1
  Al0+  Al82  1  0.32281587  0.07084397  0.01500442  1
  Al0+  Al83  1  0.57278553  0.67854777  0.98324611  1
  Al0+  Al84  1  0.82266766  0.07160637  0.35048173  1
  Al0+  Al85  1  0.57177973  0.18023510  0.31665745  1
  Al0+  Al86  1  0.92994461  0.32046722  0.65186828  1
  Al0+  Al87  1  0.67763475  0.43139686  0.34864526  1
  Al0+  Al88  1  0.82106872  0.07147964  0.01428940  1
  Al0+  Al89  1  0.32147669  0.57112926  0.68322112  1
  Al0+  Al90  1  0.56938383  0.18021475  0.65323843  1
  Al0+  Al91  1  0.42694893  0.32101297  0.32230497  1
  Al0+  Al92  1  0.92845768  0.31841427  0.98567950  1
  Al0+  Al93  1  0.17596570  0.42865936  0.68234175  1
  Al0+  Al94  1  0.07147539  0.67818549  0.31853533  1
  Al0+  Al95  1  0.42980655  0.81813743  0.65228961  1
  Si0+  Si96  1  0.93090138  0.82293708  0.98451506  1
  Si0+  Si97  1  0.57135297  0.17937782  0.98377645  1
  Si0+  Si98  1  0.17722380  0.42952029  0.01686353  1
  Si0+  Si99  1  0.31892939  0.57054118  0.01670719  1
  Si0+  Si100  1  0.32079079  0.07243649  0.34740155  1
  Si0+  Si101  1  0.07480365  0.17708783  0.31656531  1
  Si0+  Si102  1  0.68024454  0.42890332  0.68143474  1
  Si0+  Si103  1  0.17872065  0.92592567  0.01878003  1
  Si0+  Si104  1  0.57362933  0.67493572  0.64926781  1
  Si0+  Si105  1  0.07066126  0.67826085  0.98167147  1
  Si0+  Si106  1  0.17710990  0.42907096  0.34717025  1
  Si0+  Si107  1  0.18180273  0.92769200  0.34796895  1
  Si0+  Si108  1  0.31884758  0.57155304  0.34698238  1
  Si0+  Si109  1  0.82478506  0.57353781  0.01646419  1
  Si0+  Si110  1  0.06849325  0.68076052  0.65309381  1
  Si0+  Si111  1  0.92800719  0.82373539  0.65401659  1
  Si0+  Si112  1  0.67851799  0.92527305  0.68438979  1
  Si0+  Si113  1  0.82552259  0.57052917  0.34945405  1
  Si0+  Si114  1  0.82053025  0.57258021  0.68030959  1
  Si0+  Si115  1  0.07272241  0.17698726  0.98202712  1
  Si0+  Si116  1  0.68068126  0.92607071  0.01529237  1
  Si0+  Si117  1  0.07318205  0.17622564  0.65038562  1
  Si0+  Si118  1  0.17705085  0.92756586  0.68247101  1
  Si0+  Si119  1  0.42477859  0.32287852  0.65276629  1
  O2-  O120  1  0.25036310  -0.00735764  0.06104886  1
  O2-  O121  1  0.25375637  -0.00258686  0.39005842  1
  O2-  O122  1  0.24693756  -0.00476342  0.72562205  1
  O2-  O123  1  0.25062854  0.49722037  0.06046666  1
  O2-  O124  1  0.24841464  0.49959187  0.38909522  1
  O2-  O125  1  0.25395283  0.49406221  0.73333745  1
  O2-  O126  1  0.74962708  -0.00606426  0.05961375  1
  O2-  O127  1  0.75144501  -0.00239079  0.39908666  1
  O2-  O128  1  0.74709113  -0.00599271  0.72916011  1
  O2-  O129  1  0.75260922  0.50885502  0.05961977  1
  O2-  O130  1  0.75321239  0.50640132  0.39510216  1
  O2-  O131  1  0.74824369  0.50348120  0.72277032  1
  O2-  O132  1  0.00001602  0.23914967  0.27305206  1
  O2-  O133  1  0.00592503  0.24621524  0.60630514  1
  O2-  O134  1  0.00079124  0.24211999  0.93772468  1
  O2-  O135  1  -0.00177814  0.74903740  0.26884135  1
  O2-  O136  1  -0.00052384  0.75349400  0.61138805  1
  O2-  O137  1  -0.00023072  0.75017352  0.94035455  1
  O2-  O138  1  0.49883816  0.25195145  0.26854224  1
  O2-  O139  1  0.49073755  0.25245216  0.60841990  1
  O2-  O140  1  0.49830072  0.24298876  0.93851768  1
  O2-  O141  1  0.50759616  0.75591475  0.27056081  1
  O2-  O142  1  0.50329600  0.74211185  0.60654034  1
  O2-  O143  1  0.50190167  0.75083264  0.93221879  1
  O2-  O144  1  0.07544945  0.17951655  0.08752197  1
  O2-  O145  1  0.08125345  0.18052604  0.42190895  1
  O2-  O146  1  0.07216943  0.17405049  0.75578132  1
  O2-  O147  1  0.07116568  0.67688605  0.08629516  1
  O2-  O148  1  0.07221777  0.67931679  0.43265042  1
  O2-  O149  1  0.06622035  0.68137405  0.75855940  1
  O2-  O150  1  0.57144975  0.18151168  0.08883648  1
  O2-  O151  1  0.56908899  0.18101300  0.43065204  1
  O2-  O152  1  0.57078541  0.18322004  0.76671497  1
  O2-  O153  1  0.57074826  0.67900205  0.09624551  1
  O2-  O154  1  0.56492729  0.67515175  0.43429761  1
  O2-  O155  1  0.57658762  0.67605001  0.75461053  1
  O2-  O156  1  0.17721557  0.42941267  0.24195298  1
  O2-  O157  1  0.17410674  0.43385665  0.56844372  1
  O2-  O158  1  0.17567052  0.43297810  0.91197018  1
  O2-  O159  1  0.18086659  0.92778292  0.24312444  1
  O2-  O160  1  0.17514036  0.92710239  0.57689081  1
  O2-  O161  1  0.17440523  0.92662823  0.91311926  1
  O2-  O162  1  0.67809298  0.43231279  0.23574790  1
  O2-  O163  1  0.68051334  0.42946737  0.57655206  1
  O2-  O164  1  0.68187693  0.43053671  0.90019183  1
  O2-  O165  1  0.67949213  0.92881111  0.23493250  1
  O2-  O166  1  0.68132406  0.92153950  0.57949759  1
  O2-  O167  1  0.68301414  0.92625609  0.90929198  1
  O2-  O168  1  0.42728829  0.32075658  0.09827089  1
  O2-  O169  1  0.42367735  0.31850683  0.43612253  1
  O2-  O170  1  0.42807870  0.32272253  0.75850275  1
  O2-  O171  1  0.42963676  0.81989579  0.09560156  1
  O2-  O172  1  0.42481756  0.81873115  0.43151828  1
  O2-  O173  1  0.43184207  0.81851199  0.76508235  1
  O2-  O174  1  0.93008227  0.31900297  0.09835914  1
  O2-  O175  1  0.93316504  0.32044233  0.43240176  1
  O2-  O176  1  0.92871935  0.31979545  0.76511520  1
  O2-  O177  1  0.93255742  0.82206599  0.08893304  1
  O2-  O178  1  0.93422247  0.82208498  0.43422016  1
  O2-  O179  1  0.92997645  0.82157722  0.75957621  1
  O2-  O180  1  0.31642111  0.07442009  0.24248891  1
  O2-  O181  1  0.32058777  0.06768674  0.56473026  1
  O2-  O182  1  0.32045000  0.07054325  0.90164847  1
  O2-  O183  1  0.31700818  0.57068341  0.24175249  1
  O2-  O184  1  0.31772452  0.57273063  0.56932286  1
  O2-  O185  1  0.31552036  0.57022775  0.91164079  1
  O2-  O186  1  0.82104729  0.07069131  0.23670377  1
  O2-  O187  1  0.82045105  0.06942645  0.56935887  1
  O2-  O188  1  0.81901278  0.07135564  0.90064700  1
  O2-  O189  1  0.83039535  0.56627372  0.24418736  1
  O2-  O190  1  0.82285280  0.57481164  0.57581910  1
  O2-  O191  1  0.82699900  0.57217770  0.91021889  1
  O2-  O192  1  0.05839049  0.08122403  0.27256016  1
  O2-  O193  1  0.04718192  0.08232259  0.60436868  1
  O2-  O194  1  0.05274861  0.08102451  0.93848439  1
  O2-  O195  1  0.04437781  0.58113053  0.26291354  1
  O2-  O196  1  0.03830457  0.59046274  0.60513711  1
  O2-  O197  1  0.04147211  0.58782479  0.93220332  1
  O2-  O198  1  0.54522379  0.08261613  0.26320949  1
  O2-  O199  1  0.54255252  0.08289482  0.59951913  1
  O2-  O200  1  0.55212954  0.08394412  0.93919667  1
  O2-  O201  1  0.53437450  0.58334128  0.26607768  1
  O2-  O202  1  0.54915215  0.57963200  0.60636157  1
  O2-  O203  1  0.54135317  0.58132472  0.92987237  1
  O2-  O204  1  0.16400875  0.21029722  0.26594669  1
  O2-  O205  1  0.16770624  0.19998060  0.60464446  1
  O2-  O206  1  0.16428003  0.20697060  0.93444306  1
  O2-  O207  1  0.16676721  0.70941497  0.26170941  1
  O2-  O208  1  0.16057241  0.70630481  0.60616885  1
  O2-  O209  1  0.16125102  0.70695242  0.93260599  1
  O2-  O210  1  0.66933679  0.21019391  0.26514399  1
  O2-  O211  1  0.66307325  0.21546058  0.59738876  1
  O2-  O212  1  0.66257244  0.21223035  0.93692413  1
  O2-  O213  1  0.67454210  0.69180932  0.27095968  1
  O2-  O214  1  0.66755229  0.69996427  0.60311822  1
  O2-  O215  1  0.67331874  0.70217717  0.93002171  1
  O2-  O216  1  0.08619949  0.46227223  0.06358589  1
  O2-  O217  1  0.08570367  0.45860316  0.39415514  1
  O2-  O218  1  0.08016007  0.46591784  0.73691864  1
  O2-  O219  1  0.08719107  0.95444297  0.06790973  1
  O2-  O220  1  0.09124555  0.95530011  0.39819685  1
  O2-  O221  1  0.08444370  0.95346812  0.73138872  1
  O2-  O222  1  0.58063454  0.46129007  0.06660429  1
  O2-  O223  1  0.58145459  0.46287744  0.40456645  1
  O2-  O224  1  0.58774432  0.45234738  0.73000468  1
  O2-  O225  1  0.58687617  0.95074307  0.06008053  1
  O2-  O226  1  0.57901040  0.95717388  0.40114007  1
  O2-  O227  1  0.58514655  0.95250380  0.72892071  1
  O2-  O228  1  0.19954776  0.33606638  0.06243150  1
  O2-  O229  1  0.20323275  0.33747334  0.39600266  1
  O2-  O230  1  0.19294641  0.32803037  0.73481396  1
  O2-  O231  1  0.20087112  0.83051225  0.06266937  1
  O2-  O232  1  0.20835653  0.83488601  0.39472946  1
  O2-  O233  1  0.20023542  0.83374824  0.72906988  1
  O2-  O234  1  0.71125019  0.33725954  0.06900893  1
  O2-  O235  1  0.71049872  0.33585006  0.40298795  1
  O2-  O236  1  0.71270636  0.33915863  0.72913384  1
  O2-  O237  1  0.70660074  0.83166968  0.05928211  1
  O2-  O238  1  0.70342176  0.82622504  0.40060752  1
  O2-  O239  1  0.70368755  0.83147772  0.73182551  1
  O2-  O240  1  0.45303555  0.42018080  0.27141179  1
  O2-  O241  1  0.45163673  0.41723023  0.60889017  1
  O2-  O242  1  0.45880816  0.41571313  0.93076873  1
  O2-  O243  1  0.45298803  0.92238827  0.26648764  1
  O2-  O244  1  0.46051904  0.91376804  0.59748328  1
  O2-  O245  1  0.45884055  0.92154019  0.93163513  1
  O2-  O246  1  0.96375719  0.41175471  0.26249026  1
  O2-  O247  1  0.95929741  0.41830369  0.59915388  1
  O2-  O248  1  0.96046456  0.41548061  0.93205322  1
  O2-  O249  1  0.96337916  0.91999141  0.26639744  1
  O2-  O250  1  0.95523412  0.91581629  0.60814008  1
  O2-  O251  1  0.96265468  0.91412999  0.93724521  1
  O2-  O252  1  0.32853344  0.29388046  0.26813102  1
  O2-  O253  1  0.32809733  0.30189098  0.61171917  1
  O2-  O254  1  0.32831016  0.29320216  0.93328370  1
  O2-  O255  1  0.33391028  0.79107554  0.26252007  1
  O2-  O256  1  0.33065900  0.78997359  0.60111628  1
  O2-  O257  1  0.32973109  0.79303420  0.93148402  1
  O2-  O258  1  0.83241775  0.29071865  0.26659428  1
  O2-  O259  1  0.83445537  0.28835622  0.59775496  1
  O2-  O260  1  0.83109674  0.28854409  0.93271520  1
  O2-  O261  1  0.83104616  0.79781487  0.26602917  1
  O2-  O262  1  0.83642509  0.79488975  0.60786096  1
  O2-  O263  1  0.83991359  0.79763281  0.93435597  1
  O2-  O264  1  0.42033830  0.04349290  0.06845929  1
  O2-  O265  1  0.41404736  0.04867511  0.39228539  1
  O2-  O266  1  0.41885245  0.03655893  0.73229712  1
  O2-  O267  1  0.41169430  0.54425172  0.06134008  1
  O2-  O268  1  0.40892545  0.54529534  0.39734931  1
  O2-  O269  1  0.42088005  0.54800148  0.73714958  1
  O2-  O270  1  0.92000084  0.04522616  0.06554535  1
  O2-  O271  1  0.92419267  0.04720675  0.40039737  1
  O2-  O272  1  0.91648766  0.04290186  0.73698496  1
  O2-  O273  1  0.91805617  0.54557630  0.06174654  1
  O2-  O274  1  0.91795758  0.53941820  0.39665080  1
  O2-  O275  1  0.91128943  0.54445985  0.72981669  1
  O2-  O276  1  0.28673702  0.16626586  0.06907577  1
  O2-  O277  1  0.28727202  0.16208015  0.39614889  1
  O2-  O278  1  0.29336347  0.16511164  0.73432117  1
  O2-  O279  1  0.28660312  0.66169160  0.06244983  1
  O2-  O280  1  0.28821065  0.66327008  0.39321871  1
  O2-  O281  1  0.28528852  0.66687312  0.73796205  1
  O2-  O282  1  0.78690974  0.16648206  0.06769012  1
  O2-  O283  1  0.79118222  0.16946749  0.40246173  1
  O2-  O284  1  0.78419454  0.16750648  0.73361769  1
  O2-  O285  1  0.80532114  0.66987573  0.05906157  1
  O2-  O286  1  0.80747682  0.66661864  0.39312049  1
  O2-  O287  1  0.79583637  0.66488256  0.72998853  1
