# generated using pymatgen
data_Ca2Al2SiO7
_symmetry_space_group_name_H-M   'P 1'
_cell_length_a   15.46729484
_cell_length_b   15.46642222
_cell_length_c   15.28912944
_cell_angle_alpha   90.00090559
_cell_angle_beta   89.97973014
_cell_angle_gamma   89.99583852
_symmetry_Int_Tables_number   1
_chemical_formula_structural   Ca2Al2SiO7
_chemical_formula_sum   'Ca48 Al48 Si24 O168'
_cell_volume   3657.52206831
_cell_formula_units_Z   24
loop_
 _symmetry_equiv_pos_site_id
 _symmetry_equiv_pos_as_xyz
  1  'x, y, z'
loop_
 _atom_type_symbol
 _atom_type_oxidation_number
  Ca2+  2.0
  Al0+  0.0
  Si0+  0.0
  O2-  -2.0
loop_
 _atom_site_type_symbol
 _atom_site_label
 _atom_site_symmetry_multiplicity
 _atom_site_fract_x
 _atom_site_fract_y
 _atom_site_fract_z
 _atom_site_occupancy
  Ca2+  Ca0  1  0.17734628  0.07834162  0.17207646  1
  Ca2+  Ca1  1  0.17296767  0.07880076  0.50387360  1
  Ca2+  Ca2  1  0.16989214  0.06963295  0.84132042  1
  Ca2+  Ca3  1  0.16952637  0.57937465  0.17429355  1
  Ca2+  Ca4  1  0.17029203  0.58079654  0.49723500  1
  Ca2+  Ca5  1  0.16013061  0.58661421  0.83550717  1
  Ca2+  Ca6  1  0.66843313  0.07844463  0.17913252  1
  Ca2+  Ca7  1  0.66306947  0.08569037  0.49642953  1
  Ca2+  Ca8  1  0.66503164  0.08593095  0.83372319  1
  Ca2+  Ca9  1  0.67870111  0.58746608  0.17575680  1
  Ca2+  Ca10  1  0.67717801  0.58920547  0.50333964  1
  Ca2+  Ca11  1  0.68180425  0.58147614  0.83798454  1
  Ca2+  Ca12  1  0.07492213  0.33867168  0.16635726  1
  Ca2+  Ca13  1  0.07352414  0.34136646  0.49421178  1
  Ca2+  Ca14  1  0.07341876  0.33289842  0.83013893  1
  Ca2+  Ca15  1  0.08648062  0.82549619  0.15866981  1
  Ca2+  Ca16  1  0.08176549  0.83154361  0.50222016  1
  Ca2+  Ca17  1  0.08507138  0.82577479  0.82516911  1
  Ca2+  Ca18  1  0.57948267  0.32936263  0.17065144  1
  Ca2+  Ca19  1  0.57412009  0.32427736  0.49352368  1
  Ca2+  Ca20  1  0.57594190  0.32558526  0.82223687  1
  Ca2+  Ca21  1  0.57532537  0.83438870  0.17220164  1
  Ca2+  Ca22  1  0.58025760  0.82894769  0.48691595  1
  Ca2+  Ca23  1  0.57649717  0.83449858  0.83326349  1
  Ca2+  Ca24  1  0.32525570  0.42134600  0.18301644  1
  Ca2+  Ca25  1  0.33436413  0.41362593  0.50110564  1
  Ca2+  Ca26  1  0.33329589  0.41674454  0.83611724  1
  Ca2+  Ca27  1  0.33633200  0.92057359  0.16972051  1
  Ca2+  Ca28  1  0.33358312  0.91999056  0.50069877  1
  Ca2+  Ca29  1  0.32337288  0.91854693  0.84323319  1
  Ca2+  Ca30  1  0.83919094  0.42442729  0.17330127  1
  Ca2+  Ca31  1  0.83902903  0.42435966  0.50317027  1
  Ca2+  Ca32  1  0.84458838  0.42509345  0.83622162  1
  Ca2+  Ca33  1  0.82446950  0.92298211  0.18084575  1
  Ca2+  Ca34  1  0.82846531  0.91879592  0.50254283  1
  Ca2+  Ca35  1  0.83428443  0.91432939  0.83501070  1
  Ca2+  Ca36  1  0.41490746  0.16195171  0.16837792  1
  Ca2+  Ca37  1  0.42393736  0.17033009  0.48979834  1
  Ca2+  Ca38  1  0.41948918  0.16839342  0.82647422  1
  Ca2+  Ca39  1  0.41248642  0.67714126  0.16684997  1
  Ca2+  Ca40  1  0.42256684  0.67258403  0.48452692  1
  Ca2+  Ca41  1  0.41332291  0.67592907  0.83029899  1
  Ca2+  Ca42  1  0.90792823  0.17895190  0.16646154  1
  Ca2+  Ca43  1  0.91501711  0.17723358  0.49004826  1
  Ca2+  Ca44  1  0.91463664  0.17964595  0.82614556  1
  Ca2+  Ca45  1  0.92088433  0.66154013  0.16082294  1
  Ca2+  Ca46  1  0.91731809  0.66531769  0.49914620  1
  Ca2+  Ca47  1  0.92621721  0.66708499  0.82564088  1
  Al0+  Al48  1  -0.00007701  0.00087279  0.00552083  1
  Al0+  Al49  1  -0.00065372  0.00079903  0.33618308  1
  Al0+  Al50  1  -0.00090496  -0.00069129  0.66921029  1
  Al0+  Al51  1  0.00050954  0.50086138  -0.00408483  1
  Al0+  Al52  1  0.00056528  0.50034214  0.33676835  1
  Al0+  Al53  1  0.00320849  0.50123582  0.66367266  1
  Al0+  Al54  1  0.50063144  -0.00033123  -0.00262853  1
  Al0+  Al55  1  0.49907244  -0.00148420  0.33413934  1
  Al0+  Al56  1  0.50130508  -0.00033003  0.66532786  1
  Al0+  Al57  1  0.50252691  0.49924215  -0.00093352  1
  Al0+  Al58  1  0.50266350  0.50014623  0.32769649  1
  Al0+  Al59  1  0.50128684  0.50053108  0.66699875  1
  Al0+  Al60  1  0.24907013  0.24929243  0.00206052  1
  Al0+  Al61  1  0.24669445  0.24790687  0.33943160  1
  Al0+  Al62  1  0.24937425  0.25128122  0.66765272  1
  Al0+  Al63  1  0.24995440  0.74927484  -0.00549947  1
  Al0+  Al64  1  0.24870814  0.74843048  0.33329975  1
  Al0+  Al65  1  0.24957918  0.74937232  0.66536967  1
  Al0+  Al66  1  0.74741618  0.25163648  -0.00562830  1
  Al0+  Al67  1  0.75007160  0.25197104  0.32781131  1
  Al0+  Al68  1  0.74819637  0.25033753  0.65979626  1
  Al0+  Al69  1  0.74992726  0.74951210  0.00457261  1
  Al0+  Al70  1  0.75063568  0.75113121  0.33741757  1
  Al0+  Al71  1  0.75128262  0.75122035  0.67197168  1
  Al0+  Al72  1  0.32324571  0.57142229  0.34647095  1
  Al0+  Al73  1  0.93086539  0.32073725  0.65175404  1
  Al0+  Al74  1  0.17948381  0.42857282  0.34872929  1
  Al0+  Al75  1  0.82115720  0.56838014  0.01392135  1
  Al0+  Al76  1  0.07262326  0.67937403  0.64743169  1
  Al0+  Al77  1  0.42708322  0.32305918  0.65234834  1
  Al0+  Al78  1  0.42690942  0.81982258  0.31865994  1
  Al0+  Al79  1  0.56988509  0.17695527  0.64981078  1
  Al0+  Al80  1  0.17786304  0.92590645  0.01622737  1
  Al0+  Al81  1  0.57509176  0.67751401  0.31880010  1
  Al0+  Al82  1  0.17915166  0.92887836  0.68056803  1
  Al0+  Al83  1  0.42506067  0.32081219  0.31740166  1
  Al0+  Al84  1  0.82153341  0.07397362  0.34851946  1
  Al0+  Al85  1  0.92735571  0.82227729  0.65145669  1
  Al0+  Al86  1  0.82059609  0.57032391  0.34806664  1
  Al0+  Al87  1  0.82211158  0.57013166  0.68240102  1
  Al0+  Al88  1  0.06952997  0.68103982  0.98740547  1
  Al0+  Al89  1  0.31999401  0.06919460  0.34856872  1
  Al0+  Al90  1  0.32166438  0.07063568  0.01487058  1
  Al0+  Al91  1  0.43160285  0.81967847  0.98478594  1
  Al0+  Al92  1  0.93113248  0.32135544  0.31879890  1
  Al0+  Al93  1  0.67924132  0.93042989  0.34941225  1
  Al0+  Al94  1  0.92981033  0.31911405  0.98563373  1
  Al0+  Al95  1  0.56916118  0.17918109  0.31560513  1
  Si0+  Si96  1  0.06845339  0.68027796  0.31801588  1
  Si0+  Si97  1  0.92569076  0.82465847  0.98692021  1
  Si0+  Si98  1  0.67819568  0.42789789  0.68344075  1
  Si0+  Si99  1  0.56919350  0.17973588  0.98414615  1
  Si0+  Si100  1  0.07160653  0.17658630  0.65160457  1
  Si0+  Si101  1  0.67828716  0.92879810  0.68443090  1
  Si0+  Si102  1  0.42929722  0.81958312  0.65236934  1
  Si0+  Si103  1  0.32383228  0.57059615  0.01237573  1
  Si0+  Si104  1  0.07162855  0.17410383  0.31619392  1
  Si0+  Si105  1  0.42651495  0.32242849  0.98608242  1
  Si0+  Si106  1  0.82006449  0.07442223  0.01250418  1
  Si0+  Si107  1  0.32312479  0.57054572  0.68216904  1
  Si0+  Si108  1  0.67758076  0.42703596  0.34989904  1
  Si0+  Si109  1  0.67644108  0.42634932  0.01740324  1
  Si0+  Si110  1  0.07382498  0.17706978  0.98352847  1
  Si0+  Si111  1  0.92888811  0.82280361  0.31908217  1
  Si0+  Si112  1  0.18026851  0.42993624  0.01269105  1
  Si0+  Si113  1  0.32274010  0.07138218  0.68328080  1
  Si0+  Si114  1  0.57485558  0.67647346  0.98162691  1
  Si0+  Si115  1  0.57198582  0.68053079  0.65515642  1
  Si0+  Si116  1  0.81978467  0.07292506  0.68207431  1
  Si0+  Si117  1  0.17595336  0.92546514  0.35075086  1
  Si0+  Si118  1  0.67990495  0.92987292  0.01446758  1
  Si0+  Si119  1  0.17958823  0.42895794  0.68416595  1
  O2-  O120  1  0.24959398  -0.00146388  0.06477461  1
  O2-  O121  1  0.24517750  -0.00614092  0.39412082  1
  O2-  O122  1  0.25332171  0.00405584  0.72795214  1
  O2-  O123  1  0.25602050  0.49631312  0.05347465  1
  O2-  O124  1  0.25796888  0.49421564  0.39840753  1
  O2-  O125  1  0.25350825  0.49806559  0.72557910  1
  O2-  O126  1  0.75537161  -0.00250104  0.05383598  1
  O2-  O127  1  0.74991141  0.00312627  0.40045841  1
  O2-  O128  1  0.74925441  0.00108812  0.72566920  1
  O2-  O129  1  0.74500223  0.49536459  0.06066604  1
  O2-  O130  1  0.74297489  0.49878380  0.39459833  1
  O2-  O131  1  0.74987416  0.49263876  0.72947770  1
  O2-  O132  1  0.00326546  0.24374373  0.27224112  1
  O2-  O133  1  0.00425468  0.24503484  0.60555141  1
  O2-  O134  1  0.00163431  0.24173234  0.93835588  1
  O2-  O135  1  -0.00024010  0.75293665  0.27531891  1
  O2-  O136  1  -0.00176954  0.75025988  0.59983157  1
  O2-  O137  1  -0.00321931  0.75890224  0.94264614  1
  O2-  O138  1  0.49506557  0.24846328  0.26423035  1
  O2-  O139  1  0.49521264  0.24761640  0.60353269  1
  O2-  O140  1  0.49670111  0.25037155  0.94379167  1
  O2-  O141  1  0.49786102  0.74514078  0.27008454  1
  O2-  O142  1  0.50049647  0.74925665  0.61128719  1
  O2-  O143  1  0.50419259  0.74290827  0.93645306  1
  O2-  O144  1  0.07612734  0.17989817  0.08849115  1
  O2-  O145  1  0.06933700  0.17165501  0.42183805  1
  O2-  O146  1  0.06947729  0.17829514  0.75768428  1
  O2-  O147  1  0.06818421  0.67824875  0.10064313  1
  O2-  O148  1  0.06850799  0.68062758  0.42270760  1
  O2-  O149  1  0.07189233  0.68025331  0.76145652  1
  O2-  O150  1  0.57233246  0.17920466  0.08829269  1
  O2-  O151  1  0.56844635  0.18129116  0.42875740  1
  O2-  O152  1  0.56887923  0.17737830  0.76469232  1
  O2-  O153  1  0.57611946  0.67707010  0.08628384  1
  O2-  O154  1  0.57582150  0.68229105  0.43325288  1
  O2-  O155  1  0.56995135  0.68258137  0.76067680  1
  O2-  O156  1  0.17582910  0.43413751  0.23431868  1
  O2-  O157  1  0.17831217  0.42868248  0.57989387  1
  O2-  O158  1  0.18086599  0.42999698  0.90719607  1
  O2-  O159  1  0.17439822  0.92521233  0.24526226  1
  O2-  O160  1  0.18198199  0.93014190  0.56764456  1
  O2-  O161  1  0.17946500  0.92694189  0.90236876  1
  O2-  O162  1  0.68140680  0.42591001  0.24388837  1
  O2-  O163  1  0.67593577  0.43124822  0.57859705  1
  O2-  O164  1  0.67413468  0.42613382  0.91171020  1
  O2-  O165  1  0.68224133  0.93057542  0.23498418  1
  O2-  O166  1  0.67653749  0.92605716  0.58046933  1
  O2-  O167  1  0.67901733  0.93052666  0.90873067  1
  O2-  O168  1  0.42620185  0.32474086  0.09010650  1
  O2-  O169  1  0.42781844  0.31873567  0.43077867  1
  O2-  O170  1  0.42911692  0.32269283  0.76719920  1
  O2-  O171  1  0.43263400  0.81971882  0.09693763  1
  O2-  O172  1  0.42712397  0.81869144  0.43284610  1
  O2-  O173  1  0.43031344  0.81898510  0.75796871  1
  O2-  O174  1  0.93108683  0.31980301  0.09829134  1
  O2-  O175  1  0.93333745  0.32231815  0.43179701  1
  O2-  O176  1  0.93299361  0.31966381  0.76548251  1
  O2-  O177  1  0.92375379  0.82301827  0.09242036  1
  O2-  O178  1  0.93008121  0.82286201  0.42386221  1
  O2-  O179  1  0.92706901  0.82126786  0.76574850  1
  O2-  O180  1  0.31822508  0.06771030  0.23545574  1
  O2-  O181  1  0.32274444  0.06931076  0.57812410  1
  O2-  O182  1  0.32094157  0.07051610  0.90073742  1
  O2-  O183  1  0.31547381  0.57397355  0.23231194  1
  O2-  O184  1  0.32478798  0.57117453  0.57792212  1
  O2-  O185  1  0.32447222  0.56910734  0.90670642  1
  O2-  O186  1  0.82054878  0.07048165  0.23391764  1
  O2-  O187  1  0.81989526  0.07308233  0.57789754  1
  O2-  O188  1  0.81713253  0.07598482  0.90697570  1
  O2-  O189  1  0.82335236  0.56847684  0.23462386  1
  O2-  O190  1  0.81910488  0.57073572  0.56975197  1
  O2-  O191  1  0.82119136  0.56739585  0.90073965  1
  O2-  O192  1  0.04648750  0.08088034  0.26833078  1
  O2-  O193  1  0.04695423  0.08313359  0.60648617  1
  O2-  O194  1  0.05044563  0.08142792  0.94004791  1
  O2-  O195  1  0.03784077  0.58950734  0.27078686  1
  O2-  O196  1  0.04644429  0.58075264  0.59592169  1
  O2-  O197  1  0.03693966  0.58630372  0.93035700  1
  O2-  O198  1  0.54256674  0.07941935  0.26527335  1
  O2-  O199  1  0.54457573  0.07751671  0.59817728  1
  O2-  O200  1  0.54295659  0.08836171  0.93468885  1
  O2-  O201  1  0.55733457  0.57771764  0.26534924  1
  O2-  O202  1  0.54777168  0.58790539  0.60924488  1
  O2-  O203  1  0.55211276  0.58160300  0.93577345  1
  O2-  O204  1  0.16515979  0.19981146  0.27142198  1
  O2-  O205  1  0.16619651  0.20089305  0.60786547  1
  O2-  O206  1  0.16547729  0.20650677  0.93443941  1
  O2-  O207  1  0.16042690  0.70618065  0.27011757  1
  O2-  O208  1  0.17082436  0.70933946  0.59521286  1
  O2-  O209  1  0.16611418  0.70675705  0.93041190  1
  O2-  O210  1  0.66707338  0.20943352  0.26188253  1
  O2-  O211  1  0.66714492  0.20539047  0.59668414  1
  O2-  O212  1  0.65916610  0.20921743  0.93283982  1
  O2-  O213  1  0.67163911  0.71295928  0.26494914  1
  O2-  O214  1  0.66329104  0.71014089  0.60964187  1
  O2-  O215  1  0.66755645  0.70685319  0.93511414  1
  O2-  O216  1  0.09037157  0.46309228  0.05956033  1
  O2-  O217  1  0.08551630  0.46688713  0.40393984  1
  O2-  O218  1  0.08953194  0.46072011  0.73302798  1
  O2-  O219  1  0.07827908  0.95105799  0.06917002  1
  O2-  O220  1  0.08311856  0.95216413  0.39762965  1
  O2-  O221  1  0.08193680  0.95772648  0.73552719  1
  O2-  O222  1  0.58248258  0.45030170  0.06396795  1
  O2-  O223  1  0.58230869  0.44753615  0.39373825  1
  O2-  O224  1  0.58604023  0.45698225  0.73285585  1
  O2-  O225  1  0.59001034  0.96251938  0.06092670  1
  O2-  O226  1  0.58055611  0.95550137  0.40174408  1
  O2-  O227  1  0.58648967  0.95781002  0.73334530  1
  O2-  O228  1  0.20206136  0.33702648  0.05995503  1
  O2-  O229  1  0.19608602  0.32837768  0.40173647  1
  O2-  O230  1  0.20347496  0.33628153  0.73374467  1
  O2-  O231  1  0.20826950  0.82676858  0.06616596  1
  O2-  O232  1  0.20147593  0.83221633  0.39662163  1
  O2-  O233  1  0.21210711  0.83203190  0.73367756  1
  O2-  O234  1  0.70278771  0.33240486  0.06192103  1
  O2-  O235  1  0.70709556  0.33510620  0.39595607  1
  O2-  O236  1  0.70060392  0.33211252  0.72727524  1
  O2-  O237  1  0.70283178  0.83739652  0.06214210  1
  O2-  O238  1  0.71058403  0.83390666  0.40383432  1
  O2-  O239  1  0.70659035  0.83889122  0.73613895  1
  O2-  O240  1  0.45321917  0.41942767  0.26404078  1
  O2-  O241  1  0.45762238  0.42132938  0.60105610  1
  O2-  O242  1  0.45544634  0.41380842  0.93688697  1
  O2-  O243  1  0.45889390  0.91625674  0.26524825  1
  O2-  O244  1  0.45680493  0.91167408  0.60697644  1
  O2-  O245  1  0.46585561  0.91489679  0.92883856  1
  O2-  O246  1  0.96687703  0.41721565  0.26535040  1
  O2-  O247  1  0.96434160  0.41619851  0.59923401  1
  O2-  O248  1  0.96620933  0.41343991  0.93093617  1
  O2-  O249  1  0.95443710  0.91541546  0.27173855  1
  O2-  O250  1  0.95434703  0.92168084  0.60034402  1
  O2-  O251  1  0.94605396  0.92073605  0.94272376  1
  O2-  O252  1  0.32393928  0.29418381  0.26902433  1
  O2-  O253  1  0.32595929  0.30119329  0.60364794  1
  O2-  O254  1  0.33426895  0.29591243  0.93798937  1
  O2-  O255  1  0.32834591  0.79120729  0.26502472  1
  O2-  O256  1  0.33853800  0.79160003  0.60537972  1
  O2-  O257  1  0.33591076  0.78792388  0.92903176  1
  O2-  O258  1  0.83495609  0.29365393  0.26265741  1
  O2-  O259  1  0.83331955  0.29380122  0.59983383  1
  O2-  O260  1  0.83238526  0.29100162  0.93072300  1
  O2-  O261  1  0.83751540  0.79462369  0.27214180  1
  O2-  O262  1  0.82763401  0.79456671  0.60128262  1
  O2-  O263  1  0.83228403  0.79761090  0.94033380  1
  O2-  O264  1  0.42088044  0.04117247  0.06504995  1
  O2-  O265  1  0.41554352  0.03751906  0.40268598  1
  O2-  O266  1  0.41651795  0.04426298  0.72906848  1
  O2-  O267  1  0.41737153  0.54778309  0.05812571  1
  O2-  O268  1  0.42589143  0.55272491  0.39355353  1
  O2-  O269  1  0.41513097  0.54540961  0.73221585  1
  O2-  O270  1  0.91398483  0.05615457  0.05902573  1
  O2-  O271  1  0.91990603  0.04614319  0.40160685  1
  O2-  O272  1  0.91131663  0.04678920  0.73150056  1
  O2-  O273  1  0.91787947  0.53543778  0.06633369  1
  O2-  O274  1  0.91533132  0.53667853  0.40268519  1
  O2-  O275  1  0.92050205  0.53919576  0.73332682  1
  O2-  O276  1  0.29387483  0.16974845  0.06717399  1
  O2-  O277  1  0.28865838  0.16411562  0.40489710  1
  O2-  O278  1  0.29901945  0.16644926  0.72818452  1
  O2-  O279  1  0.29240311  0.66129229  0.05781796  1
  O2-  O280  1  0.28817896  0.66707534  0.40166626  1
  O2-  O281  1  0.29260689  0.66177997  0.73007688  1
  O2-  O282  1  0.78558583  0.16426230  0.05944117  1
  O2-  O283  1  0.79405496  0.17366464  0.39788878  1
  O2-  O284  1  0.78915398  0.16458686  0.72986295  1
  O2-  O285  1  0.79294517  0.66620272  0.06744803  1
  O2-  O286  1  0.79305645  0.66744086  0.40187943  1
  O2-  O287  1  0.78886687  0.66592891  0.73767395  1
