# generated using pymatgen
data_Ca2Al2SiO7
_symmetry_space_group_name_H-M   'P 1'
_cell_length_a   15.46172107
_cell_length_b   15.46174760
_cell_length_c   15.28616735
_cell_angle_alpha   90.00509288
_cell_angle_beta   89.99213736
_cell_angle_gamma   90.01910365
_symmetry_Int_Tables_number   1
_chemical_formula_structural   Ca2Al2SiO7
_chemical_formula_sum   'Ca48 Al48 Si24 O168'
_cell_volume   3654.39084076
_cell_formula_units_Z   24
loop_
 _symmetry_equiv_pos_site_id
 _symmetry_equiv_pos_as_xyz
  1  'x, y, z'
loop_
 _atom_type_symbol
 _atom_type_oxidation_number
  Ca2+  2.0
  Al0+  0.0
  Si0+  0.0
  O2-  -2.0
loop_
 _atom_site_type_symbol
 _atom_site_label
 _atom_site_symmetry_multiplicity
 _atom_site_fract_x
 _atom_site_fract_y
 _atom_site_fract_z
 _atom_site_occupancy
  Ca2+  Ca0  1  0.17811062  0.09089783  0.16577016  1
  Ca2+  Ca1  1  0.17427149  0.08146639  0.50235024  1
  Ca2+  Ca2  1  0.17197693  0.08496592  0.84159680  1
  Ca2+  Ca3  1  0.17342232  0.58103526  0.16770618  1
  Ca2+  Ca4  1  0.17407660  0.58203212  0.51052062  1
  Ca2+  Ca5  1  0.17251106  0.58004972  0.83477658  1
  Ca2+  Ca6  1  0.66997563  0.08185440  0.16694336  1
  Ca2+  Ca7  1  0.66871924  0.08048128  0.50769501  1
  Ca2+  Ca8  1  0.67814328  0.07115298  0.83628744  1
  Ca2+  Ca9  1  0.66747675  0.56936613  0.16890732  1
  Ca2+  Ca10  1  0.66861909  0.57273092  0.50786955  1
  Ca2+  Ca11  1  0.66790502  0.57461542  0.83333130  1
  Ca2+  Ca12  1  0.07784689  0.32974970  0.15195325  1
  Ca2+  Ca13  1  0.08270542  0.33833915  0.50159896  1
  Ca2+  Ca14  1  0.08808317  0.33201663  0.83166727  1
  Ca2+  Ca15  1  0.07708384  0.83183170  0.15799560  1
  Ca2+  Ca16  1  0.07888261  0.82631825  0.50345046  1
  Ca2+  Ca17  1  0.07177329  0.82743631  0.82527002  1
  Ca2+  Ca18  1  0.58810481  0.32950768  0.16282362  1
  Ca2+  Ca19  1  0.58274943  0.33402253  0.49577167  1
  Ca2+  Ca20  1  0.57888602  0.33822579  0.82635405  1
  Ca2+  Ca21  1  0.57938853  0.83330763  0.16213867  1
  Ca2+  Ca22  1  0.57565278  0.83472920  0.49914064  1
  Ca2+  Ca23  1  0.58087212  0.83711526  0.82636673  1
  Ca2+  Ca24  1  0.32941541  0.42773136  0.16817291  1
  Ca2+  Ca25  1  0.33200478  0.42824877  0.51162059  1
  Ca2+  Ca26  1  0.32562721  0.42381570  0.83690494  1
  Ca2+  Ca27  1  0.33773324  0.92765595  0.17176376  1
  Ca2+  Ca28  1  0.34393837  0.92000661  0.50217317  1
  Ca2+  Ca29  1  0.33411706  0.92106407  0.83825337  1
  Ca2+  Ca30  1  0.82348291  0.40282613  0.16568714  1
  Ca2+  Ca31  1  0.82050913  0.41916534  0.50920655  1
  Ca2+  Ca32  1  0.82549304  0.41708482  0.83730255  1
  Ca2+  Ca33  1  0.83281121  0.91803389  0.16361378  1
  Ca2+  Ca34  1  0.82594513  0.92246088  0.51558459  1
  Ca2+  Ca35  1  0.83132861  0.91787265  0.84028203  1
  Ca2+  Ca36  1  0.42135393  0.16070109  0.16317902  1
  Ca2+  Ca37  1  0.42369731  0.17467863  0.49348962  1
  Ca2+  Ca38  1  0.41651871  0.17376335  0.82659574  1
  Ca2+  Ca39  1  0.41028571  0.66766000  0.16459803  1
  Ca2+  Ca40  1  0.40693205  0.67563057  0.49721679  1
  Ca2+  Ca41  1  0.41432589  0.66839643  0.82476508  1
  Ca2+  Ca42  1  0.92454872  0.16987705  0.15174035  1
  Ca2+  Ca43  1  0.91476501  0.16566434  0.49920471  1
  Ca2+  Ca44  1  0.91513628  0.16624106  0.83463517  1
  Ca2+  Ca45  1  0.91728429  0.67334817  0.15673190  1
  Ca2+  Ca46  1  0.91639127  0.66334422  0.50439430  1
  Ca2+  Ca47  1  0.91615230  0.67420847  0.82193327  1
  Al0+  Al48  1  0.00058819  -0.00050479  -0.00463506  1
  Al0+  Al49  1  0.00085325  0.00053703  0.33241229  1
  Al0+  Al50  1  0.00232361  0.00080172  0.66409906  1
  Al0+  Al51  1  0.00004152  0.50005230  -0.00116107  1
  Al0+  Al52  1  -0.00108630  0.50100123  0.32986542  1
  Al0+  Al53  1  0.00009447  0.49806634  0.66790906  1
  Al0+  Al54  1  0.50085922  -0.00087359  0.00520900  1
  Al0+  Al55  1  0.50058373  0.00086917  0.32938572  1
  Al0+  Al56  1  0.50186650  0.00173091  0.66641234  1
  Al0+  Al57  1  0.50150589  0.50063660  0.00804961  1
  Al0+  Al58  1  0.49928227  0.50097792  0.34075641  1
  Al0+  Al59  1  0.49819371  0.50112613  0.66818990  1
  Al0+  Al60  1  0.25155033  0.25127973  0.00479844  1
  Al0+  Al61  1  0.25035193  0.24996935  0.33791516  1
  Al0+  Al62  1  0.25125525  0.25104161  0.66205863  1
  Al0+  Al63  1  0.25043285  0.75186682  0.00242863  1
  Al0+  Al64  1  0.24694522  0.75143166  0.33067877  1
  Al0+  Al65  1  0.24886483  0.75225325  0.66182986  1
  Al0+  Al66  1  0.75077681  0.24675188  0.00153090  1
  Al0+  Al67  1  0.74953170  0.24869597  0.33386904  1
  Al0+  Al68  1  0.75110223  0.24713402  0.67334164  1
  Al0+  Al69  1  0.74671716  0.74838153  0.00014715  1
  Al0+  Al70  1  0.74893469  0.75012138  0.33200458  1
  Al0+  Al71  1  0.74666034  0.74967821  0.66651826  1
  Al0+  Al72  1  0.57073137  0.18096535  0.31853481  1
  Al0+  Al73  1  0.82121606  0.57085389  0.68082834  1
  Al0+  Al74  1  0.92718232  0.32149305  0.98257370  1
  Al0+  Al75  1  0.68099008  0.42779112  0.34768521  1
  Al0+  Al76  1  0.67880050  0.92635261  0.01769330  1
  Al0+  Al77  1  0.06952638  0.67690890  0.65162550  1
  Al0+  Al78  1  0.32142170  0.57311023  0.01569287  1
  Al0+  Al79  1  0.31959168  0.57465375  0.68133138  1
  Al0+  Al80  1  0.31831991  0.57243881  0.34918633  1
  Al0+  Al81  1  0.82253013  0.06850415  0.01680231  1
  Al0+  Al82  1  0.17884496  0.42679056  0.68133508  1
  Al0+  Al83  1  0.68048334  0.42792447  0.01407573  1
  Al0+  Al84  1  0.92612249  0.82165645  0.65071677  1
  Al0+  Al85  1  0.17771954  0.42937214  0.01573065  1
  Al0+  Al86  1  0.42943962  0.82254133  0.65453946  1
  Al0+  Al87  1  0.67754135  0.42761530  0.68192150  1
  Al0+  Al88  1  0.32259006  0.07040537  0.34950099  1
  Al0+  Al89  1  0.92771478  0.81880302  0.98603972  1
  Al0+  Al90  1  0.07408892  0.18021555  0.98406079  1
  Al0+  Al91  1  0.82522467  0.07018751  0.68224756  1
  Al0+  Al92  1  0.32142472  0.07154434  0.01191384  1
  Al0+  Al93  1  0.42892561  0.32241462  0.65367971  1
  Al0+  Al94  1  0.42916725  0.81961259  0.31749250  1
  Al0+  Al95  1  0.67733706  0.92913395  0.67975828  1
  Si0+  Si96  1  0.67962885  0.92814476  0.34841764  1
  Si0+  Si97  1  0.57315890  0.67667392  0.31547991  1
  Si0+  Si98  1  0.32119753  0.07099478  0.67950636  1
  Si0+  Si99  1  0.07220357  0.17831927  0.31887973  1
  Si0+  Si100  1  0.56875037  0.67702784  0.98534097  1
  Si0+  Si101  1  0.07406346  0.67826732  0.98309515  1
  Si0+  Si102  1  0.17597493  0.92935096  0.35090209  1
  Si0+  Si103  1  0.07360684  0.17864832  0.64902582  1
  Si0+  Si104  1  0.82212425  0.06912303  0.34757627  1
  Si0+  Si105  1  0.57093214  0.67663279  0.64939351  1
  Si0+  Si106  1  0.92781416  0.82233998  0.31826799  1
  Si0+  Si107  1  0.42709758  0.32412860  0.31615864  1
  Si0+  Si108  1  0.93007247  0.31990652  0.32015556  1
  Si0+  Si109  1  0.43202158  0.32203327  0.98772729  1
  Si0+  Si110  1  0.57080160  0.17653084  0.98396934  1
  Si0+  Si111  1  0.06911589  0.67907482  0.31599260  1
  Si0+  Si112  1  0.17827705  0.92858434  0.01528545  1
  Si0+  Si113  1  0.17556571  0.42868722  0.34996139  1
  Si0+  Si114  1  0.82263289  0.57426038  0.34858795  1
  Si0+  Si115  1  0.82182048  0.57211112  0.01541403  1
  Si0+  Si116  1  0.17960634  0.92996446  0.68056338  1
  Si0+  Si117  1  0.57209529  0.18004251  0.65186049  1
  Si0+  Si118  1  0.92767897  0.31903384  0.65134084  1
  Si0+  Si119  1  0.42950886  0.82160834  0.98554480  1
  O2-  O120  1  0.24544750  -0.00153657  0.05966560  1
  O2-  O121  1  0.24818093  -0.00537342  0.39544198  1
  O2-  O122  1  0.25149555  -0.00008927  0.72270107  1
  O2-  O123  1  0.24760035  0.50309953  0.06597639  1
  O2-  O124  1  0.24572855  0.49495637  0.39425620  1
  O2-  O125  1  0.24866919  0.50123633  0.72986496  1
  O2-  O126  1  0.75125314  -0.00290905  0.06911982  1
  O2-  O127  1  0.75292565  -0.00299847  0.38989703  1
  O2-  O128  1  0.75745017  -0.00752363  0.72871557  1
  O2-  O129  1  0.76007290  0.49780703  0.06118592  1
  O2-  O130  1  0.75406912  0.50523990  0.39149321  1
  O2-  O131  1  0.75013854  0.49882256  0.73157690  1
  O2-  O132  1  0.00478437  0.25288578  0.27817522  1
  O2-  O133  1  -0.00007964  0.24840706  0.60843036  1
  O2-  O134  1  0.00248339  0.25208917  0.93301357  1
  O2-  O135  1  -0.00355589  0.74938778  0.27517081  1
  O2-  O136  1  -0.00533631  0.74627306  0.59995999  1
  O2-  O137  1  0.00118153  0.74274993  0.94030535  1
  O2-  O138  1  0.49543836  0.25544129  0.27073621  1
  O2-  O139  1  0.50782691  0.25216947  0.60655814  1
  O2-  O140  1  0.50175735  0.25024337  0.94344814  1
  O2-  O141  1  0.50221396  0.74305769  0.27040999  1
  O2-  O142  1  0.50162556  0.74600897  0.60662717  1
  O2-  O143  1  0.49763916  0.74848532  0.94364870  1
  O2-  O144  1  0.07377785  0.18146630  0.09861076  1
  O2-  O145  1  0.06979696  0.17534028  0.42411368  1
  O2-  O146  1  0.07860980  0.17792256  0.75326093  1
  O2-  O147  1  0.07406021  0.68200944  0.08963231  1
  O2-  O148  1  0.06875067  0.67763133  0.42049871  1
  O2-  O149  1  0.07141013  0.68201481  0.76492865  1
  O2-  O150  1  0.56926410  0.17670046  0.08952821  1
  O2-  O151  1  0.57179801  0.18181344  0.43166553  1
  O2-  O152  1  0.56757195  0.17757324  0.75728660  1
  O2-  O153  1  0.56860398  0.67660208  0.09064071  1
  O2-  O154  1  0.57785861  0.67971637  0.42050102  1
  O2-  O155  1  0.56998044  0.67561215  0.75513578  1
  O2-  O156  1  0.17337554  0.43010809  0.24469794  1
  O2-  O157  1  0.18141622  0.42615828  0.56706567  1
  O2-  O158  1  0.18202682  0.42808947  0.90283511  1
  O2-  O159  1  0.17185751  0.93199825  0.24549434  1
  O2-  O160  1  0.17820998  0.93263320  0.57523729  1
  O2-  O161  1  0.18219293  0.92608866  0.90971662  1
  O2-  O162  1  0.68426148  0.42622172  0.23451570  1
  O2-  O163  1  0.68032475  0.42701194  0.56790573  1
  O2-  O164  1  0.67606221  0.43155345  0.90191008  1
  O2-  O165  1  0.68169261  0.92685130  0.24358860  1
  O2-  O166  1  0.67465701  0.93491859  0.56537398  1
  O2-  O167  1  0.67631776  0.92824073  0.90473251  1
  O2-  O168  1  0.43438309  0.32165802  0.09304871  1
  O2-  O169  1  0.42816765  0.32197650  0.42173495  1
  O2-  O170  1  0.42696248  0.31811633  0.76718455  1
  O2-  O171  1  0.43023457  0.82189330  0.09075142  1
  O2-  O172  1  0.43261533  0.82045060  0.43052668  1
  O2-  O173  1  0.43032106  0.82509356  0.76779394  1
  O2-  O174  1  0.92778282  0.31721008  0.09746207  1
  O2-  O175  1  0.92998567  0.31896662  0.42545435  1
  O2-  O176  1  0.92612091  0.31800067  0.75558826  1
  O2-  O177  1  0.93071566  0.81704731  0.10041596  1
  O2-  O178  1  0.92843281  0.82416251  0.42267607  1
  O2-  O179  1  0.93062650  0.82263632  0.76401053  1
  O2-  O180  1  0.32033718  0.06988638  0.23645137  1
  O2-  O181  1  0.32005082  0.06979878  0.57425465  1
  O2-  O182  1  0.32265352  0.06910740  0.89842231  1
  O2-  O183  1  0.31546157  0.57178395  0.23615666  1
  O2-  O184  1  0.31717281  0.57434680  0.56750444  1
  O2-  O185  1  0.32208129  0.57410740  0.90282019  1
  O2-  O186  1  0.82424489  0.06815552  0.24305067  1
  O2-  O187  1  0.82219469  0.07194503  0.56730117  1
  O2-  O188  1  0.82084678  0.06690576  0.90391492  1
  O2-  O189  1  0.82338134  0.57629709  0.24305347  1
  O2-  O190  1  0.81915109  0.56652137  0.56634573  1
  O2-  O191  1  0.81707584  0.57484899  0.91054938  1
  O2-  O192  1  0.04201057  0.08784885  0.27008119  1
  O2-  O193  1  0.04761670  0.08726967  0.59916500  1
  O2-  O194  1  0.04866167  0.08077071  0.93214776  1
  O2-  O195  1  0.04200780  0.58741202  0.26648171  1
  O2-  O196  1  0.04460434  0.57724476  0.59780805  1
  O2-  O197  1  0.05473840  0.58285079  0.94027933  1
  O2-  O198  1  0.54026853  0.08497391  0.26324167  1
  O2-  O199  1  0.54151880  0.08916085  0.60252842  1
  O2-  O200  1  0.53888019  0.08557707  0.93769814  1
  O2-  O201  1  0.54846175  0.58137310  0.27234710  1
  O2-  O202  1  0.54562555  0.58363990  0.60199571  1
  O2-  O203  1  0.54001360  0.58541547  0.93820173  1
  O2-  O204  1  0.16609193  0.20275551  0.27403618  1
  O2-  O205  1  0.16315827  0.20881913  0.59750754  1
  O2-  O206  1  0.17413216  0.20805921  0.93297974  1
  O2-  O207  1  0.15888603  0.70968897  0.26648040  1
  O2-  O208  1  0.16477560  0.71295093  0.59545185  1
  O2-  O209  1  0.16629243  0.70944679  0.93745698  1
  O2-  O210  1  0.66788995  0.21155142  0.26405524  1
  O2-  O211  1  0.66785475  0.20063246  0.60754972  1
  O2-  O212  1  0.66358407  0.20094039  0.93880856  1
  O2-  O213  1  0.66599956  0.70442144  0.26695146  1
  O2-  O214  1  0.66361870  0.70128282  0.60069882  1
  O2-  O215  1  0.65988025  0.70433428  0.93713069  1
  O2-  O216  1  0.07771527  0.45490038  0.06833252  1
  O2-  O217  1  0.08136539  0.45613570  0.39500375  1
  O2-  O218  1  0.07915575  0.44887300  0.73199645  1
  O2-  O219  1  0.08443688  0.95187376  0.06085922  1
  O2-  O220  1  0.08431303  0.95999165  0.39943730  1
  O2-  O221  1  0.08915778  0.95933134  0.72865954  1
  O2-  O222  1  0.58745598  0.46293836  0.07246517  1
  O2-  O223  1  0.58388415  0.45577161  0.40119168  1
  O2-  O224  1  0.57953929  0.45696455  0.73376844  1
  O2-  O225  1  0.58185389  0.95783012  0.07207256  1
  O2-  O226  1  0.58851538  0.95911246  0.39365338  1
  O2-  O227  1  0.58261720  0.96557474  0.73595406  1
  O2-  O228  1  0.20874864  0.33282960  0.07114362  1
  O2-  O229  1  0.19658410  0.33346921  0.39481109  1
  O2-  O230  1  0.21071506  0.32855670  0.73262900  1
  O2-  O231  1  0.20479252  0.83676123  0.06496493  1
  O2-  O232  1  0.19751802  0.83428929  0.39433838  1
  O2-  O233  1  0.20669407  0.83894589  0.72789371  1
  O2-  O234  1  0.70813564  0.33015001  0.06753326  1
  O2-  O235  1  0.71505816  0.33234771  0.40229581  1
  O2-  O236  1  0.70424645  0.32925618  0.73419547  1
  O2-  O237  1  0.70462979  0.82698990  0.07068064  1
  O2-  O238  1  0.70509968  0.83534824  0.39528214  1
  O2-  O239  1  0.69328376  0.82751649  0.72857088  1
  O2-  O240  1  0.45244439  0.41890895  0.27277900  1
  O2-  O241  1  0.45569431  0.42000404  0.59989200  1
  O2-  O242  1  0.46186576  0.41384048  0.94177758  1
  O2-  O243  1  0.46223665  0.91557924  0.26358109  1
  O2-  O244  1  0.46309234  0.91862931  0.59912343  1
  O2-  O245  1  0.45946127  0.91308710  0.93873298  1
  O2-  O246  1  0.95223171  0.41318492  0.27223904  1
  O2-  O247  1  0.95470280  0.41010942  0.60192726  1
  O2-  O248  1  0.94915656  0.42300694  0.93381098  1
  O2-  O249  1  0.95899194  0.91324737  0.27005666  1
  O2-  O250  1  0.96062318  0.91900936  0.59698114  1
  O2-  O251  1  0.95943257  0.91437731  0.93224166  1
  O2-  O252  1  0.33193602  0.29836344  0.27287160  1
  O2-  O253  1  0.33565401  0.28706919  0.59521800  1
  O2-  O254  1  0.33996409  0.29426522  0.94205915  1
  O2-  O255  1  0.33001072  0.79373276  0.26515703  1
  O2-  O256  1  0.33264853  0.79694181  0.59792168  1
  O2-  O257  1  0.33589353  0.79783081  0.93962152  1
  O2-  O258  1  0.84012500  0.28728772  0.27264285  1
  O2-  O259  1  0.83645897  0.28790690  0.60298884  1
  O2-  O260  1  0.82896898  0.28954795  0.93118089  1
  O2-  O261  1  0.83533159  0.79641898  0.27073906  1
  O2-  O262  1  0.82591142  0.79735239  0.59895623  1
  O2-  O263  1  0.82968401  0.78935178  0.93497837  1
  O2-  O264  1  0.41526978  0.03742494  0.06891985  1
  O2-  O265  1  0.41973770  0.03890963  0.40157088  1
  O2-  O266  1  0.41282745  0.04503587  0.72677657  1
  O2-  O267  1  0.41765296  0.54197126  0.07168658  1
  O2-  O268  1  0.41647844  0.54742266  0.40220482  1
  O2-  O269  1  0.41826978  0.54834352  0.73268836  1
  O2-  O270  1  0.92241656  0.04068516  0.06799323  1
  O2-  O271  1  0.91479444  0.04347981  0.39511156  1
  O2-  O272  1  0.92642266  0.04895729  0.73121204  1
  O2-  O273  1  0.91831867  0.55586415  0.05910903  1
  O2-  O274  1  0.91664019  0.54798599  0.39343561  1
  O2-  O275  1  0.91980591  0.54502388  0.73242243  1
  O2-  O276  1  0.29384938  0.16695889  0.06951066  1
  O2-  O277  1  0.29132572  0.16705371  0.40388937  1
  O2-  O278  1  0.29131707  0.16221952  0.72538769  1
  O2-  O279  1  0.29367308  0.67228061  0.06887387  1
  O2-  O280  1  0.28445850  0.66982090  0.39970758  1
  O2-  O281  1  0.29099487  0.67391312  0.73222999  1
  O2-  O282  1  0.79286075  0.16623370  0.07037695  1
  O2-  O283  1  0.79275694  0.16020552  0.39507578  1
  O2-  O284  1  0.79361403  0.16542633  0.73761760  1
  O2-  O285  1  0.78918217  0.66213161  0.06527521  1
  O2-  O286  1  0.79764877  0.66811780  0.39481997  1
  O2-  O287  1  0.79324021  0.66964720  0.73172116  1
