# generated using pymatgen
data_Ca2Al2SiO7
_symmetry_space_group_name_H-M   'P 1'
_cell_length_a   15.47198120
_cell_length_b   15.47588173
_cell_length_c   15.29496618
_cell_angle_alpha   90.00682247
_cell_angle_beta   89.99231117
_cell_angle_gamma   89.94575159
_symmetry_Int_Tables_number   1
_chemical_formula_structural   Ca2Al2SiO7
_chemical_formula_sum   'Ca48 Al48 Si24 O168'
_cell_volume   3662.26402122
_cell_formula_units_Z   24
loop_
 _symmetry_equiv_pos_site_id
 _symmetry_equiv_pos_as_xyz
  1  'x, y, z'
loop_
 _atom_type_symbol
 _atom_type_oxidation_number
  Ca2+  2.0
  Al0+  0.0
  Si0+  0.0
  O2-  -2.0
loop_
 _atom_site_type_symbol
 _atom_site_label
 _atom_site_symmetry_multiplicity
 _atom_site_fract_x
 _atom_site_fract_y
 _atom_site_fract_z
 _atom_site_occupancy
  Ca2+  Ca0  1  0.16453611  0.07530798  0.17684712  1
  Ca2+  Ca1  1  0.15655207  0.07947414  0.50111050  1
  Ca2+  Ca2  1  0.16650263  0.08334779  0.83520177  1
  Ca2+  Ca3  1  0.17520115  0.59459700  0.17172174  1
  Ca2+  Ca4  1  0.16888261  0.59393020  0.50117230  1
  Ca2+  Ca5  1  0.16906660  0.59254073  0.83994017  1
  Ca2+  Ca6  1  0.66502186  0.07236788  0.16974401  1
  Ca2+  Ca7  1  0.66869825  0.07479575  0.50066151  1
  Ca2+  Ca8  1  0.66852539  0.07511235  0.84487680  1
  Ca2+  Ca9  1  0.66733354  0.58604447  0.16950112  1
  Ca2+  Ca10  1  0.67435150  0.58368992  0.50936994  1
  Ca2+  Ca11  1  0.67060761  0.59222911  0.83533289  1
  Ca2+  Ca12  1  0.07452286  0.33088859  0.16643243  1
  Ca2+  Ca13  1  0.07619044  0.32450629  0.49414684  1
  Ca2+  Ca14  1  0.07302321  0.33091946  0.82653538  1
  Ca2+  Ca15  1  0.08258718  0.82664200  0.16365356  1
  Ca2+  Ca16  1  0.07394948  0.82635874  0.49157921  1
  Ca2+  Ca17  1  0.07444131  0.82374603  0.82938953  1
  Ca2+  Ca18  1  0.57852691  0.32790672  0.16326770  1
  Ca2+  Ca19  1  0.57809296  0.33265032  0.49300741  1
  Ca2+  Ca20  1  0.58557600  0.32617768  0.83462150  1
  Ca2+  Ca21  1  0.57524848  0.83475702  0.15893698  1
  Ca2+  Ca22  1  0.57548095  0.83036224  0.49617258  1
  Ca2+  Ca23  1  0.57731529  0.82670139  0.83152228  1
  Ca2+  Ca24  1  0.33629520  0.43130801  0.17496696  1
  Ca2+  Ca25  1  0.33402858  0.42307370  0.50096313  1
  Ca2+  Ca26  1  0.32683248  0.42732871  0.84361584  1
  Ca2+  Ca27  1  0.32948069  0.91096756  0.17612843  1
  Ca2+  Ca28  1  0.32691619  0.90731117  0.49969115  1
  Ca2+  Ca29  1  0.33583327  0.91044123  0.83699805  1
  Ca2+  Ca30  1  0.83695119  0.41444386  0.17035651  1
  Ca2+  Ca31  1  0.84073842  0.42076059  0.50695604  1
  Ca2+  Ca32  1  0.84164273  0.42236569  0.83521226  1
  Ca2+  Ca33  1  0.82243105  0.90266954  0.17211038  1
  Ca2+  Ca34  1  0.83024099  0.90491561  0.50265796  1
  Ca2+  Ca35  1  0.83039935  0.91063443  0.84149052  1
  Ca2+  Ca36  1  0.41992748  0.17202588  0.16419108  1
  Ca2+  Ca37  1  0.41609829  0.17523054  0.49290835  1
  Ca2+  Ca38  1  0.42611619  0.16158123  0.83234809  1
  Ca2+  Ca39  1  0.41578656  0.67501648  0.15996191  1
  Ca2+  Ca40  1  0.41906205  0.67340341  0.49453781  1
  Ca2+  Ca41  1  0.42412115  0.67291591  0.83222824  1
  Ca2+  Ca42  1  0.91687234  0.17423410  0.16653107  1
  Ca2+  Ca43  1  0.92381473  0.17553147  0.49490995  1
  Ca2+  Ca44  1  0.91796929  0.17862941  0.82699536  1
  Ca2+  Ca45  1  0.92803661  0.67703094  0.16272356  1
  Ca2+  Ca46  1  0.92387537  0.67000705  0.49756724  1
  Ca2+  Ca47  1  0.92161050  0.67429446  0.82552867  1
  Al0+  Al48  1  0.00048123  0.00237558  -0.00104613  1
  Al0+  Al49  1  -0.00327684  0.00113267  0.33123618  1
  Al0+  Al50  1  -0.00110360  0.00008386  0.66443173  1
  Al0+  Al51  1  0.00084107  0.49857559  -0.00431823  1
  Al0+  Al52  1  0.00226335  0.49949635  0.32645709  1
  Al0+  Al53  1  0.00047139  0.50001164  0.66555597  1
  Al0+  Al54  1  0.50042237  0.00186380  -0.00240673  1
  Al0+  Al55  1  0.50079455  -0.00062612  0.33697742  1
  Al0+  Al56  1  0.49929342  0.00032545  0.66345147  1
  Al0+  Al57  1  0.50013968  0.50020631  0.00143091  1
  Al0+  Al58  1  0.50028956  0.49940340  0.33579655  1
  Al0+  Al59  1  0.50021946  0.49862357  0.66748595  1
  Al0+  Al60  1  0.24924028  0.25173544  0.00256487  1
  Al0+  Al61  1  0.25060388  0.25196132  0.32477918  1
  Al0+  Al62  1  0.25133671  0.24898678  0.66768567  1
  Al0+  Al63  1  0.25035343  0.75157095  -0.00258923  1
  Al0+  Al64  1  0.25228598  0.75150231  0.33726412  1
  Al0+  Al65  1  0.25035998  0.75178304  0.66479210  1
  Al0+  Al66  1  0.74989056  0.25016242  -0.00643432  1
  Al0+  Al67  1  0.74901169  0.24850303  0.33238153  1
  Al0+  Al68  1  0.74861951  0.24846187  0.66377088  1
  Al0+  Al69  1  0.74920931  0.74917810  0.00111432  1
  Al0+  Al70  1  0.74987461  0.74670805  0.33799929  1
  Al0+  Al71  1  0.74765498  0.74745232  0.66678303  1
  Al0+  Al72  1  0.68024222  0.92851289  0.01322241  1
  Al0+  Al73  1  0.92690993  0.82109082  0.65229427  1
  Al0+  Al74  1  0.43016389  0.82227264  0.64943388  1
  Al0+  Al75  1  0.17771401  0.93053316  0.34714566  1
  Al0+  Al76  1  0.82062567  0.56897905  0.68121278  1
  Al0+  Al77  1  0.56899969  0.18016284  0.98744665  1
  Al0+  Al78  1  0.56997790  0.67656107  0.65053429  1
  Al0+  Al79  1  0.67918988  0.92763710  0.34909205  1
  Al0+  Al80  1  0.32092400  0.57119420  0.34934562  1
  Al0+  Al81  1  0.07156737  0.67999607  0.98509649  1
  Al0+  Al82  1  0.42881968  0.82249355  0.98619067  1
  Al0+  Al83  1  0.07201215  0.67875239  0.65142166  1
  Al0+  Al84  1  0.42923813  0.32296689  0.31972020  1
  Al0+  Al85  1  0.92775261  0.32151132  0.31775892  1
  Al0+  Al86  1  0.07131657  0.17724995  0.31672547  1
  Al0+  Al87  1  0.07295989  0.68085500  0.31802922  1
  Al0+  Al88  1  0.31979432  0.57129287  0.01376285  1
  Al0+  Al89  1  0.92939724  0.31968119  0.98466558  1
  Al0+  Al90  1  0.92798711  0.82245929  0.98630654  1
  Al0+  Al91  1  0.92818339  0.32108362  0.65120264  1
  Al0+  Al92  1  0.43153121  0.82051789  0.32004870  1
  Al0+  Al93  1  0.57177512  0.67640148  0.98663618  1
  Al0+  Al94  1  0.92532223  0.82073334  0.31868876  1
  Al0+  Al95  1  0.07329468  0.17879998  0.65265456  1
  Si0+  Si96  1  0.17623521  0.42705775  0.01870857  1
  Si0+  Si97  1  0.32189580  0.07425731  0.34921823  1
  Si0+  Si98  1  0.68006108  0.42711510  0.01525374  1
  Si0+  Si99  1  0.67916687  0.42713947  0.34742904  1
  Si0+  Si100  1  0.32130411  0.57168171  0.68286660  1
  Si0+  Si101  1  0.82200508  0.07384685  0.01615497  1
  Si0+  Si102  1  0.57225656  0.67690846  0.31807755  1
  Si0+  Si103  1  0.82227324  0.57000933  0.01592228  1
  Si0+  Si104  1  0.67827271  0.93026031  0.68273265  1
  Si0+  Si105  1  0.32196001  0.07220528  0.68235364  1
  Si0+  Si106  1  0.82251546  0.56759543  0.34714008  1
  Si0+  Si107  1  0.57095278  0.17820605  0.65043363  1
  Si0+  Si108  1  0.18114451  0.42730901  0.68108716  1
  Si0+  Si109  1  0.42715598  0.32289877  0.98327903  1
  Si0+  Si110  1  0.17995229  0.93197733  0.01370067  1
  Si0+  Si111  1  0.32232724  0.07374132  0.01508685  1
  Si0+  Si112  1  0.42940415  0.31996982  0.65421597  1
  Si0+  Si113  1  0.82011631  0.07441664  0.35152402  1
  Si0+  Si114  1  0.17842398  0.92968478  0.68263208  1
  Si0+  Si115  1  0.57102558  0.17768735  0.31750814  1
  Si0+  Si116  1  0.07441216  0.17793455  0.98298799  1
  Si0+  Si117  1  0.67583076  0.42493427  0.68487766  1
  Si0+  Si118  1  0.17830557  0.42739895  0.35015897  1
  Si0+  Si119  1  0.82041873  0.07188811  0.68215993  1
  O2-  O120  1  0.25072465  0.00366929  0.05612292  1
  O2-  O121  1  0.25091545  0.00853565  0.39400353  1
  O2-  O122  1  0.25073771  0.00116196  0.72408210  1
  O2-  O123  1  0.24431414  0.49707305  0.06109698  1
  O2-  O124  1  0.24473170  0.49745468  0.39633285  1
  O2-  O125  1  0.24729311  0.50295729  0.72409899  1
  O2-  O126  1  0.75901176  -0.00010257  0.06017507  1
  O2-  O127  1  0.75690637  0.00004521  0.39560247  1
  O2-  O128  1  0.75251827  -0.00189576  0.72507239  1
  O2-  O129  1  0.74994846  0.49898300  0.05772874  1
  O2-  O130  1  0.75301330  0.49433773  0.38908129  1
  O2-  O131  1  0.74567957  0.49269106  0.72802878  1
  O2-  O132  1  -0.00116602  0.24905424  0.26766827  1
  O2-  O133  1  0.00048151  0.24932176  0.60297469  1
  O2-  O134  1  0.00555870  0.24610037  0.93930269  1
  O2-  O135  1  0.00256177  0.75478158  0.26893200  1
  O2-  O136  1  -0.00058527  0.75010183  0.60260024  1
  O2-  O137  1  -0.00281649  0.74903240  0.93529169  1
  O2-  O138  1  0.50192852  0.24617142  0.27411226  1
  O2-  O139  1  0.50235816  0.25196736  0.61017805  1
  O2-  O140  1  0.49304496  0.25249158  0.93772260  1
  O2-  O141  1  0.50630880  0.74695890  0.27308023  1
  O2-  O142  1  0.49894537  0.74785590  0.59919823  1
  O2-  O143  1  0.50092070  0.74996385  0.93789565  1
  O2-  O144  1  0.07543115  0.17749755  0.08800377  1
  O2-  O145  1  0.07111533  0.18052715  0.43021235  1
  O2-  O146  1  0.07429678  0.18213492  0.76653853  1
  O2-  O147  1  0.07318569  0.68298273  0.09824640  1
  O2-  O148  1  0.06981491  0.67990811  0.43131749  1
  O2-  O149  1  0.07278667  0.68128514  0.76493506  1
  O2-  O150  1  0.56712388  0.18211229  0.10024970  1
  O2-  O151  1  0.57070026  0.17986879  0.42361315  1
  O2-  O152  1  0.56992562  0.17673897  0.75550760  1
  O2-  O153  1  0.57079383  0.67547513  0.10025312  1
  O2-  O154  1  0.57124943  0.67614417  0.42356860  1
  O2-  O155  1  0.56826099  0.67755175  0.76389445  1
  O2-  O156  1  0.18049102  0.42706772  0.24472614  1
  O2-  O157  1  0.18651527  0.42211594  0.57657180  1
  O2-  O158  1  0.17927262  0.42289728  0.91277026  1
  O2-  O159  1  0.18196746  0.93055126  0.23357403  1
  O2-  O160  1  0.17899448  0.93069371  0.57786026  1
  O2-  O161  1  0.17994610  0.93431065  0.90839660  1
  O2-  O162  1  0.67712361  0.42718083  0.24226864  1
  O2-  O163  1  0.67299408  0.42376403  0.57921407  1
  O2-  O164  1  0.68033155  0.42429183  0.91039956  1
  O2-  O165  1  0.67712393  0.93027956  0.23608148  1
  O2-  O166  1  0.67705525  0.93407115  0.57761408  1
  O2-  O167  1  0.67920154  0.93211857  0.89972780  1
  O2-  O168  1  0.42979743  0.32222383  0.08860813  1
  O2-  O169  1  0.43256830  0.32177589  0.43361113  1
  O2-  O170  1  0.42951658  0.31769718  0.75922504  1
  O2-  O171  1  0.42868372  0.82291808  0.09967036  1
  O2-  O172  1  0.43227868  0.81928904  0.43277980  1
  O2-  O173  1  0.43228333  0.82395699  0.76285929  1
  O2-  O174  1  0.92788942  0.31759313  0.09732991  1
  O2-  O175  1  0.92744285  0.32073433  0.43091400  1
  O2-  O176  1  0.92892905  0.31897977  0.76489630  1
  O2-  O177  1  0.92921211  0.82074921  0.09939747  1
  O2-  O178  1  0.92453729  0.81484563  0.43199737  1
  O2-  O179  1  0.92856598  0.82165514  0.76590657  1
  O2-  O180  1  0.32392093  0.07253766  0.24343101  1
  O2-  O181  1  0.32448746  0.07680861  0.57800093  1
  O2-  O182  1  0.32134081  0.07593086  0.90967902  1
  O2-  O183  1  0.32282968  0.57013573  0.23634840  1
  O2-  O184  1  0.32330924  0.56858637  0.57792952  1
  O2-  O185  1  0.31916638  0.56814167  0.90007805  1
  O2-  O186  1  0.81437585  0.08187459  0.24644395  1
  O2-  O187  1  0.81639306  0.07556577  0.57752213  1
  O2-  O188  1  0.81883762  0.07591499  0.91023199  1
  O2-  O189  1  0.81943060  0.56768651  0.24188323  1
  O2-  O190  1  0.81901787  0.56633986  0.56783338  1
  O2-  O191  1  0.82199860  0.56857094  0.91093507  1
  O2-  O192  1  0.04256584  0.07984657  0.26291387  1
  O2-  O193  1  0.04505008  0.08085096  0.60112704  1
  O2-  O194  1  0.05011636  0.08484589  0.93595228  1
  O2-  O195  1  0.04661613  0.58249795  0.26480052  1
  O2-  O196  1  0.04742008  0.57937640  0.60041971  1
  O2-  O197  1  0.04881306  0.57963301  0.93474572  1
  O2-  O198  1  0.54465188  0.08468619  0.27244051  1
  O2-  O199  1  0.53976117  0.08899488  0.60130880  1
  O2-  O200  1  0.53773223  0.08613999  0.92932464  1
  O2-  O201  1  0.54682759  0.58315302  0.27321242  1
  O2-  O202  1  0.54438085  0.57620654  0.59972737  1
  O2-  O203  1  0.54432853  0.57790698  0.93313984  1
  O2-  O204  1  0.16950324  0.20430951  0.26291594  1
  O2-  O205  1  0.17234636  0.20628052  0.60092281  1
  O2-  O206  1  0.16874484  0.20357601  0.93759950  1
  O2-  O207  1  0.17172217  0.71071165  0.26811142  1
  O2-  O208  1  0.17025463  0.70768431  0.60007047  1
  O2-  O209  1  0.16773965  0.71241206  0.93094624  1
  O2-  O210  1  0.66301493  0.20453071  0.27053044  1
  O2-  O211  1  0.66199628  0.20372231  0.60153078  1
  O2-  O212  1  0.66308269  0.21255923  0.93001891  1
  O2-  O213  1  0.66686018  0.69930693  0.27425381  1
  O2-  O214  1  0.66793844  0.70459258  0.59849370  1
  O2-  O215  1  0.67002319  0.70390482  0.93436384  1
  O2-  O216  1  0.08158285  0.45041323  0.06290344  1
  O2-  O217  1  0.08302157  0.45030109  0.39395133  1
  O2-  O218  1  0.08765016  0.45045580  0.72685555  1
  O2-  O219  1  0.08810554  0.95961496  0.06169650  1
  O2-  O220  1  0.07922507  0.95901401  0.39950124  1
  O2-  O221  1  0.08686912  0.95841981  0.73073154  1
  O2-  O222  1  0.58756105  0.45259373  0.06294626  1
  O2-  O223  1  0.58924732  0.45676460  0.39797282  1
  O2-  O224  1  0.58206029  0.44925221  0.73237923  1
  O2-  O225  1  0.58436963  0.96582475  0.06576235  1
  O2-  O226  1  0.58460329  0.96331796  0.40554206  1
  O2-  O227  1  0.58743782  0.96417566  0.72890155  1
  O2-  O228  1  0.20227110  0.33373810  0.06608193  1
  O2-  O229  1  0.20779954  0.33401949  0.39518672  1
  O2-  O230  1  0.21422015  0.33816929  0.73222252  1
  O2-  O231  1  0.20896895  0.84072974  0.06050823  1
  O2-  O232  1  0.21272015  0.83677062  0.40363151  1
  O2-  O233  1  0.20812510  0.83868580  0.73107902  1
  O2-  O234  1  0.70952320  0.33556548  0.06285693  1
  O2-  O235  1  0.70162960  0.33379751  0.39506158  1
  O2-  O236  1  0.69986298  0.32969334  0.72939993  1
  O2-  O237  1  0.70584964  0.83097076  0.06842845  1
  O2-  O238  1  0.70743359  0.83013171  0.40343152  1
  O2-  O239  1  0.70143146  0.83672952  0.72776001  1
  O2-  O240  1  0.46500633  0.41726887  0.26529616  1
  O2-  O241  1  0.45464920  0.41177525  0.60652124  1
  O2-  O242  1  0.45587948  0.41448648  0.93627874  1
  O2-  O243  1  0.45954535  0.91908510  0.26887984  1
  O2-  O244  1  0.45892356  0.92059939  0.59654996  1
  O2-  O245  1  0.45530283  0.92105258  0.93313373  1
  O2-  O246  1  0.95690275  0.41798592  0.26216150  1
  O2-  O247  1  0.95740058  0.41852379  0.59968667  1
  O2-  O248  1  0.96001376  0.41549591  0.92997317  1
  O2-  O249  1  0.94085023  0.92320695  0.27153087  1
  O2-  O250  1  0.95192471  0.92039612  0.60076662  1
  O2-  O251  1  0.95514686  0.92217870  0.93490693  1
  O2-  O252  1  0.33459457  0.29597130  0.26202376  1
  O2-  O253  1  0.33992112  0.28896348  0.60548209  1
  O2-  O254  1  0.33213714  0.29956715  0.93929298  1
  O2-  O255  1  0.33509662  0.78976724  0.26792485  1
  O2-  O256  1  0.33070072  0.79594600  0.59995094  1
  O2-  O257  1  0.33194639  0.79394637  0.93138238  1
  O2-  O258  1  0.82818834  0.29316797  0.26636104  1
  O2-  O259  1  0.82873871  0.29357296  0.60001713  1
  O2-  O260  1  0.83414879  0.28888365  0.92874225  1
  O2-  O261  1  0.82882298  0.78410476  0.26666476  1
  O2-  O262  1  0.82823645  0.79254922  0.60213190  1
  O2-  O263  1  0.82908454  0.79485412  0.93553706  1
  O2-  O264  1  0.41431848  0.04781427  0.06205649  1
  O2-  O265  1  0.41502603  0.04910139  0.39694562  1
  O2-  O266  1  0.41410283  0.04307727  0.73017091  1
  O2-  O267  1  0.41619504  0.53834290  0.06768163  1
  O2-  O268  1  0.41677674  0.53587031  0.40394179  1
  O2-  O269  1  0.41190672  0.53945847  0.73051252  1
  O2-  O270  1  0.91856848  0.05671148  0.05923652  1
  O2-  O271  1  0.91590637  0.05626370  0.39465022  1
  O2-  O272  1  0.91391188  0.04910732  0.72868360  1
  O2-  O273  1  0.91390093  0.53954984  0.06214562  1
  O2-  O274  1  0.91521648  0.54017377  0.39269737  1
  O2-  O275  1  0.91784491  0.53863484  0.73571573  1
  O2-  O276  1  0.29687295  0.16645379  0.06299332  1
  O2-  O277  1  0.29961993  0.17045266  0.39211320  1
  O2-  O278  1  0.29522760  0.16313117  0.73355656  1
  O2-  O279  1  0.28984423  0.66909921  0.06604658  1
  O2-  O280  1  0.29171785  0.66698199  0.40494779  1
  O2-  O281  1  0.29556458  0.66473576  0.72858010  1
  O2-  O282  1  0.78863107  0.16537712  0.06214904  1
  O2-  O283  1  0.78691681  0.16486485  0.40177971  1
  O2-  O284  1  0.78823828  0.16260241  0.73077340  1
  O2-  O285  1  0.79413593  0.66084868  0.06455638  1
  O2-  O286  1  0.79234751  0.65675375  0.39784502  1
  O2-  O287  1  0.78743069  0.66505763  0.73628878  1
