# generated using pymatgen
data_Ca2Al2SiO7
_symmetry_space_group_name_H-M   'P 1'
_cell_length_a   15.47099742
_cell_length_b   15.47055562
_cell_length_c   15.29190378
_cell_angle_alpha   90.00571006
_cell_angle_beta   89.99369512
_cell_angle_gamma   90.05720180
_symmetry_Int_Tables_number   1
_chemical_formula_structural   Ca2Al2SiO7
_chemical_formula_sum   'Ca48 Al48 Si24 O168'
_cell_volume   3660.03771619
_cell_formula_units_Z   24
loop_
 _symmetry_equiv_pos_site_id
 _symmetry_equiv_pos_as_xyz
  1  'x, y, z'
loop_
 _atom_type_symbol
 _atom_type_oxidation_number
  Ca2+  2.0
  Al0+  0.0
  Si0+  0.0
  O2-  -2.0
loop_
 _atom_site_type_symbol
 _atom_site_label
 _atom_site_symmetry_multiplicity
 _atom_site_fract_x
 _atom_site_fract_y
 _atom_site_fract_z
 _atom_site_occupancy
  Ca2+  Ca0  1  0.17797276  0.07634101  0.17504133  1
  Ca2+  Ca1  1  0.17306813  0.08132381  0.50821213  1
  Ca2+  Ca2  1  0.17660748  0.08967839  0.83107437  1
  Ca2+  Ca3  1  0.17618327  0.58169007  0.17738381  1
  Ca2+  Ca4  1  0.16645153  0.57300800  0.49797307  1
  Ca2+  Ca5  1  0.17093376  0.57452294  0.83455518  1
  Ca2+  Ca6  1  0.66811092  0.07095661  0.17428673  1
  Ca2+  Ca7  1  0.67473830  0.07630326  0.50389998  1
  Ca2+  Ca8  1  0.66815793  0.07771082  0.83390361  1
  Ca2+  Ca9  1  0.67025947  0.57846674  0.17013323  1
  Ca2+  Ca10  1  0.67950055  0.58054302  0.50666490  1
  Ca2+  Ca11  1  0.66907310  0.57086812  0.83104645  1
  Ca2+  Ca12  1  0.08449754  0.33480538  0.16785435  1
  Ca2+  Ca13  1  0.08468654  0.33197171  0.50071528  1
  Ca2+  Ca14  1  0.07935948  0.32721313  0.81768558  1
  Ca2+  Ca15  1  0.09232468  0.82659800  0.16772547  1
  Ca2+  Ca16  1  0.09043002  0.82864854  0.49148389  1
  Ca2+  Ca17  1  0.08492839  0.83151991  0.82514362  1
  Ca2+  Ca18  1  0.57751937  0.33406061  0.16354879  1
  Ca2+  Ca19  1  0.57160561  0.33870377  0.49637397  1
  Ca2+  Ca20  1  0.57868773  0.33819275  0.82323743  1
  Ca2+  Ca21  1  0.58071239  0.83540804  0.15886338  1
  Ca2+  Ca22  1  0.58747777  0.83662421  0.49603617  1
  Ca2+  Ca23  1  0.58066295  0.84095272  0.83025141  1
  Ca2+  Ca24  1  0.33079256  0.42798170  0.17728246  1
  Ca2+  Ca25  1  0.32650794  0.41173876  0.50350598  1
  Ca2+  Ca26  1  0.32992691  0.41614776  0.83393171  1
  Ca2+  Ca27  1  0.33639819  0.92638297  0.17275844  1
  Ca2+  Ca28  1  0.32295584  0.92755134  0.50348763  1
  Ca2+  Ca29  1  0.33328379  0.92813318  0.83620725  1
  Ca2+  Ca30  1  0.82584396  0.41976575  0.17256329  1
  Ca2+  Ca31  1  0.83444264  0.42631358  0.51015979  1
  Ca2+  Ca32  1  0.82714227  0.41262380  0.83138400  1
  Ca2+  Ca33  1  0.82111817  0.91862582  0.17576043  1
  Ca2+  Ca34  1  0.82584674  0.92489339  0.50537331  1
  Ca2+  Ca35  1  0.82381866  0.92132597  0.83227623  1
  Ca2+  Ca36  1  0.40864998  0.17037072  0.16582492  1
  Ca2+  Ca37  1  0.40805017  0.17465705  0.49700307  1
  Ca2+  Ca38  1  0.41602040  0.16873309  0.82392658  1
  Ca2+  Ca39  1  0.40994124  0.67333405  0.15872626  1
  Ca2+  Ca40  1  0.41764648  0.66755270  0.49237377  1
  Ca2+  Ca41  1  0.41450903  0.67207085  0.83226403  1
  Ca2+  Ca42  1  0.91736931  0.16278200  0.16526777  1
  Ca2+  Ca43  1  0.91677356  0.16410810  0.49873107  1
  Ca2+  Ca44  1  0.92366854  0.17050331  0.81790255  1
  Ca2+  Ca45  1  0.92199365  0.66252904  0.16948366  1
  Ca2+  Ca46  1  0.91923054  0.66441798  0.49115542  1
  Ca2+  Ca47  1  0.91462710  0.66745434  0.82556027  1
  Al0+  Al48  1  0.00117403  -0.00105652  -0.00271760  1
  Al0+  Al49  1  -0.00208958  -0.00122408  0.33461085  1
  Al0+  Al50  1  -0.00059115  -0.00265272  0.66862358  1
  Al0+  Al51  1  -0.00077047  0.49931450  -0.00215065  1
  Al0+  Al52  1  0.00059941  0.50054210  0.33242738  1
  Al0+  Al53  1  0.00263890  0.50112270  0.67171824  1
  Al0+  Al54  1  0.49981296  0.00132310  0.00340186  1
  Al0+  Al55  1  0.49980971  0.00074742  0.34048550  1
  Al0+  Al56  1  0.49824239  0.00055572  0.66963963  1
  Al0+  Al57  1  0.50019634  0.50116715  0.00636527  1
  Al0+  Al58  1  0.50003541  0.50117766  0.32921248  1
  Al0+  Al59  1  0.50155409  0.50318818  0.66385628  1
  Al0+  Al60  1  0.24891734  0.24971723  0.00283990  1
  Al0+  Al61  1  0.24835482  0.25162387  0.33141138  1
  Al0+  Al62  1  0.24960259  0.25103983  0.66706782  1
  Al0+  Al63  1  0.25017385  0.74964203  -0.00531239  1
  Al0+  Al64  1  0.25165736  0.74894303  0.33400707  1
  Al0+  Al65  1  0.25105923  0.75134835  0.66754672  1
  Al0+  Al66  1  0.74945040  0.25013062  0.00430667  1
  Al0+  Al67  1  0.74809915  0.24859635  0.33291162  1
  Al0+  Al68  1  0.74909989  0.25047447  0.66781697  1
  Al0+  Al69  1  0.75088166  0.74832956  0.00148561  1
  Al0+  Al70  1  0.74961345  0.74805109  0.33703222  1
  Al0+  Al71  1  0.75002854  0.74911396  0.67379187  1
  Al0+  Al72  1  0.43043138  0.82216757  0.98554149  1
  Al0+  Al73  1  0.07100552  0.67959201  0.31924591  1
  Al0+  Al74  1  0.17871547  0.42927303  0.34796203  1
  Al0+  Al75  1  0.67830064  0.92764096  0.34836544  1
  Al0+  Al76  1  0.32355702  0.57178123  0.34863900  1
  Al0+  Al77  1  0.43058451  0.32217802  0.65420506  1
  Al0+  Al78  1  0.32050800  0.07170800  0.01495313  1
  Al0+  Al79  1  0.17907457  0.92762766  0.34530346  1
  Al0+  Al80  1  0.82181194  0.07261997  0.68198823  1
  Al0+  Al81  1  0.68002115  0.92932346  0.01378313  1
  Al0+  Al82  1  0.17822275  0.92634513  0.68238545  1
  Al0+  Al83  1  0.67732659  0.42887832  0.67819921  1
  Al0+  Al84  1  0.67917144  0.42794789  0.01516082  1
  Al0+  Al85  1  0.82188927  0.07301986  0.34751071  1
  Al0+  Al86  1  0.82338792  0.57019878  0.68230368  1
  Al0+  Al87  1  0.82011550  0.56810119  0.34498049  1
  Al0+  Al88  1  0.31858831  0.07215000  0.68230563  1
  Al0+  Al89  1  0.07002411  0.17749219  0.65025545  1
  Al0+  Al90  1  0.18147654  0.43013992  0.68058604  1
  Al0+  Al91  1  0.67845476  0.92895466  0.68295076  1
  Al0+  Al92  1  0.92751522  0.32246406  0.65116059  1
  Al0+  Al93  1  0.31900249  0.57118233  0.01212070  1
  Al0+  Al94  1  0.42770108  0.32103271  0.31721779  1
  Al0+  Al95  1  0.32020966  0.07310850  0.34891832  1
  Si0+  Si96  1  0.57359372  0.67929623  0.31713696  1
  Si0+  Si97  1  0.32435307  0.57352956  0.68270612  1
  Si0+  Si98  1  0.57367436  0.67672797  0.98192635  1
  Si0+  Si99  1  0.57098906  0.18025835  0.98612183  1
  Si0+  Si100  1  0.67703425  0.42692845  0.34900667  1
  Si0+  Si101  1  0.07061833  0.67846968  0.98298236  1
  Si0+  Si102  1  0.42921623  0.32208006  0.98586802  1
  Si0+  Si103  1  0.57132727  0.17766041  0.31564540  1
  Si0+  Si104  1  0.07064381  0.17898601  0.98559554  1
  Si0+  Si105  1  0.92601853  0.82111830  0.31636122  1
  Si0+  Si106  1  0.82388614  0.57117141  0.01813245  1
  Si0+  Si107  1  0.07295295  0.67964886  0.65131704  1
  Si0+  Si108  1  0.17694938  0.92765547  0.01576895  1
  Si0+  Si109  1  0.43100494  0.82057813  0.31939441  1
  Si0+  Si110  1  0.92813032  0.82048330  0.98427092  1
  Si0+  Si111  1  0.92742079  0.81858216  0.65184513  1
  Si0+  Si112  1  0.57219679  0.17574454  0.64973659  1
  Si0+  Si113  1  0.17674911  0.42825912  0.01659194  1
  Si0+  Si114  1  0.92771330  0.32037717  0.98591226  1
  Si0+  Si115  1  0.07019988  0.17690577  0.31665909  1
  Si0+  Si116  1  0.57116430  0.68135734  0.65126544  1
  Si0+  Si117  1  0.42886178  0.82245583  0.64993505  1
  Si0+  Si118  1  0.82387102  0.07104125  0.01592175  1
  Si0+  Si119  1  0.92802972  0.32101938  0.31772815  1
  O2-  O120  1  0.24685455  -0.00514947  0.05933537  1
  O2-  O121  1  0.24453852  0.00406815  0.39644412  1
  O2-  O122  1  0.24667746  0.00057373  0.73356107  1
  O2-  O123  1  0.24495442  0.49694965  0.05999840  1
  O2-  O124  1  0.25505059  0.49678933  0.39762492  1
  O2-  O125  1  0.25767108  0.50329043  0.72715773  1
  O2-  O126  1  0.75649256  0.00175938  0.06050875  1
  O2-  O127  1  0.75126663  -0.00062271  0.39550298  1
  O2-  O128  1  0.74779266  0.00333522  0.73297841  1
  O2-  O129  1  0.75458266  0.50263631  0.06089471  1
  O2-  O130  1  0.74781422  0.49275193  0.39253353  1
  O2-  O131  1  0.75435371  0.49446630  0.73031070  1
  O2-  O132  1  -0.00298879  0.24739296  0.27484915  1
  O2-  O133  1  -0.00433649  0.24742581  0.59978884  1
  O2-  O134  1  -0.00131016  0.24946459  0.94444154  1
  O2-  O135  1  -0.00160651  0.75638128  0.27076588  1
  O2-  O136  1  0.00137834  0.75044551  0.60991467  1
  O2-  O137  1  -0.00076597  0.74937971  0.94140852  1
  O2-  O138  1  0.50178425  0.24520369  0.26985619  1
  O2-  O139  1  0.50573930  0.24770320  0.60727293  1
  O2-  O140  1  0.50082943  0.25209255  0.94319227  1
  O2-  O141  1  0.50232132  0.75031504  0.27562804  1
  O2-  O142  1  0.50125741  0.75280152  0.60787191  1
  O2-  O143  1  0.50652741  0.74768489  0.93840853  1
  O2-  O144  1  0.06983143  0.17832358  0.09084172  1
  O2-  O145  1  0.07121550  0.17641879  0.42091031  1
  O2-  O146  1  0.07105513  0.18182011  0.76485998  1
  O2-  O147  1  0.07046687  0.67788494  0.08790704  1
  O2-  O148  1  0.06895200  0.67905275  0.43210004  1
  O2-  O149  1  0.07344224  0.68077049  0.75710429  1
  O2-  O150  1  0.57144036  0.18147571  0.09108110  1
  O2-  O151  1  0.57364178  0.17984321  0.42063973  1
  O2-  O152  1  0.56947150  0.17437375  0.75602787  1
  O2-  O153  1  0.57434169  0.67711171  0.08771087  1
  O2-  O154  1  0.57476600  0.67945403  0.42217329  1
  O2-  O155  1  0.56895507  0.67969014  0.75637063  1
  O2-  O156  1  0.17811655  0.43204967  0.23357290  1
  O2-  O157  1  0.18059077  0.43169324  0.56824268  1
  O2-  O158  1  0.17668852  0.42804704  0.91111631  1
  O2-  O159  1  0.18327137  0.92805067  0.23100418  1
  O2-  O160  1  0.18286856  0.92221432  0.56940988  1
  O2-  O161  1  0.17470420  0.92912225  0.91065454  1
  O2-  O162  1  0.67892950  0.42851800  0.24272535  1
  O2-  O163  1  0.67382116  0.43625534  0.56519357  1
  O2-  O164  1  0.67946669  0.42798045  0.90259573  1
  O2-  O165  1  0.67850535  0.92755541  0.23420480  1
  O2-  O166  1  0.68141159  0.92730251  0.56989873  1
  O2-  O167  1  0.68107603  0.93183930  0.90132535  1
  O2-  O168  1  0.42924137  0.32070952  0.09078916  1
  O2-  O169  1  0.42998000  0.32218274  0.43004254  1
  O2-  O170  1  0.43188777  0.32283705  0.76823780  1
  O2-  O171  1  0.43107981  0.82097936  0.09898228  1
  O2-  O172  1  0.43180960  0.81846099  0.42445823  1
  O2-  O173  1  0.42863703  0.82073709  0.75523807  1
  O2-  O174  1  0.92867291  0.32110868  0.09133297  1
  O2-  O175  1  0.92783286  0.32313247  0.42191914  1
  O2-  O176  1  0.93151599  0.32162607  0.76576420  1
  O2-  O177  1  0.92800189  0.82095541  0.08908604  1
  O2-  O178  1  0.92364342  0.81740882  0.42155854  1
  O2-  O179  1  0.92694446  0.81521346  0.75763463  1
  O2-  O180  1  0.31997765  0.07026694  0.23467582  1
  O2-  O181  1  0.31819609  0.07071716  0.56929308  1
  O2-  O182  1  0.31940066  0.07513622  0.90250922  1
  O2-  O183  1  0.32061898  0.57320695  0.23463170  1
  O2-  O184  1  0.32372849  0.57514165  0.57759990  1
  O2-  O185  1  0.31736313  0.56964345  0.89897780  1
  O2-  O186  1  0.81987143  0.07158654  0.23303563  1
  O2-  O187  1  0.82078631  0.06868044  0.56880070  1
  O2-  O188  1  0.82387180  0.07125073  0.91094094  1
  O2-  O189  1  0.81838426  0.56645919  0.23136393  1
  O2-  O190  1  0.82130633  0.57289943  0.56881319  1
  O2-  O191  1  0.82643423  0.57093858  0.91310507  1
  O2-  O192  1  0.04269487  0.08504856  0.26739270  1
  O2-  O193  1  0.04557332  0.07643253  0.60089054  1
  O2-  O194  1  0.04555824  0.08662320  0.93767297  1
  O2-  O195  1  0.03717049  0.58448878  0.26223801  1
  O2-  O196  1  0.04571284  0.58755907  0.60581471  1
  O2-  O197  1  0.04259083  0.58603823  0.93563073  1
  O2-  O198  1  0.54571609  0.08255923  0.27152761  1
  O2-  O199  1  0.54359075  0.08307666  0.60318570  1
  O2-  O200  1  0.54200271  0.08918227  0.93868080  1
  O2-  O201  1  0.54811904  0.58755934  0.26788276  1
  O2-  O202  1  0.54332394  0.59143222  0.60047620  1
  O2-  O203  1  0.54366945  0.58362602  0.93687322  1
  O2-  O204  1  0.16007602  0.20756452  0.26631174  1
  O2-  O205  1  0.16741050  0.21058348  0.59889790  1
  O2-  O206  1  0.16207539  0.20914036  0.93845334  1
  O2-  O207  1  0.16808581  0.71073223  0.26399418  1
  O2-  O208  1  0.16487790  0.70768319  0.60427345  1
  O2-  O209  1  0.16124925  0.70558197  0.93322541  1
  O2-  O210  1  0.66436071  0.20356336  0.26638205  1
  O2-  O211  1  0.66692125  0.19732856  0.60532072  1
  O2-  O212  1  0.66423848  0.20626608  0.93989584  1
  O2-  O213  1  0.66484421  0.70715284  0.26767073  1
  O2-  O214  1  0.66400554  0.70941217  0.60576579  1
  O2-  O215  1  0.66887167  0.69897780  0.93730362  1
  O2-  O216  1  0.08223595  0.45353054  0.06110432  1
  O2-  O217  1  0.08226320  0.46198128  0.40017210  1
  O2-  O218  1  0.08768884  0.46345362  0.73835400  1
  O2-  O219  1  0.08351766  0.95368802  0.06253448  1
  O2-  O220  1  0.07715131  0.94552276  0.39306723  1
  O2-  O221  1  0.07762600  0.94632846  0.73299998  1
  O2-  O222  1  0.58401507  0.45966232  0.07090636  1
  O2-  O223  1  0.58413228  0.45559815  0.39220261  1
  O2-  O224  1  0.58223450  0.46607756  0.73432107  1
  O2-  O225  1  0.58494427  0.96206446  0.06848674  1
  O2-  O226  1  0.58163211  0.95567484  0.40292247  1
  O2-  O227  1  0.57928130  0.95559175  0.73426973  1
  O2-  O228  1  0.20125950  0.33484924  0.06278558  1
  O2-  O229  1  0.20177968  0.32974838  0.39823297  1
  O2-  O230  1  0.21169653  0.33494702  0.73656243  1
  O2-  O231  1  0.20135186  0.83244181  0.05785941  1
  O2-  O232  1  0.21123864  0.83164392  0.39888434  1
  O2-  O233  1  0.21053866  0.82940301  0.73754257  1
  O2-  O234  1  0.71028254  0.33236214  0.07170724  1
  O2-  O235  1  0.69795260  0.33222200  0.39208568  1
  O2-  O236  1  0.69646781  0.32898252  0.73106216  1
  O2-  O237  1  0.70829530  0.83082302  0.06572018  1
  O2-  O238  1  0.70585165  0.82948599  0.40047956  1
  O2-  O239  1  0.70910783  0.83244400  0.73809347  1
  O2-  O240  1  0.46033494  0.41782035  0.26213093  1
  O2-  O241  1  0.46016548  0.41937909  0.59979595  1
  O2-  O242  1  0.45664846  0.41496301  0.94076049  1
  O2-  O243  1  0.45823652  0.91380142  0.27381019  1
  O2-  O244  1  0.45522030  0.91467308  0.60326580  1
  O2-  O245  1  0.46168937  0.91941854  0.93276619  1
  O2-  O246  1  0.95911656  0.41085998  0.26737129  1
  O2-  O247  1  0.96072529  0.42161225  0.60204289  1
  O2-  O248  1  0.95376823  0.41274140  0.93849487  1
  O2-  O249  1  0.94545714  0.91641357  0.27052951  1
  O2-  O250  1  0.95017919  0.91153136  0.60576521  1
  O2-  O251  1  0.95585757  0.91231261  0.93602166  1
  O2-  O252  1  0.33038719  0.29268460  0.26189134  1
  O2-  O253  1  0.33438488  0.29078807  0.60104851  1
  O2-  O254  1  0.33596104  0.29426441  0.94067479  1
  O2-  O255  1  0.34027314  0.79177948  0.27040714  1
  O2-  O256  1  0.33794192  0.79183747  0.60248008  1
  O2-  O257  1  0.33436507  0.79035866  0.92999514  1
  O2-  O258  1  0.83523462  0.29483410  0.26942697  1
  O2-  O259  1  0.82594907  0.30218691  0.60135701  1
  O2-  O260  1  0.83508010  0.29337329  0.94003808  1
  O2-  O261  1  0.83428657  0.78892572  0.26851240  1
  O2-  O262  1  0.83622807  0.78712362  0.60549374  1
  O2-  O263  1  0.83674871  0.79131487  0.93624592  1
  O2-  O264  1  0.41667567  0.04250264  0.06948804  1
  O2-  O265  1  0.41714540  0.04469192  0.40226198  1
  O2-  O266  1  0.41640225  0.04235206  0.73527622  1
  O2-  O267  1  0.41553815  0.54439440  0.06729243  1
  O2-  O268  1  0.42444929  0.54879409  0.39767702  1
  O2-  O269  1  0.41821865  0.55052234  0.72832814  1
  O2-  O270  1  0.91829405  0.04552120  0.06090887  1
  O2-  O271  1  0.92037185  0.04762536  0.39931842  1
  O2-  O272  1  0.91862813  0.04115466  0.73600336  1
  O2-  O273  1  0.91742232  0.54381785  0.06417433  1
  O2-  O274  1  0.91656048  0.53969566  0.39780135  1
  O2-  O275  1  0.92185211  0.54731160  0.73677698  1
  O2-  O276  1  0.28687195  0.16741195  0.06980951  1
  O2-  O277  1  0.29324607  0.17232813  0.39772867  1
  O2-  O278  1  0.29045479  0.16984540  0.73651639  1
  O2-  O279  1  0.28728834  0.66839246  0.06447348  1
  O2-  O280  1  0.29360670  0.66847479  0.40166903  1
  O2-  O281  1  0.29577831  0.66575833  0.72964561  1
  O2-  O282  1  0.79866834  0.16442659  0.06235964  1
  O2-  O283  1  0.79298056  0.17104869  0.39976482  1
  O2-  O284  1  0.79728985  0.17186964  0.73456884  1
  O2-  O285  1  0.79923547  0.66474631  0.06414855  1
  O2-  O286  1  0.78942714  0.66324571  0.39995384  1
  O2-  O287  1  0.78922265  0.66507881  0.73864579  1
