# generated using pymatgen
data_Ca2Al2SiO7
_symmetry_space_group_name_H-M   'P 1'
_cell_length_a   15.45261311
_cell_length_b   15.45249900
_cell_length_c   15.28007856
_cell_angle_alpha   89.99356419
_cell_angle_beta   90.00285509
_cell_angle_gamma   89.99597888
_symmetry_Int_Tables_number   1
_chemical_formula_structural   Ca2Al2SiO7
_chemical_formula_sum   'Ca48 Al48 Si24 O168'
_cell_volume   3648.59986877
_cell_formula_units_Z   24
loop_
 _symmetry_equiv_pos_site_id
 _symmetry_equiv_pos_as_xyz
  1  'x, y, z'
loop_
 _atom_type_symbol
 _atom_type_oxidation_number
  Ca2+  2.0
  Al0+  0.0
  Si0+  0.0
  O2-  -2.0
loop_
 _atom_site_type_symbol
 _atom_site_label
 _atom_site_symmetry_multiplicity
 _atom_site_fract_x
 _atom_site_fract_y
 _atom_site_fract_z
 _atom_site_occupancy
  Ca2+  Ca0  1  0.16863741  0.07004406  0.17603110  1
  Ca2+  Ca1  1  0.16624564  0.08481410  0.49952302  1
  Ca2+  Ca2  1  0.16195240  0.07707482  0.83855841  1
  Ca2+  Ca3  1  0.16942009  0.58559209  0.17352376  1
  Ca2+  Ca4  1  0.15971101  0.57866144  0.49670191  1
  Ca2+  Ca5  1  0.17347989  0.58723126  0.84541136  1
  Ca2+  Ca6  1  0.67123987  0.08639328  0.17086690  1
  Ca2+  Ca7  1  0.67190406  0.07738998  0.51002121  1
  Ca2+  Ca8  1  0.67843899  0.07465378  0.83878072  1
  Ca2+  Ca9  1  0.67539447  0.58573599  0.17330747  1
  Ca2+  Ca10  1  0.66573037  0.58511730  0.49895290  1
  Ca2+  Ca11  1  0.66912054  0.58852781  0.84065574  1
  Ca2+  Ca12  1  0.08232881  0.33042506  0.16414714  1
  Ca2+  Ca13  1  0.08502265  0.32286610  0.49120164  1
  Ca2+  Ca14  1  0.07326069  0.32825215  0.83042801  1
  Ca2+  Ca15  1  0.08505803  0.82600126  0.15900151  1
  Ca2+  Ca16  1  0.07497239  0.83271370  0.49262799  1
  Ca2+  Ca17  1  0.07482034  0.83407904  0.83689538  1
  Ca2+  Ca18  1  0.58329079  0.33142889  0.16464289  1
  Ca2+  Ca19  1  0.58378603  0.32765621  0.48937387  1
  Ca2+  Ca20  1  0.57570207  0.33694575  0.83476941  1
  Ca2+  Ca21  1  0.57563092  0.82218246  0.15961438  1
  Ca2+  Ca22  1  0.59086911  0.82475682  0.49606008  1
  Ca2+  Ca23  1  0.58963667  0.82223013  0.83122361  1
  Ca2+  Ca24  1  0.33101984  0.42012430  0.16850126  1
  Ca2+  Ca25  1  0.32541515  0.41432976  0.49839176  1
  Ca2+  Ca26  1  0.33213772  0.42268659  0.84341966  1
  Ca2+  Ca27  1  0.32261698  0.91219231  0.17096260  1
  Ca2+  Ca28  1  0.32825917  0.91955857  0.49677536  1
  Ca2+  Ca29  1  0.32542577  0.91212744  0.84498059  1
  Ca2+  Ca30  1  0.83479818  0.42854418  0.17223513  1
  Ca2+  Ca31  1  0.83006748  0.42366971  0.49613663  1
  Ca2+  Ca32  1  0.83159751  0.42233831  0.84531079  1
  Ca2+  Ca33  1  0.83840555  0.91965576  0.16443013  1
  Ca2+  Ca34  1  0.82953273  0.92012989  0.51083577  1
  Ca2+  Ca35  1  0.83984087  0.92127240  0.83675188  1
  Ca2+  Ca36  1  0.41812288  0.16878746  0.16584962  1
  Ca2+  Ca37  1  0.42283638  0.16410473  0.48819622  1
  Ca2+  Ca38  1  0.41355423  0.17422857  0.83299326  1
  Ca2+  Ca39  1  0.42582932  0.66469088  0.15607035  1
  Ca2+  Ca40  1  0.42901687  0.66869629  0.49444056  1
  Ca2+  Ca41  1  0.42400608  0.66925725  0.83536920  1
  Ca2+  Ca42  1  0.91994226  0.17275995  0.15962868  1
  Ca2+  Ca43  1  0.92693216  0.16027529  0.49687404  1
  Ca2+  Ca44  1  0.91627673  0.16490013  0.83062462  1
  Ca2+  Ca45  1  0.92554605  0.66494440  0.15811870  1
  Ca2+  Ca46  1  0.91561139  0.67485868  0.49228581  1
  Ca2+  Ca47  1  0.91454370  0.67664391  0.83449960  1
  Al0+  Al48  1  0.00114269  -0.00086640  0.00745704  1
  Al0+  Al49  1  0.00024358  0.00083139  0.33272718  1
  Al0+  Al50  1  0.00130860  0.00035569  0.66148019  1
  Al0+  Al51  1  -0.00027302  0.49722158  -0.00586734  1
  Al0+  Al52  1  -0.00007458  0.50192568  0.34068060  1
  Al0+  Al53  1  -0.00073441  0.49833162  0.66816413  1
  Al0+  Al54  1  0.50039676  0.00001077  -0.00381137  1
  Al0+  Al55  1  0.50026292  0.00062676  0.33155633  1
  Al0+  Al56  1  0.49847804  -0.00006706  0.67337657  1
  Al0+  Al57  1  0.49888740  0.49717187  -0.00382029  1
  Al0+  Al58  1  0.50082265  0.49968996  0.33382476  1
  Al0+  Al59  1  0.49855107  0.50079390  0.66120812  1
  Al0+  Al60  1  0.25142427  0.24880711  -0.00491356  1
  Al0+  Al61  1  0.25030625  0.25009674  0.33583449  1
  Al0+  Al62  1  0.24826323  0.25114356  0.66481447  1
  Al0+  Al63  1  0.25199692  0.74822303  0.00220921  1
  Al0+  Al64  1  0.24837387  0.75103620  0.33866273  1
  Al0+  Al65  1  0.25192186  0.74935604  0.66564340  1
  Al0+  Al66  1  0.75089330  0.24857125  -0.00095192  1
  Al0+  Al67  1  0.74967571  0.25166478  0.33374513  1
  Al0+  Al68  1  0.74885536  0.25243753  0.67111575  1
  Al0+  Al69  1  0.75123946  0.75090913  -0.00108393  1
  Al0+  Al70  1  0.74999392  0.75222942  0.33137693  1
  Al0+  Al71  1  0.75004684  0.74904969  0.66121389  1
  Al0+  Al72  1  0.56948604  0.68065986  0.65065623  1
  Al0+  Al73  1  0.17923799  0.42978911  0.34586902  1
  Al0+  Al74  1  0.06875030  0.18135863  0.65253688  1
  Al0+  Al75  1  0.57179655  0.67849139  0.98573024  1
  Al0+  Al76  1  0.67841972  0.92636415  0.68270558  1
  Al0+  Al77  1  0.82091894  0.57383829  0.34930359  1
  Al0+  Al78  1  0.67810238  0.42919290  0.34782626  1
  Al0+  Al79  1  0.42925162  0.31868715  0.98682910  1
  Al0+  Al80  1  0.06959717  0.67920308  0.32135355  1
  Al0+  Al81  1  0.93033035  0.82250319  0.98640403  1
  Al0+  Al82  1  0.32084319  0.56907069  0.01316116  1
  Al0+  Al83  1  0.18103664  0.92955376  0.01335601  1
  Al0+  Al84  1  0.82101452  0.57155994  0.01191884  1
  Al0+  Al85  1  0.32121676  0.07040897  0.34729315  1
  Al0+  Al86  1  0.82049553  0.07079932  0.01614767  1
  Al0+  Al87  1  0.93159688  0.81925798  0.65260505  1
  Al0+  Al88  1  0.57098094  0.67848052  0.31808500  1
  Al0+  Al89  1  0.92831765  0.32048413  0.98762733  1
  Al0+  Al90  1  0.82294702  0.07109998  0.68148482  1
  Al0+  Al91  1  0.42816604  0.82168590  0.98617992  1
  Al0+  Al92  1  0.07230896  0.17895022  0.31765586  1
  Al0+  Al93  1  0.07233435  0.67670518  0.98608758  1
  Al0+  Al94  1  0.57260532  0.17800707  0.32087698  1
  Al0+  Al95  1  0.17684911  0.92768680  0.35145113  1
  Si0+  Si96  1  0.56982267  0.17931187  0.65425367  1
  Si0+  Si97  1  0.67720318  0.42741920  0.01540989  1
  Si0+  Si98  1  0.07488812  0.67614170  0.65028496  1
  Si0+  Si99  1  0.32072114  0.07350475  0.68314258  1
  Si0+  Si100  1  0.67614673  0.42975741  0.68273254  1
  Si0+  Si101  1  0.18062102  0.92894582  0.68150221  1
  Si0+  Si102  1  0.42770853  0.32188081  0.31739639  1
  Si0+  Si103  1  0.07125038  0.17766834  0.98510620  1
  Si0+  Si104  1  0.17899230  0.42786047  0.68323420  1
  Si0+  Si105  1  0.92450715  0.32482427  0.64786553  1
  Si0+  Si106  1  0.67642002  0.92790904  0.01878959  1
  Si0+  Si107  1  0.82061151  0.07264528  0.34784905  1
  Si0+  Si108  1  0.17758680  0.42564797  0.01440906  1
  Si0+  Si109  1  0.67894453  0.93082124  0.34627655  1
  Si0+  Si110  1  0.32332309  0.57295376  0.35140969  1
  Si0+  Si111  1  0.32097022  0.56917468  0.68101394  1
  Si0+  Si112  1  0.92896185  0.32189951  0.31831947  1
  Si0+  Si113  1  0.57411886  0.17674854  0.98058224  1
  Si0+  Si114  1  0.82041790  0.56997874  0.68218837  1
  Si0+  Si115  1  0.42892837  0.32070173  0.64941149  1
  Si0+  Si116  1  0.42527284  0.82456913  0.64837436  1
  Si0+  Si117  1  0.92715130  0.82345022  0.31559405  1
  Si0+  Si118  1  0.42803823  0.82167722  0.31810029  1
  Si0+  Si119  1  0.32409979  0.07460277  0.01561101  1
  O2-  O120  1  0.25859400  0.00278577  0.05817171  1
  O2-  O121  1  0.24785261  0.00171908  0.40071607  1
  O2-  O122  1  0.25270745  -0.00075535  0.72435875  1
  O2-  O123  1  0.24284809  0.49718503  0.05877839  1
  O2-  O124  1  0.25320741  0.50488553  0.39512100  1
  O2-  O125  1  0.24536229  0.50331648  0.72430374  1
  O2-  O126  1  0.74450430  -0.00258394  0.06334500  1
  O2-  O127  1  0.74980154  0.00155908  0.38948823  1
  O2-  O128  1  0.75157781  -0.00176245  0.73154833  1
  O2-  O129  1  0.74503394  0.49742347  0.05798046  1
  O2-  O130  1  0.74626118  0.50392111  0.39972567  1
  O2-  O131  1  0.74936495  0.49850824  0.72440665  1
  O2-  O132  1  -0.00258179  0.25379448  0.27270166  1
  O2-  O133  1  -0.00858402  0.25370810  0.60512569  1
  O2-  O134  1  0.00241850  0.24553705  0.94003890  1
  O2-  O135  1  -0.00369549  0.75412891  0.27402376  1
  O2-  O136  1  0.00576600  0.74388814  0.60608179  1
  O2-  O137  1  -0.00064362  0.74760467  0.93590282  1
  O2-  O138  1  0.49827279  0.25390021  0.27530747  1
  O2-  O139  1  0.49862168  0.24830446  0.60843370  1
  O2-  O140  1  0.50308687  0.24413588  0.93745942  1
  O2-  O141  1  0.49203697  0.74902656  0.27368881  1
  O2-  O142  1  0.49812475  0.75977469  0.60490773  1
  O2-  O143  1  0.50235699  0.75277991  0.93478009  1
  O2-  O144  1  0.07184999  0.18000206  0.09047020  1
  O2-  O145  1  0.06972128  0.18024388  0.43116591  1
  O2-  O146  1  0.07104452  0.18392684  0.76575072  1
  O2-  O147  1  0.07206905  0.67652743  0.09968373  1
  O2-  O148  1  0.06651521  0.68036297  0.43507771  1
  O2-  O149  1  0.07690639  0.67653674  0.75550582  1
  O2-  O150  1  0.57498069  0.17779975  0.08618485  1
  O2-  O151  1  0.57162755  0.17795002  0.43478739  1
  O2-  O152  1  0.56710702  0.18289624  0.75910676  1
  O2-  O153  1  0.57033610  0.67852133  0.09918324  1
  O2-  O154  1  0.56989630  0.68172948  0.43165930  1
  O2-  O155  1  0.56690452  0.67670178  0.76320264  1
  O2-  O156  1  0.18096154  0.42959223  0.23299324  1
  O2-  O157  1  0.18101674  0.42599418  0.57820558  1
  O2-  O158  1  0.18119815  0.42402624  0.90818513  1
  O2-  O159  1  0.17869475  0.92673285  0.23812681  1
  O2-  O160  1  0.18200096  0.92961356  0.57676788  1
  O2-  O161  1  0.17980041  0.93328478  0.89929207  1
  O2-  O162  1  0.68003322  0.42752664  0.23456184  1
  O2-  O163  1  0.67485078  0.42814717  0.57803235  1
  O2-  O164  1  0.67783650  0.42737944  0.90894727  1
  O2-  O165  1  0.67877212  0.93171119  0.24138264  1
  O2-  O166  1  0.67880682  0.92966170  0.56829519  1
  O2-  O167  1  0.67625069  0.92938764  0.91321362  1
  O2-  O168  1  0.42856121  0.31762816  0.09950287  1
  O2-  O169  1  0.42793555  0.32058683  0.42370486  1
  O2-  O170  1  0.42855699  0.32170425  0.75454872  1
  O2-  O171  1  0.42944450  0.81984277  0.09985983  1
  O2-  O172  1  0.43106089  0.82239398  0.42425198  1
  O2-  O173  1  0.41937094  0.82096857  0.75325832  1
  O2-  O174  1  0.92970267  0.32034988  0.10063965  1
  O2-  O175  1  0.92915030  0.31936569  0.42433509  1
  O2-  O176  1  0.92688154  0.32779166  0.75340952  1
  O2-  O177  1  0.93292903  0.82278693  0.09965941  1
  O2-  O178  1  0.92640328  0.82345692  0.42178276  1
  O2-  O179  1  0.93328731  0.81957233  0.76530598  1
  O2-  O180  1  0.32174368  0.06871099  0.23398481  1
  O2-  O181  1  0.32211612  0.07573765  0.57846299  1
  O2-  O182  1  0.32013248  0.07750793  0.90941458  1
  O2-  O183  1  0.32438344  0.57165662  0.24604716  1
  O2-  O184  1  0.32223273  0.56613598  0.57599180  1
  O2-  O185  1  0.32115978  0.56633577  0.89920674  1
  O2-  O186  1  0.81970597  0.07316736  0.24278923  1
  O2-  O187  1  0.82015482  0.07070306  0.56731365  1
  O2-  O188  1  0.82011568  0.07063611  0.90309414  1
  O2-  O189  1  0.82238231  0.57161598  0.23584081  1
  O2-  O190  1  0.82036764  0.56850011  0.57728129  1
  O2-  O191  1  0.81914040  0.56919843  0.89804995  1
  O2-  O192  1  0.04095636  0.08234830  0.26498460  1
  O2-  O193  1  0.04155408  0.08504732  0.59641636  1
  O2-  O194  1  0.04377549  0.08444694  0.94028950  1
  O2-  O195  1  0.04087556  0.58116733  0.26967729  1
  O2-  O196  1  0.04918328  0.58076262  0.60707086  1
  O2-  O197  1  0.04775121  0.57821939  0.93107748  1
  O2-  O198  1  0.54157907  0.08293685  0.26427907  1
  O2-  O199  1  0.54348001  0.08589216  0.60904038  1
  O2-  O200  1  0.55029482  0.08325666  0.93385395  1
  O2-  O201  1  0.54438630  0.57989041  0.26702374  1
  O2-  O202  1  0.53411864  0.58525927  0.59534529  1
  O2-  O203  1  0.54220362  0.58047980  0.93250325  1
  O2-  O204  1  0.16929514  0.21010338  0.26598519  1
  O2-  O205  1  0.16490670  0.21538283  0.59813149  1
  O2-  O206  1  0.16436738  0.20200171  0.93687207  1
  O2-  O207  1  0.16886451  0.70691442  0.27114601  1
  O2-  O208  1  0.16893512  0.70037905  0.60394460  1
  O2-  O209  1  0.17017300  0.70708886  0.93374876  1
  O2-  O210  1  0.66838582  0.20984539  0.26573616  1
  O2-  O211  1  0.66220601  0.20791637  0.60814086  1
  O2-  O212  1  0.66596797  0.20532313  0.93294899  1
  O2-  O213  1  0.66651765  0.71313665  0.26541049  1
  O2-  O214  1  0.66620786  0.70809438  0.59538583  1
  O2-  O215  1  0.66970151  0.70758727  0.93207493  1
  O2-  O216  1  0.08227860  0.44567778  0.05754963  1
  O2-  O217  1  0.08488052  0.45957355  0.40536513  1
  O2-  O218  1  0.08466439  0.44988050  0.72882925  1
  O2-  O219  1  0.08744240  0.96165334  0.07118402  1
  O2-  O220  1  0.07795220  0.95778309  0.40314253  1
  O2-  O221  1  0.08938850  0.95976944  0.72735409  1
  O2-  O222  1  0.58268693  0.44952324  0.05984302  1
  O2-  O223  1  0.57844880  0.45291937  0.40194851  1
  O2-  O224  1  0.58368477  0.45983355  0.72840892  1
  O2-  O225  1  0.58204475  0.95401206  0.06358654  1
  O2-  O226  1  0.58768641  0.95756898  0.39490889  1
  O2-  O227  1  0.57954115  0.95369082  0.73614347  1
  O2-  O228  1  0.20766916  0.33278309  0.05980997  1
  O2-  O229  1  0.21247253  0.33507874  0.40335592  1
  O2-  O230  1  0.21187009  0.33819198  0.73190932  1
  O2-  O231  1  0.21190432  0.83333316  0.06731184  1
  O2-  O232  1  0.20637839  0.83078766  0.40802418  1
  O2-  O233  1  0.20747170  0.83594045  0.72762111  1
  O2-  O234  1  0.70265639  0.33336784  0.05976505  1
  O2-  O235  1  0.70957732  0.33175845  0.40357854  1
  O2-  O236  1  0.70029360  0.33798754  0.73244952  1
  O2-  O237  1  0.70315695  0.83474625  0.06441620  1
  O2-  O238  1  0.70778774  0.83980770  0.39480008  1
  O2-  O239  1  0.70736017  0.82678161  0.73211544  1
  O2-  O240  1  0.45180792  0.41572460  0.27199209  1
  O2-  O241  1  0.45759089  0.41111376  0.60040012  1
  O2-  O242  1  0.46109229  0.41267275  0.92768546  1
  O2-  O243  1  0.45714244  0.91315865  0.27077911  1
  O2-  O244  1  0.44642753  0.92127600  0.60665874  1
  O2-  O245  1  0.44928375  0.92233165  0.93316765  1
  O2-  O246  1  0.95597722  0.41620494  0.27584676  1
  O2-  O247  1  0.95353853  0.41747409  0.60106073  1
  O2-  O248  1  0.95923088  0.41369383  0.92712868  1
  O2-  O249  1  0.95223222  0.91737100  0.27085595  1
  O2-  O250  1  0.96221527  0.91493810  0.59662085  1
  O2-  O251  1  0.96387672  0.92025124  0.93405256  1
  O2-  O252  1  0.33523671  0.29519011  0.27097941  1
  O2-  O253  1  0.33651310  0.29341572  0.60320035  1
  O2-  O254  1  0.33396158  0.28836697  0.92741882  1
  O2-  O255  1  0.33204206  0.79975698  0.27678516  1
  O2-  O256  1  0.33415282  0.79369212  0.59870768  1
  O2-  O257  1  0.33210940  0.78914061  0.93141822  1
  O2-  O258  1  0.83583481  0.29642652  0.27215173  1
  O2-  O259  1  0.82864926  0.30294688  0.60498184  1
  O2-  O260  1  0.83221637  0.29036348  0.93160935  1
  O2-  O261  1  0.83354868  0.80023587  0.26933915  1
  O2-  O262  1  0.83564084  0.78877732  0.59694917  1
  O2-  O263  1  0.83137195  0.79777584  0.93323393  1
  O2-  O264  1  0.42043068  0.05486741  0.05793204  1
  O2-  O265  1  0.41961019  0.03977970  0.40165861  1
  O2-  O266  1  0.41284686  0.05111276  0.73243491  1
  O2-  O267  1  0.41614810  0.53291813  0.06649703  1
  O2-  O268  1  0.41573039  0.54453029  0.39885377  1
  O2-  O269  1  0.41099746  0.53536652  0.72830405  1
  O2-  O270  1  0.91609844  0.04054719  0.07183625  1
  O2-  O271  1  0.91225483  0.04411108  0.39492661  1
  O2-  O272  1  0.92252874  0.04253828  0.73209602  1
  O2-  O273  1  0.91802302  0.53699948  0.06330239  1
  O2-  O274  1  0.91643279  0.54265359  0.40684528  1
  O2-  O275  1  0.91313854  0.54345427  0.72920209  1
  O2-  O276  1  0.29640430  0.16741928  0.06208005  1
  O2-  O277  1  0.29628010  0.16931562  0.40157501  1
  O2-  O278  1  0.28892891  0.16494553  0.73033155  1
  O2-  O279  1  0.29463561  0.66510174  0.06893555  1
  O2-  O280  1  0.29882957  0.66588976  0.39930205  1
  O2-  O281  1  0.29809759  0.66313679  0.72684809  1
  O2-  O282  1  0.78924315  0.16782599  0.06964886  1
  O2-  O283  1  0.79380015  0.16401543  0.39589712  1
  O2-  O284  1  0.79483594  0.17084858  0.73331496  1
  O2-  O285  1  0.79386919  0.66883253  0.06581329  1
  O2-  O286  1  0.79215156  0.67322904  0.40104391  1
  O2-  O287  1  0.79130861  0.66190292  0.72722721  1
