# generated using pymatgen
data_Ca2Al2SiO7
_symmetry_space_group_name_H-M   'P 1'
_cell_length_a   15.46412876
_cell_length_b   15.46653099
_cell_length_c   15.28962623
_cell_angle_alpha   89.99133538
_cell_angle_beta   90.00386857
_cell_angle_gamma   90.01480206
_symmetry_Int_Tables_number   1
_chemical_formula_structural   Ca2Al2SiO7
_chemical_formula_sum   'Ca48 Al48 Si24 O168'
_cell_volume   3656.91799554
_cell_formula_units_Z   24
loop_
 _symmetry_equiv_pos_site_id
 _symmetry_equiv_pos_as_xyz
  1  'x, y, z'
loop_
 _atom_type_symbol
 _atom_type_oxidation_number
  Ca2+  2.0
  Al0+  0.0
  Si0+  0.0
  O2-  -2.0
loop_
 _atom_site_type_symbol
 _atom_site_label
 _atom_site_symmetry_multiplicity
 _atom_site_fract_x
 _atom_site_fract_y
 _atom_site_fract_z
 _atom_site_occupancy
  Ca2+  Ca0  1  0.17175373  0.08693083  0.16863086  1
  Ca2+  Ca1  1  0.17960751  0.08621426  0.50875139  1
  Ca2+  Ca2  1  0.16906956  0.08254002  0.84235584  1
  Ca2+  Ca3  1  0.16975995  0.58304399  0.16953379  1
  Ca2+  Ca4  1  0.16553502  0.57378175  0.50033521  1
  Ca2+  Ca5  1  0.17046706  0.58307812  0.84298652  1
  Ca2+  Ca6  1  0.67534765  0.07425299  0.17347463  1
  Ca2+  Ca7  1  0.66862070  0.09481257  0.49935119  1
  Ca2+  Ca8  1  0.67416908  0.08307976  0.84248946  1
  Ca2+  Ca9  1  0.66962568  0.58030643  0.16635912  1
  Ca2+  Ca10  1  0.66518427  0.57573978  0.50442495  1
  Ca2+  Ca11  1  0.67319697  0.56792200  0.84250147  1
  Ca2+  Ca12  1  0.07940497  0.33002452  0.16330952  1
  Ca2+  Ca13  1  0.07547630  0.33138629  0.49370596  1
  Ca2+  Ca14  1  0.07745640  0.31844950  0.82788060  1
  Ca2+  Ca15  1  0.07919946  0.83026162  0.15082638  1
  Ca2+  Ca16  1  0.08742904  0.83510041  0.50018009  1
  Ca2+  Ca17  1  0.08606840  0.83586846  0.83552861  1
  Ca2+  Ca18  1  0.57913825  0.32855446  0.16538135  1
  Ca2+  Ca19  1  0.57839921  0.32316474  0.49368262  1
  Ca2+  Ca20  1  0.58601842  0.33058657  0.82668853  1
  Ca2+  Ca21  1  0.59262852  0.83289613  0.16336163  1
  Ca2+  Ca22  1  0.58832177  0.82597736  0.48817027  1
  Ca2+  Ca23  1  0.58329814  0.83621316  0.83221890  1
  Ca2+  Ca24  1  0.32698658  0.41659221  0.17191578  1
  Ca2+  Ca25  1  0.32919943  0.40768106  0.49583270  1
  Ca2+  Ca26  1  0.33222528  0.42345245  0.84120335  1
  Ca2+  Ca27  1  0.32760745  0.92817800  0.16699449  1
  Ca2+  Ca28  1  0.33183283  0.93018976  0.50551323  1
  Ca2+  Ca29  1  0.32190372  0.92927773  0.83797115  1
  Ca2+  Ca30  1  0.83309023  0.41864804  0.16916486  1
  Ca2+  Ca31  1  0.83040324  0.40918197  0.50600446  1
  Ca2+  Ca32  1  0.82437843  0.41151757  0.83810944  1
  Ca2+  Ca33  1  0.83509164  0.92738979  0.16830592  1
  Ca2+  Ca34  1  0.82754983  0.92493698  0.49662246  1
  Ca2+  Ca35  1  0.82847214  0.92225613  0.84618527  1
  Ca2+  Ca36  1  0.41525971  0.16408677  0.16646777  1
  Ca2+  Ca37  1  0.42429277  0.16300316  0.49170432  1
  Ca2+  Ca38  1  0.42348272  0.15752110  0.82902102  1
  Ca2+  Ca39  1  0.42188280  0.66508319  0.16117952  1
  Ca2+  Ca40  1  0.42496362  0.67176441  0.49112690  1
  Ca2+  Ca41  1  0.41367206  0.66812971  0.83197565  1
  Ca2+  Ca42  1  0.91540672  0.16711325  0.16075695  1
  Ca2+  Ca43  1  0.91881431  0.17645645  0.49588245  1
  Ca2+  Ca44  1  0.92723940  0.16204008  0.82917115  1
  Ca2+  Ca45  1  0.92074351  0.67317573  0.15340466  1
  Ca2+  Ca46  1  0.91679907  0.67100128  0.49429033  1
  Ca2+  Ca47  1  0.91329515  0.67148463  0.83956523  1
  Al0+  Al48  1  -0.00050015  -0.00006297  -0.00153025  1
  Al0+  Al49  1  -0.00176111  0.00017326  0.33978244  1
  Al0+  Al50  1  -0.00043275  -0.00242966  0.66254910  1
  Al0+  Al51  1  -0.00140416  0.49938671  -0.00343340  1
  Al0+  Al52  1  0.00041926  0.50017195  0.33406637  1
  Al0+  Al53  1  0.00025475  0.50390331  0.66504285  1
  Al0+  Al54  1  0.49910356  -0.00053442  0.00567620  1
  Al0+  Al55  1  0.49862710  -0.00380734  0.33561719  1
  Al0+  Al56  1  0.49920301  -0.00123803  0.66461707  1
  Al0+  Al57  1  0.49833896  0.49958171  0.00610284  1
  Al0+  Al58  1  0.50046284  0.50149256  0.32588343  1
  Al0+  Al59  1  0.50181750  0.50024387  0.66966201  1
  Al0+  Al60  1  0.25077214  0.25256179  -0.00245836  1
  Al0+  Al61  1  0.24888222  0.25062886  0.33914728  1
  Al0+  Al62  1  0.25180015  0.25251612  0.66979220  1
  Al0+  Al63  1  0.25232697  0.75058213  0.00325109  1
  Al0+  Al64  1  0.25201648  0.74831113  0.33428157  1
  Al0+  Al65  1  0.25043488  0.75147702  0.66655667  1
  Al0+  Al66  1  0.74657084  0.24912139  0.00796355  1
  Al0+  Al67  1  0.74981064  0.25105343  0.32852818  1
  Al0+  Al68  1  0.74891159  0.25004686  0.66526865  1
  Al0+  Al69  1  0.74929166  0.74572038  -0.00164855  1
  Al0+  Al70  1  0.75246978  0.74951517  0.33221292  1
  Al0+  Al71  1  0.75167101  0.74932236  0.66580070  1
  Al0+  Al72  1  0.07088705  0.18053719  0.98834898  1
  Al0+  Al73  1  0.17826080  0.93055754  0.01480081  1
  Al0+  Al74  1  0.57048437  0.17591803  0.31543589  1
  Al0+  Al75  1  0.93011105  0.32127372  0.65334692  1
  Al0+  Al76  1  0.68074202  0.92791682  0.34832516  1
  Al0+  Al77  1  0.17860233  0.43079845  0.34662024  1
  Al0+  Al78  1  0.17816871  0.92908505  0.68216340  1
  Al0+  Al79  1  0.31931769  0.07034254  0.34804295  1
  Al0+  Al80  1  0.82083399  0.07463042  0.35178030  1
  Al0+  Al81  1  0.57281747  0.68025870  0.31757888  1
  Al0+  Al82  1  0.32239692  0.07377249  0.68269586  1
  Al0+  Al83  1  0.07356900  0.17702519  0.65042248  1
  Al0+  Al84  1  0.32056383  0.07440928  0.01594480  1
  Al0+  Al85  1  0.82207109  0.56846523  0.01516960  1
  Al0+  Al86  1  0.67729029  0.42705813  0.01858465  1
  Al0+  Al87  1  0.68123433  0.42904580  0.67828866  1
  Al0+  Al88  1  0.31966147  0.57211468  0.01359957  1
  Al0+  Al89  1  0.67754773  0.92766562  0.01224845  1
  Al0+  Al90  1  0.92928766  0.32208829  0.31820352  1
  Al0+  Al91  1  0.92792512  0.82100447  0.98443703  1
  Al0+  Al92  1  0.07361989  0.67799923  0.98471136  1
  Al0+  Al93  1  0.56877572  0.17854169  0.65502469  1
  Al0+  Al94  1  0.42684063  0.31961080  0.31745967  1
  Al0+  Al95  1  0.82275012  0.07104139  0.01297267  1
  Si0+  Si96  1  0.42886678  0.32736828  0.65188497  1
  Si0+  Si97  1  0.56981995  0.67647557  0.98219132  1
  Si0+  Si98  1  0.07182974  0.67935640  0.32015570  1
  Si0+  Si99  1  0.43039406  0.82191859  0.98389969  1
  Si0+  Si100  1  0.67947894  0.92551016  0.68013011  1
  Si0+  Si101  1  0.67744925  0.43032557  0.34864848  1
  Si0+  Si102  1  0.17656881  0.43061496  0.68273844  1
  Si0+  Si103  1  0.92626171  0.82025210  0.64856355  1
  Si0+  Si104  1  0.82121941  0.56970698  0.34905527  1
  Si0+  Si105  1  0.32062593  0.57062038  0.67925651  1
  Si0+  Si106  1  0.42974016  0.32240798  0.98409200  1
  Si0+  Si107  1  0.92419776  0.32144242  0.98408460  1
  Si0+  Si108  1  0.57138233  0.67906408  0.65332189  1
  Si0+  Si109  1  0.32361015  0.57242113  0.35139225  1
  Si0+  Si110  1  0.17760387  0.42830502  0.01387480  1
  Si0+  Si111  1  0.07347438  0.68081525  0.64965721  1
  Si0+  Si112  1  0.82362852  0.57519849  0.68365833  1
  Si0+  Si113  1  0.42938204  0.81918671  0.65131638  1
  Si0+  Si114  1  0.42626211  0.82057666  0.31439977  1
  Si0+  Si115  1  0.56901249  0.17825952  0.98616569  1
  Si0+  Si116  1  0.81896273  0.07022540  0.68020803  1
  Si0+  Si117  1  0.93152146  0.82073403  0.31943257  1
  Si0+  Si118  1  0.07072198  0.17760900  0.31874490  1
  Si0+  Si119  1  0.17708558  0.92532637  0.34962824  1
  O2-  O120  1  0.24531431  0.00596487  0.06555069  1
  O2-  O121  1  0.24405901  -0.00480987  0.39371444  1
  O2-  O122  1  0.24286300  0.00854064  0.73066593  1
  O2-  O123  1  0.24022407  0.50238312  0.05828704  1
  O2-  O124  1  0.25616619  0.50277950  0.39556507  1
  O2-  O125  1  0.25116151  0.49920914  0.72280834  1
  O2-  O126  1  0.75286337  -0.00407336  0.06099391  1
  O2-  O127  1  0.74391629  0.00623075  0.40146237  1
  O2-  O128  1  0.74805965  -0.00164498  0.72168549  1
  O2-  O129  1  0.75236711  0.49631444  0.06784365  1
  O2-  O130  1  0.75074712  0.49889451  0.39217314  1
  O2-  O131  1  0.75906179  0.50115891  0.72408851  1
  O2-  O132  1  -0.00012629  0.24320652  0.27321635  1
  O2-  O133  1  0.00335007  0.25163004  0.60117085  1
  O2-  O134  1  -0.00773004  0.25166870  0.94114638  1
  O2-  O135  1  0.00872181  0.75642238  0.27866950  1
  O2-  O136  1  0.00072078  0.75080613  0.60814025  1
  O2-  O137  1  0.00236716  0.75060688  0.93367437  1
  O2-  O138  1  0.49651156  0.24664439  0.26564455  1
  O2-  O139  1  0.49099366  0.25164678  0.61041454  1
  O2-  O140  1  0.49948820  0.25024797  0.94209942  1
  O2-  O141  1  0.49881708  0.75550049  0.27078708  1
  O2-  O142  1  0.50347244  0.75127840  0.60869904  1
  O2-  O143  1  0.50206010  0.75102513  0.94004912  1
  O2-  O144  1  0.07361838  0.18527389  0.10131578  1
  O2-  O145  1  0.07049373  0.18041482  0.42433310  1
  O2-  O146  1  0.07072728  0.17775303  0.76416619  1
  O2-  O147  1  0.07310501  0.67925449  0.09884674  1
  O2-  O148  1  0.06997848  0.67866936  0.42591940  1
  O2-  O149  1  0.07698528  0.67921032  0.75374873  1
  O2-  O150  1  0.56728752  0.17819981  0.09061287  1
  O2-  O151  1  0.56963916  0.18130483  0.42970565  1
  O2-  O152  1  0.57071691  0.17883594  0.76847024  1
  O2-  O153  1  0.56818063  0.67558684  0.08708900  1
  O2-  O154  1  0.57097449  0.67959231  0.43194835  1
  O2-  O155  1  0.56949878  0.67907140  0.75805802  1
  O2-  O156  1  0.17733345  0.43553229  0.23381627  1
  O2-  O157  1  0.17522412  0.43318564  0.57755285  1
  O2-  O158  1  0.18250993  0.42767871  0.90791605  1
  O2-  O159  1  0.17748220  0.92272752  0.24462923  1
  O2-  O160  1  0.18536626  0.92347986  0.56845452  1
  O2-  O161  1  0.18179229  0.93054662  0.90136788  1
  O2-  O162  1  0.67744147  0.43339984  0.24411124  1
  O2-  O163  1  0.67855873  0.43300593  0.56515643  1
  O2-  O164  1  0.67655822  0.42763402  0.90428463  1
  O2-  O165  1  0.68881051  0.92430823  0.23566477  1
  O2-  O166  1  0.68240852  0.91940019  0.57560817  1
  O2-  O167  1  0.67562197  0.93253636  0.89752681  1
  O2-  O168  1  0.42898544  0.32361007  0.08870606  1
  O2-  O169  1  0.42975602  0.32046927  0.43165975  1
  O2-  O170  1  0.43302676  0.33574314  0.75714187  1
  O2-  O171  1  0.43091852  0.82059932  0.08870255  1
  O2-  O172  1  0.42352810  0.81545726  0.42053005  1
  O2-  O173  1  0.42978954  0.81655034  0.75632933  1
  O2-  O174  1  0.92731874  0.32279933  0.08969072  1
  O2-  O175  1  0.93175324  0.32497594  0.43136386  1
  O2-  O176  1  0.93004752  0.31912316  0.76679603  1
  O2-  O177  1  0.92934014  0.81877498  0.09839941  1
  O2-  O178  1  0.93042870  0.81688224  0.42520249  1
  O2-  O179  1  0.91949043  0.81824573  0.75252929  1
  O2-  O180  1  0.31581702  0.07025391  0.23537083  1
  O2-  O181  1  0.32527612  0.06878290  0.56915667  1
  O2-  O182  1  0.32295963  0.07168718  0.90257988  1
  O2-  O183  1  0.32065467  0.57561799  0.24633200  1
  O2-  O184  1  0.32047039  0.57128189  0.57427757  1
  O2-  O185  1  0.32198645  0.56888102  0.89951958  1
  O2-  O186  1  0.82599168  0.07000015  0.23902402  1
  O2-  O187  1  0.81719906  0.07031867  0.57529956  1
  O2-  O188  1  0.81950776  0.07233609  0.89842548  1
  O2-  O189  1  0.82237795  0.56984451  0.24465788  1
  O2-  O190  1  0.82110166  0.58075601  0.57781314  1
  O2-  O191  1  0.81832759  0.56785755  0.90117411  1
  O2-  O192  1  0.04859751  0.08152972  0.27641490  1
  O2-  O193  1  0.04604289  0.07810086  0.59804097  1
  O2-  O194  1  0.04324564  0.08380235  0.93355684  1
  O2-  O195  1  0.03869029  0.59038736  0.27237992  1
  O2-  O196  1  0.04553507  0.58954716  0.60033739  1
  O2-  O197  1  0.04598869  0.57908622  0.93070540  1
  O2-  O198  1  0.54472835  0.07476070  0.26790944  1
  O2-  O199  1  0.54267303  0.08083067  0.59987823  1
  O2-  O200  1  0.54016306  0.08638775  0.93872407  1
  O2-  O201  1  0.54129880  0.58559901  0.26155012  1
  O2-  O202  1  0.54102193  0.58828386  0.60494210  1
  O2-  O203  1  0.53561726  0.58588223  0.93556008  1
  O2-  O204  1  0.16328091  0.20715980  0.27413354  1
  O2-  O205  1  0.17412640  0.20630096  0.60190995  1
  O2-  O206  1  0.16583683  0.21570028  0.93173667  1
  O2-  O207  1  0.16688743  0.69905133  0.27587622  1
  O2-  O208  1  0.16433639  0.70991377  0.59983528  1
  O2-  O209  1  0.17383787  0.70540777  0.93345050  1
  O2-  O210  1  0.66851922  0.20579597  0.26390023  1
  O2-  O211  1  0.66343326  0.21296550  0.59979406  1
  O2-  O212  1  0.66188158  0.20564038  0.94003800  1
  O2-  O213  1  0.67009846  0.71010197  0.26481971  1
  O2-  O214  1  0.66407801  0.70457452  0.60585077  1
  O2-  O215  1  0.66198500  0.69906666  0.93351141  1
  O2-  O216  1  0.08158232  0.44634884  0.05632130  1
  O2-  O217  1  0.08481126  0.46764612  0.40386550  1
  O2-  O218  1  0.08660620  0.46324997  0.73028973  1
  O2-  O219  1  0.07836889  0.95243726  0.06539344  1
  O2-  O220  1  0.08308201  0.94720533  0.39657723  1
  O2-  O221  1  0.07463643  0.94523817  0.72856893  1
  O2-  O222  1  0.58116429  0.46083593  0.07132793  1
  O2-  O223  1  0.58619528  0.46232358  0.39501339  1
  O2-  O224  1  0.58647532  0.46363699  0.73463901  1
  O2-  O225  1  0.58173279  0.95657208  0.06849033  1
  O2-  O226  1  0.57771089  0.94180286  0.39667208  1
  O2-  O227  1  0.58563617  0.94930628  0.72411984  1
  O2-  O228  1  0.21063254  0.33896151  0.06279123  1
  O2-  O229  1  0.20713464  0.33565296  0.40432262  1
  O2-  O230  1  0.20169316  0.33886753  0.73065916  1
  O2-  O231  1  0.21072408  0.83358648  0.06772448  1
  O2-  O232  1  0.20435102  0.83134666  0.39610170  1
  O2-  O233  1  0.21389417  0.83217217  0.73507590  1
  O2-  O234  1  0.70040622  0.32896328  0.07244392  1
  O2-  O235  1  0.70365948  0.33764508  0.39385643  1
  O2-  O236  1  0.71020105  0.33279262  0.73411222  1
  O2-  O237  1  0.69838391  0.82569177  0.05874908  1
  O2-  O238  1  0.71754560  0.83117338  0.40307373  1
  O2-  O239  1  0.70856024  0.83444750  0.72920481  1
  O2-  O240  1  0.45405660  0.41879829  0.26530322  1
  O2-  O241  1  0.46013997  0.41793809  0.60169857  1
  O2-  O242  1  0.45939290  0.41426102  0.93667993  1
  O2-  O243  1  0.44608333  0.91533352  0.27060397  1
  O2-  O244  1  0.45493946  0.91069877  0.60306220  1
  O2-  O245  1  0.45939466  0.91337511  0.93584504  1
  O2-  O246  1  0.96488871  0.41788585  0.26482992  1
  O2-  O247  1  0.95434129  0.42274025  0.60245471  1
  O2-  O248  1  0.94842752  0.41453224  0.93644389  1
  O2-  O249  1  0.95315766  0.91520969  0.27556114  1
  O2-  O250  1  0.95146345  0.91148292  0.59897628  1
  O2-  O251  1  0.95291774  0.91969533  0.93074465  1
  O2-  O252  1  0.32604520  0.29463521  0.26771888  1
  O2-  O253  1  0.33203001  0.30982437  0.61014581  1
  O2-  O254  1  0.33780915  0.29862271  0.93483350  1
  O2-  O255  1  0.33428159  0.78970078  0.26730794  1
  O2-  O256  1  0.33994533  0.78663049  0.60202730  1
  O2-  O257  1  0.33999459  0.79127171  0.93562039  1
  O2-  O258  1  0.83161606  0.29805178  0.26478703  1
  O2-  O259  1  0.83230904  0.29095118  0.59999201  1
  O2-  O260  1  0.82871652  0.29637530  0.94154349  1
  O2-  O261  1  0.84335016  0.78580873  0.27144458  1
  O2-  O262  1  0.83681224  0.78716865  0.59777313  1
  O2-  O263  1  0.83028069  0.78789235  0.92963853  1
  O2-  O264  1  0.41609416  0.04032496  0.06985193  1
  O2-  O265  1  0.41544322  0.03771743  0.40215121  1
  O2-  O266  1  0.41884211  0.03552812  0.73522862  1
  O2-  O267  1  0.41312072  0.53795076  0.06988195  1
  O2-  O268  1  0.41867070  0.54842755  0.39505261  1
  O2-  O269  1  0.41266049  0.54522348  0.72775726  1
  O2-  O270  1  0.92061992  0.04544489  0.06678791  1
  O2-  O271  1  0.91724188  0.04077660  0.40766561  1
  O2-  O272  1  0.91143524  0.04110647  0.72460854  1
  O2-  O273  1  0.92220666  0.54464924  0.06688120  1
  O2-  O274  1  0.91276261  0.54321633  0.39812295  1
  O2-  O275  1  0.91955714  0.55655905  0.72685056  1
  O2-  O276  1  0.29559803  0.17470380  0.06574878  1
  O2-  O277  1  0.28986337  0.16623140  0.40382573  1
  O2-  O278  1  0.30660937  0.17628097  0.73237107  1
  O2-  O279  1  0.29578356  0.66864424  0.06968932  1
  O2-  O280  1  0.29616384  0.66485790  0.40031455  1
  O2-  O281  1  0.29158732  0.66178852  0.72685442  1
  O2-  O282  1  0.79276159  0.16694378  0.06834367  1
  O2-  O283  1  0.79388958  0.17503029  0.40211754  1
  O2-  O284  1  0.79029627  0.16093975  0.72805259  1
  O2-  O285  1  0.79153458  0.66613865  0.06752586  1
  O2-  O286  1  0.79270041  0.66099427  0.39748051  1
  O2-  O287  1  0.79153989  0.66580710  0.73207765  1
