# generated using pymatgen
data_Ca2Al2SiO7
_symmetry_space_group_name_H-M   'P 1'
_cell_length_a   15.46189540
_cell_length_b   15.46405503
_cell_length_c   15.28740568
_cell_angle_alpha   90.00891584
_cell_angle_beta   90.01241153
_cell_angle_gamma   89.99161134
_symmetry_Int_Tables_number   1
_chemical_formula_structural   Ca2Al2SiO7
_chemical_formula_sum   'Ca48 Al48 Si24 O168'
_cell_volume   3655.27358375
_cell_formula_units_Z   24
loop_
 _symmetry_equiv_pos_site_id
 _symmetry_equiv_pos_as_xyz
  1  'x, y, z'
loop_
 _atom_type_symbol
 _atom_type_oxidation_number
  Ca2+  2.0
  Al0+  0.0
  Si0+  0.0
  O2-  -2.0
loop_
 _atom_site_type_symbol
 _atom_site_label
 _atom_site_symmetry_multiplicity
 _atom_site_fract_x
 _atom_site_fract_y
 _atom_site_fract_z
 _atom_site_occupancy
  Ca2+  Ca0  1  0.16755219  0.08693819  0.16948831  1
  Ca2+  Ca1  1  0.17534447  0.08967955  0.50782024  1
  Ca2+  Ca2  1  0.16081722  0.07729773  0.83614567  1
  Ca2+  Ca3  1  0.16946828  0.58109312  0.17005880  1
  Ca2+  Ca4  1  0.16088998  0.57473537  0.50764666  1
  Ca2+  Ca5  1  0.16587377  0.57572975  0.83352770  1
  Ca2+  Ca6  1  0.67414399  0.08056081  0.17684221  1
  Ca2+  Ca7  1  0.67352302  0.07703399  0.50521972  1
  Ca2+  Ca8  1  0.66315385  0.08225422  0.83357289  1
  Ca2+  Ca9  1  0.66735611  0.57394211  0.17198614  1
  Ca2+  Ca10  1  0.67326856  0.57571775  0.49753832  1
  Ca2+  Ca11  1  0.66498630  0.57728787  0.84208175  1
  Ca2+  Ca12  1  0.07609604  0.32078878  0.16503813  1
  Ca2+  Ca13  1  0.07720027  0.32704416  0.49691881  1
  Ca2+  Ca14  1  0.08236806  0.32305893  0.82271657  1
  Ca2+  Ca15  1  0.06955775  0.84055889  0.16134244  1
  Ca2+  Ca16  1  0.07125161  0.84366354  0.49960075  1
  Ca2+  Ca17  1  0.07586231  0.84195403  0.82841248  1
  Ca2+  Ca18  1  0.58226993  0.33230641  0.15550157  1
  Ca2+  Ca19  1  0.58468481  0.32666458  0.49787102  1
  Ca2+  Ca20  1  0.58242359  0.32378018  0.83296372  1
  Ca2+  Ca21  1  0.58744058  0.82853900  0.16247808  1
  Ca2+  Ca22  1  0.58008352  0.84650397  0.49911052  1
  Ca2+  Ca23  1  0.58181976  0.82897954  0.82264223  1
  Ca2+  Ca24  1  0.33624975  0.41283890  0.16836247  1
  Ca2+  Ca25  1  0.32453247  0.41924051  0.50686328  1
  Ca2+  Ca26  1  0.32984246  0.40887955  0.83549822  1
  Ca2+  Ca27  1  0.32456694  0.92488671  0.17299725  1
  Ca2+  Ca28  1  0.32664096  0.92651165  0.51184689  1
  Ca2+  Ca29  1  0.32436355  0.91969178  0.83213393  1
  Ca2+  Ca30  1  0.82152908  0.41815542  0.17879704  1
  Ca2+  Ca31  1  0.84301377  0.41755843  0.50208072  1
  Ca2+  Ca32  1  0.83011952  0.41466872  0.83829968  1
  Ca2+  Ca33  1  0.83051902  0.91953127  0.17614053  1
  Ca2+  Ca34  1  0.82875701  0.91637903  0.50223134  1
  Ca2+  Ca35  1  0.83358902  0.91408895  0.83577824  1
  Ca2+  Ca36  1  0.42446166  0.17003673  0.16071673  1
  Ca2+  Ca37  1  0.42106978  0.15291588  0.50014571  1
  Ca2+  Ca38  1  0.42749414  0.16095058  0.82984132  1
  Ca2+  Ca39  1  0.42600342  0.66883332  0.15777555  1
  Ca2+  Ca40  1  0.41531653  0.67685513  0.49918401  1
  Ca2+  Ca41  1  0.42304291  0.67299890  0.82955758  1
  Ca2+  Ca42  1  0.92425770  0.16038780  0.16599561  1
  Ca2+  Ca43  1  0.92879593  0.16930802  0.49214305  1
  Ca2+  Ca44  1  0.92888695  0.17048445  0.82556676  1
  Ca2+  Ca45  1  0.90440001  0.67790708  0.16820471  1
  Ca2+  Ca46  1  0.91183832  0.67596908  0.49546736  1
  Ca2+  Ca47  1  0.91462911  0.68015244  0.82886073  1
  Al0+  Al48  1  -0.00121884  -0.00048715  -0.00346253  1
  Al0+  Al49  1  0.00006002  -0.00140880  0.32779049  1
  Al0+  Al50  1  -0.00026995  0.00172956  0.66086923  1
  Al0+  Al51  1  0.00050971  0.50297811  0.00413994  1
  Al0+  Al52  1  0.00006018  0.50003661  0.33115464  1
  Al0+  Al53  1  0.00048063  0.50172106  0.67195991  1
  Al0+  Al54  1  0.49787532  -0.00050466  -0.00125552  1
  Al0+  Al55  1  0.49677597  0.00024292  0.33521992  1
  Al0+  Al56  1  0.50104813  -0.00198903  0.66769905  1
  Al0+  Al57  1  0.49953104  0.50091624  -0.00511191  1
  Al0+  Al58  1  0.49958025  0.50120648  0.33897762  1
  Al0+  Al59  1  0.50241736  0.49998759  0.66584070  1
  Al0+  Al60  1  0.24923781  0.24933837  -0.00500018  1
  Al0+  Al61  1  0.25138476  0.25071608  0.33339403  1
  Al0+  Al62  1  0.25341769  0.25199859  0.67288622  1
  Al0+  Al63  1  0.24742069  0.74907295  0.00590261  1
  Al0+  Al64  1  0.25045510  0.75091570  0.33162852  1
  Al0+  Al65  1  0.25168932  0.74996859  0.66658734  1
  Al0+  Al66  1  0.75021663  0.24949923  0.00156172  1
  Al0+  Al67  1  0.74914608  0.24824949  0.33839556  1
  Al0+  Al68  1  0.74886021  0.25095129  0.66027286  1
  Al0+  Al69  1  0.74963980  0.74981049  -0.00823530  1
  Al0+  Al70  1  0.74723612  0.74631302  0.33711967  1
  Al0+  Al71  1  0.75067964  0.74770254  0.66593896  1
  Al0+  Al72  1  0.07301447  0.17949681  0.31729808  1
  Al0+  Al73  1  0.56989073  0.68130116  0.98666348  1
  Al0+  Al74  1  0.57385073  0.17650854  0.98649359  1
  Al0+  Al75  1  0.92798593  0.81835366  0.31983271  1
  Al0+  Al76  1  0.17672934  0.92970871  0.68095707  1
  Al0+  Al77  1  0.06896752  0.18000104  0.98499206  1
  Al0+  Al78  1  0.82172765  0.56907164  0.34908060  1
  Al0+  Al79  1  0.07367243  0.17930410  0.65119412  1
  Al0+  Al80  1  0.17974662  0.43055428  0.68106788  1
  Al0+  Al81  1  0.92929819  0.32330446  0.65333930  1
  Al0+  Al82  1  0.92660678  0.32222755  0.31696219  1
  Al0+  Al83  1  0.32302674  0.07189108  0.68479615  1
  Al0+  Al84  1  0.43021947  0.81926292  0.65299612  1
  Al0+  Al85  1  0.68029384  0.42951906  0.01177747  1
  Al0+  Al86  1  0.82435591  0.07078300  0.34893985  1
  Al0+  Al87  1  0.56925747  0.17833337  0.65073857  1
  Al0+  Al88  1  0.67678119  0.42659936  0.35003661  1
  Al0+  Al89  1  0.93043813  0.81900181  0.98589621  1
  Al0+  Al90  1  0.17736278  0.92965374  0.01544743  1
  Al0+  Al91  1  0.92857772  0.82112402  0.65138003  1
  Al0+  Al92  1  0.42924815  0.32143340  0.98502359  1
  Al0+  Al93  1  0.67845136  0.92814258  0.34654222  1
  Al0+  Al94  1  0.31828621  0.07182723  0.34600518  1
  Al0+  Al95  1  0.68208331  0.92905578  0.68182606  1
  Si0+  Si96  1  0.43071690  0.32327303  0.32083242  1
  Si0+  Si97  1  0.32168349  0.57366411  0.34807567  1
  Si0+  Si98  1  0.07453921  0.67687377  0.31602389  1
  Si0+  Si99  1  0.32208185  0.07265208  0.01784175  1
  Si0+  Si100  1  0.17801899  0.42690889  0.01694409  1
  Si0+  Si101  1  0.32470698  0.57255100  0.68414474  1
  Si0+  Si102  1  0.82152010  0.07380883  0.68340400  1
  Si0+  Si103  1  0.82195777  0.57436792  0.01633406  1
  Si0+  Si104  1  0.17804099  0.92650926  0.34917422  1
  Si0+  Si105  1  0.81996624  0.06937226  0.01264106  1
  Si0+  Si106  1  0.92814126  0.32484576  0.98613089  1
  Si0+  Si107  1  0.67755444  0.92702740  0.01201233  1
  Si0+  Si108  1  0.67833419  0.42795615  0.68367302  1
  Si0+  Si109  1  0.42444114  0.82185988  0.98490732  1
  Si0+  Si110  1  0.07211049  0.67851068  0.65215695  1
  Si0+  Si111  1  0.32015321  0.56998332  0.01511569  1
  Si0+  Si112  1  0.82090947  0.57026231  0.68436760  1
  Si0+  Si113  1  0.42794297  0.82239162  0.31646242  1
  Si0+  Si114  1  0.18090531  0.43073780  0.34614133  1
  Si0+  Si115  1  0.56946814  0.17758221  0.32003540  1
  Si0+  Si116  1  0.57329475  0.67582251  0.64636654  1
  Si0+  Si117  1  0.42941647  0.32426621  0.64845743  1
  Si0+  Si118  1  0.07489120  0.67599407  0.98283812  1
  Si0+  Si119  1  0.56731755  0.67778825  0.31871941  1
  O2-  O120  1  0.25312260  0.00379368  0.06175735  1
  O2-  O121  1  0.24236270  -0.00112131  0.39244138  1
  O2-  O122  1  0.24543703  0.00430207  0.73277248  1
  O2-  O123  1  0.25053748  0.49764876  0.05857555  1
  O2-  O124  1  0.24760747  0.50605788  0.38908624  1
  O2-  O125  1  0.25707261  0.50320638  0.72847878  1
  O2-  O126  1  0.74389705  0.00211454  0.05357306  1
  O2-  O127  1  0.75203680  -0.00215971  0.39713824  1
  O2-  O128  1  0.75622910  0.00295401  0.73063452  1
  O2-  O129  1  0.75739427  0.50143943  0.05922830  1
  O2-  O130  1  0.75608110  0.49125351  0.39984015  1
  O2-  O131  1  0.75081368  0.49782651  0.72548433  1
  O2-  O132  1  -0.00467777  0.24645414  0.26741568  1
  O2-  O133  1  0.00013035  0.25076995  0.60309436  1
  O2-  O134  1  -0.00128483  0.25975754  0.94051643  1
  O2-  O135  1  0.00473765  0.74482847  0.27270001  1
  O2-  O136  1  0.00840111  0.75045474  0.60669537  1
  O2-  O137  1  0.00610516  0.74460555  0.93996100  1
  O2-  O138  1  0.50444286  0.25510052  0.27884412  1
  O2-  O139  1  0.49318731  0.25207502  0.60329618  1
  O2-  O140  1  0.50043521  0.24778957  0.93701519  1
  O2-  O141  1  0.49944194  0.75151830  0.27512255  1
  O2-  O142  1  0.50579942  0.74613940  0.60326388  1
  O2-  O143  1  0.49784057  0.75849192  0.94047702  1
  O2-  O144  1  0.06846831  0.18031272  0.09801941  1
  O2-  O145  1  0.07833505  0.18446733  0.43007225  1
  O2-  O146  1  0.06997269  0.18001494  0.76518544  1
  O2-  O147  1  0.07713951  0.67417577  0.08829706  1
  O2-  O148  1  0.07878380  0.67649966  0.42129017  1
  O2-  O149  1  0.06897103  0.67576031  0.75775202  1
  O2-  O150  1  0.57343179  0.17617449  0.10061108  1
  O2-  O151  1  0.56488869  0.17514148  0.42474835  1
  O2-  O152  1  0.57065825  0.18101352  0.76385545  1
  O2-  O153  1  0.56885004  0.68188031  0.10025606  1
  O2-  O154  1  0.56281366  0.67458476  0.42326122  1
  O2-  O155  1  0.57164604  0.67459018  0.75230451  1
  O2-  O156  1  0.18510965  0.43124051  0.24073565  1
  O2-  O157  1  0.18039977  0.43463765  0.56742113  1
  O2-  O158  1  0.17689739  0.42966668  0.91222073  1
  O2-  O159  1  0.18215726  0.92329955  0.24328954  1
  O2-  O160  1  0.17944817  0.92707669  0.56740801  1
  O2-  O161  1  0.17803513  0.92956726  0.90287039  1
  O2-  O162  1  0.67054565  0.43260317  0.23624240  1
  O2-  O163  1  0.67467536  0.43071912  0.57906589  1
  O2-  O164  1  0.68197054  0.43115061  0.89845461  1
  O2-  O165  1  0.67740222  0.92929175  0.23184048  1
  O2-  O166  1  0.68261244  0.93036328  0.56907525  1
  O2-  O167  1  0.67958783  0.92481871  0.90720413  1
  O2-  O168  1  0.43076091  0.32182159  0.09964797  1
  O2-  O169  1  0.42897108  0.32594110  0.42543731  1
  O2-  O170  1  0.43441214  0.32921405  0.75355086  1
  O2-  O171  1  0.42511419  0.81890412  0.09106476  1
  O2-  O172  1  0.42579771  0.82051407  0.42118508  1
  O2-  O173  1  0.43136165  0.81517960  0.76632515  1
  O2-  O174  1  0.92874192  0.32369819  0.09137001  1
  O2-  O175  1  0.93517270  0.32533628  0.42988435  1
  O2-  O176  1  0.93016084  0.32289413  0.76769477  1
  O2-  O177  1  0.92750429  0.81777161  0.09897526  1
  O2-  O178  1  0.92896528  0.81653915  0.43259429  1
  O2-  O179  1  0.92728553  0.81771629  0.76454989  1
  O2-  O180  1  0.32104009  0.07029899  0.23261906  1
  O2-  O181  1  0.32198380  0.06815577  0.57085281  1
  O2-  O182  1  0.32439505  0.07109943  0.91300857  1
  O2-  O183  1  0.32361280  0.57284378  0.24272371  1
  O2-  O184  1  0.32416741  0.57175245  0.57810326  1
  O2-  O185  1  0.31817479  0.57228047  0.91050214  1
  O2-  O186  1  0.82144124  0.06848189  0.23417124  1
  O2-  O187  1  0.81940302  0.07279095  0.57818382  1
  O2-  O188  1  0.82165038  0.06855382  0.90769437  1
  O2-  O189  1  0.81511104  0.57240992  0.23531459  1
  O2-  O190  1  0.82109962  0.57096306  0.57960748  1
  O2-  O191  1  0.82113704  0.57485239  0.91058716  1
  O2-  O192  1  0.04923962  0.07943420  0.26477696  1
  O2-  O193  1  0.04738146  0.08177756  0.59661307  1
  O2-  O194  1  0.03336206  0.08566397  0.93110466  1
  O2-  O195  1  0.05176530  0.58320871  0.26891418  1
  O2-  O196  1  0.04088386  0.58706124  0.60489342  1
  O2-  O197  1  0.04926779  0.58194180  0.93679164  1
  O2-  O198  1  0.53510769  0.08867343  0.27013037  1
  O2-  O199  1  0.53900890  0.08144282  0.59807403  1
  O2-  O200  1  0.54535131  0.07757656  0.93341450  1
  O2-  O201  1  0.53410816  0.58779096  0.26980639  1
  O2-  O202  1  0.54512885  0.58315902  0.59971143  1
  O2-  O203  1  0.53584689  0.58745613  0.92998802  1
  O2-  O204  1  0.16980801  0.21523322  0.26296911  1
  O2-  O205  1  0.17380098  0.21020271  0.60391706  1
  O2-  O206  1  0.16624254  0.20664770  0.93194412  1
  O2-  O207  1  0.16847804  0.70266016  0.26833051  1
  O2-  O208  1  0.16826393  0.69521315  0.60810790  1
  O2-  O209  1  0.16882688  0.70028952  0.93725407  1
  O2-  O210  1  0.66391998  0.19758524  0.27558323  1
  O2-  O211  1  0.66436815  0.21086689  0.59559415  1
  O2-  O212  1  0.67175651  0.20558050  0.93272988  1
  O2-  O213  1  0.65972116  0.70244024  0.27198997  1
  O2-  O214  1  0.66747636  0.69926190  0.60235364  1
  O2-  O215  1  0.66506131  0.70841046  0.92884526  1
  O2-  O216  1  0.08727887  0.45716718  0.06607690  1
  O2-  O217  1  0.08880060  0.45623007  0.39270151  1
  O2-  O218  1  0.08570929  0.46533077  0.73857353  1
  O2-  O219  1  0.08053404  0.96269631  0.06804244  1
  O2-  O220  1  0.08220406  0.94684437  0.38997366  1
  O2-  O221  1  0.07646293  0.95614896  0.73200302  1
  O2-  O222  1  0.58298053  0.46346995  0.06316037  1
  O2-  O223  1  0.58183919  0.46445784  0.40586728  1
  O2-  O224  1  0.58738674  0.45905209  0.73165199  1
  O2-  O225  1  0.58293021  0.94729963  0.05791505  1
  O2-  O226  1  0.58017397  0.95891231  0.39794466  1
  O2-  O227  1  0.58534090  0.95825605  0.73543885  1
  O2-  O228  1  0.20641718  0.33516131  0.06376494  1
  O2-  O229  1  0.21443346  0.34213606  0.39484216  1
  O2-  O230  1  0.21054442  0.33603571  0.73816061  1
  O2-  O231  1  0.20546749  0.83209552  0.07030048  1
  O2-  O232  1  0.20711835  0.83384151  0.39561404  1
  O2-  O233  1  0.20732333  0.83026529  0.73273880  1
  O2-  O234  1  0.70714807  0.33220698  0.06696277  1
  O2-  O235  1  0.69403941  0.32566063  0.39995699  1
  O2-  O236  1  0.70482838  0.33525552  0.72933884  1
  O2-  O237  1  0.70957681  0.83601371  0.05911059  1
  O2-  O238  1  0.70019319  0.82850776  0.39871354  1
  O2-  O239  1  0.71040301  0.82988440  0.73327197  1
  O2-  O240  1  0.45507575  0.41674168  0.27365325  1
  O2-  O241  1  0.45786685  0.41712183  0.60066135  1
  O2-  O242  1  0.45541749  0.41930084  0.93061660  1
  O2-  O243  1  0.45583204  0.91342893  0.26783623  1
  O2-  O244  1  0.46162144  0.91466706  0.59841871  1
  O2-  O245  1  0.44360028  0.91693836  0.94107605  1
  O2-  O246  1  0.95743641  0.42033020  0.26293232  1
  O2-  O247  1  0.96034758  0.42242444  0.60316592  1
  O2-  O248  1  0.95006081  0.42104331  0.94314961  1
  O2-  O249  1  0.95701128  0.91411182  0.26304624  1
  O2-  O250  1  0.95462744  0.91817911  0.59726152  1
  O2-  O251  1  0.96096076  0.91445944  0.93093124  1
  O2-  O252  1  0.34046191  0.29372481  0.27137790  1
  O2-  O253  1  0.33325226  0.30502523  0.60633089  1
  O2-  O254  1  0.33012511  0.29661278  0.93302866  1
  O2-  O255  1  0.33696042  0.79257538  0.26756528  1
  O2-  O256  1  0.33467142  0.78625033  0.59678786  1
  O2-  O257  1  0.33273126  0.78904946  0.94010734  1
  O2-  O258  1  0.82442307  0.29863393  0.26938764  1
  O2-  O259  1  0.82989554  0.30126067  0.60100717  1
  O2-  O260  1  0.83522148  0.29752434  0.94031817  1
  O2-  O261  1  0.83042549  0.78469126  0.26763421  1
  O2-  O262  1  0.83405640  0.78340839  0.59796830  1
  O2-  O263  1  0.83562308  0.78746969  0.92889065  1
  O2-  O264  1  0.41595356  0.04659451  0.06525565  1
  O2-  O265  1  0.41270436  0.03695129  0.40073767  1
  O2-  O266  1  0.41887268  0.03542642  0.73759650  1
  O2-  O267  1  0.41227450  0.54268058  0.06254351  1
  O2-  O268  1  0.41031558  0.54360423  0.39920691  1
  O2-  O269  1  0.41926745  0.54752514  0.72889228  1
  O2-  O270  1  0.90908945  0.03599619  0.06149687  1
  O2-  O271  1  0.92369095  0.04231340  0.39905665  1
  O2-  O272  1  0.91640722  0.04974654  0.72695523  1
  O2-  O273  1  0.91778358  0.55707571  0.06187257  1
  O2-  O274  1  0.92364556  0.54895549  0.39923850  1
  O2-  O275  1  0.91227456  0.54539394  0.73413994  1
  O2-  O276  1  0.29554797  0.16702692  0.06233506  1
  O2-  O277  1  0.29258113  0.16947662  0.40053564  1
  O2-  O278  1  0.30650679  0.17364873  0.73461811  1
  O2-  O279  1  0.29197820  0.66000606  0.06697791  1
  O2-  O280  1  0.29670570  0.66659717  0.39477957  1
  O2-  O281  1  0.29864044  0.66506315  0.73133739  1
  O2-  O282  1  0.79691859  0.16183007  0.06124539  1
  O2-  O283  1  0.79767277  0.16854720  0.40226943  1
  O2-  O284  1  0.79263613  0.16730625  0.72839320  1
  O2-  O285  1  0.78914180  0.66650177  0.06152852  1
  O2-  O286  1  0.78531482  0.66340066  0.40520775  1
  O2-  O287  1  0.79006944  0.66070953  0.73274889  1
