# generated using pymatgen
data_Ca2Al2SiO7
_symmetry_space_group_name_H-M   'P 1'
_cell_length_a   15.45888758
_cell_length_b   15.46084288
_cell_length_c   15.28464456
_cell_angle_alpha   89.97620785
_cell_angle_beta   89.99900159
_cell_angle_gamma   89.99385546
_symmetry_Int_Tables_number   1
_chemical_formula_structural   Ca2Al2SiO7
_chemical_formula_sum   'Ca48 Al48 Si24 O168'
_cell_volume   3653.14330911
_cell_formula_units_Z   24
loop_
 _symmetry_equiv_pos_site_id
 _symmetry_equiv_pos_as_xyz
  1  'x, y, z'
loop_
 _atom_type_symbol
 _atom_type_oxidation_number
  Ca2+  2.0
  Al0+  0.0
  Si0+  0.0
  O2-  -2.0
loop_
 _atom_site_type_symbol
 _atom_site_label
 _atom_site_symmetry_multiplicity
 _atom_site_fract_x
 _atom_site_fract_y
 _atom_site_fract_z
 _atom_site_occupancy
  Ca2+  Ca0  1  0.17715692  0.07566126  0.17946643  1
  Ca2+  Ca1  1  0.17005693  0.07989960  0.50734894  1
  Ca2+  Ca2  1  0.17647494  0.08536463  0.83619067  1
  Ca2+  Ca3  1  0.16880882  0.58696946  0.17553345  1
  Ca2+  Ca4  1  0.16971508  0.57875841  0.50277417  1
  Ca2+  Ca5  1  0.15933701  0.57554423  0.83604231  1
  Ca2+  Ca6  1  0.66962682  0.08593116  0.17329669  1
  Ca2+  Ca7  1  0.67438229  0.09608045  0.50287717  1
  Ca2+  Ca8  1  0.67063516  0.09330256  0.83567837  1
  Ca2+  Ca9  1  0.66855447  0.58915184  0.17696631  1
  Ca2+  Ca10  1  0.67649549  0.58421558  0.50371427  1
  Ca2+  Ca11  1  0.67088347  0.58523287  0.83724390  1
  Ca2+  Ca12  1  0.08501354  0.32529528  0.16949257  1
  Ca2+  Ca13  1  0.08468064  0.32412705  0.50163171  1
  Ca2+  Ca14  1  0.07980560  0.32848359  0.82082243  1
  Ca2+  Ca15  1  0.08360358  0.82550564  0.16388858  1
  Ca2+  Ca16  1  0.08848299  0.83270700  0.49276062  1
  Ca2+  Ca17  1  0.08390458  0.83093818  0.83166835  1
  Ca2+  Ca18  1  0.57549693  0.32419983  0.16848378  1
  Ca2+  Ca19  1  0.57621608  0.32388684  0.49324866  1
  Ca2+  Ca20  1  0.57937926  0.32245684  0.82773947  1
  Ca2+  Ca21  1  0.57865932  0.82329235  0.16055898  1
  Ca2+  Ca22  1  0.58134806  0.82759510  0.49479926  1
  Ca2+  Ca23  1  0.57645998  0.83408435  0.83560074  1
  Ca2+  Ca24  1  0.33637789  0.42354624  0.17525806  1
  Ca2+  Ca25  1  0.33254277  0.41823255  0.49959062  1
  Ca2+  Ca26  1  0.32386810  0.41231478  0.83402382  1
  Ca2+  Ca27  1  0.33318246  0.92177754  0.17279484  1
  Ca2+  Ca28  1  0.32147425  0.92561281  0.50297629  1
  Ca2+  Ca29  1  0.33184706  0.92435423  0.83530396  1
  Ca2+  Ca30  1  0.82751180  0.42529661  0.17521520  1
  Ca2+  Ca31  1  0.84296777  0.42801412  0.50527405  1
  Ca2+  Ca32  1  0.83819853  0.42057155  0.83239920  1
  Ca2+  Ca33  1  0.83260686  0.91714429  0.17224791  1
  Ca2+  Ca34  1  0.83217831  0.93032159  0.50212186  1
  Ca2+  Ca35  1  0.83578677  0.92231781  0.83481534  1
  Ca2+  Ca36  1  0.42211497  0.15955967  0.16381840  1
  Ca2+  Ca37  1  0.42058888  0.16539107  0.49128869  1
  Ca2+  Ca38  1  0.42572021  0.15215401  0.82869620  1
  Ca2+  Ca39  1  0.42263211  0.67061413  0.16105724  1
  Ca2+  Ca40  1  0.42038904  0.66540502  0.48835233  1
  Ca2+  Ca41  1  0.41842652  0.67305988  0.83257641  1
  Ca2+  Ca42  1  0.92451616  0.15765281  0.16852019  1
  Ca2+  Ca43  1  0.92514266  0.16211118  0.49612727  1
  Ca2+  Ca44  1  0.92206141  0.17407842  0.81717412  1
  Ca2+  Ca45  1  0.92565213  0.67091781  0.16208929  1
  Ca2+  Ca46  1  0.92051740  0.66544205  0.49238434  1
  Ca2+  Ca47  1  0.91749847  0.67264999  0.83142205  1
  Al0+  Al48  1  0.00179495  -0.00021821  -0.00309297  1
  Al0+  Al49  1  -0.00214593  -0.00058442  0.33523188  1
  Al0+  Al50  1  -0.00202238  -0.00185668  0.67156441  1
  Al0+  Al51  1  -0.00119825  0.49902970  0.00082886  1
  Al0+  Al52  1  -0.00053926  0.50005323  0.33208910  1
  Al0+  Al53  1  0.00118393  0.50188126  0.67197293  1
  Al0+  Al54  1  0.50301255  -0.00083020  -0.00290153  1
  Al0+  Al55  1  0.50026241  -0.00195026  0.33350282  1
  Al0+  Al56  1  0.50032450  -0.00338100  0.66201325  1
  Al0+  Al57  1  0.49964266  0.49674847  -0.00452368  1
  Al0+  Al58  1  0.50055670  0.49832094  0.33075713  1
  Al0+  Al59  1  0.50241012  0.50041266  0.66769486  1
  Al0+  Al60  1  0.25025223  0.25024018  0.00707284  1
  Al0+  Al61  1  0.24873792  0.25149461  0.32788407  1
  Al0+  Al62  1  0.25126264  0.25181547  0.67185711  1
  Al0+  Al63  1  0.24941466  0.74834996  -0.00925280  1
  Al0+  Al64  1  0.24980069  0.74877709  0.33723320  1
  Al0+  Al65  1  0.25087135  0.75150406  0.66994186  1
  Al0+  Al66  1  0.74976789  0.25244245  -0.00026109  1
  Al0+  Al67  1  0.74843869  0.25171454  0.33296803  1
  Al0+  Al68  1  0.74869676  0.25462732  0.66304589  1
  Al0+  Al69  1  0.75174101  0.75132373  -0.00623874  1
  Al0+  Al70  1  0.75030251  0.75070193  0.33530087  1
  Al0+  Al71  1  0.75116794  0.75028664  0.67114543  1
  Al0+  Al72  1  0.56928174  0.17823559  0.65182931  1
  Al0+  Al73  1  0.82087130  0.57152946  0.34573375  1
  Al0+  Al74  1  0.07075619  0.67691857  0.98337142  1
  Al0+  Al75  1  0.17692662  0.92779383  0.68447163  1
  Al0+  Al76  1  0.18142523  0.43104904  0.67937696  1
  Al0+  Al77  1  0.42676983  0.32038690  0.31808056  1
  Al0+  Al78  1  0.42885110  0.82163988  0.98441921  1
  Al0+  Al79  1  0.32238562  0.07294351  0.34788229  1
  Al0+  Al80  1  0.57171796  0.67602263  0.98397821  1
  Al0+  Al81  1  0.32189805  0.07137114  0.68101428  1
  Al0+  Al82  1  0.92937971  0.32422102  0.65114615  1
  Al0+  Al83  1  0.92962465  0.82308665  0.98373861  1
  Al0+  Al84  1  0.57117546  0.17671455  0.31729036  1
  Al0+  Al85  1  0.57194826  0.67946428  0.32245825  1
  Al0+  Al86  1  0.32230188  0.06853660  0.01573024  1
  Al0+  Al87  1  0.82130828  0.57145211  0.68299748  1
  Al0+  Al88  1  0.17849075  0.92852019  0.34664675  1
  Al0+  Al89  1  0.07162484  0.17729159  0.65309351  1
  Al0+  Al90  1  0.06961722  0.17707777  0.31989965  1
  Al0+  Al91  1  0.81788517  0.07328862  0.67990239  1
  Al0+  Al92  1  0.07132897  0.67826236  0.32256212  1
  Al0+  Al93  1  0.32176590  0.56989404  0.34429006  1
  Al0+  Al94  1  0.81904547  0.07204398  0.34548018  1
  Al0+  Al95  1  0.57070042  0.18056673  0.98597336  1
  Si0+  Si96  1  0.92915299  0.31964081  0.98641983  1
  Si0+  Si97  1  0.67846660  0.92698800  0.68440315  1
  Si0+  Si98  1  0.92789813  0.82174988  0.31885005  1
  Si0+  Si99  1  0.67843891  0.42834372  0.01591086  1
  Si0+  Si100  1  0.07216002  0.18007978  0.98627343  1
  Si0+  Si101  1  0.42572287  0.32114739  0.98169749  1
  Si0+  Si102  1  0.82199936  0.07323614  0.01374270  1
  Si0+  Si103  1  0.17593060  0.42769057  0.34938244  1
  Si0+  Si104  1  0.67646257  0.43004788  0.68562373  1
  Si0+  Si105  1  0.42723631  0.81994214  0.31825237  1
  Si0+  Si106  1  0.92720052  0.82043359  0.64982230  1
  Si0+  Si107  1  0.42773281  0.32480416  0.65067139  1
  Si0+  Si108  1  0.68134274  0.92893331  0.01451587  1
  Si0+  Si109  1  0.32519975  0.57305720  0.68423504  1
  Si0+  Si110  1  0.32076581  0.57020248  0.01300049  1
  Si0+  Si111  1  0.17719502  0.92652947  0.01695042  1
  Si0+  Si112  1  0.07113669  0.68057289  0.65130374  1
  Si0+  Si113  1  0.67770118  0.42880776  0.35101197  1
  Si0+  Si114  1  0.81917827  0.57166123  0.01626966  1
  Si0+  Si115  1  0.42812941  0.81924911  0.64818307  1
  Si0+  Si116  1  0.17696913  0.42936866  0.01812099  1
  Si0+  Si117  1  0.57168816  0.67910239  0.65125929  1
  Si0+  Si118  1  0.67763373  0.92678199  0.34927315  1
  Si0+  Si119  1  0.92771979  0.32296347  0.31600554  1
  O2-  O120  1  0.24774191  -0.00706960  0.06128364  1
  O2-  O121  1  0.24654240  0.00433483  0.39648507  1
  O2-  O122  1  0.24620338  0.00358244  0.73262660  1
  O2-  O123  1  0.24795075  0.50178078  0.05729459  1
  O2-  O124  1  0.24692046  0.49549157  0.39125889  1
  O2-  O125  1  0.25673104  0.50448456  0.72863812  1
  O2-  O126  1  0.75312751  0.00002617  0.05580134  1
  O2-  O127  1  0.74023170  0.00155382  0.39223998  1
  O2-  O128  1  0.74122688  0.00135905  0.72869169  1
  O2-  O129  1  0.74361334  0.50520667  0.05834243  1
  O2-  O130  1  0.74749412  0.49684566  0.39452365  1
  O2-  O131  1  0.74697226  0.49680880  0.73049944  1
  O2-  O132  1  -0.00669952  0.25106047  0.27166712  1
  O2-  O133  1  -0.00334707  0.24703630  0.60279667  1
  O2-  O134  1  -0.00093922  0.24839017  0.94388221  1
  O2-  O135  1  -0.00272557  0.75332792  0.27569111  1
  O2-  O136  1  0.00225598  0.75324507  0.60842279  1
  O2-  O137  1  0.00124815  0.75097907  0.93292969  1
  O2-  O138  1  0.49366357  0.24327102  0.26763594  1
  O2-  O139  1  0.49128607  0.25095654  0.60793904  1
  O2-  O140  1  0.49150698  0.24979923  0.93794033  1
  O2-  O141  1  0.49663930  0.75179316  0.27414421  1
  O2-  O142  1  0.49815217  0.74601878  0.60760962  1
  O2-  O143  1  0.49903310  0.74700546  0.93368212  1
  O2-  O144  1  0.07038345  0.18067614  0.09147694  1
  O2-  O145  1  0.06935357  0.17738001  0.43239530  1
  O2-  O146  1  0.07079445  0.18136867  0.76766078  1
  O2-  O147  1  0.06940313  0.67540215  0.09707557  1
  O2-  O148  1  0.06944997  0.67721116  0.43578915  1
  O2-  O149  1  0.06867546  0.68000007  0.75640883  1
  O2-  O150  1  0.57396333  0.18268490  0.09842399  1
  O2-  O151  1  0.57305906  0.18142107  0.43056875  1
  O2-  O152  1  0.56931138  0.18051240  0.76547433  1
  O2-  O153  1  0.57170218  0.67790032  0.09766372  1
  O2-  O154  1  0.57242534  0.68203937  0.43598243  1
  O2-  O155  1  0.57053115  0.68000463  0.75627768  1
  O2-  O156  1  0.17365538  0.43032694  0.24331413  1
  O2-  O157  1  0.18145144  0.43385598  0.56658933  1
  O2-  O158  1  0.17617381  0.42799738  0.91299213  1
  O2-  O159  1  0.18020620  0.92665977  0.23264611  1
  O2-  O160  1  0.18063892  0.92360802  0.57126376  1
  O2-  O161  1  0.17548276  0.93087876  0.91168173  1
  O2-  O162  1  0.67956564  0.42982556  0.24477644  1
  O2-  O163  1  0.67113266  0.43468463  0.58065115  1
  O2-  O164  1  0.68251432  0.42599899  0.91105011  1
  O2-  O165  1  0.68093241  0.92241785  0.24356904  1
  O2-  O166  1  0.68199925  0.92119224  0.57904805  1
  O2-  O167  1  0.68099415  0.92969361  0.90945442  1
  O2-  O168  1  0.42774412  0.32498663  0.08673053  1
  O2-  O169  1  0.43036836  0.32332197  0.43172351  1
  O2-  O170  1  0.43134639  0.33018892  0.75628782  1
  O2-  O171  1  0.43074610  0.81938663  0.09820233  1
  O2-  O172  1  0.42870426  0.81737418  0.42402447  1
  O2-  O173  1  0.42967028  0.81896940  0.75329122  1
  O2-  O174  1  0.92885532  0.32036454  0.09148122  1
  O2-  O175  1  0.93046080  0.32595505  0.42100274  1
  O2-  O176  1  0.93215425  0.32318911  0.76581923  1
  O2-  O177  1  0.92839282  0.82163361  0.09754659  1
  O2-  O178  1  0.92589247  0.82067467  0.42445479  1
  O2-  O179  1  0.92474887  0.81768206  0.75481746  1
  O2-  O180  1  0.32259859  0.06736280  0.23388217  1
  O2-  O181  1  0.32266527  0.06912864  0.56791235  1
  O2-  O182  1  0.32032475  0.06954486  0.90280165  1
  O2-  O183  1  0.32068230  0.57064058  0.23072976  1
  O2-  O184  1  0.32623370  0.57290990  0.57867251  1
  O2-  O185  1  0.32113766  0.56608189  0.90783752  1
  O2-  O186  1  0.82024496  0.06788932  0.23156315  1
  O2-  O187  1  0.81792595  0.07037993  0.56696117  1
  O2-  O188  1  0.82001099  0.07582464  0.90881369  1
  O2-  O189  1  0.81969201  0.57071162  0.23217026  1
  O2-  O190  1  0.81993523  0.57251972  0.56988795  1
  O2-  O191  1  0.82058856  0.56837860  0.91121912  1
  O2-  O192  1  0.03607467  0.08150471  0.26420542  1
  O2-  O193  1  0.04366877  0.07716926  0.60394280  1
  O2-  O194  1  0.04902661  0.08743010  0.93975717  1
  O2-  O195  1  0.04014163  0.58282591  0.26609368  1
  O2-  O196  1  0.04115758  0.58930461  0.60547946  1
  O2-  O197  1  0.03774259  0.57855663  0.93165151  1
  O2-  O198  1  0.54990520  0.07516901  0.26677196  1
  O2-  O199  1  0.54575773  0.07927931  0.59929724  1
  O2-  O200  1  0.54672958  0.08255871  0.93244338  1
  O2-  O201  1  0.54505546  0.58270225  0.26839387  1
  O2-  O202  1  0.54776430  0.58586831  0.60512307  1
  O2-  O203  1  0.54522511  0.57699004  0.93080104  1
  O2-  O204  1  0.16394830  0.20945460  0.26249523  1
  O2-  O205  1  0.17034289  0.21008752  0.60344579  1
  O2-  O206  1  0.16351607  0.21204969  0.94107180  1
  O2-  O207  1  0.16800139  0.70840363  0.26820783  1
  O2-  O208  1  0.16539304  0.70516906  0.60702314  1
  O2-  O209  1  0.16928142  0.69860517  0.92820700  1
  O2-  O210  1  0.66855552  0.21055503  0.26358950  1
  O2-  O211  1  0.66422430  0.21423061  0.59837364  1
  O2-  O212  1  0.66631837  0.21719198  0.93225418  1
  O2-  O213  1  0.66764531  0.71257042  0.26747773  1
  O2-  O214  1  0.66345178  0.71073900  0.60613995  1
  O2-  O215  1  0.66934712  0.70593288  0.93116981  1
  O2-  O216  1  0.08476471  0.45612980  0.06561613  1
  O2-  O217  1  0.08383019  0.45565850  0.39627412  1
  O2-  O218  1  0.08711494  0.46440262  0.73736419  1
  O2-  O219  1  0.08362126  0.95363943  0.06324174  1
  O2-  O220  1  0.07856582  0.95200057  0.39809399  1
  O2-  O221  1  0.07640335  0.94799026  0.73598421  1
  O2-  O222  1  0.58356381  0.44929692  0.06013761  1
  O2-  O223  1  0.58529171  0.45567888  0.39755533  1
  O2-  O224  1  0.58456253  0.45811153  0.73557303  1
  O2-  O225  1  0.59034941  0.95631127  0.06296935  1
  O2-  O226  1  0.58230221  0.94431126  0.39435186  1
  O2-  O227  1  0.58238715  0.94661736  0.72676006  1
  O2-  O228  1  0.20555219  0.33871853  0.06742346  1
  O2-  O229  1  0.20007083  0.33383024  0.39417689  1
  O2-  O230  1  0.21016891  0.33618365  0.73882756  1
  O2-  O231  1  0.19994002  0.82948374  0.05709236  1
  O2-  O232  1  0.20935911  0.83199983  0.40217490  1
  O2-  O233  1  0.21048726  0.83055658  0.73871671  1
  O2-  O234  1  0.71354520  0.34017107  0.06642294  1
  O2-  O235  1  0.70207441  0.33538563  0.39683811  1
  O2-  O236  1  0.70137916  0.33646596  0.73153163  1
  O2-  O237  1  0.70985330  0.83662490  0.06163406  1
  O2-  O238  1  0.70949424  0.83696542  0.40004313  1
  O2-  O239  1  0.70995582  0.83675496  0.73439123  1
  O2-  O240  1  0.46280244  0.41596633  0.26205934  1
  O2-  O241  1  0.45845972  0.41712572  0.60321895  1
  O2-  O242  1  0.45320510  0.41272161  0.93228889  1
  O2-  O243  1  0.45297755  0.91292499  0.27174405  1
  O2-  O244  1  0.45859907  0.90848175  0.59822474  1
  O2-  O245  1  0.46396349  0.91671934  0.92891270  1
  O2-  O246  1  0.95680861  0.41446580  0.26631407  1
  O2-  O247  1  0.96394334  0.42191733  0.60041979  1
  O2-  O248  1  0.95735376  0.41127727  0.93919256  1
  O2-  O249  1  0.95138500  0.91463519  0.27104227  1
  O2-  O250  1  0.94995864  0.91406168  0.60475845  1
  O2-  O251  1  0.95642065  0.92196745  0.92969069  1
  O2-  O252  1  0.32647759  0.30422743  0.26429699  1
  O2-  O253  1  0.33196226  0.30588689  0.60807651  1
  O2-  O254  1  0.32978033  0.29828605  0.93930709  1
  O2-  O255  1  0.33481807  0.79273036  0.27182342  1
  O2-  O256  1  0.33597653  0.79118914  0.60206584  1
  O2-  O257  1  0.33151102  0.79512063  0.92875546  1
  O2-  O258  1  0.83266359  0.30183837  0.27113559  1
  O2-  O259  1  0.82815592  0.30647103  0.60127068  1
  O2-  O260  1  0.83766294  0.29362837  0.93787132  1
  O2-  O261  1  0.83529993  0.79442628  0.27134609  1
  O2-  O262  1  0.83657122  0.78796285  0.60267595  1
  O2-  O263  1  0.83245753  0.79496940  0.92823609  1
  O2-  O264  1  0.42099283  0.03824999  0.06588884  1
  O2-  O265  1  0.42085436  0.04276367  0.39970929  1
  O2-  O266  1  0.41962561  0.03431643  0.73219672  1
  O2-  O267  1  0.41298166  0.54035880  0.05926890  1
  O2-  O268  1  0.41804735  0.53872458  0.39923271  1
  O2-  O269  1  0.41925544  0.54842165  0.73030354  1
  O2-  O270  1  0.91531128  0.04642274  0.05927232  1
  O2-  O271  1  0.91297245  0.03742370  0.40149850  1
  O2-  O272  1  0.91284300  0.04058039  0.73585785  1
  O2-  O273  1  0.90950121  0.53807741  0.06371940  1
  O2-  O274  1  0.91709579  0.53943531  0.39992917  1
  O2-  O275  1  0.91672142  0.54085581  0.73884694  1
  O2-  O276  1  0.29206719  0.16607640  0.06896842  1
  O2-  O277  1  0.29789425  0.17441496  0.39460023  1
  O2-  O278  1  0.30204521  0.17165988  0.73442947  1
  O2-  O279  1  0.29582148  0.66396047  0.05740219  1
  O2-  O280  1  0.29205165  0.66448410  0.40197041  1
  O2-  O281  1  0.29902835  0.66611292  0.73019702  1
  O2-  O282  1  0.79268898  0.16441712  0.06173156  1
  O2-  O283  1  0.79307263  0.17039554  0.39798540  1
  O2-  O284  1  0.78977289  0.17211017  0.73200590  1
  O2-  O285  1  0.79600350  0.66592251  0.06037997  1
  O2-  O286  1  0.79083626  0.66753965  0.40107333  1
  O2-  O287  1  0.78777663  0.66673659  0.73836531  1
