# generated using pymatgen
data_Ca2Al2SiO7
_symmetry_space_group_name_H-M   'P 1'
_cell_length_a   15.45555374
_cell_length_b   15.45543477
_cell_length_c   15.28089199
_cell_angle_alpha   90.01931189
_cell_angle_beta   89.98366335
_cell_angle_gamma   90.01740251
_symmetry_Int_Tables_number   1
_chemical_formula_structural   Ca2Al2SiO7
_chemical_formula_sum   'Ca48 Al48 Si24 O168'
_cell_volume   3650.18133326
_cell_formula_units_Z   24
loop_
 _symmetry_equiv_pos_site_id
 _symmetry_equiv_pos_as_xyz
  1  'x, y, z'
loop_
 _atom_type_symbol
 _atom_type_oxidation_number
  Ca2+  2.0
  Al0+  0.0
  Si0+  0.0
  O2-  -2.0
loop_
 _atom_site_type_symbol
 _atom_site_label
 _atom_site_symmetry_multiplicity
 _atom_site_fract_x
 _atom_site_fract_y
 _atom_site_fract_z
 _atom_site_occupancy
  Ca2+  Ca0  1  0.16920454  0.07337913  0.16378172  1
  Ca2+  Ca1  1  0.16119126  0.07161521  0.50400267  1
  Ca2+  Ca2  1  0.17062760  0.07216634  0.84089188  1
  Ca2+  Ca3  1  0.17099419  0.57713891  0.16597624  1
  Ca2+  Ca4  1  0.17830037  0.58543187  0.50439125  1
  Ca2+  Ca5  1  0.17159163  0.57716661  0.83585719  1
  Ca2+  Ca6  1  0.66848173  0.07260158  0.16404462  1
  Ca2+  Ca7  1  0.67194257  0.07806986  0.50260889  1
  Ca2+  Ca8  1  0.67817908  0.07981569  0.83997868  1
  Ca2+  Ca9  1  0.67057939  0.57254724  0.16475923  1
  Ca2+  Ca10  1  0.67283864  0.57546366  0.50473882  1
  Ca2+  Ca11  1  0.67835157  0.57905048  0.83897232  1
  Ca2+  Ca12  1  0.07365001  0.33553797  0.15606994  1
  Ca2+  Ca13  1  0.06791587  0.33604214  0.49528123  1
  Ca2+  Ca14  1  0.07579501  0.33393890  0.83118118  1
  Ca2+  Ca15  1  0.08267802  0.83418669  0.15946904  1
  Ca2+  Ca16  1  0.08034686  0.83913088  0.50064072  1
  Ca2+  Ca17  1  0.07537712  0.84094709  0.82995803  1
  Ca2+  Ca18  1  0.58130663  0.33738654  0.15835690  1
  Ca2+  Ca19  1  0.58195176  0.33606379  0.49771150  1
  Ca2+  Ca20  1  0.57505134  0.33857327  0.83247049  1
  Ca2+  Ca21  1  0.58125525  0.83628606  0.15565389  1
  Ca2+  Ca22  1  0.57813993  0.83388175  0.49591153  1
  Ca2+  Ca23  1  0.57195826  0.84182035  0.83119980  1
  Ca2+  Ca24  1  0.32876746  0.41722400  0.16849814  1
  Ca2+  Ca25  1  0.33839764  0.42876558  0.50785570  1
  Ca2+  Ca26  1  0.33367673  0.41736548  0.84098730  1
  Ca2+  Ca27  1  0.32663217  0.91588766  0.16701850  1
  Ca2+  Ca28  1  0.32026083  0.91130148  0.50808132  1
  Ca2+  Ca29  1  0.32590902  0.91463421  0.84162869  1
  Ca2+  Ca30  1  0.82797298  0.41335395  0.16815037  1
  Ca2+  Ca31  1  0.83087539  0.41395676  0.50683771  1
  Ca2+  Ca32  1  0.83725047  0.42554804  0.84340108  1
  Ca2+  Ca33  1  0.82680181  0.91661300  0.16622578  1
  Ca2+  Ca34  1  0.82930895  0.92039068  0.51094201  1
  Ca2+  Ca35  1  0.83634561  0.92545056  0.84356747  1
  Ca2+  Ca36  1  0.41899712  0.16874660  0.15365742  1
  Ca2+  Ca37  1  0.41639012  0.17432356  0.49878356  1
  Ca2+  Ca38  1  0.41262206  0.17475121  0.83195710  1
  Ca2+  Ca39  1  0.41802559  0.67040690  0.16021775  1
  Ca2+  Ca40  1  0.41055165  0.66782926  0.49903412  1
  Ca2+  Ca41  1  0.41597262  0.67590560  0.82765699  1
  Ca2+  Ca42  1  0.91237820  0.17572736  0.15975643  1
  Ca2+  Ca43  1  0.91113577  0.17420950  0.49947084  1
  Ca2+  Ca44  1  0.90721441  0.17490560  0.82912456  1
  Ca2+  Ca45  1  0.91660728  0.67231418  0.15582701  1
  Ca2+  Ca46  1  0.91381069  0.67033815  0.50156669  1
  Ca2+  Ca47  1  0.91000260  0.67609080  0.82928515  1
  Al0+  Al48  1  0.00177043  0.00090247  0.00599784  1
  Al0+  Al49  1  0.00064302  0.00179530  0.33608276  1
  Al0+  Al50  1  -0.00132276  0.00042349  0.66996610  1
  Al0+  Al51  1  0.00324323  0.50104563  0.00383479  1
  Al0+  Al52  1  0.00092312  0.50242022  0.32783773  1
  Al0+  Al53  1  0.00054593  0.50080289  0.66401804  1
  Al0+  Al54  1  0.50053520  0.00134136  -0.00001276  1
  Al0+  Al55  1  0.49982320  0.00163919  0.33737964  1
  Al0+  Al56  1  0.49802058  0.00057655  0.65844543  1
  Al0+  Al57  1  0.50225151  0.50166121  -0.00238549  1
  Al0+  Al58  1  0.50214664  0.50197622  0.34070176  1
  Al0+  Al59  1  0.50017168  0.50148610  0.66697174  1
  Al0+  Al60  1  0.24932269  0.24992936  0.00402033  1
  Al0+  Al61  1  0.24783112  0.25013061  0.33326129  1
  Al0+  Al62  1  0.24939471  0.24877029  0.65730289  1
  Al0+  Al63  1  0.25074916  0.74843263  -0.00109823  1
  Al0+  Al64  1  0.24881571  0.75082458  0.33976953  1
  Al0+  Al65  1  0.24935241  0.74843307  0.67209128  1
  Al0+  Al66  1  0.74896759  0.24974640  0.00190092  1
  Al0+  Al67  1  0.74736101  0.24991882  0.33257881  1
  Al0+  Al68  1  0.74734736  0.24803312  0.66567809  1
  Al0+  Al69  1  0.75121978  0.74844760  0.00245936  1
  Al0+  Al70  1  0.74792435  0.74944987  0.33657636  1
  Al0+  Al71  1  0.74790675  0.74803102  0.66466976  1
  Al0+  Al72  1  0.92852923  0.32043042  0.98590481  1
  Al0+  Al73  1  0.82377462  0.57121810  0.01557002  1
  Al0+  Al74  1  0.92887326  0.32172373  0.65423148  1
  Al0+  Al75  1  0.67902034  0.92835103  0.01159077  1
  Al0+  Al76  1  0.67817108  0.92745933  0.34875643  1
  Al0+  Al77  1  0.93020536  0.82094093  0.98845872  1
  Al0+  Al78  1  0.82303644  0.07245975  0.01637729  1
  Al0+  Al79  1  0.32161549  0.07141374  0.01289171  1
  Al0+  Al80  1  0.68141996  0.42897941  0.34853251  1
  Al0+  Al81  1  0.81885626  0.07007546  0.67989841  1
  Al0+  Al82  1  0.67876906  0.42923085  0.01287935  1
  Al0+  Al83  1  0.92871269  0.32046727  0.31788438  1
  Al0+  Al84  1  0.42843301  0.32147331  0.98882301  1
  Al0+  Al85  1  0.42868530  0.32184857  0.65199134  1
  Al0+  Al86  1  0.31957585  0.56854915  0.34604975  1
  Al0+  Al87  1  0.18014055  0.93091767  0.34891359  1
  Al0+  Al88  1  0.32157575  0.56929461  0.68305049  1
  Al0+  Al89  1  0.17981038  0.93011563  0.68205776  1
  Al0+  Al90  1  0.18043488  0.42833098  0.01209328  1
  Al0+  Al91  1  0.42988063  0.82141228  0.98790542  1
  Al0+  Al92  1  0.82233943  0.57017002  0.67945126  1
  Al0+  Al93  1  0.42754280  0.82035678  0.65144189  1
  Al0+  Al94  1  0.17966836  0.92625915  0.01552184  1
  Al0+  Al95  1  0.92849074  0.82163720  0.65368047  1
  Si0+  Si96  1  0.17579259  0.42676325  0.35057845  1
  Si0+  Si97  1  0.82056869  0.07078760  0.35044524  1
  Si0+  Si98  1  0.82451417  0.57231498  0.35033233  1
  Si0+  Si99  1  0.07258984  0.17625506  0.31411321  1
  Si0+  Si100  1  0.67550372  0.92674410  0.68161530  1
  Si0+  Si101  1  0.42868035  0.82002387  0.31948496  1
  Si0+  Si102  1  0.32363872  0.57132658  0.01540222  1
  Si0+  Si103  1  0.56875713  0.17866327  0.31664172  1
  Si0+  Si104  1  0.07390079  0.67723666  0.98227632  1
  Si0+  Si105  1  0.07129896  0.17717685  0.64925997  1
  Si0+  Si106  1  0.32325914  0.07458452  0.35186528  1
  Si0+  Si107  1  0.57121106  0.67864754  0.31779542  1
  Si0+  Si108  1  0.57192726  0.17747676  0.98219336  1
  Si0+  Si109  1  0.07305065  0.68173261  0.31820869  1
  Si0+  Si110  1  0.43001574  0.32346912  0.31942500  1
  Si0+  Si111  1  0.57183529  0.17794996  0.64705925  1
  Si0+  Si112  1  0.17828015  0.42589171  0.68021017  1
  Si0+  Si113  1  0.32332381  0.07386876  0.68117173  1
  Si0+  Si114  1  0.57313965  0.67763942  0.98223788  1
  Si0+  Si115  1  0.57149484  0.67822453  0.64737800  1
  Si0+  Si116  1  0.07232271  0.17841214  0.98338076  1
  Si0+  Si117  1  0.07176399  0.67804411  0.64942625  1
  Si0+  Si118  1  0.67877375  0.42707026  0.68377820  1
  Si0+  Si119  1  0.92807516  0.82143186  0.32031773  1
  O2-  O120  1  0.25409227  -0.00377669  0.06460167  1
  O2-  O121  1  0.25405433  0.00644125  0.39590093  1
  O2-  O122  1  0.25713175  0.00347732  0.72550217  1
  O2-  O123  1  0.25755566  0.50044581  0.05940803  1
  O2-  O124  1  0.24817388  0.49122064  0.39481818  1
  O2-  O125  1  0.25052854  0.48980935  0.72613933  1
  O2-  O126  1  0.75324586  -0.00316385  0.06400582  1
  O2-  O127  1  0.75644362  -0.00196552  0.39543105  1
  O2-  O128  1  0.74698085  -0.00785888  0.72518128  1
  O2-  O129  1  0.75469108  0.49602471  0.06469146  1
  O2-  O130  1  0.76078639  0.49901208  0.39466027  1
  O2-  O131  1  0.75226076  0.49121001  0.72593731  1
  O2-  O132  1  0.00595228  0.24778171  0.27147399  1
  O2-  O133  1  0.00370632  0.24782369  0.60558087  1
  O2-  O134  1  0.00004478  0.24301307  0.93826629  1
  O2-  O135  1  -0.00177290  0.74970983  0.27762559  1
  O2-  O136  1  0.00223830  0.74649909  0.60504154  1
  O2-  O137  1  0.00518395  0.74690086  0.94007636  1
  O2-  O138  1  0.49589522  0.24879449  0.27573268  1
  O2-  O139  1  0.50293154  0.24749030  0.60351707  1
  O2-  O140  1  0.50320159  0.24772035  0.94023723  1
  O2-  O141  1  0.50231335  0.75236999  0.27585545  1
  O2-  O142  1  0.50333096  0.74769523  0.60255378  1
  O2-  O143  1  0.50667978  0.74950401  0.93971835  1
  O2-  O144  1  0.07315622  0.18131220  0.08922864  1
  O2-  O145  1  0.07169315  0.17500829  0.41990617  1
  O2-  O146  1  0.07394294  0.17793277  0.75432067  1
  O2-  O147  1  0.07548166  0.67801081  0.08855718  1
  O2-  O148  1  0.07443202  0.68133318  0.42325717  1
  O2-  O149  1  0.07178890  0.67603640  0.75451528  1
  O2-  O150  1  0.57025041  0.17605176  0.08824774  1
  O2-  O151  1  0.56858246  0.17874354  0.42188557  1
  O2-  O152  1  0.57276672  0.17662620  0.75204861  1
  O2-  O153  1  0.56979857  0.67497882  0.08836611  1
  O2-  O154  1  0.57086004  0.67851940  0.42280951  1
  O2-  O155  1  0.57161177  0.67793918  0.75258845  1
  O2-  O156  1  0.17661947  0.42823354  0.24511755  1
  O2-  O157  1  0.17802645  0.42962382  0.57423240  1
  O2-  O158  1  0.18075736  0.42984108  0.89883985  1
  O2-  O159  1  0.18212909  0.92851014  0.23648538  1
  O2-  O160  1  0.17952211  0.93184896  0.56835046  1
  O2-  O161  1  0.17999752  0.92814971  0.90211705  1
  O2-  O162  1  0.67788405  0.43090605  0.23613939  1
  O2-  O163  1  0.67904570  0.42846804  0.57747918  1
  O2-  O164  1  0.67633168  0.43292794  0.89945432  1
  O2-  O165  1  0.67706846  0.92794044  0.23624386  1
  O2-  O166  1  0.67677876  0.92922993  0.57536036  1
  O2-  O167  1  0.67741690  0.93177533  0.89807268  1
  O2-  O168  1  0.43022804  0.32106731  0.10263950  1
  O2-  O169  1  0.43302118  0.32268037  0.42470308  1
  O2-  O170  1  0.42872457  0.32056621  0.76486866  1
  O2-  O171  1  0.42957446  0.81763447  0.10187013  1
  O2-  O172  1  0.42855039  0.81686325  0.42465279  1
  O2-  O173  1  0.42918108  0.82036662  0.76430436  1
  O2-  O174  1  0.93049261  0.31950894  0.09931603  1
  O2-  O175  1  0.92882125  0.31857813  0.43156927  1
  O2-  O176  1  0.93061661  0.32218916  0.76684889  1
  O2-  O177  1  0.93111792  0.81846013  0.10247919  1
  O2-  O178  1  0.92884075  0.82025002  0.42564369  1
  O2-  O179  1  0.92964233  0.82216672  0.76631205  1
  O2-  O180  1  0.32552543  0.07392351  0.24676713  1
  O2-  O181  1  0.32156446  0.07384144  0.57511093  1
  O2-  O182  1  0.31865869  0.07306775  0.89917823  1
  O2-  O183  1  0.31893123  0.56849083  0.23301967  1
  O2-  O184  1  0.31919889  0.56958338  0.56940333  1
  O2-  O185  1  0.32230860  0.57125612  0.90991301  1
  O2-  O186  1  0.81935778  0.07008832  0.24531961  1
  O2-  O187  1  0.81655605  0.07009145  0.56616251  1
  O2-  O188  1  0.82031976  0.07278490  0.90262994  1
  O2-  O189  1  0.82234431  0.57470241  0.24532543  1
  O2-  O190  1  0.81960519  0.56938235  0.56580080  1
  O2-  O191  1  0.82174663  0.57155777  0.90179160  1
  O2-  O192  1  0.04488668  0.08304979  0.26775726  1
  O2-  O193  1  0.04039357  0.08539014  0.60197716  1
  O2-  O194  1  0.05145541  0.08275779  0.94026389  1
  O2-  O195  1  0.05013336  0.58915333  0.26924215  1
  O2-  O196  1  0.04737497  0.58537752  0.59965017  1
  O2-  O197  1  0.04914092  0.58367928  0.93641099  1
  O2-  O198  1  0.54112914  0.08623044  0.26954392  1
  O2-  O199  1  0.54572583  0.08572856  0.59703826  1
  O2-  O200  1  0.54543963  0.08560093  0.93349292  1
  O2-  O201  1  0.53944547  0.58766837  0.27091160  1
  O2-  O202  1  0.54419336  0.58516454  0.60033191  1
  O2-  O203  1  0.54430856  0.58681595  0.93232520  1
  O2-  O204  1  0.16798923  0.19871786  0.26938081  1
  O2-  O205  1  0.16426799  0.19846053  0.59857480  1
  O2-  O206  1  0.16407784  0.20854757  0.93640875  1
  O2-  O207  1  0.16320697  0.71406047  0.27010013  1
  O2-  O208  1  0.16485337  0.70643296  0.60340319  1
  O2-  O209  1  0.16764405  0.70065004  0.93542579  1
  O2-  O210  1  0.65986594  0.20709629  0.26914329  1
  O2-  O211  1  0.66383380  0.20505839  0.59754803  1
  O2-  O212  1  0.66508847  0.20343542  0.93605583  1
  O2-  O213  1  0.66402822  0.70377424  0.27094086  1
  O2-  O214  1  0.66437451  0.70252383  0.59827921  1
  O2-  O215  1  0.66784576  0.69996317  0.93802199  1
  O2-  O216  1  0.08785715  0.46335956  0.07105287  1
  O2-  O217  1  0.08327192  0.45813506  0.39584423  1
  O2-  O218  1  0.08637826  0.45573227  0.72672765  1
  O2-  O219  1  0.08406224  0.95765772  0.07180804  1
  O2-  O220  1  0.08289780  0.96173197  0.40320162  1
  O2-  O221  1  0.08413642  0.96313620  0.73514630  1
  O2-  O222  1  0.58211502  0.46320441  0.06803581  1
  O2-  O223  1  0.58767698  0.46456022  0.40570173  1
  O2-  O224  1  0.58681630  0.45828730  0.72878508  1
  O2-  O225  1  0.58254752  0.96003530  0.06716497  1
  O2-  O226  1  0.58270510  0.96190481  0.40366194  1
  O2-  O227  1  0.58126251  0.95604194  0.72380885  1
  O2-  O228  1  0.20866380  0.33371578  0.07040856  1
  O2-  O229  1  0.19476919  0.33095428  0.39492819  1
  O2-  O230  1  0.19924082  0.32960283  0.72155859  1
  O2-  O231  1  0.20732912  0.82704433  0.06767710  1
  O2-  O232  1  0.21154620  0.83568079  0.40525589  1
  O2-  O233  1  0.20776459  0.83316448  0.73485867  1
  O2-  O234  1  0.70053735  0.32995948  0.06582247  1
  O2-  O235  1  0.70715227  0.33072397  0.40239206  1
  O2-  O236  1  0.69664705  0.33122368  0.72633531  1
  O2-  O237  1  0.70304584  0.82954469  0.06547138  1
  O2-  O238  1  0.70470118  0.82986506  0.40340063  1
  O2-  O239  1  0.69492443  0.83116507  0.72393544  1
  O2-  O240  1  0.46177612  0.41488477  0.27438792  1
  O2-  O241  1  0.46167663  0.41848863  0.59844223  1
  O2-  O242  1  0.45907744  0.41802347  0.93406188  1
  O2-  O243  1  0.45349081  0.91455604  0.27650722  1
  O2-  O244  1  0.45417205  0.91737464  0.59465232  1
  O2-  O245  1  0.45839682  0.91846160  0.93348507  1
  O2-  O246  1  0.95702961  0.41893644  0.26582743  1
  O2-  O247  1  0.95987735  0.41743121  0.59716751  1
  O2-  O248  1  0.96410720  0.41763411  0.93596619  1
  O2-  O249  1  0.95605313  0.91414763  0.27538537  1
  O2-  O250  1  0.96058688  0.91796711  0.59898900  1
  O2-  O251  1  0.96070283  0.91913867  0.93721892  1
  O2-  O252  1  0.33420552  0.30180930  0.27671567  1
  O2-  O253  1  0.33293708  0.29286568  0.59361175  1
  O2-  O254  1  0.33164783  0.29077403  0.93533524  1
  O2-  O255  1  0.33717498  0.78865537  0.27385574  1
  O2-  O256  1  0.33093509  0.78513254  0.59947492  1
  O2-  O257  1  0.33433089  0.78805120  0.93329481  1
  O2-  O258  1  0.83133997  0.28801210  0.26639030  1
  O2-  O259  1  0.83169464  0.28928592  0.60101230  1
  O2-  O260  1  0.83017889  0.29309520  0.93377320  1
  O2-  O261  1  0.83517607  0.79396289  0.27470949  1
  O2-  O262  1  0.83129207  0.79095525  0.59912775  1
  O2-  O263  1  0.83309197  0.79086122  0.93495324  1
  O2-  O264  1  0.42042447  0.04678167  0.06619067  1
  O2-  O265  1  0.41631076  0.05007770  0.39945226  1
  O2-  O266  1  0.41875645  0.05144453  0.72380632  1
  O2-  O267  1  0.41776700  0.54880561  0.06075090  1
  O2-  O268  1  0.41566774  0.54100104  0.40285476  1
  O2-  O269  1  0.41964538  0.54276378  0.73516800  1
  O2-  O270  1  0.92126700  0.04819570  0.07045515  1
  O2-  O271  1  0.91566981  0.05064359  0.39584021  1
  O2-  O272  1  0.91556671  0.04360229  0.73391116  1
  O2-  O273  1  0.92294078  0.54797422  0.06841735  1
  O2-  O274  1  0.92092772  0.55290304  0.39327606  1
  O2-  O275  1  0.92073526  0.54445497  0.73135605  1
  O2-  O276  1  0.29070076  0.16715678  0.06999984  1
  O2-  O277  1  0.29784664  0.16931142  0.39714028  1
  O2-  O278  1  0.29648962  0.16826848  0.72465281  1
  O2-  O279  1  0.29468129  0.66294155  0.06331586  1
  O2-  O280  1  0.28507983  0.66317372  0.40211683  1
  O2-  O281  1  0.28746511  0.66351416  0.73810959  1
  O2-  O282  1  0.78994995  0.16861879  0.07035978  1
  O2-  O283  1  0.78806326  0.16243616  0.39653957  1
  O2-  O284  1  0.78470685  0.16569736  0.73377708  1
  O2-  O285  1  0.79217299  0.66738358  0.07101101  1
  O2-  O286  1  0.79345448  0.66384800  0.39818205  1
  O2-  O287  1  0.78764545  0.66614934  0.73250856  1
