# generated using pymatgen
data_Ca2Al2SiO7
_symmetry_space_group_name_H-M   'P 1'
_cell_length_a   15.46344221
_cell_length_b   15.46391184
_cell_length_c   15.28786651
_cell_angle_alpha   89.97621394
_cell_angle_beta   90.00888364
_cell_angle_gamma   90.00172914
_symmetry_Int_Tables_number   1
_chemical_formula_structural   Ca2Al2SiO7
_chemical_formula_sum   'Ca48 Al48 Si24 O168'
_cell_volume   3655.71541428
_cell_formula_units_Z   24
loop_
 _symmetry_equiv_pos_site_id
 _symmetry_equiv_pos_as_xyz
  1  'x, y, z'
loop_
 _atom_type_symbol
 _atom_type_oxidation_number
  Ca2+  2.0
  Al0+  0.0
  Si0+  0.0
  O2-  -2.0
loop_
 _atom_site_type_symbol
 _atom_site_label
 _atom_site_symmetry_multiplicity
 _atom_site_fract_x
 _atom_site_fract_y
 _atom_site_fract_z
 _atom_site_occupancy
  Ca2+  Ca0  1  0.16513194  0.08259797  0.16840311  1
  Ca2+  Ca1  1  0.17705784  0.08170358  0.50849105  1
  Ca2+  Ca2  1  0.17245645  0.08362365  0.83886821  1
  Ca2+  Ca3  1  0.17489483  0.58289282  0.17339433  1
  Ca2+  Ca4  1  0.17697115  0.58382632  0.50059280  1
  Ca2+  Ca5  1  0.17649868  0.58310931  0.84465634  1
  Ca2+  Ca6  1  0.65848250  0.08073225  0.16440701  1
  Ca2+  Ca7  1  0.66057045  0.08409397  0.50503313  1
  Ca2+  Ca8  1  0.66625173  0.07809195  0.84651955  1
  Ca2+  Ca9  1  0.66363183  0.58564847  0.16698927  1
  Ca2+  Ca10  1  0.66449746  0.57835494  0.51276183  1
  Ca2+  Ca11  1  0.67045526  0.58073841  0.84282846  1
  Ca2+  Ca12  1  0.08704936  0.33510488  0.15680138  1
  Ca2+  Ca13  1  0.08372912  0.33766662  0.49438514  1
  Ca2+  Ca14  1  0.08764259  0.33285471  0.83661628  1
  Ca2+  Ca15  1  0.08511402  0.81797170  0.16049028  1
  Ca2+  Ca16  1  0.07581031  0.82656016  0.49704728  1
  Ca2+  Ca17  1  0.07431300  0.82632117  0.83170200  1
  Ca2+  Ca18  1  0.58115298  0.32862153  0.16108127  1
  Ca2+  Ca19  1  0.57882915  0.32744995  0.49386093  1
  Ca2+  Ca20  1  0.59847734  0.32538577  0.83040262  1
  Ca2+  Ca21  1  0.57785164  0.82363228  0.15753696  1
  Ca2+  Ca22  1  0.58262359  0.81736613  0.49808927  1
  Ca2+  Ca23  1  0.58515762  0.82294474  0.83672338  1
  Ca2+  Ca24  1  0.32666251  0.42486158  0.17130395  1
  Ca2+  Ca25  1  0.33475280  0.42294706  0.49833680  1
  Ca2+  Ca26  1  0.33142628  0.42990780  0.83962184  1
  Ca2+  Ca27  1  0.33924049  0.91568037  0.16627073  1
  Ca2+  Ca28  1  0.33431088  0.92348361  0.50635887  1
  Ca2+  Ca29  1  0.34308792  0.92268433  0.83806007  1
  Ca2+  Ca30  1  0.82692430  0.42041764  0.16005427  1
  Ca2+  Ca31  1  0.82424368  0.42560723  0.50877415  1
  Ca2+  Ca32  1  0.82202696  0.42660364  0.83696421  1
  Ca2+  Ca33  1  0.82756803  0.92074251  0.16272444  1
  Ca2+  Ca34  1  0.83295442  0.91665907  0.50608029  1
  Ca2+  Ca35  1  0.82790866  0.91944835  0.84225477  1
  Ca2+  Ca36  1  0.42352668  0.17644412  0.16152953  1
  Ca2+  Ca37  1  0.42420194  0.17242637  0.49401739  1
  Ca2+  Ca38  1  0.42835078  0.16891588  0.82706509  1
  Ca2+  Ca39  1  0.42100394  0.66571669  0.15835801  1
  Ca2+  Ca40  1  0.42508557  0.65293587  0.49790835  1
  Ca2+  Ca41  1  0.42422520  0.66114699  0.83242629  1
  Ca2+  Ca42  1  0.92193852  0.16916443  0.15443571  1
  Ca2+  Ca43  1  0.91849400  0.17247841  0.49565374  1
  Ca2+  Ca44  1  0.91938103  0.16358955  0.83464031  1
  Ca2+  Ca45  1  0.92861645  0.65697662  0.15921049  1
  Ca2+  Ca46  1  0.91707726  0.66849829  0.49711472  1
  Ca2+  Ca47  1  0.91762827  0.66053433  0.82914004  1
  Al0+  Al48  1  0.00172349  0.00101270  -0.00021570  1
  Al0+  Al49  1  -0.00192748  0.00081834  0.33595757  1
  Al0+  Al50  1  0.00094799  -0.00185289  0.66100686  1
  Al0+  Al51  1  -0.00147360  0.49756714  -0.00144130  1
  Al0+  Al52  1  -0.00105525  0.49987532  0.33376658  1
  Al0+  Al53  1  0.00005115  0.49784527  0.66740210  1
  Al0+  Al54  1  0.50022551  0.00138245  -0.00106187  1
  Al0+  Al55  1  0.50190136  -0.00142851  0.33344985  1
  Al0+  Al56  1  0.50055073  -0.00036468  0.66641395  1
  Al0+  Al57  1  0.49869082  0.49961098  0.00412441  1
  Al0+  Al58  1  0.49976408  0.49766288  0.32864020  1
  Al0+  Al59  1  0.49727291  0.49506307  0.67134840  1
  Al0+  Al60  1  0.25092990  0.24971608  -0.00252700  1
  Al0+  Al61  1  0.24995882  0.24956300  0.33452646  1
  Al0+  Al62  1  0.25156567  0.24772802  0.67009765  1
  Al0+  Al63  1  0.24868990  0.75343904  -0.00586817  1
  Al0+  Al64  1  0.24866306  0.75142919  0.33707545  1
  Al0+  Al65  1  0.24834914  0.75086911  0.66999660  1
  Al0+  Al66  1  0.75270903  0.25167225  0.00308939  1
  Al0+  Al67  1  0.75272858  0.24936026  0.33043974  1
  Al0+  Al68  1  0.75337268  0.24900374  0.66345734  1
  Al0+  Al69  1  0.74990915  0.75253562  0.00742826  1
  Al0+  Al70  1  0.74936999  0.75362122  0.33039931  1
  Al0+  Al71  1  0.75092852  0.75168607  0.66092555  1
  Al0+  Al72  1  0.56850706  0.67742421  0.65546877  1
  Al0+  Al73  1  0.57260463  0.17861401  0.65319831  1
  Al0+  Al74  1  0.67810023  0.42705509  0.67916102  1
  Al0+  Al75  1  0.42712435  0.32065618  0.31670064  1
  Al0+  Al76  1  0.06894380  0.68026554  0.32095966  1
  Al0+  Al77  1  0.82042888  0.57342242  0.01560647  1
  Al0+  Al78  1  0.17724297  0.42806753  0.34902381  1
  Al0+  Al79  1  0.31964416  0.57526136  0.01588461  1
  Al0+  Al80  1  0.57256362  0.17815713  0.31676257  1
  Al0+  Al81  1  0.92911149  0.82024007  0.65306345  1
  Al0+  Al82  1  0.07223872  0.17859687  0.98566255  1
  Al0+  Al83  1  0.67741576  0.42912860  0.01664216  1
  Al0+  Al84  1  0.42803851  0.82191023  0.98473852  1
  Al0+  Al85  1  0.32207547  0.06924070  0.68138341  1
  Al0+  Al86  1  0.06941114  0.67667445  0.98567269  1
  Al0+  Al87  1  0.57135498  0.18277656  0.98610754  1
  Al0+  Al88  1  0.32249402  0.57252224  0.34920274  1
  Al0+  Al89  1  0.18022050  0.42853046  0.01323887  1
  Al0+  Al90  1  0.57054741  0.67816128  0.32092570  1
  Al0+  Al91  1  0.82278803  0.07110715  0.01415466  1
  Al0+  Al92  1  0.82015009  0.57353919  0.67932847  1
  Al0+  Al93  1  0.57153322  0.67729198  0.98543950  1
  Al0+  Al94  1  0.67661189  0.93013122  0.01677472  1
  Al0+  Al95  1  0.32019027  0.57112499  0.68162754  1
  Si0+  Si96  1  0.42740496  0.82276572  0.32034443  1
  Si0+  Si97  1  0.92927480  0.82246996  0.98599591  1
  Si0+  Si98  1  0.93063316  0.32038661  0.64969474  1
  Si0+  Si99  1  0.17625077  0.92949888  0.34978274  1
  Si0+  Si100  1  0.42676003  0.82192143  0.65008902  1
  Si0+  Si101  1  0.07040769  0.17831832  0.32051256  1
  Si0+  Si102  1  0.67948606  0.92978409  0.35193211  1
  Si0+  Si103  1  0.07274912  0.67577830  0.64957388  1
  Si0+  Si104  1  0.17805004  0.93082427  0.01520341  1
  Si0+  Si105  1  0.92782421  0.32162902  0.97979642  1
  Si0+  Si106  1  0.68039916  0.42780490  0.34761842  1
  Si0+  Si107  1  0.92762267  0.82486162  0.31399442  1
  Si0+  Si108  1  0.81999083  0.57240381  0.34762795  1
  Si0+  Si109  1  0.17652249  0.92933048  0.68459675  1
  Si0+  Si110  1  0.07216474  0.17876691  0.65048444  1
  Si0+  Si111  1  0.67998929  0.92992479  0.68009305  1
  Si0+  Si112  1  0.42719605  0.32191550  0.98111096  1
  Si0+  Si113  1  0.82195184  0.07140020  0.35101087  1
  Si0+  Si114  1  0.17684969  0.42658080  0.68364972  1
  Si0+  Si115  1  0.32120820  0.06959517  0.34732305  1
  Si0+  Si116  1  0.32127466  0.07083287  0.01588353  1
  Si0+  Si117  1  0.42532562  0.31969203  0.64944885  1
  Si0+  Si118  1  0.92994883  0.32126941  0.31735085  1
  Si0+  Si119  1  0.82361906  0.07066088  0.67938825  1
  O2-  O120  1  0.25103660  -0.00069473  0.05864637  1
  O2-  O121  1  0.24933808  -0.00068577  0.39057947  1
  O2-  O122  1  0.24903548  -0.00663301  0.72918834  1
  O2-  O123  1  0.24626974  0.50402751  0.06510808  1
  O2-  O124  1  0.24951594  0.49986983  0.39845594  1
  O2-  O125  1  0.24182526  0.49885551  0.72599118  1
  O2-  O126  1  0.74803326  0.00384038  0.06661935  1
  O2-  O127  1  0.74958323  0.00243312  0.39424791  1
  O2-  O128  1  0.75003366  0.00296662  0.72074160  1
  O2-  O129  1  0.74399059  0.50662527  0.06690438  1
  O2-  O130  1  0.74522749  0.50511332  0.38997102  1
  O2-  O131  1  0.74287330  0.50657483  0.72768656  1
  O2-  O132  1  0.00461980  0.25276034  0.27731744  1
  O2-  O133  1  0.00376964  0.25109640  0.60666286  1
  O2-  O134  1  -0.00185822  0.25265607  0.93738106  1
  O2-  O135  1  -0.00600989  0.75384534  0.27162993  1
  O2-  O136  1  0.00106169  0.74255059  0.60638867  1
  O2-  O137  1  -0.01016318  0.74744976  0.94027443  1
  O2-  O138  1  0.50148626  0.25049126  0.26735953  1
  O2-  O139  1  0.49823200  0.25363151  0.60700534  1
  O2-  O140  1  0.50151203  0.25965969  0.93589985  1
  O2-  O141  1  0.49052546  0.74899484  0.27794906  1
  O2-  O142  1  0.49003870  0.74833887  0.60598990  1
  O2-  O143  1  0.49701084  0.74702733  0.93526657  1
  O2-  O144  1  0.07111451  0.17773327  0.09931631  1
  O2-  O145  1  0.06710277  0.17616840  0.42601219  1
  O2-  O146  1  0.07068863  0.17689944  0.75505226  1
  O2-  O147  1  0.07085279  0.67968183  0.09910074  1
  O2-  O148  1  0.06648566  0.68331367  0.43434870  1
  O2-  O149  1  0.07249480  0.67723725  0.75486561  1
  O2-  O150  1  0.56640231  0.18186824  0.09897272  1
  O2-  O151  1  0.57099345  0.17851806  0.43091681  1
  O2-  O152  1  0.57341704  0.17744642  0.76588849  1
  O2-  O153  1  0.56998171  0.68094390  0.09918701  1
  O2-  O154  1  0.57296586  0.67951922  0.43468292  1
  O2-  O155  1  0.57167592  0.68072297  0.76743317  1
  O2-  O156  1  0.17585643  0.42744506  0.23639353  1
  O2-  O157  1  0.17623759  0.42520371  0.57803140  1
  O2-  O158  1  0.18411784  0.42788731  0.89932293  1
  O2-  O159  1  0.17329741  0.93117551  0.24497205  1
  O2-  O160  1  0.17578461  0.93294847  0.57836565  1
  O2-  O161  1  0.17465072  0.93439604  0.91034192  1
  O2-  O162  1  0.68461897  0.42509028  0.24325338  1
  O2-  O163  1  0.68131817  0.42622261  0.56454885  1
  O2-  O164  1  0.68328505  0.42596794  0.90327948  1
  O2-  O165  1  0.67979059  0.92978159  0.24773302  1
  O2-  O166  1  0.68088908  0.93101874  0.57438906  1
  O2-  O167  1  0.67868471  0.93082693  0.90251849  1
  O2-  O168  1  0.42363230  0.31579970  0.08646208  1
  O2-  O169  1  0.42852381  0.31765787  0.43096737  1
  O2-  O170  1  0.41970804  0.31640101  0.75432802  1
  O2-  O171  1  0.42912329  0.82306184  0.09889728  1
  O2-  O172  1  0.43086349  0.82909850  0.42589763  1
  O2-  O173  1  0.43003054  0.82551756  0.75480639  1
  O2-  O174  1  0.92829301  0.32045781  0.08585880  1
  O2-  O175  1  0.92793339  0.31821483  0.42296160  1
  O2-  O176  1  0.93008235  0.31815416  0.75391889  1
  O2-  O177  1  0.93598830  0.82605542  0.09151158  1
  O2-  O178  1  0.92889587  0.82653512  0.41998578  1
  O2-  O179  1  0.93224819  0.82722480  0.76530289  1
  O2-  O180  1  0.31953684  0.06815637  0.24237769  1
  O2-  O181  1  0.31902692  0.06824165  0.56746128  1
  O2-  O182  1  0.32026998  0.06998246  0.91075710  1
  O2-  O183  1  0.31892407  0.57612335  0.23660167  1
  O2-  O184  1  0.32000446  0.56920973  0.56849535  1
  O2-  O185  1  0.31823830  0.57344399  0.90193136  1
  O2-  O186  1  0.82801149  0.06986172  0.24711460  1
  O2-  O187  1  0.82504265  0.06994019  0.57375554  1
  O2-  O188  1  0.82433375  0.06677242  0.89994149  1
  O2-  O189  1  0.82219608  0.56975092  0.24318451  1
  O2-  O190  1  0.82057018  0.57033424  0.56479182  1
  O2-  O191  1  0.82133705  0.57113193  0.90200719  1
  O2-  O192  1  0.03882669  0.08742496  0.27320692  1
  O2-  O193  1  0.04298992  0.08826788  0.60056855  1
  O2-  O194  1  0.04077719  0.08270166  0.93018914  1
  O2-  O195  1  0.03808437  0.58347491  0.26816520  1
  O2-  O196  1  0.04977002  0.58095704  0.60474560  1
  O2-  O197  1  0.04200415  0.57961108  0.93157941  1
  O2-  O198  1  0.54308507  0.07877366  0.26717227  1
  O2-  O199  1  0.53977449  0.08214542  0.59869809  1
  O2-  O200  1  0.53772615  0.08679713  0.93321810  1
  O2-  O201  1  0.54724813  0.58055457  0.26781266  1
  O2-  O202  1  0.53953010  0.57837931  0.60393097  1
  O2-  O203  1  0.54637554  0.57694358  0.93513205  1
  O2-  O204  1  0.16421483  0.19833699  0.27515324  1
  O2-  O205  1  0.16501438  0.20486856  0.60383452  1
  O2-  O206  1  0.16835741  0.20836798  0.92988366  1
  O2-  O207  1  0.16542152  0.71472946  0.26888908  1
  O2-  O208  1  0.16499956  0.70658355  0.60285672  1
  O2-  O209  1  0.16223441  0.71466357  0.92976449  1
  O2-  O210  1  0.67282866  0.20356581  0.26701617  1
  O2-  O211  1  0.67063081  0.20575886  0.59882995  1
  O2-  O212  1  0.67114276  0.20806717  0.93576510  1
  O2-  O213  1  0.66551984  0.71447626  0.26728083  1
  O2-  O214  1  0.66335678  0.71206282  0.59897209  1
  O2-  O215  1  0.67115348  0.71022710  0.93655876  1
  O2-  O216  1  0.07817188  0.44733086  0.06090445  1
  O2-  O217  1  0.07795414  0.45636001  0.40251303  1
  O2-  O218  1  0.08181286  0.44681759  0.72871517  1
  O2-  O219  1  0.08924029  0.96204812  0.06611539  1
  O2-  O220  1  0.08556868  0.96046289  0.39913294  1
  O2-  O221  1  0.08474512  0.96146378  0.73007968  1
  O2-  O222  1  0.57740935  0.44923478  0.06874946  1
  O2-  O223  1  0.58617179  0.44912348  0.39218936  1
  O2-  O224  1  0.57722342  0.44119277  0.72996615  1
  O2-  O225  1  0.57928896  0.96186972  0.07065504  1
  O2-  O226  1  0.58753227  0.95650844  0.40037265  1
  O2-  O227  1  0.58836943  0.95619753  0.72698283  1
  O2-  O228  1  0.21022906  0.32960814  0.06555429  1
  O2-  O229  1  0.20339729  0.32776711  0.40202679  1
  O2-  O230  1  0.20384900  0.33300211  0.72882212  1
  O2-  O231  1  0.20449266  0.83899686  0.06243582  1
  O2-  O232  1  0.20237415  0.83909397  0.40033473  1
  O2-  O233  1  0.19476128  0.83399959  0.72861531  1
  O2-  O234  1  0.71403291  0.33378211  0.07154219  1
  O2-  O235  1  0.71495567  0.33752878  0.39547054  1
  O2-  O236  1  0.71798339  0.33140829  0.73095383  1
  O2-  O237  1  0.70628961  0.83449452  0.07383261  1
  O2-  O238  1  0.71052519  0.83878101  0.40050861  1
  O2-  O239  1  0.71086420  0.83935287  0.72644583  1
  O2-  O240  1  0.45300958  0.41828425  0.26316049  1
  O2-  O241  1  0.44859791  0.41361590  0.60365343  1
  O2-  O242  1  0.44615947  0.41824058  0.93992769  1
  O2-  O243  1  0.45801264  0.91354338  0.27110591  1
  O2-  O244  1  0.45770510  0.91347096  0.60158309  1
  O2-  O245  1  0.46015211  0.91956810  0.93172668  1
  O2-  O246  1  0.95414963  0.41343281  0.27046523  1
  O2-  O247  1  0.95717899  0.41217795  0.60048569  1
  O2-  O248  1  0.95336709  0.41369234  0.93145354  1
  O2-  O249  1  0.95620444  0.91843767  0.26977277  1
  O2-  O250  1  0.96419300  0.91483000  0.59378668  1
  O2-  O251  1  0.96304959  0.91250187  0.93714750  1
  O2-  O252  1  0.32916659  0.28830225  0.26472327  1
  O2-  O253  1  0.33363525  0.28863057  0.60110671  1
  O2-  O254  1  0.33714571  0.28889388  0.93238078  1
  O2-  O255  1  0.33071461  0.80598765  0.27763844  1
  O2-  O256  1  0.32942370  0.80455644  0.60743851  1
  O2-  O257  1  0.32788208  0.80397658  0.93097685  1
  O2-  O258  1  0.84108227  0.28876517  0.26802733  1
  O2-  O259  1  0.84182697  0.28882297  0.59780339  1
  O2-  O260  1  0.83607526  0.29305857  0.93263827  1
  O2-  O261  1  0.83296664  0.80353061  0.27001357  1
  O2-  O262  1  0.83362274  0.79454907  0.59356097  1
  O2-  O263  1  0.83225613  0.80646086  0.94513746  1
  O2-  O264  1  0.41170613  0.04260204  0.06461380  1
  O2-  O265  1  0.41253651  0.04002852  0.39536398  1
  O2-  O266  1  0.41875372  0.03887838  0.73504464  1
  O2-  O267  1  0.41760757  0.54673776  0.06775357  1
  O2-  O268  1  0.42125872  0.53949006  0.40051560  1
  O2-  O269  1  0.41429749  0.53667816  0.73734387  1
  O2-  O270  1  0.92043369  0.03955392  0.06851125  1
  O2-  O271  1  0.91275305  0.04202903  0.40207773  1
  O2-  O272  1  0.91543107  0.04055892  0.72507253  1
  O2-  O273  1  0.91682571  0.53621851  0.06814038  1
  O2-  O274  1  0.90967464  0.54055490  0.39692414  1
  O2-  O275  1  0.91787506  0.54010147  0.73072134  1
  O2-  O276  1  0.29048327  0.16135295  0.06302102  1
  O2-  O277  1  0.29284267  0.16013655  0.39650246  1
  O2-  O278  1  0.28891456  0.16408190  0.73642566  1
  O2-  O279  1  0.29153009  0.67564820  0.06459573  1
  O2-  O280  1  0.29410823  0.67163771  0.40334587  1
  O2-  O281  1  0.29330103  0.66981611  0.73331302  1
  O2-  O282  1  0.80173053  0.17078573  0.06593660  1
  O2-  O283  1  0.79640370  0.16450930  0.39804058  1
  O2-  O284  1  0.80133418  0.16372459  0.72508754  1
  O2-  O285  1  0.80243722  0.67319661  0.06953940  1
  O2-  O286  1  0.79750396  0.66771206  0.39126514  1
  O2-  O287  1  0.80048343  0.67523716  0.72782586  1
