# generated using pymatgen
data_Ca2Al2SiO7
_symmetry_space_group_name_H-M   'P 1'
_cell_length_a   15.45924088
_cell_length_b   15.45954906
_cell_length_c   15.28522751
_cell_angle_alpha   90.00377454
_cell_angle_beta   90.00255584
_cell_angle_gamma   89.99043527
_symmetry_Int_Tables_number   1
_chemical_formula_structural   Ca2Al2SiO7
_chemical_formula_sum   'Ca48 Al48 Si24 O168'
_cell_volume   3653.06068016
_cell_formula_units_Z   24
loop_
 _symmetry_equiv_pos_site_id
 _symmetry_equiv_pos_as_xyz
  1  'x, y, z'
loop_
 _atom_type_symbol
 _atom_type_oxidation_number
  Ca2+  2.0
  Al0+  0.0
  Si0+  0.0
  O2-  -2.0
loop_
 _atom_site_type_symbol
 _atom_site_label
 _atom_site_symmetry_multiplicity
 _atom_site_fract_x
 _atom_site_fract_y
 _atom_site_fract_z
 _atom_site_occupancy
  Ca2+  Ca0  1  0.15571432  0.07441055  0.17095609  1
  Ca2+  Ca1  1  0.16328704  0.08418668  0.50082362  1
  Ca2+  Ca2  1  0.16257531  0.08188753  0.83754948  1
  Ca2+  Ca3  1  0.16489122  0.58471117  0.17219207  1
  Ca2+  Ca4  1  0.17496063  0.57385827  0.51261335  1
  Ca2+  Ca5  1  0.16682670  0.58253846  0.83351534  1
  Ca2+  Ca6  1  0.67521052  0.07525813  0.17375993  1
  Ca2+  Ca7  1  0.67733614  0.08346324  0.51039842  1
  Ca2+  Ca8  1  0.66963100  0.07335863  0.83341138  1
  Ca2+  Ca9  1  0.67462770  0.58056712  0.17998745  1
  Ca2+  Ca10  1  0.66278763  0.58219677  0.49913478  1
  Ca2+  Ca11  1  0.66701634  0.58683850  0.83329105  1
  Ca2+  Ca12  1  0.07764582  0.32091593  0.16354723  1
  Ca2+  Ca13  1  0.07664359  0.32530360  0.49634506  1
  Ca2+  Ca14  1  0.08019877  0.32318474  0.82203890  1
  Ca2+  Ca15  1  0.07926572  0.83298819  0.15760514  1
  Ca2+  Ca16  1  0.07726481  0.83868139  0.49672913  1
  Ca2+  Ca17  1  0.07255890  0.83879737  0.83193418  1
  Ca2+  Ca18  1  0.58118558  0.33946067  0.17116372  1
  Ca2+  Ca19  1  0.58333890  0.33016946  0.49315454  1
  Ca2+  Ca20  1  0.58316704  0.32352498  0.82458879  1
  Ca2+  Ca21  1  0.58467966  0.83116302  0.16481617  1
  Ca2+  Ca22  1  0.57655643  0.82787466  0.49714306  1
  Ca2+  Ca23  1  0.58129327  0.83387806  0.81839142  1
  Ca2+  Ca24  1  0.33251658  0.41722301  0.17506583  1
  Ca2+  Ca25  1  0.33027769  0.41892474  0.50933419  1
  Ca2+  Ca26  1  0.32867921  0.42209482  0.83066783  1
  Ca2+  Ca27  1  0.31966056  0.91328089  0.17372909  1
  Ca2+  Ca28  1  0.32872432  0.90669199  0.50217990  1
  Ca2+  Ca29  1  0.32870246  0.91573071  0.83769865  1
  Ca2+  Ca30  1  0.83081191  0.42365571  0.18118190  1
  Ca2+  Ca31  1  0.83791116  0.41883381  0.50131064  1
  Ca2+  Ca32  1  0.83662549  0.41495297  0.83200175  1
  Ca2+  Ca33  1  0.83299235  0.91836926  0.17063480  1
  Ca2+  Ca34  1  0.83168616  0.92891193  0.50934271  1
  Ca2+  Ca35  1  0.82782353  0.91284060  0.83342106  1
  Ca2+  Ca36  1  0.41450643  0.17367584  0.16822498  1
  Ca2+  Ca37  1  0.42481901  0.17076513  0.49665349  1
  Ca2+  Ca38  1  0.42457373  0.16423388  0.82536547  1
  Ca2+  Ca39  1  0.42285912  0.67099919  0.17028761  1
  Ca2+  Ca40  1  0.42358042  0.67138010  0.49765863  1
  Ca2+  Ca41  1  0.42244454  0.67429616  0.82065086  1
  Ca2+  Ca42  1  0.92192195  0.16329626  0.16924572  1
  Ca2+  Ca43  1  0.91935029  0.17084119  0.49509050  1
  Ca2+  Ca44  1  0.92611456  0.16683176  0.82197114  1
  Ca2+  Ca45  1  0.92086925  0.67025649  0.15941620  1
  Ca2+  Ca46  1  0.91109772  0.67352350  0.49757777  1
  Ca2+  Ca47  1  0.92041866  0.67891010  0.83093788  1
  Al0+  Al48  1  -0.00075618  0.00113389  -0.00425664  1
  Al0+  Al49  1  -0.00018089  -0.00148340  0.33822633  1
  Al0+  Al50  1  0.00047464  0.00046755  0.66287651  1
  Al0+  Al51  1  0.00086459  0.49978774  -0.00229777  1
  Al0+  Al52  1  -0.00006273  0.49961975  0.33524433  1
  Al0+  Al53  1  -0.00018403  0.49892325  0.67042961  1
  Al0+  Al54  1  0.50048106  0.00157168  0.00696265  1
  Al0+  Al55  1  0.49649893  0.00053111  0.32767378  1
  Al0+  Al56  1  0.49880735  0.00013678  0.66038113  1
  Al0+  Al57  1  0.49843883  0.50080874  -0.00036660  1
  Al0+  Al58  1  0.50078198  0.50070456  0.32880116  1
  Al0+  Al59  1  0.50011574  0.50108592  0.67080791  1
  Al0+  Al60  1  0.25055558  0.25264231  -0.00368571  1
  Al0+  Al61  1  0.25058493  0.24710338  0.32530980  1
  Al0+  Al62  1  0.24937500  0.24886661  0.66920085  1
  Al0+  Al63  1  0.25231528  0.74879954  0.00138155  1
  Al0+  Al64  1  0.24963964  0.75006339  0.33495614  1
  Al0+  Al65  1  0.25036492  0.74932335  0.66988085  1
  Al0+  Al66  1  0.74786370  0.24991267  0.00195090  1
  Al0+  Al67  1  0.75035403  0.25047652  0.33490759  1
  Al0+  Al68  1  0.75194269  0.25041416  0.66543029  1
  Al0+  Al69  1  0.74967621  0.74871074  0.00159296  1
  Al0+  Al70  1  0.74966196  0.74983294  0.33309490  1
  Al0+  Al71  1  0.75031229  0.74877663  0.66164102  1
  Al0+  Al72  1  0.32219868  0.57178116  0.68307782  1
  Al0+  Al73  1  0.07283053  0.17795628  0.64972583  1
  Al0+  Al74  1  0.93004795  0.82010139  0.65114470  1
  Al0+  Al75  1  0.67820630  0.43020914  0.34922620  1
  Al0+  Al76  1  0.43002779  0.32063265  0.32126852  1
  Al0+  Al77  1  0.17963467  0.93061884  0.01189758  1
  Al0+  Al78  1  0.82357104  0.57270861  0.34999289  1
  Al0+  Al79  1  0.92779452  0.82083480  0.98550815  1
  Al0+  Al80  1  0.06983539  0.17733440  0.31657553  1
  Al0+  Al81  1  0.67900332  0.92900415  0.67829688  1
  Al0+  Al82  1  0.81989074  0.06892894  0.34711438  1
  Al0+  Al83  1  0.57128200  0.68081783  0.31611169  1
  Al0+  Al84  1  0.18035422  0.92896623  0.34810191  1
  Al0+  Al85  1  0.07414351  0.67716036  0.98477028  1
  Al0+  Al86  1  0.82257764  0.07242625  0.68343917  1
  Al0+  Al87  1  0.42617995  0.82211759  0.31533328  1
  Al0+  Al88  1  0.17819300  0.42747980  0.68279229  1
  Al0+  Al89  1  0.06994785  0.18006383  0.98496458  1
  Al0+  Al90  1  0.92856294  0.32284568  0.65114319  1
  Al0+  Al91  1  0.67842395  0.92748781  0.01448537  1
  Al0+  Al92  1  0.42663494  0.82227202  0.65238726  1
  Al0+  Al93  1  0.92799695  0.32244955  0.31712645  1
  Al0+  Al94  1  0.57240891  0.67704024  0.65146541  1
  Al0+  Al95  1  0.57169691  0.17851615  0.65427806  1
  Si0+  Si96  1  0.67860778  0.42881211  0.68265136  1
  Si0+  Si97  1  0.42967684  0.32296536  0.98276972  1
  Si0+  Si98  1  0.92990412  0.82063273  0.31960076  1
  Si0+  Si99  1  0.32140689  0.07118035  0.68034956  1
  Si0+  Si100  1  0.92588113  0.32229159  0.98414755  1
  Si0+  Si101  1  0.57048240  0.17896244  0.98599656  1
  Si0+  Si102  1  0.82160368  0.57206370  0.68384161  1
  Si0+  Si103  1  0.17972415  0.42918513  0.01700626  1
  Si0+  Si104  1  0.43065152  0.82228948  0.98638838  1
  Si0+  Si105  1  0.17882460  0.92855995  0.68210026  1
  Si0+  Si106  1  0.07202463  0.67798677  0.65071301  1
  Si0+  Si107  1  0.82106467  0.07277932  0.01655520  1
  Si0+  Si108  1  0.17987482  0.42641290  0.34603913  1
  Si0+  Si109  1  0.67720906  0.42837683  0.01432467  1
  Si0+  Si110  1  0.32009835  0.56980237  0.34745134  1
  Si0+  Si111  1  0.32234643  0.07369376  0.35026330  1
  Si0+  Si112  1  0.32234370  0.57012197  0.01849842  1
  Si0+  Si113  1  0.56994079  0.67908510  0.98519496  1
  Si0+  Si114  1  0.57385620  0.17746191  0.31513674  1
  Si0+  Si115  1  0.42935539  0.32114541  0.65330243  1
  Si0+  Si116  1  0.67450529  0.92787424  0.34998111  1
  Si0+  Si117  1  0.07127850  0.67856191  0.32198179  1
  Si0+  Si118  1  0.32300670  0.07493341  0.01764411  1
  Si0+  Si119  1  0.82058917  0.56899865  0.01344307  1
  O2-  O120  1  0.25235665  0.00739868  0.06009478  1
  O2-  O121  1  0.25695033  0.00216008  0.39440558  1
  O2-  O122  1  0.25067598  -0.00012918  0.72269681  1
  O2-  O123  1  0.24814748  0.50219080  0.06113644  1
  O2-  O124  1  0.25101167  0.49687687  0.38895576  1
  O2-  O125  1  0.24849726  0.50143602  0.73372796  1
  O2-  O126  1  0.75492294  0.00089953  0.06016754  1
  O2-  O127  1  0.74043427  -0.00110106  0.39322779  1
  O2-  O128  1  0.75093324  -0.00094947  0.73232984  1
  O2-  O129  1  0.75139998  0.49606205  0.05533088  1
  O2-  O130  1  0.75183493  0.50005405  0.39976562  1
  O2-  O131  1  0.74980178  0.50020155  0.72505371  1
  O2-  O132  1  -0.00181085  0.24958983  0.26608420  1
  O2-  O133  1  -0.00049520  0.24958438  0.60247034  1
  O2-  O134  1  -0.00641260  0.25350428  0.93971698  1
  O2-  O135  1  -0.00216483  0.74619491  0.27857811  1
  O2-  O136  1  0.00512621  0.74598662  0.60345324  1
  O2-  O137  1  0.00392664  0.75170737  0.93643438  1
  O2-  O138  1  0.50510310  0.24726897  0.27153089  1
  O2-  O139  1  0.49944815  0.25567232  0.60790467  1
  O2-  O140  1  0.49925769  0.24984386  0.94260362  1
  O2-  O141  1  0.50286658  0.75561667  0.26431557  1
  O2-  O142  1  0.49993387  0.75025590  0.60500166  1
  O2-  O143  1  0.50451625  0.75493866  0.94316740  1
  O2-  O144  1  0.06959599  0.18062138  0.09774068  1
  O2-  O145  1  0.07184472  0.18001472  0.42924624  1
  O2-  O146  1  0.07327773  0.17918180  0.76388482  1
  O2-  O147  1  0.07081027  0.67514050  0.09900534  1
  O2-  O148  1  0.07351120  0.67967747  0.42673912  1
  O2-  O149  1  0.07012938  0.68041579  0.75637018  1
  O2-  O150  1  0.57071493  0.18110774  0.09079933  1
  O2-  O151  1  0.57178464  0.17748935  0.42051514  1
  O2-  O152  1  0.56821706  0.17946668  0.76835148  1
  O2-  O153  1  0.56788270  0.67615501  0.08982463  1
  O2-  O154  1  0.56792482  0.67889182  0.42888500  1
  O2-  O155  1  0.57128643  0.67769284  0.76630547  1
  O2-  O156  1  0.18127209  0.42965607  0.24028069  1
  O2-  O157  1  0.18187812  0.42804499  0.56867723  1
  O2-  O158  1  0.18264096  0.42833142  0.91253331  1
  O2-  O159  1  0.17868537  0.92821489  0.23461179  1
  O2-  O160  1  0.17991427  0.92687189  0.57713355  1
  O2-  O161  1  0.18306751  0.93160889  0.89874863  1
  O2-  O162  1  0.67843600  0.43391529  0.23449143  1
  O2-  O163  1  0.67499968  0.42887047  0.57846055  1
  O2-  O164  1  0.67536036  0.42804297  0.90915600  1
  O2-  O165  1  0.67810124  0.92857005  0.24354936  1
  O2-  O166  1  0.67943591  0.93142858  0.56509534  1
  O2-  O167  1  0.67406059  0.92874407  0.90197274  1
  O2-  O168  1  0.42979488  0.32495603  0.08780257  1
  O2-  O169  1  0.42866464  0.31897571  0.43410843  1
  O2-  O170  1  0.43151242  0.31879489  0.75964520  1
  O2-  O171  1  0.43007743  0.81896695  0.09106424  1
  O2-  O172  1  0.42435268  0.81692640  0.42816150  1
  O2-  O173  1  0.42725182  0.82291200  0.76707142  1
  O2-  O174  1  0.92641906  0.32415866  0.08937520  1
  O2-  O175  1  0.93221378  0.32421699  0.42980901  1
  O2-  O176  1  0.92970356  0.32208175  0.76567390  1
  O2-  O177  1  0.92769132  0.81785440  0.09968358  1
  O2-  O178  1  0.93183399  0.82115903  0.42455266  1
  O2-  O179  1  0.93033154  0.81857534  0.76432381  1
  O2-  O180  1  0.32102527  0.07539159  0.24445649  1
  O2-  O181  1  0.32153927  0.07457473  0.57575524  1
  O2-  O182  1  0.32728870  0.07367996  0.91189765  1
  O2-  O183  1  0.31738685  0.56944870  0.24160041  1
  O2-  O184  1  0.32144608  0.56864280  0.56913357  1
  O2-  O185  1  0.32688450  0.56715738  0.91416630  1
  O2-  O186  1  0.82024668  0.06416372  0.23311021  1
  O2-  O187  1  0.82095231  0.07182769  0.56990592  1
  O2-  O188  1  0.81746261  0.07707564  0.91164781  1
  O2-  O189  1  0.82395842  0.57259366  0.23535760  1
  O2-  O190  1  0.82339919  0.57216017  0.57940429  1
  O2-  O191  1  0.81831283  0.56933392  0.90826149  1
  O2-  O192  1  0.03670653  0.07860011  0.26598286  1
  O2-  O193  1  0.04740124  0.07956064  0.59743401  1
  O2-  O194  1  0.04197512  0.08375328  0.93022619  1
  O2-  O195  1  0.04710801  0.58619651  0.27355686  1
  O2-  O196  1  0.04730889  0.58342517  0.60760005  1
  O2-  O197  1  0.04373865  0.57945558  0.93099274  1
  O2-  O198  1  0.54653594  0.08503796  0.26696032  1
  O2-  O199  1  0.53807774  0.08594418  0.59651862  1
  O2-  O200  1  0.54116691  0.08705306  0.93964306  1
  O2-  O201  1  0.53895205  0.58409494  0.26100015  1
  O2-  O202  1  0.54192075  0.57835758  0.60070739  1
  O2-  O203  1  0.53778418  0.58839551  0.93726511  1
  O2-  O204  1  0.16792838  0.20403283  0.26157180  1
  O2-  O205  1  0.17206891  0.20699425  0.59887551  1
  O2-  O206  1  0.16773674  0.21136388  0.93258618  1
  O2-  O207  1  0.16152586  0.70787959  0.27220985  1
  O2-  O208  1  0.16665617  0.70139851  0.60679246  1
  O2-  O209  1  0.17493051  0.70076111  0.93494821  1
  O2-  O210  1  0.66651798  0.20302837  0.26784447  1
  O2-  O211  1  0.66732907  0.20942248  0.60122329  1
  O2-  O212  1  0.66166629  0.20793337  0.93784296  1
  O2-  O213  1  0.67110056  0.70677596  0.26305581  1
  O2-  O214  1  0.67022552  0.70123995  0.59769727  1
  O2-  O215  1  0.66388289  0.70058125  0.94015356  1
  O2-  O216  1  0.08628962  0.45449755  0.06284277  1
  O2-  O217  1  0.08921930  0.45469959  0.39382887  1
  O2-  O218  1  0.08025297  0.45535253  0.73766248  1
  O2-  O219  1  0.08119790  0.95911259  0.06429863  1
  O2-  O220  1  0.08523809  0.96020592  0.40342928  1
  O2-  O221  1  0.08760017  0.95793840  0.72900877  1
  O2-  O222  1  0.58591785  0.45963559  0.06129370  1
  O2-  O223  1  0.57902163  0.45977752  0.40026407  1
  O2-  O224  1  0.58768826  0.45563829  0.73368991  1
  O2-  O225  1  0.58359331  0.96090736  0.07171455  1
  O2-  O226  1  0.57791607  0.95003425  0.39028323  1
  O2-  O227  1  0.57935587  0.95907035  0.72981435  1
  O2-  O228  1  0.21176175  0.33835384  0.06457206  1
  O2-  O229  1  0.20936242  0.33415254  0.39001803  1
  O2-  O230  1  0.21081951  0.33068617  0.73792377  1
  O2-  O231  1  0.21150416  0.83339957  0.06562498  1
  O2-  O232  1  0.21032607  0.83215457  0.40291860  1
  O2-  O233  1  0.20539581  0.83725234  0.73104932  1
  O2-  O234  1  0.69965829  0.33549849  0.06235931  1
  O2-  O235  1  0.70045975  0.32973419  0.39888222  1
  O2-  O236  1  0.70740489  0.33790030  0.73211539  1
  O2-  O237  1  0.70756978  0.83003409  0.06867241  1
  O2-  O238  1  0.70098190  0.83429726  0.39357445  1
  O2-  O239  1  0.70694653  0.82909755  0.72990628  1
  O2-  O240  1  0.45952132  0.41585593  0.26294103  1
  O2-  O241  1  0.45205296  0.41588664  0.61024469  1
  O2-  O242  1  0.46043375  0.41369333  0.93470617  1
  O2-  O243  1  0.44551569  0.92317793  0.26331591  1
  O2-  O244  1  0.45091351  0.91977250  0.59711018  1
  O2-  O245  1  0.45370077  0.91728834  0.94314820  1
  O2-  O246  1  0.95869164  0.42130773  0.26430729  1
  O2-  O247  1  0.95685081  0.42215823  0.60038592  1
  O2-  O248  1  0.95156026  0.41569497  0.93784310  1
  O2-  O249  1  0.96205983  0.91006593  0.27118635  1
  O2-  O250  1  0.96216574  0.91547684  0.59707577  1
  O2-  O251  1  0.95274406  0.91943374  0.93241588  1
  O2-  O252  1  0.33607558  0.28845755  0.26129057  1
  O2-  O253  1  0.33659671  0.29369185  0.60845137  1
  O2-  O254  1  0.33786445  0.29756438  0.93489818  1
  O2-  O255  1  0.32938431  0.78574702  0.26212530  1
  O2-  O256  1  0.32841375  0.79140648  0.60051034  1
  O2-  O257  1  0.34017840  0.79147064  0.93871369  1
  O2-  O258  1  0.82815688  0.29653619  0.26537138  1
  O2-  O259  1  0.82947090  0.29875293  0.59943413  1
  O2-  O260  1  0.83026012  0.29909161  0.94016773  1
  O2-  O261  1  0.83704166  0.79690561  0.27260614  1
  O2-  O262  1  0.83509311  0.78818931  0.59641738  1
  O2-  O263  1  0.83054706  0.78671451  0.93251333  1
  O2-  O264  1  0.41527505  0.05002644  0.06689577  1
  O2-  O265  1  0.41815885  0.05273382  0.39397824  1
  O2-  O266  1  0.41279342  0.04303180  0.72910830  1
  O2-  O267  1  0.41257553  0.53695480  0.06745500  1
  O2-  O268  1  0.41234991  0.54243578  0.39192922  1
  O2-  O269  1  0.41914975  0.54133725  0.73964449  1
  O2-  O270  1  0.91543921  0.04847262  0.06082778  1
  O2-  O271  1  0.91368169  0.03415986  0.40252432  1
  O2-  O272  1  0.92181325  0.04218144  0.73370323  1
  O2-  O273  1  0.91366596  0.54370341  0.06011329  1
  O2-  O274  1  0.92243410  0.54594136  0.40348365  1
  O2-  O275  1  0.91232486  0.54416758  0.73382654  1
  O2-  O276  1  0.29914032  0.17068440  0.06063749  1
  O2-  O277  1  0.29415806  0.16665870  0.39640368  1
  O2-  O278  1  0.29520490  0.16176831  0.73201901  1
  O2-  O279  1  0.29840798  0.66273164  0.06596501  1
  O2-  O280  1  0.29006202  0.65999689  0.39523507  1
  O2-  O281  1  0.29391680  0.66975850  0.73801562  1
  O2-  O282  1  0.79132469  0.16504059  0.06504933  1
  O2-  O283  1  0.79384286  0.16730355  0.39844595  1
  O2-  O284  1  0.79380443  0.17122979  0.73596433  1
  O2-  O285  1  0.79152125  0.65935587  0.06265222  1
  O2-  O286  1  0.79432287  0.67159654  0.40130384  1
  O2-  O287  1  0.79151270  0.66274749  0.73221098  1
