# generated using pymatgen
data_Ca2Al2SiO7
_symmetry_space_group_name_H-M   'P 1'
_cell_length_a   15.46593807
_cell_length_b   15.46850439
_cell_length_c   15.29139929
_cell_angle_alpha   89.99237517
_cell_angle_beta   89.99882974
_cell_angle_gamma   90.01186086
_symmetry_Int_Tables_number   1
_chemical_formula_structural   Ca2Al2SiO7
_chemical_formula_sum   'Ca48 Al48 Si24 O168'
_cell_volume   3658.23674079
_cell_formula_units_Z   24
loop_
 _symmetry_equiv_pos_site_id
 _symmetry_equiv_pos_as_xyz
  1  'x, y, z'
loop_
 _atom_type_symbol
 _atom_type_oxidation_number
  Ca2+  2.0
  Al0+  0.0
  Si0+  0.0
  O2-  -2.0
loop_
 _atom_site_type_symbol
 _atom_site_label
 _atom_site_symmetry_multiplicity
 _atom_site_fract_x
 _atom_site_fract_y
 _atom_site_fract_z
 _atom_site_occupancy
  Ca2+  Ca0  1  0.16944779  0.08976492  0.17604254  1
  Ca2+  Ca1  1  0.16569685  0.08308987  0.50392181  1
  Ca2+  Ca2  1  0.15574011  0.08240066  0.83265935  1
  Ca2+  Ca3  1  0.16522544  0.56497963  0.17199621  1
  Ca2+  Ca4  1  0.16996956  0.56991081  0.50943502  1
  Ca2+  Ca5  1  0.16048463  0.56816800  0.83100543  1
  Ca2+  Ca6  1  0.67228449  0.08985062  0.17321109  1
  Ca2+  Ca7  1  0.68126140  0.08779895  0.50284311  1
  Ca2+  Ca8  1  0.67378262  0.09264193  0.83389993  1
  Ca2+  Ca9  1  0.67561454  0.57784766  0.17731302  1
  Ca2+  Ca10  1  0.67085745  0.57803051  0.50348413  1
  Ca2+  Ca11  1  0.67658362  0.57211322  0.83382292  1
  Ca2+  Ca12  1  0.08428460  0.32549443  0.16044178  1
  Ca2+  Ca13  1  0.08383588  0.32863117  0.49669567  1
  Ca2+  Ca14  1  0.07797740  0.33115703  0.82615930  1
  Ca2+  Ca15  1  0.08047410  0.82858482  0.16482177  1
  Ca2+  Ca16  1  0.08947800  0.82644095  0.50221579  1
  Ca2+  Ca17  1  0.08574545  0.82433474  0.82133334  1
  Ca2+  Ca18  1  0.57990653  0.33349712  0.16732731  1
  Ca2+  Ca19  1  0.57259672  0.34839726  0.49684436  1
  Ca2+  Ca20  1  0.57978765  0.33497161  0.82611365  1
  Ca2+  Ca21  1  0.58101067  0.82944953  0.16862390  1
  Ca2+  Ca22  1  0.57693022  0.82405495  0.48865616  1
  Ca2+  Ca23  1  0.58070209  0.82954038  0.82814731  1
  Ca2+  Ca24  1  0.32162196  0.40471301  0.17274488  1
  Ca2+  Ca25  1  0.32606100  0.41315425  0.50729287  1
  Ca2+  Ca26  1  0.32356702  0.41222348  0.82854910  1
  Ca2+  Ca27  1  0.33368041  0.92538422  0.17605055  1
  Ca2+  Ca28  1  0.33372572  0.92388484  0.50394140  1
  Ca2+  Ca29  1  0.32374145  0.91692678  0.83341647  1
  Ca2+  Ca30  1  0.83218486  0.42277157  0.17361446  1
  Ca2+  Ca31  1  0.82142311  0.42054239  0.50815023  1
  Ca2+  Ca32  1  0.84673325  0.42330169  0.83417582  1
  Ca2+  Ca33  1  0.83089182  0.92690898  0.17533802  1
  Ca2+  Ca34  1  0.84049959  0.93080568  0.50286066  1
  Ca2+  Ca35  1  0.83677819  0.92644615  0.83180623  1
  Ca2+  Ca36  1  0.41924589  0.17088488  0.16678670  1
  Ca2+  Ca37  1  0.41236965  0.17910167  0.49401539  1
  Ca2+  Ca38  1  0.42523916  0.17339669  0.82822139  1
  Ca2+  Ca39  1  0.42263854  0.66759850  0.16998379  1
  Ca2+  Ca40  1  0.41925197  0.66771234  0.49104910  1
  Ca2+  Ca41  1  0.41372359  0.66316346  0.82382457  1
  Ca2+  Ca42  1  0.92526036  0.17383170  0.15994780  1
  Ca2+  Ca43  1  0.92312934  0.16871173  0.49779090  1
  Ca2+  Ca44  1  0.92314985  0.18039206  0.82374549  1
  Ca2+  Ca45  1  0.91041665  0.66253910  0.16377413  1
  Ca2+  Ca46  1  0.91900424  0.65657439  0.49991415  1
  Ca2+  Ca47  1  0.91841371  0.66327350  0.82529922  1
  Al0+  Al48  1  -0.00119866  -0.00245281  0.00001118  1
  Al0+  Al49  1  0.00139848  -0.00140009  0.33204800  1
  Al0+  Al50  1  0.00012369  -0.00072511  0.67246314  1
  Al0+  Al51  1  0.00224619  0.50110041  0.00705117  1
  Al0+  Al52  1  0.00043873  0.49852507  0.33962448  1
  Al0+  Al53  1  0.00017089  0.49988511  0.66358397  1
  Al0+  Al54  1  0.49889540  -0.00110743  -0.00541482  1
  Al0+  Al55  1  0.49943782  0.00073368  0.33446898  1
  Al0+  Al56  1  0.50052558  -0.00015697  0.66672656  1
  Al0+  Al57  1  0.50047459  0.50249027  -0.00029041  1
  Al0+  Al58  1  0.49854143  0.50115076  0.32248908  1
  Al0+  Al59  1  0.50131463  0.50108351  0.67093101  1
  Al0+  Al60  1  0.25179804  0.24729355  -0.00098479  1
  Al0+  Al61  1  0.25028488  0.24696729  0.33419962  1
  Al0+  Al62  1  0.25301077  0.24847318  0.66473661  1
  Al0+  Al63  1  0.25027128  0.75103226  0.00252468  1
  Al0+  Al64  1  0.24775900  0.74970924  0.32466161  1
  Al0+  Al65  1  0.24984028  0.75246307  0.66816719  1
  Al0+  Al66  1  0.74977926  0.25195570  -0.00598971  1
  Al0+  Al67  1  0.74999164  0.25214545  0.34197522  1
  Al0+  Al68  1  0.74991315  0.24892119  0.67119894  1
  Al0+  Al69  1  0.74803491  0.75085017  0.00228371  1
  Al0+  Al70  1  0.75101511  0.75065357  0.33198799  1
  Al0+  Al71  1  0.74920399  0.75142824  0.66877344  1
  Al0+  Al72  1  0.82003271  0.57043431  0.01445762  1
  Al0+  Al73  1  0.32134682  0.57183571  0.67825999  1
  Al0+  Al74  1  0.42833761  0.32063639  0.31949251  1
  Al0+  Al75  1  0.43264405  0.32079697  0.65332309  1
  Al0+  Al76  1  0.07082018  0.17762301  0.65040865  1
  Al0+  Al77  1  0.82133262  0.57137547  0.68207071  1
  Al0+  Al78  1  0.57238106  0.67884728  0.31672036  1
  Al0+  Al79  1  0.07284903  0.17667685  0.98483642  1
  Al0+  Al80  1  0.82131005  0.07084617  0.68235135  1
  Al0+  Al81  1  0.32156466  0.06955547  0.34699864  1
  Al0+  Al82  1  0.67812557  0.42857697  0.68317118  1
  Al0+  Al83  1  0.18069976  0.93098592  0.67956848  1
  Al0+  Al84  1  0.07123893  0.67907997  0.65327350  1
  Al0+  Al85  1  0.57055007  0.17877481  0.98726653  1
  Al0+  Al86  1  0.18247290  0.42810774  0.01413635  1
  Al0+  Al87  1  0.17900226  0.42587570  0.68101012  1
  Al0+  Al88  1  0.06911557  0.17870787  0.31989649  1
  Al0+  Al89  1  0.82167212  0.57296550  0.34979234  1
  Al0+  Al90  1  0.82253860  0.07150007  0.34516927  1
  Al0+  Al91  1  0.92758313  0.32265230  0.64853371  1
  Al0+  Al92  1  0.67607716  0.42978460  0.34758711  1
  Al0+  Al93  1  0.42713687  0.82334407  0.31771724  1
  Al0+  Al94  1  0.93103830  0.32350225  0.98667374  1
  Al0+  Al95  1  0.18105443  0.42653170  0.34782469  1
  Si0+  Si96  1  0.67651207  0.92851975  0.68364950  1
  Si0+  Si97  1  0.07077620  0.68157580  0.98685700  1
  Si0+  Si98  1  0.17769568  0.92733238  0.01693510  1
  Si0+  Si99  1  0.32477487  0.07202185  0.68551281  1
  Si0+  Si100  1  0.42816985  0.82235692  0.65188693  1
  Si0+  Si101  1  0.92676577  0.32212152  0.31811845  1
  Si0+  Si102  1  0.67725457  0.92969898  0.01509746  1
  Si0+  Si103  1  0.57076288  0.68111728  0.65305940  1
  Si0+  Si104  1  0.92700949  0.82162655  0.65035990  1
  Si0+  Si105  1  0.32169181  0.06753888  0.01413408  1
  Si0+  Si106  1  0.42869562  0.82014076  0.98244950  1
  Si0+  Si107  1  0.67815651  0.92835393  0.34890404  1
  Si0+  Si108  1  0.57265581  0.17525818  0.64817675  1
  Si0+  Si109  1  0.93028372  0.82147433  0.31821084  1
  Si0+  Si110  1  0.81987716  0.07133564  0.01486003  1
  Si0+  Si111  1  0.57429877  0.17865398  0.32000396  1
  Si0+  Si112  1  0.67526255  0.42725074  0.01797925  1
  Si0+  Si113  1  0.17762304  0.92565774  0.34868019  1
  Si0+  Si114  1  0.32344203  0.57491328  0.01885458  1
  Si0+  Si115  1  0.42805204  0.32310219  0.98297587  1
  Si0+  Si116  1  0.92616942  0.82055552  0.98522818  1
  Si0+  Si117  1  0.06987455  0.67614421  0.31671364  1
  Si0+  Si118  1  0.31982473  0.57359638  0.34543365  1
  Si0+  Si119  1  0.57147936  0.68037271  0.98240791  1
  O2-  O120  1  0.24451349  0.00272819  0.05704742  1
  O2-  O121  1  0.24928980  -0.00862687  0.39128842  1
  O2-  O122  1  0.25211188  0.00723325  0.72961485  1
  O2-  O123  1  0.25973756  0.50121429  0.06165364  1
  O2-  O124  1  0.25561912  0.50284566  0.39138209  1
  O2-  O125  1  0.24945918  0.50085513  0.72984214  1
  O2-  O126  1  0.74637362  0.00242219  0.05772485  1
  O2-  O127  1  0.74607186  -0.00222015  0.39202294  1
  O2-  O128  1  0.74335970  -0.00176906  0.72874607  1
  O2-  O129  1  0.74667680  0.49416160  0.06009700  1
  O2-  O130  1  0.74777481  0.50221960  0.39694972  1
  O2-  O131  1  0.75617266  0.49401874  0.73366462  1
  O2-  O132  1  -0.00527343  0.25317316  0.27291401  1
  O2-  O133  1  0.00140708  0.25142844  0.59954300  1
  O2-  O134  1  0.00212846  0.25027147  0.93668243  1
  O2-  O135  1  -0.00383403  0.74569184  0.27544848  1
  O2-  O136  1  -0.00764236  0.75011127  0.60610194  1
  O2-  O137  1  -0.00227941  0.75028033  0.94377247  1
  O2-  O138  1  0.50636290  0.24756579  0.27496923  1
  O2-  O139  1  0.50741425  0.24674640  0.60465655  1
  O2-  O140  1  0.50058589  0.25760039  0.94044649  1
  O2-  O141  1  0.49988321  0.75209828  0.26722772  1
  O2-  O142  1  0.49834943  0.75082553  0.61092192  1
  O2-  O143  1  0.49583599  0.74630722  0.93907885  1
  O2-  O144  1  0.07095881  0.17579537  0.09875531  1
  O2-  O145  1  0.06810427  0.17596000  0.43215064  1
  O2-  O146  1  0.06717254  0.17701584  0.76412947  1
  O2-  O147  1  0.07071567  0.68485183  0.09221714  1
  O2-  O148  1  0.07376328  0.67870685  0.42124655  1
  O2-  O149  1  0.07142984  0.68218266  0.76708192  1
  O2-  O150  1  0.56833832  0.17539004  0.10040277  1
  O2-  O151  1  0.57380946  0.17551764  0.42490054  1
  O2-  O152  1  0.56773154  0.17161723  0.75412597  1
  O2-  O153  1  0.57230837  0.68405543  0.08697102  1
  O2-  O154  1  0.57071248  0.68145130  0.43061328  1
  O2-  O155  1  0.57052618  0.68503163  0.75864252  1
  O2-  O156  1  0.18077047  0.42744137  0.23416249  1
  O2-  O157  1  0.18183405  0.42637990  0.56766331  1
  O2-  O158  1  0.18187760  0.42999952  0.90162203  1
  O2-  O159  1  0.17592746  0.92645138  0.24253310  1
  O2-  O160  1  0.18467289  0.92836242  0.56674856  1
  O2-  O161  1  0.17979027  0.92234655  0.91223065  1
  O2-  O162  1  0.67935086  0.42779525  0.23339348  1
  O2-  O163  1  0.67345965  0.43585296  0.57024316  1
  O2-  O164  1  0.66969978  0.43052765  0.91308419  1
  O2-  O165  1  0.67989605  0.92889763  0.24262816  1
  O2-  O166  1  0.67511731  0.92766613  0.57845202  1
  O2-  O167  1  0.67827937  0.92724202  0.91022460  1
  O2-  O168  1  0.42682297  0.31998802  0.08864372  1
  O2-  O169  1  0.42806477  0.32030881  0.43215901  1
  O2-  O170  1  0.43346898  0.31801357  0.76693471  1
  O2-  O171  1  0.43022905  0.82228037  0.08702466  1
  O2-  O172  1  0.42785242  0.82155183  0.43139563  1
  O2-  O173  1  0.42982962  0.82344225  0.75758029  1
  O2-  O174  1  0.92962974  0.32071166  0.10066471  1
  O2-  O175  1  0.92694757  0.32047162  0.42305987  1
  O2-  O176  1  0.93044322  0.32172508  0.76247531  1
  O2-  O177  1  0.92709550  0.82273898  0.09055974  1
  O2-  O178  1  0.93303597  0.82619980  0.42261872  1
  O2-  O179  1  0.92809115  0.82162043  0.75655495  1
  O2-  O180  1  0.32014173  0.06913502  0.23303693  1
  O2-  O181  1  0.32873609  0.06798374  0.58026260  1
  O2-  O182  1  0.32530464  0.06296610  0.90945447  1
  O2-  O183  1  0.31507945  0.57483993  0.23963907  1
  O2-  O184  1  0.32153950  0.57303871  0.56463237  1
  O2-  O185  1  0.32146435  0.57994973  0.91381582  1
  O2-  O186  1  0.82074730  0.06927387  0.23133872  1
  O2-  O187  1  0.82176431  0.06660871  0.56917271  1
  O2-  O188  1  0.81991462  0.06679421  0.91021144  1
  O2-  O189  1  0.82086532  0.57132273  0.23556722  1
  O2-  O190  1  0.81496804  0.57630301  0.56944697  1
  O2-  O191  1  0.81894151  0.57418399  0.90201880  1
  O2-  O192  1  0.04074722  0.08095742  0.26506853  1
  O2-  O193  1  0.04071935  0.07752245  0.60120862  1
  O2-  O194  1  0.04399475  0.07627758  0.93553907  1
  O2-  O195  1  0.04230508  0.58386817  0.26986176  1
  O2-  O196  1  0.04518447  0.58302540  0.59759905  1
  O2-  O197  1  0.04503107  0.58888884  0.94223226  1
  O2-  O198  1  0.54914860  0.08503261  0.27293500  1
  O2-  O199  1  0.54546461  0.08184156  0.60202971  1
  O2-  O200  1  0.53682869  0.08359073  0.93065447  1
  O2-  O201  1  0.54264614  0.58402402  0.25728844  1
  O2-  O202  1  0.54347975  0.58967557  0.60706028  1
  O2-  O203  1  0.54801394  0.58694195  0.93639305  1
  O2-  O204  1  0.16573768  0.20980209  0.26634462  1
  O2-  O205  1  0.17255068  0.19937346  0.60200002  1
  O2-  O206  1  0.17375292  0.19831200  0.93456182  1
  O2-  O207  1  0.15865350  0.70628885  0.26404153  1
  O2-  O208  1  0.16562069  0.71766831  0.59935439  1
  O2-  O209  1  0.16195777  0.71300953  0.94045086  1
  O2-  O210  1  0.66801134  0.20507524  0.27346201  1
  O2-  O211  1  0.66886812  0.19505374  0.60758679  1
  O2-  O212  1  0.66730015  0.20491891  0.93180391  1
  O2-  O213  1  0.67028151  0.71058987  0.26282224  1
  O2-  O214  1  0.66118637  0.71218361  0.60519447  1
  O2-  O215  1  0.66085881  0.71527029  0.93471894  1
  O2-  O216  1  0.08847607  0.46272315  0.07124885  1
  O2-  O217  1  0.08537426  0.45772626  0.40128182  1
  O2-  O218  1  0.08105571  0.45686830  0.73250739  1
  O2-  O219  1  0.08333780  0.94864524  0.06290067  1
  O2-  O220  1  0.08564264  0.95289049  0.39567908  1
  O2-  O221  1  0.08406963  0.95553299  0.73679839  1
  O2-  O222  1  0.58221452  0.45591494  0.06483671  1
  O2-  O223  1  0.57568325  0.46038503  0.39471907  1
  O2-  O224  1  0.58416565  0.46528084  0.74030475  1
  O2-  O225  1  0.58390501  0.95525012  0.06036940  1
  O2-  O226  1  0.58422666  0.95084271  0.39450189  1
  O2-  O227  1  0.58249247  0.95215975  0.73122287  1
  O2-  O228  1  0.21282529  0.32995151  0.06704643  1
  O2-  O229  1  0.21339165  0.33137643  0.40084426  1
  O2-  O230  1  0.21176548  0.32874689  0.73424443  1
  O2-  O231  1  0.20993461  0.83786576  0.06717743  1
  O2-  O232  1  0.20030188  0.83006239  0.39148827  1
  O2-  O233  1  0.21523031  0.83712547  0.73771691  1
  O2-  O234  1  0.69830797  0.33163967  0.06070486  1
  O2-  O235  1  0.70082764  0.33234490  0.40353182  1
  O2-  O236  1  0.69517377  0.32667320  0.73225041  1
  O2-  O237  1  0.70749357  0.83971034  0.06478065  1
  O2-  O238  1  0.70470230  0.83556067  0.39470983  1
  O2-  O239  1  0.70368084  0.83651338  0.73261041  1
  O2-  O240  1  0.45298315  0.41630886  0.26064341  1
  O2-  O241  1  0.46268770  0.41883189  0.60176457  1
  O2-  O242  1  0.44949478  0.41918214  0.94018386  1
  O2-  O243  1  0.45757205  0.92158350  0.26396678  1
  O2-  O244  1  0.45761677  0.91366979  0.60436434  1
  O2-  O245  1  0.45972591  0.90926517  0.93191109  1
  O2-  O246  1  0.95353359  0.41633262  0.27358798  1
  O2-  O247  1  0.95122782  0.42205050  0.59686820  1
  O2-  O248  1  0.96233423  0.42255879  0.93633637  1
  O2-  O249  1  0.96300438  0.90974442  0.26565078  1
  O2-  O250  1  0.95815255  0.91349785  0.60502238  1
  O2-  O251  1  0.95374389  0.91197879  0.93724671  1
  O2-  O252  1  0.33522019  0.28141724  0.26394875  1
  O2-  O253  1  0.33701843  0.28878706  0.59878248  1
  O2-  O254  1  0.33716064  0.29201907  0.93554466  1
  O2-  O255  1  0.32917262  0.79621556  0.26140526  1
  O2-  O256  1  0.33665771  0.79743271  0.60451810  1
  O2-  O257  1  0.33479577  0.79479497  0.93724501  1
  O2-  O258  1  0.83230577  0.29655944  0.27337806  1
  O2-  O259  1  0.82756815  0.29158541  0.60047906  1
  O2-  O260  1  0.83180641  0.29905558  0.93369375  1
  O2-  O261  1  0.83718243  0.79970488  0.26994806  1
  O2-  O262  1  0.83145158  0.80205543  0.60583248  1
  O2-  O263  1  0.83390765  0.79437755  0.93825632  1
  O2-  O264  1  0.41114614  0.03227583  0.06214914  1
  O2-  O265  1  0.41830270  0.04167213  0.40221444  1
  O2-  O266  1  0.41649873  0.04040190  0.73343634  1
  O2-  O267  1  0.41988844  0.55493886  0.06183274  1
  O2-  O268  1  0.41656944  0.55401321  0.38500447  1
  O2-  O269  1  0.41813398  0.54437496  0.73501515  1
  O2-  O270  1  0.91047270  0.03887334  0.06272729  1
  O2-  O271  1  0.91677067  0.03372769  0.39863274  1
  O2-  O272  1  0.91417764  0.03435329  0.73932870  1
  O2-  O273  1  0.91744704  0.54487191  0.06953195  1
  O2-  O274  1  0.91995709  0.54582310  0.40154452  1
  O2-  O275  1  0.92220037  0.54853309  0.73213354  1
  O2-  O276  1  0.30087271  0.16122060  0.06051730  1
  O2-  O277  1  0.28764261  0.16306488  0.40263855  1
  O2-  O278  1  0.30416568  0.16631807  0.73039611  1
  O2-  O279  1  0.29420337  0.66744315  0.06639550  1
  O2-  O280  1  0.29259465  0.66745076  0.39012227  1
  O2-  O281  1  0.29586542  0.67111287  0.73166760  1
  O2-  O282  1  0.79345347  0.16439972  0.05964451  1
  O2-  O283  1  0.79338756  0.16600113  0.40208561  1
  O2-  O284  1  0.79115021  0.16576058  0.73902642  1
  O2-  O285  1  0.78698491  0.66784531  0.06763215  1
  O2-  O286  1  0.79808203  0.67405023  0.39913178  1
  O2-  O287  1  0.79003016  0.67015842  0.73507200  1
