# generated using pymatgen
data_Ca2Al2SiO7
_symmetry_space_group_name_H-M   'P 1'
_cell_length_a   15.45645410
_cell_length_b   15.45617937
_cell_length_c   15.28283381
_cell_angle_alpha   89.99717210
_cell_angle_beta   89.99732222
_cell_angle_gamma   90.01342552
_symmetry_Int_Tables_number   1
_chemical_formula_structural   Ca2Al2SiO7
_chemical_formula_sum   'Ca48 Al48 Si24 O168'
_cell_volume   3651.03414996
_cell_formula_units_Z   24
loop_
 _symmetry_equiv_pos_site_id
 _symmetry_equiv_pos_as_xyz
  1  'x, y, z'
loop_
 _atom_type_symbol
 _atom_type_oxidation_number
  Ca2+  2.0
  Al0+  0.0
  Si0+  0.0
  O2-  -2.0
loop_
 _atom_site_type_symbol
 _atom_site_label
 _atom_site_symmetry_multiplicity
 _atom_site_fract_x
 _atom_site_fract_y
 _atom_site_fract_z
 _atom_site_occupancy
  Ca2+  Ca0  1  0.17044033  0.08488745  0.16957339  1
  Ca2+  Ca1  1  0.17114717  0.08255382  0.50582840  1
  Ca2+  Ca2  1  0.18174705  0.08423312  0.83770156  1
  Ca2+  Ca3  1  0.17554202  0.58149468  0.16703886  1
  Ca2+  Ca4  1  0.17649344  0.58274343  0.51063368  1
  Ca2+  Ca5  1  0.17152940  0.58045298  0.83468111  1
  Ca2+  Ca6  1  0.67117359  0.07291964  0.17444899  1
  Ca2+  Ca7  1  0.65774969  0.07483489  0.50299797  1
  Ca2+  Ca8  1  0.65996376  0.07166678  0.83577322  1
  Ca2+  Ca9  1  0.67053512  0.57896138  0.16437009  1
  Ca2+  Ca10  1  0.66667104  0.58451632  0.50643560  1
  Ca2+  Ca11  1  0.67048425  0.58102818  0.84172456  1
  Ca2+  Ca12  1  0.08187775  0.32900585  0.15926807  1
  Ca2+  Ca13  1  0.08155213  0.33201259  0.49932579  1
  Ca2+  Ca14  1  0.07520664  0.34868085  0.83015084  1
  Ca2+  Ca15  1  0.07290264  0.83215687  0.15797067  1
  Ca2+  Ca16  1  0.08970096  0.82508017  0.49828582  1
  Ca2+  Ca17  1  0.07556471  0.82671553  0.82954202  1
  Ca2+  Ca18  1  0.58891336  0.32642294  0.16240925  1
  Ca2+  Ca19  1  0.58322711  0.31889883  0.49512967  1
  Ca2+  Ca20  1  0.58542964  0.32701258  0.82638198  1
  Ca2+  Ca21  1  0.57684751  0.83968644  0.16164670  1
  Ca2+  Ca22  1  0.57599141  0.83501383  0.50083802  1
  Ca2+  Ca23  1  0.57866786  0.82949064  0.82683857  1
  Ca2+  Ca24  1  0.33276586  0.42967197  0.16928344  1
  Ca2+  Ca25  1  0.32826940  0.42853112  0.51070755  1
  Ca2+  Ca26  1  0.32429369  0.42949290  0.84194844  1
  Ca2+  Ca27  1  0.34069087  0.91803312  0.16705431  1
  Ca2+  Ca28  1  0.34213412  0.91901685  0.50568556  1
  Ca2+  Ca29  1  0.34634201  0.92408046  0.83570498  1
  Ca2+  Ca30  1  0.83438625  0.41610949  0.15979508  1
  Ca2+  Ca31  1  0.83432369  0.41410426  0.50479543  1
  Ca2+  Ca32  1  0.83136988  0.41890677  0.84250649  1
  Ca2+  Ca33  1  0.82197228  0.91554233  0.17448820  1
  Ca2+  Ca34  1  0.82133534  0.92504787  0.50459104  1
  Ca2+  Ca35  1  0.81966530  0.91031060  0.84001755  1
  Ca2+  Ca36  1  0.42410757  0.16218908  0.16160066  1
  Ca2+  Ca37  1  0.42592838  0.15958998  0.49908306  1
  Ca2+  Ca38  1  0.41852201  0.16373095  0.82662613  1
  Ca2+  Ca39  1  0.41120232  0.67540651  0.16097811  1
  Ca2+  Ca40  1  0.41371201  0.67366140  0.49605878  1
  Ca2+  Ca41  1  0.41540518  0.67389503  0.82537535  1
  Ca2+  Ca42  1  0.92166090  0.16495792  0.16151106  1
  Ca2+  Ca43  1  0.92041639  0.16947186  0.49260501  1
  Ca2+  Ca44  1  0.91585226  0.18191211  0.82802488  1
  Ca2+  Ca45  1  0.91492971  0.67056031  0.15567518  1
  Ca2+  Ca46  1  0.92487349  0.66676943  0.50061512  1
  Ca2+  Ca47  1  0.91829486  0.66594083  0.83020023  1
  Al0+  Al48  1  0.00159619  -0.00006967  -0.00935796  1
  Al0+  Al49  1  0.00003896  0.00018915  0.33372077  1
  Al0+  Al50  1  -0.00191318  0.00290602  0.66853801  1
  Al0+  Al51  1  0.00074221  0.49873096  0.00511662  1
  Al0+  Al52  1  0.00040509  0.49948925  0.33202914  1
  Al0+  Al53  1  -0.00123881  0.50161134  0.65900006  1
  Al0+  Al54  1  0.50110913  -0.00076225  0.00458087  1
  Al0+  Al55  1  0.49990119  -0.00027681  0.32829747  1
  Al0+  Al56  1  0.50084434  -0.00070908  0.66762276  1
  Al0+  Al57  1  0.50042584  0.49816875  0.00834917  1
  Al0+  Al58  1  0.50107957  0.50145032  0.33823257  1
  Al0+  Al59  1  0.50070597  0.49988526  0.66760510  1
  Al0+  Al60  1  0.25339009  0.24903852  0.00812829  1
  Al0+  Al61  1  0.24858755  0.25129086  0.32976264  1
  Al0+  Al62  1  0.24750086  0.25037462  0.67480168  1
  Al0+  Al63  1  0.24899483  0.75291660  -0.00245218  1
  Al0+  Al64  1  0.25065379  0.75000172  0.33097325  1
  Al0+  Al65  1  0.24778264  0.75212998  0.66328770  1
  Al0+  Al66  1  0.75224568  0.24762265  -0.00149131  1
  Al0+  Al67  1  0.75124699  0.25082179  0.33070813  1
  Al0+  Al68  1  0.75094537  0.24963352  0.65689206  1
  Al0+  Al69  1  0.74808128  0.74932176  0.00483015  1
  Al0+  Al70  1  0.74860867  0.74865791  0.33969292  1
  Al0+  Al71  1  0.74876161  0.75087283  0.66583620  1
  Al0+  Al72  1  0.06872077  0.68164419  0.65316390  1
  Al0+  Al73  1  0.07120912  0.17810656  0.31929231  1
  Al0+  Al74  1  0.93037384  0.32110433  0.65147515  1
  Al0+  Al75  1  0.82274289  0.07184339  0.34795535  1
  Al0+  Al76  1  0.32009179  0.57207721  0.34907063  1
  Al0+  Al77  1  0.56845319  0.18005806  0.65399374  1
  Al0+  Al78  1  0.67646763  0.92925281  0.35158566  1
  Al0+  Al79  1  0.57013229  0.17977178  0.31704752  1
  Al0+  Al80  1  0.42970032  0.82005253  0.65200374  1
  Al0+  Al81  1  0.93170845  0.31891719  0.98608478  1
  Al0+  Al82  1  0.92529869  0.82117269  0.98709467  1
  Al0+  Al83  1  0.57261804  0.67606002  0.65271177  1
  Al0+  Al84  1  0.67853170  0.42453735  0.01380541  1
  Al0+  Al85  1  0.32305819  0.57391039  0.68248719  1
  Al0+  Al86  1  0.82073761  0.57052498  0.01347470  1
  Al0+  Al87  1  0.32148598  0.06874960  0.01596407  1
  Al0+  Al88  1  0.42989464  0.82070494  0.98515741  1
  Al0+  Al89  1  0.43049828  0.81863716  0.31738335  1
  Al0+  Al90  1  0.68030895  0.92913645  0.01429035  1
  Al0+  Al91  1  0.32151478  0.57490435  0.01521521  1
  Al0+  Al92  1  0.17870117  0.42906309  0.01733556  1
  Al0+  Al93  1  0.31998673  0.06858010  0.67840559  1
  Al0+  Al94  1  0.17695755  0.43039571  0.68116051  1
  Al0+  Al95  1  0.68060499  0.93042303  0.68232681  1
  Si0+  Si96  1  0.81957634  0.57017310  0.67880442  1
  Si0+  Si97  1  0.57081123  0.67528265  0.98605770  1
  Si0+  Si98  1  0.17767155  0.42789430  0.35119744  1
  Si0+  Si99  1  0.42860737  0.32427047  0.31728072  1
  Si0+  Si100  1  0.68012360  0.42885925  0.34991853  1
  Si0+  Si101  1  0.82405534  0.07123822  0.01322322  1
  Si0+  Si102  1  0.17823537  0.92916892  0.34658763  1
  Si0+  Si103  1  0.92569625  0.82470449  0.64899642  1
  Si0+  Si104  1  0.17521655  0.92916132  0.01586289  1
  Si0+  Si105  1  0.17357294  0.92741154  0.68370259  1
  Si0+  Si106  1  0.92862992  0.81906856  0.32102850  1
  Si0+  Si107  1  0.57461798  0.67548250  0.31502886  1
  Si0+  Si108  1  0.57053597  0.17969888  0.98514486  1
  Si0+  Si109  1  0.42483559  0.32262879  0.65301694  1
  Si0+  Si110  1  0.07089616  0.67827106  0.98421493  1
  Si0+  Si111  1  0.82277819  0.57089190  0.35044697  1
  Si0+  Si112  1  0.92844510  0.32345913  0.31327774  1
  Si0+  Si113  1  0.07667076  0.17783677  0.98081581  1
  Si0+  Si114  1  0.42907289  0.32185443  0.98639105  1
  Si0+  Si115  1  0.32003731  0.07152236  0.34695001  1
  Si0+  Si116  1  0.07349412  0.17704925  0.65115656  1
  Si0+  Si117  1  0.07080068  0.67890494  0.31689970  1
  Si0+  Si118  1  0.67976196  0.42608398  0.67808239  1
  Si0+  Si119  1  0.82281658  0.07484030  0.68457035  1
  O2-  O120  1  0.24434338  -0.00386170  0.06209603  1
  O2-  O121  1  0.24841077  0.00112244  0.38874599  1
  O2-  O122  1  0.24428069  -0.00516280  0.72600769  1
  O2-  O123  1  0.25066979  0.50169547  0.06604773  1
  O2-  O124  1  0.24695609  0.49544917  0.39519547  1
  O2-  O125  1  0.25215795  0.49942684  0.73026526  1
  O2-  O126  1  0.76099754  -0.00142543  0.05869578  1
  O2-  O127  1  0.74742617  0.00419019  0.39944233  1
  O2-  O128  1  0.75731594  0.00370041  0.72910136  1
  O2-  O129  1  0.74935979  0.49789410  0.06411648  1
  O2-  O130  1  0.75165871  0.49976680  0.39222611  1
  O2-  O131  1  0.74547303  0.50204233  0.71974101  1
  O2-  O132  1  -0.00413964  0.25204167  0.27205779  1
  O2-  O133  1  0.00495142  0.24555424  0.60650316  1
  O2-  O134  1  0.00886189  0.24770395  0.93715838  1
  O2-  O135  1  -0.00281554  0.74724454  0.27547453  1
  O2-  O136  1  -0.00180539  0.76027762  0.60412891  1
  O2-  O137  1  -0.00080783  0.74512782  0.94126198  1
  O2-  O138  1  0.49560475  0.25500211  0.27049737  1
  O2-  O139  1  0.49305400  0.25438348  0.60665590  1
  O2-  O140  1  0.50208886  0.25325133  0.94313358  1
  O2-  O141  1  0.50633377  0.74439449  0.27129156  1
  O2-  O142  1  0.49684730  0.74349223  0.60166322  1
  O2-  O143  1  0.49963786  0.74049962  0.94098201  1
  O2-  O144  1  0.07354582  0.17608169  0.08673404  1
  O2-  O145  1  0.07272132  0.17954992  0.43243531  1
  O2-  O146  1  0.07244423  0.17434082  0.75626321  1
  O2-  O147  1  0.07068480  0.68143020  0.09051664  1
  O2-  O148  1  0.07035291  0.67967983  0.42198720  1
  O2-  O149  1  0.06410541  0.68072750  0.76608248  1
  O2-  O150  1  0.56968904  0.18022269  0.09040502  1
  O2-  O151  1  0.56683418  0.17984266  0.43029143  1
  O2-  O152  1  0.56885479  0.18143667  0.76739037  1
  O2-  O153  1  0.57205900  0.67664610  0.09180965  1
  O2-  O154  1  0.57489308  0.67403574  0.42039921  1
  O2-  O155  1  0.57778677  0.67742824  0.76615001  1
  O2-  O156  1  0.17694586  0.42935453  0.24590374  1
  O2-  O157  1  0.17820499  0.43101195  0.56701323  1
  O2-  O158  1  0.17852809  0.43224323  0.90394756  1
  O2-  O159  1  0.17606563  0.92897805  0.24161475  1
  O2-  O160  1  0.17067671  0.92970748  0.57762054  1
  O2-  O161  1  0.17295108  0.93082041  0.91058245  1
  O2-  O162  1  0.68052950  0.42914286  0.24508172  1
  O2-  O163  1  0.68317491  0.42441679  0.57272320  1
  O2-  O164  1  0.67977410  0.42348764  0.89988168  1
  O2-  O165  1  0.67921633  0.92898184  0.23783213  1
  O2-  O166  1  0.68035802  0.93243594  0.56950946  1
  O2-  O167  1  0.67854546  0.93094154  0.90116114  1
  O2-  O168  1  0.42966692  0.31974783  0.09164693  1
  O2-  O169  1  0.43040344  0.32301033  0.42299958  1
  O2-  O170  1  0.42805708  0.32149049  0.75869624  1
  O2-  O171  1  0.43251213  0.82146233  0.09842865  1
  O2-  O172  1  0.42840268  0.81903385  0.43003777  1
  O2-  O173  1  0.43388659  0.82189126  0.76547272  1
  O2-  O174  1  0.93114806  0.31463703  0.09906508  1
  O2-  O175  1  0.93016049  0.32644187  0.41894348  1
  O2-  O176  1  0.92849518  0.32238435  0.76446178  1
  O2-  O177  1  0.92825108  0.82081681  0.10098022  1
  O2-  O178  1  0.93201209  0.81701576  0.42605392  1
  O2-  O179  1  0.92488697  0.82093479  0.75456091  1
  O2-  O180  1  0.31933897  0.07011299  0.24192897  1
  O2-  O181  1  0.31893109  0.06811015  0.56466704  1
  O2-  O182  1  0.32314553  0.06843931  0.90290858  1
  O2-  O183  1  0.31681731  0.57268207  0.23619329  1
  O2-  O184  1  0.32020833  0.57228052  0.56842953  1
  O2-  O185  1  0.32067214  0.57433032  0.90205065  1
  O2-  O186  1  0.82411809  0.06694512  0.23404958  1
  O2-  O187  1  0.82413165  0.07383439  0.57909802  1
  O2-  O188  1  0.81968064  0.07394840  0.90779263  1
  O2-  O189  1  0.82426683  0.57221505  0.24584854  1
  O2-  O190  1  0.82043252  0.56852309  0.57311719  1
  O2-  O191  1  0.82004824  0.56998807  0.89951828  1
  O2-  O192  1  0.04204695  0.08070486  0.26459496  1
  O2-  O193  1  0.04781852  0.08331384  0.60373281  1
  O2-  O194  1  0.05283605  0.08483223  0.93267876  1
  O2-  O195  1  0.04425805  0.58613523  0.27070250  1
  O2-  O196  1  0.03329946  0.58913138  0.59378007  1
  O2-  O197  1  0.04618805  0.58401104  0.94076033  1
  O2-  O198  1  0.53811201  0.08462443  0.26180294  1
  O2-  O199  1  0.53506681  0.08508635  0.59932905  1
  O2-  O200  1  0.53780431  0.08904577  0.93920785  1
  O2-  O201  1  0.54982679  0.58083766  0.27043720  1
  O2-  O202  1  0.55221547  0.57480202  0.60052126  1
  O2-  O203  1  0.55091698  0.57881269  0.94295902  1
  O2-  O204  1  0.16744785  0.20858028  0.26306247  1
  O2-  O205  1  0.16735429  0.20276951  0.60518930  1
  O2-  O206  1  0.17241457  0.20240963  0.93956449  1
  O2-  O207  1  0.16044292  0.71018458  0.26853046  1
  O2-  O208  1  0.16420280  0.71123627  0.59577489  1
  O2-  O209  1  0.16214155  0.70746328  0.93616051  1
  O2-  O210  1  0.66754102  0.21095697  0.26451136  1
  O2-  O211  1  0.66333871  0.21076451  0.59648014  1
  O2-  O212  1  0.66315424  0.20383893  0.93786567  1
  O2-  O213  1  0.67003451  0.69982522  0.27130059  1
  O2-  O214  1  0.66995923  0.70765310  0.59743562  1
  O2-  O215  1  0.66384399  0.70339640  0.94044548  1
  O2-  O216  1  0.08114810  0.45567335  0.07259570  1
  O2-  O217  1  0.08330055  0.45439625  0.39591227  1
  O2-  O218  1  0.07878047  0.46565465  0.73063685  1
  O2-  O219  1  0.08139302  0.95623211  0.06247902  1
  O2-  O220  1  0.08738084  0.95536158  0.39658270  1
  O2-  O221  1  0.08002792  0.95335861  0.73090974  1
  O2-  O222  1  0.58142158  0.44925474  0.07097777  1
  O2-  O223  1  0.58876602  0.45525294  0.39876648  1
  O2-  O224  1  0.58620322  0.44580389  0.72497517  1
  O2-  O225  1  0.58777542  0.96685611  0.07053453  1
  O2-  O226  1  0.57761489  0.96102764  0.40162448  1
  O2-  O227  1  0.58561552  0.96451383  0.73634083  1
  O2-  O228  1  0.20774455  0.33101623  0.07052615  1
  O2-  O229  1  0.20168130  0.33303457  0.39582267  1
  O2-  O230  1  0.19692654  0.33087925  0.73495509  1
  O2-  O231  1  0.19792823  0.83513261  0.06165910  1
  O2-  O232  1  0.20727624  0.83770903  0.39383627  1
  O2-  O233  1  0.19563796  0.83311208  0.72825997  1
  O2-  O234  1  0.71151016  0.32749583  0.06801671  1
  O2-  O235  1  0.70863282  0.33706822  0.39703018  1
  O2-  O236  1  0.71267690  0.33578357  0.72522728  1
  O2-  O237  1  0.70612129  0.83252150  0.06983525  1
  O2-  O238  1  0.70560397  0.83043298  0.40358800  1
  O2-  O239  1  0.71201707  0.83311837  0.73511088  1
  O2-  O240  1  0.45670166  0.41790985  0.27237027  1
  O2-  O241  1  0.45026332  0.41586485  0.60626298  1
  O2-  O242  1  0.45424515  0.41502766  0.94045993  1
  O2-  O243  1  0.45968554  0.91565675  0.26327660  1
  O2-  O244  1  0.46394668  0.91664518  0.59831748  1
  O2-  O245  1  0.46664273  0.91692320  0.93388050  1
  O2-  O246  1  0.95655452  0.41674561  0.26677341  1
  O2-  O247  1  0.96026701  0.41602676  0.59359014  1
  O2-  O248  1  0.95900216  0.41816948  0.93494360  1
  O2-  O249  1  0.95787267  0.90998816  0.27344030  1
  O2-  O250  1  0.94700768  0.92098510  0.60656771  1
  O2-  O251  1  0.95618850  0.91611538  0.92936967  1
  O2-  O252  1  0.33405846  0.30133620  0.27214313  1
  O2-  O253  1  0.33032430  0.29753961  0.60874725  1
  O2-  O254  1  0.33793340  0.29094467  0.93980754  1
  O2-  O255  1  0.33289390  0.78875015  0.26328856  1
  O2-  O256  1  0.32825556  0.80156296  0.60064850  1
  O2-  O257  1  0.33009795  0.79911250  0.93314613  1
  O2-  O258  1  0.83389133  0.30183535  0.26841118  1
  O2-  O259  1  0.83592637  0.28978867  0.59307279  1
  O2-  O260  1  0.83539618  0.28652586  0.93084370  1
  O2-  O261  1  0.83569898  0.79105063  0.27602115  1
  O2-  O262  1  0.83496901  0.79412829  0.60085626  1
  O2-  O263  1  0.82886127  0.78923654  0.93392911  1
  O2-  O264  1  0.41610301  0.03535429  0.07183854  1
  O2-  O265  1  0.41154537  0.04193771  0.39284021  1
  O2-  O266  1  0.41540184  0.03728169  0.73399705  1
  O2-  O267  1  0.41885322  0.54589359  0.07023963  1
  O2-  O268  1  0.41833035  0.54463248  0.40161430  1
  O2-  O269  1  0.42279529  0.54772363  0.73394325  1
  O2-  O270  1  0.92106917  0.05103989  0.05431143  1
  O2-  O271  1  0.92005861  0.04038404  0.40278132  1
  O2-  O272  1  0.91772383  0.05486430  0.73097025  1
  O2-  O273  1  0.91790482  0.54319364  0.06933998  1
  O2-  O274  1  0.91516249  0.54198278  0.39745096  1
  O2-  O275  1  0.91009882  0.53915535  0.72524162  1
  O2-  O276  1  0.29499118  0.16497929  0.07259422  1
  O2-  O277  1  0.29366873  0.16464096  0.39264194  1
  O2-  O278  1  0.29181675  0.16486459  0.73527546  1
  O2-  O279  1  0.28978911  0.67327910  0.06717491  1
  O2-  O280  1  0.28484145  0.66810703  0.40142850  1
  O2-  O281  1  0.29083412  0.67265458  0.73163809  1
  O2-  O282  1  0.79498430  0.16204321  0.06248165  1
  O2-  O283  1  0.80071265  0.17375598  0.39637296  1
  O2-  O284  1  0.79306385  0.16858826  0.72769814  1
  O2-  O285  1  0.79109451  0.66678877  0.07036635  1
  O2-  O286  1  0.79631954  0.66171867  0.40047807  1
  O2-  O287  1  0.79615987  0.66304526  0.72553489  1
