# generated using pymatgen
data_Ca2Al2SiO7
_symmetry_space_group_name_H-M   'P 1'
_cell_length_a   15.46140038
_cell_length_b   15.46076473
_cell_length_c   15.28665464
_cell_angle_alpha   89.99889158
_cell_angle_beta   89.99825923
_cell_angle_gamma   89.97726447
_symmetry_Int_Tables_number   1
_chemical_formula_structural   Ca2Al2SiO7
_chemical_formula_sum   'Ca48 Al48 Si24 O168'
_cell_volume   3654.19919330
_cell_formula_units_Z   24
loop_
 _symmetry_equiv_pos_site_id
 _symmetry_equiv_pos_as_xyz
  1  'x, y, z'
loop_
 _atom_type_symbol
 _atom_type_oxidation_number
  Ca2+  2.0
  Al0+  0.0
  Si0+  0.0
  O2-  -2.0
loop_
 _atom_site_type_symbol
 _atom_site_label
 _atom_site_symmetry_multiplicity
 _atom_site_fract_x
 _atom_site_fract_y
 _atom_site_fract_z
 _atom_site_occupancy
  Ca2+  Ca0  1  0.17124928  0.07816189  0.16333590  1
  Ca2+  Ca1  1  0.16685052  0.08404394  0.50737956  1
  Ca2+  Ca2  1  0.17478519  0.08207939  0.84255652  1
  Ca2+  Ca3  1  0.17600472  0.58536161  0.16594684  1
  Ca2+  Ca4  1  0.16666725  0.58227373  0.50892256  1
  Ca2+  Ca5  1  0.17133095  0.58534224  0.83929081  1
  Ca2+  Ca6  1  0.66209709  0.07312930  0.16549477  1
  Ca2+  Ca7  1  0.66522687  0.08200339  0.50514844  1
  Ca2+  Ca8  1  0.67167953  0.08471690  0.84107476  1
  Ca2+  Ca9  1  0.66268629  0.58784652  0.17135445  1
  Ca2+  Ca10  1  0.67055683  0.57840561  0.50855398  1
  Ca2+  Ca11  1  0.66440695  0.57593619  0.83430507  1
  Ca2+  Ca12  1  0.07502085  0.33084577  0.15971029  1
  Ca2+  Ca13  1  0.07811733  0.32759169  0.50396783  1
  Ca2+  Ca14  1  0.07243202  0.32609916  0.82677442  1
  Ca2+  Ca15  1  0.07220588  0.84150300  0.16059493  1
  Ca2+  Ca16  1  0.07391372  0.82691154  0.49874985  1
  Ca2+  Ca17  1  0.08008178  0.83478061  0.83089007  1
  Ca2+  Ca18  1  0.58229885  0.31930675  0.16290352  1
  Ca2+  Ca19  1  0.58428666  0.32588182  0.49846355  1
  Ca2+  Ca20  1  0.58195771  0.32121352  0.82507342  1
  Ca2+  Ca21  1  0.58806127  0.82622702  0.15635900  1
  Ca2+  Ca22  1  0.58297304  0.83092132  0.49447825  1
  Ca2+  Ca23  1  0.57339592  0.83893732  0.83495893  1
  Ca2+  Ca24  1  0.34287186  0.42257558  0.16912853  1
  Ca2+  Ca25  1  0.33915045  0.41278986  0.50550374  1
  Ca2+  Ca26  1  0.33560543  0.42048307  0.83927448  1
  Ca2+  Ca27  1  0.33755425  0.91923358  0.16103373  1
  Ca2+  Ca28  1  0.33339045  0.91635430  0.50656518  1
  Ca2+  Ca29  1  0.32905950  0.91534301  0.84526406  1
  Ca2+  Ca30  1  0.83232961  0.41757581  0.16705552  1
  Ca2+  Ca31  1  0.82593156  0.42141479  0.51617753  1
  Ca2+  Ca32  1  0.83448383  0.41620481  0.83347523  1
  Ca2+  Ca33  1  0.82464902  0.91395494  0.16971826  1
  Ca2+  Ca34  1  0.82644194  0.91897073  0.50353064  1
  Ca2+  Ca35  1  0.83053241  0.92972647  0.84397533  1
  Ca2+  Ca36  1  0.42652278  0.16337876  0.16097072  1
  Ca2+  Ca37  1  0.43037369  0.17711105  0.49606569  1
  Ca2+  Ca38  1  0.42785263  0.16175734  0.82726705  1
  Ca2+  Ca39  1  0.42905830  0.67020598  0.15610510  1
  Ca2+  Ca40  1  0.42441721  0.67346691  0.49701189  1
  Ca2+  Ca41  1  0.41646067  0.67550396  0.83413701  1
  Ca2+  Ca42  1  0.91155493  0.17202013  0.15585245  1
  Ca2+  Ca43  1  0.91240499  0.16678898  0.50596735  1
  Ca2+  Ca44  1  0.91199858  0.17176386  0.82641022  1
  Ca2+  Ca45  1  0.91383448  0.68322394  0.16073157  1
  Ca2+  Ca46  1  0.91732922  0.66619773  0.49805190  1
  Ca2+  Ca47  1  0.91945364  0.67300506  0.82854894  1
  Al0+  Al48  1  0.00129469  0.00259604  0.00314017  1
  Al0+  Al49  1  0.00077140  0.00068410  0.33203986  1
  Al0+  Al50  1  -0.00097156  -0.00190037  0.66606714  1
  Al0+  Al51  1  -0.00117683  0.49962407  -0.00118763  1
  Al0+  Al52  1  0.00351810  0.49964384  0.33326750  1
  Al0+  Al53  1  0.00157415  0.50048544  0.66429811  1
  Al0+  Al54  1  0.50090711  -0.00146849  -0.00012730  1
  Al0+  Al55  1  0.49910213  0.00049393  0.33688836  1
  Al0+  Al56  1  0.49726837  -0.00025075  0.65742389  1
  Al0+  Al57  1  0.50107534  0.49898958  0.00176155  1
  Al0+  Al58  1  0.50075599  0.50121048  0.33000663  1
  Al0+  Al59  1  0.49970432  0.50232711  0.66946375  1
  Al0+  Al60  1  0.24865311  0.25112782  0.00681336  1
  Al0+  Al61  1  0.24839833  0.25226912  0.33030706  1
  Al0+  Al62  1  0.24970208  0.25002813  0.66221718  1
  Al0+  Al63  1  0.25028258  0.74772840  0.00934090  1
  Al0+  Al64  1  0.24966506  0.74945432  0.33596812  1
  Al0+  Al65  1  0.24859066  0.74991372  0.65755479  1
  Al0+  Al66  1  0.74866939  0.25220718  -0.00334321  1
  Al0+  Al67  1  0.75029967  0.25018237  0.33008536  1
  Al0+  Al68  1  0.74941649  0.24928197  0.66547468  1
  Al0+  Al69  1  0.75257328  0.74801624  -0.00851897  1
  Al0+  Al70  1  0.75102567  0.75138821  0.33249947  1
  Al0+  Al71  1  0.74845966  0.75014995  0.67286213  1
  Al0+  Al72  1  0.67915607  0.92873782  0.34757341  1
  Al0+  Al73  1  0.42858113  0.32123317  0.31656277  1
  Al0+  Al74  1  0.82023795  0.07439860  0.01494511  1
  Al0+  Al75  1  0.82395954  0.57222857  0.68333748  1
  Al0+  Al76  1  0.32319591  0.07226360  0.01441974  1
  Al0+  Al77  1  0.93018208  0.82422281  0.98503509  1
  Al0+  Al78  1  0.42895148  0.32361638  0.65477754  1
  Al0+  Al79  1  0.57375898  0.67553558  0.98176384  1
  Al0+  Al80  1  0.57255973  0.17730627  0.31541566  1
  Al0+  Al81  1  0.56862476  0.17827707  0.98568925  1
  Al0+  Al82  1  0.92867210  0.32125950  0.98581786  1
  Al0+  Al83  1  0.68106717  0.92713194  0.01304706  1
  Al0+  Al84  1  0.17827863  0.92725371  0.01509261  1
  Al0+  Al85  1  0.06979071  0.68001196  0.65452196  1
  Al0+  Al86  1  0.81997918  0.06812308  0.67959047  1
  Al0+  Al87  1  0.67758970  0.42907885  0.68247532  1
  Al0+  Al88  1  0.07121832  0.17617824  0.65316527  1
  Al0+  Al89  1  0.42817857  0.81992022  0.65219849  1
  Al0+  Al90  1  0.93093604  0.81994824  0.32081239  1
  Al0+  Al91  1  0.92868218  0.32044010  0.65124279  1
  Al0+  Al92  1  0.42888403  0.81926157  0.98715342  1
  Al0+  Al93  1  0.57052719  0.68207975  0.32187819  1
  Al0+  Al94  1  0.57245237  0.17815081  0.65088561  1
  Al0+  Al95  1  0.32214701  0.56932608  0.01428242  1
  Si0+  Si96  1  0.68068490  0.42900697  0.34698686  1
  Si0+  Si97  1  0.07354574  0.67626095  0.31502925  1
  Si0+  Si98  1  0.42645352  0.32164472  0.98505281  1
  Si0+  Si99  1  0.07360736  0.17909115  0.98473694  1
  Si0+  Si100  1  0.17997724  0.92751272  0.67896798  1
  Si0+  Si101  1  0.67353425  0.92764890  0.68357917  1
  Si0+  Si102  1  0.42526750  0.82258919  0.31653744  1
  Si0+  Si103  1  0.07124163  0.67825746  0.98633116  1
  Si0+  Si104  1  0.31940335  0.57282835  0.68034036  1
  Si0+  Si105  1  0.07131798  0.17927155  0.31682136  1
  Si0+  Si106  1  0.17614698  0.42916935  0.01775273  1
  Si0+  Si107  1  0.31937578  0.07094218  0.67855708  1
  Si0+  Si108  1  0.31916450  0.07238120  0.35043719  1
  Si0+  Si109  1  0.32159785  0.56997113  0.35107911  1
  Si0+  Si110  1  0.17988353  0.42771829  0.68179499  1
  Si0+  Si111  1  0.92554135  0.82212290  0.65081214  1
  Si0+  Si112  1  0.17722378  0.92974039  0.35151960  1
  Si0+  Si113  1  0.67941658  0.42980111  0.01682237  1
  Si0+  Si114  1  0.57246691  0.67870673  0.65049997  1
  Si0+  Si115  1  0.82352524  0.07353493  0.35012993  1
  Si0+  Si116  1  0.82283886  0.57011724  0.01581343  1
  Si0+  Si117  1  0.92982874  0.32203094  0.31896131  1
  Si0+  Si118  1  0.82249828  0.57074530  0.34611841  1
  Si0+  Si119  1  0.17803214  0.42910032  0.35155506  1
  O2-  O120  1  0.25180573  -0.00128831  0.06454879  1
  O2-  O121  1  0.25030587  -0.00131305  0.39385003  1
  O2-  O122  1  0.24781285  0.00083818  0.72104377  1
  O2-  O123  1  0.24838575  0.49369222  0.06274745  1
  O2-  O124  1  0.25055118  0.49890148  0.39381937  1
  O2-  O125  1  0.25265048  0.49764533  0.72269776  1
  O2-  O126  1  0.75306181  -0.00158933  0.06552254  1
  O2-  O127  1  0.75208992  0.00667399  0.39270878  1
  O2-  O128  1  0.74336005  -0.00438530  0.72603559  1
  O2-  O129  1  0.74852313  0.50322812  0.05939053  1
  O2-  O130  1  0.75369157  0.49830648  0.38890210  1
  O2-  O131  1  0.75233910  0.49917238  0.73252389  1
  O2-  O132  1  -0.00310835  0.24764046  0.27612598  1
  O2-  O133  1  -0.00180188  0.24596127  0.60061562  1
  O2-  O134  1  0.00163488  0.24422834  0.94151583  1
  O2-  O135  1  0.00609666  0.74587652  0.27225003  1
  O2-  O136  1  -0.01042945  0.74833245  0.60712150  1
  O2-  O137  1  0.00814242  0.75099246  0.94112985  1
  O2-  O138  1  0.49794982  0.24756351  0.26636637  1
  O2-  O139  1  0.50322391  0.25494439  0.60390096  1
  O2-  O140  1  0.48896472  0.24879184  0.94033894  1
  O2-  O141  1  0.49725139  0.75726987  0.27415999  1
  O2-  O142  1  0.50689005  0.74978316  0.60550086  1
  O2-  O143  1  0.50174506  0.74931751  0.93490277  1
  O2-  O144  1  0.07471089  0.18278902  0.09097168  1
  O2-  O145  1  0.07335916  0.18004923  0.42174024  1
  O2-  O146  1  0.07523532  0.17868882  0.76608026  1
  O2-  O147  1  0.06675138  0.67501880  0.09211683  1
  O2-  O148  1  0.07320928  0.67478804  0.42069978  1
  O2-  O149  1  0.07567159  0.68484612  0.76716520  1
  O2-  O150  1  0.56948449  0.18061792  0.09876849  1
  O2-  O151  1  0.57349668  0.18046033  0.42874552  1
  O2-  O152  1  0.56877141  0.17511838  0.76423161  1
  O2-  O153  1  0.57199881  0.67566825  0.09600194  1
  O2-  O154  1  0.56881681  0.68081246  0.43514488  1
  O2-  O155  1  0.56946354  0.67682334  0.75540305  1
  O2-  O156  1  0.17282667  0.43122013  0.24685217  1
  O2-  O157  1  0.17962451  0.42879850  0.57628140  1
  O2-  O158  1  0.17500369  0.43040596  0.91228321  1
  O2-  O159  1  0.17498385  0.93103422  0.24709490  1
  O2-  O160  1  0.18165281  0.92740127  0.57331669  1
  O2-  O161  1  0.17923845  0.92770447  0.90088686  1
  O2-  O162  1  0.68312380  0.42905736  0.24172531  1
  O2-  O163  1  0.67786416  0.43301914  0.56774563  1
  O2-  O164  1  0.67948837  0.42931309  0.91225837  1
  O2-  O165  1  0.68169243  0.92482072  0.23519081  1
  O2-  O166  1  0.67553068  0.92639195  0.57742388  1
  O2-  O167  1  0.68060533  0.93017258  0.89956736  1
  O2-  O168  1  0.43065670  0.32293390  0.09064589  1
  O2-  O169  1  0.42993091  0.32115594  0.42993990  1
  O2-  O170  1  0.42586167  0.32077046  0.76816082  1
  O2-  O171  1  0.42971693  0.81675795  0.10086629  1
  O2-  O172  1  0.42273816  0.81853654  0.42250650  1
  O2-  O173  1  0.42310156  0.81853736  0.76447919  1
  O2-  O174  1  0.93148019  0.32329984  0.10007215  1
  O2-  O175  1  0.93110803  0.32459080  0.42341003  1
  O2-  O176  1  0.93260853  0.32068498  0.76442269  1
  O2-  O177  1  0.92945312  0.82054553  0.09858356  1
  O2-  O178  1  0.93219222  0.81677139  0.43403980  1
  O2-  O179  1  0.93032376  0.82457491  0.75591737  1
  O2-  O180  1  0.31745324  0.07139686  0.24563434  1
  O2-  O181  1  0.31712100  0.06921574  0.57310509  1
  O2-  O182  1  0.32001458  0.07401717  0.90044291  1
  O2-  O183  1  0.31967185  0.56970116  0.24626327  1
  O2-  O184  1  0.31707098  0.57336007  0.57486707  1
  O2-  O185  1  0.31857706  0.56868776  0.90077615  1
  O2-  O186  1  0.82681161  0.07401156  0.24506254  1
  O2-  O187  1  0.82144521  0.06373770  0.56594450  1
  O2-  O188  1  0.81854336  0.07475368  0.90139640  1
  O2-  O189  1  0.82305822  0.56912604  0.24089200  1
  O2-  O190  1  0.82166014  0.57205495  0.56843935  1
  O2-  O191  1  0.82768383  0.56673562  0.91149523  1
  O2-  O192  1  0.04741447  0.08643037  0.27053637  1
  O2-  O193  1  0.04478631  0.07735382  0.59878333  1
  O2-  O194  1  0.05473957  0.08410218  0.94090578  1
  O2-  O195  1  0.04910412  0.58239957  0.26898154  1
  O2-  O196  1  0.04568955  0.58277184  0.59830529  1
  O2-  O197  1  0.04198315  0.58668213  0.93829773  1
  O2-  O198  1  0.54261595  0.07753602  0.26667929  1
  O2-  O199  1  0.53894911  0.08298563  0.59412532  1
  O2-  O200  1  0.54182947  0.08133639  0.93206285  1
  O2-  O201  1  0.53977159  0.58631891  0.26671019  1
  O2-  O202  1  0.54340940  0.58671837  0.60310083  1
  O2-  O203  1  0.54098050  0.57735920  0.93120827  1
  O2-  O204  1  0.16037491  0.21153372  0.26736121  1
  O2-  O205  1  0.16710594  0.20842644  0.59632753  1
  O2-  O206  1  0.16633819  0.20871679  0.93872581  1
  O2-  O207  1  0.16820255  0.70182129  0.27145086  1
  O2-  O208  1  0.16158755  0.71511040  0.59297005  1
  O2-  O209  1  0.16758016  0.69757853  0.94492113  1
  O2-  O210  1  0.67068260  0.20827407  0.26287573  1
  O2-  O211  1  0.67048019  0.20368443  0.59695670  1
  O2-  O212  1  0.66260866  0.21587240  0.93216034  1
  O2-  O213  1  0.66774902  0.70901855  0.26787179  1
  O2-  O214  1  0.66772122  0.70155640  0.60603742  1
  O2-  O215  1  0.67280391  0.69750857  0.92927998  1
  O2-  O216  1  0.08436219  0.46009068  0.06607103  1
  O2-  O217  1  0.08732510  0.45925795  0.40143179  1
  O2-  O218  1  0.08930956  0.45765106  0.72932445  1
  O2-  O219  1  0.08252130  0.96067979  0.07139619  1
  O2-  O220  1  0.08647590  0.95993540  0.40039127  1
  O2-  O221  1  0.08672222  0.95012359  0.72486155  1
  O2-  O222  1  0.58774103  0.45509800  0.06573493  1
  O2-  O223  1  0.58913335  0.45920221  0.39296337  1
  O2-  O224  1  0.58019536  0.46030126  0.73694759  1
  O2-  O225  1  0.58254650  0.95397868  0.06623785  1
  O2-  O226  1  0.58071100  0.95463375  0.40186224  1
  O2-  O227  1  0.57846738  0.95466620  0.72536485  1
  O2-  O228  1  0.19630783  0.33529452  0.06574757  1
  O2-  O229  1  0.20374914  0.33611028  0.39778289  1
  O2-  O230  1  0.20648777  0.33568998  0.72922486  1
  O2-  O231  1  0.20182397  0.82934931  0.07166651  1
  O2-  O232  1  0.20295388  0.83575883  0.39739664  1
  O2-  O233  1  0.21162151  0.83652610  0.72490309  1
  O2-  O234  1  0.71178029  0.34026132  0.06581941  1
  O2-  O235  1  0.70813909  0.33691937  0.39416186  1
  O2-  O236  1  0.70358033  0.32947969  0.73256894  1
  O2-  O237  1  0.71070012  0.82662285  0.06237279  1
  O2-  O238  1  0.71442176  0.83342086  0.40356408  1
  O2-  O239  1  0.69466407  0.83339080  0.72934361  1
  O2-  O240  1  0.45881204  0.41949095  0.26491819  1
  O2-  O241  1  0.45197900  0.42441010  0.60330463  1
  O2-  O242  1  0.45565089  0.41379569  0.93916853  1
  O2-  O243  1  0.44545138  0.91875660  0.27613753  1
  O2-  O244  1  0.45422846  0.91568347  0.59438250  1
  O2-  O245  1  0.45394488  0.91785972  0.93361550  1
  O2-  O246  1  0.96217714  0.41264394  0.27059508  1
  O2-  O247  1  0.96093467  0.41761307  0.59762009  1
  O2-  O248  1  0.96283476  0.41661417  0.93196876  1
  O2-  O249  1  0.96220089  0.91667929  0.26771509  1
  O2-  O250  1  0.95735760  0.91178460  0.60074433  1
  O2-  O251  1  0.96069116  0.92168773  0.93321665  1
  O2-  O252  1  0.32741537  0.29890848  0.26586978  1
  O2-  O253  1  0.33189092  0.29413085  0.59907477  1
  O2-  O254  1  0.32862073  0.30478526  0.94488420  1
  O2-  O255  1  0.33170180  0.79457899  0.27180381  1
  O2-  O256  1  0.33508139  0.78496560  0.59297221  1
  O2-  O257  1  0.32892610  0.78821299  0.93771798  1
  O2-  O258  1  0.83754425  0.29852705  0.27080293  1
  O2-  O259  1  0.83050941  0.29437341  0.59768926  1
  O2-  O260  1  0.83213231  0.29456663  0.93203919  1
  O2-  O261  1  0.83635564  0.78665878  0.26559921  1
  O2-  O262  1  0.82955444  0.80075358  0.60796618  1
  O2-  O263  1  0.83746178  0.78983542  0.92782937  1
  O2-  O264  1  0.41979261  0.04169325  0.06911361  1
  O2-  O265  1  0.41120335  0.04746663  0.39871158  1
  O2-  O266  1  0.41156299  0.04180789  0.72339920  1
  O2-  O267  1  0.41805709  0.53748796  0.07022879  1
  O2-  O268  1  0.41391326  0.54260170  0.39777255  1
  O2-  O269  1  0.41194189  0.55155382  0.72812077  1
  O2-  O270  1  0.92155491  0.05386793  0.06498984  1
  O2-  O271  1  0.91707604  0.04596589  0.39652834  1
  O2-  O272  1  0.91716409  0.03719006  0.73357812  1
  O2-  O273  1  0.91253166  0.53839928  0.06641813  1
  O2-  O274  1  0.91615112  0.54468141  0.39199749  1
  O2-  O275  1  0.92398008  0.54545625  0.73383009  1
  O2-  O276  1  0.29306654  0.16961286  0.07077441  1
  O2-  O277  1  0.28655172  0.16411489  0.39537023  1
  O2-  O278  1  0.29252167  0.16281826  0.72565208  1
  O2-  O279  1  0.29068698  0.66243014  0.07455656  1
  O2-  O280  1  0.29310527  0.66227300  0.39858440  1
  O2-  O281  1  0.28392007  0.66288387  0.72607338  1
  O2-  O282  1  0.78917138  0.17273756  0.06739914  1
  O2-  O283  1  0.79994124  0.16891305  0.39457395  1
  O2-  O284  1  0.79434046  0.16684657  0.73031715  1
  O2-  O285  1  0.79747732  0.66333120  0.06102070  1
  O2-  O286  1  0.79409144  0.66144708  0.39426973  1
  O2-  O287  1  0.79717550  0.67107138  0.73619767  1
