# generated using pymatgen
data_Ca2Al2SiO7
_symmetry_space_group_name_H-M   'P 1'
_cell_length_a   15.45777977
_cell_length_b   15.45673310
_cell_length_c   15.28353070
_cell_angle_alpha   90.00434214
_cell_angle_beta   89.99749396
_cell_angle_gamma   89.99017133
_symmetry_Int_Tables_number   1
_chemical_formula_structural   Ca2Al2SiO7
_chemical_formula_sum   'Ca48 Al48 Si24 O168'
_cell_volume   3651.64465118
_cell_formula_units_Z   24
loop_
 _symmetry_equiv_pos_site_id
 _symmetry_equiv_pos_as_xyz
  1  'x, y, z'
loop_
 _atom_type_symbol
 _atom_type_oxidation_number
  Ca2+  2.0
  Al0+  0.0
  Si0+  0.0
  O2-  -2.0
loop_
 _atom_site_type_symbol
 _atom_site_label
 _atom_site_symmetry_multiplicity
 _atom_site_fract_x
 _atom_site_fract_y
 _atom_site_fract_z
 _atom_site_occupancy
  Ca2+  Ca0  1  0.17358515  0.09111454  0.17088356  1
  Ca2+  Ca1  1  0.16631095  0.08187336  0.50140312  1
  Ca2+  Ca2  1  0.16750319  0.08629460  0.83504072  1
  Ca2+  Ca3  1  0.17377259  0.57325051  0.17732629  1
  Ca2+  Ca4  1  0.17811159  0.57365988  0.50707295  1
  Ca2+  Ca5  1  0.17291098  0.57822029  0.83350679  1
  Ca2+  Ca6  1  0.66149944  0.07093861  0.17041500  1
  Ca2+  Ca7  1  0.66610335  0.07585611  0.50078745  1
  Ca2+  Ca8  1  0.66488184  0.07777441  0.84529337  1
  Ca2+  Ca9  1  0.66903365  0.59365229  0.16808109  1
  Ca2+  Ca10  1  0.66456746  0.58640640  0.49884636  1
  Ca2+  Ca11  1  0.67160424  0.58167465  0.84341630  1
  Ca2+  Ca12  1  0.08694493  0.32464193  0.16241304  1
  Ca2+  Ca13  1  0.09526467  0.32622415  0.49766923  1
  Ca2+  Ca14  1  0.07898650  0.32577979  0.82711800  1
  Ca2+  Ca15  1  0.06947889  0.83637993  0.16321993  1
  Ca2+  Ca16  1  0.08131711  0.83591950  0.49475343  1
  Ca2+  Ca17  1  0.07887323  0.83878222  0.82825344  1
  Ca2+  Ca18  1  0.57475133  0.32597350  0.16254254  1
  Ca2+  Ca19  1  0.56860357  0.33470266  0.49534793  1
  Ca2+  Ca20  1  0.57957531  0.32530847  0.82870747  1
  Ca2+  Ca21  1  0.58382738  0.82884132  0.16540672  1
  Ca2+  Ca22  1  0.57066785  0.82863833  0.49058307  1
  Ca2+  Ca23  1  0.57848248  0.83066641  0.83327268  1
  Ca2+  Ca24  1  0.32902461  0.41900691  0.18061042  1
  Ca2+  Ca25  1  0.33025727  0.42117914  0.50374238  1
  Ca2+  Ca26  1  0.33135721  0.41278249  0.82979973  1
  Ca2+  Ca27  1  0.33859071  0.93037286  0.17360091  1
  Ca2+  Ca28  1  0.33395824  0.91929846  0.50643027  1
  Ca2+  Ca29  1  0.32759334  0.91942739  0.83738375  1
  Ca2+  Ca30  1  0.83663349  0.42048647  0.16658164  1
  Ca2+  Ca31  1  0.83169462  0.41446222  0.50635738  1
  Ca2+  Ca32  1  0.84076498  0.41940336  0.84130649  1
  Ca2+  Ca33  1  0.82370412  0.90731813  0.17120665  1
  Ca2+  Ca34  1  0.82901806  0.91280506  0.49829575  1
  Ca2+  Ca35  1  0.82643608  0.91768477  0.84435179  1
  Ca2+  Ca36  1  0.41175090  0.16873540  0.16304147  1
  Ca2+  Ca37  1  0.40389177  0.17847803  0.49561952  1
  Ca2+  Ca38  1  0.41924316  0.16541974  0.83356708  1
  Ca2+  Ca39  1  0.42534403  0.66753972  0.16599623  1
  Ca2+  Ca40  1  0.41251381  0.67354412  0.49175474  1
  Ca2+  Ca41  1  0.42046058  0.66920254  0.82464541  1
  Ca2+  Ca42  1  0.93119007  0.17098987  0.15782103  1
  Ca2+  Ca43  1  0.93072520  0.17131514  0.49679958  1
  Ca2+  Ca44  1  0.92578002  0.17566020  0.82665807  1
  Ca2+  Ca45  1  0.91143233  0.67567570  0.16119861  1
  Ca2+  Ca46  1  0.92237139  0.67211661  0.49275108  1
  Ca2+  Ca47  1  0.91316191  0.67021907  0.83648857  1
  Al0+  Al48  1  -0.00075407  -0.00023108  -0.00812753  1
  Al0+  Al49  1  -0.00085070  0.00230285  0.32399798  1
  Al0+  Al50  1  -0.00151522  0.00161608  0.66647408  1
  Al0+  Al51  1  0.00072123  0.50204432  0.00356505  1
  Al0+  Al52  1  -0.00091039  0.49881258  0.33888196  1
  Al0+  Al53  1  -0.00044993  0.50183929  0.66756163  1
  Al0+  Al54  1  0.49813797  0.00045325  0.00401049  1
  Al0+  Al55  1  0.50079175  -0.00004782  0.34250875  1
  Al0+  Al56  1  0.50100763  -0.00297797  0.66440982  1
  Al0+  Al57  1  0.50072596  0.50085123  -0.00409378  1
  Al0+  Al58  1  0.50149575  0.49988386  0.32835774  1
  Al0+  Al59  1  0.50388721  0.49881837  0.66811622  1
  Al0+  Al60  1  0.24941960  0.25038681  -0.00128185  1
  Al0+  Al61  1  0.24984480  0.24887860  0.33195752  1
  Al0+  Al62  1  0.25146768  0.24947776  0.66516910  1
  Al0+  Al63  1  0.24846923  0.75025260  0.00369971  1
  Al0+  Al64  1  0.24916146  0.75109572  0.32918044  1
  Al0+  Al65  1  0.24936248  0.75124687  0.67196805  1
  Al0+  Al66  1  0.74853028  0.25016841  -0.00511509  1
  Al0+  Al67  1  0.75118744  0.25008948  0.33528022  1
  Al0+  Al68  1  0.75163537  0.24861352  0.66319854  1
  Al0+  Al69  1  0.74911874  0.74878630  -0.00159233  1
  Al0+  Al70  1  0.74972723  0.75034166  0.33462998  1
  Al0+  Al71  1  0.74924503  0.74979907  0.66750149  1
  Al0+  Al72  1  0.32082366  0.06949109  0.34837575  1
  Al0+  Al73  1  0.07122163  0.17905233  0.64907064  1
  Al0+  Al74  1  0.93066668  0.81950348  0.32064071  1
  Al0+  Al75  1  0.17908899  0.42752820  0.68415097  1
  Al0+  Al76  1  0.07023243  0.18138734  0.31775710  1
  Al0+  Al77  1  0.56916827  0.17752389  0.98918115  1
  Al0+  Al78  1  0.31783588  0.07000262  0.01300409  1
  Al0+  Al79  1  0.57007700  0.67965362  0.31837438  1
  Al0+  Al80  1  0.42579941  0.82458258  0.31766294  1
  Al0+  Al81  1  0.17892655  0.42820766  0.34874094  1
  Al0+  Al82  1  0.67981860  0.92974683  0.01408867  1
  Al0+  Al83  1  0.92899629  0.32404055  0.65006045  1
  Al0+  Al84  1  0.07325914  0.17915844  0.98228851  1
  Al0+  Al85  1  0.81979407  0.56871552  0.01464993  1
  Al0+  Al86  1  0.32351693  0.57126579  0.68278924  1
  Al0+  Al87  1  0.92903349  0.81913384  0.98474992  1
  Al0+  Al88  1  0.42977093  0.31874037  0.31991667  1
  Al0+  Al89  1  0.92952954  0.32319170  0.98689400  1
  Al0+  Al90  1  0.56949310  0.67996482  0.98435424  1
  Al0+  Al91  1  0.42774522  0.81935111  0.65450285  1
  Al0+  Al92  1  0.43177934  0.31997047  0.65314400  1
  Al0+  Al93  1  0.68041580  0.92816813  0.34976091  1
  Al0+  Al94  1  0.32363570  0.57274363  0.34675254  1
  Al0+  Al95  1  0.17750719  0.93007101  0.67912784  1
  Si0+  Si96  1  0.17458095  0.92647710  0.01782400  1
  Si0+  Si97  1  0.67965269  0.42660058  0.34812764  1
  Si0+  Si98  1  0.92724531  0.82092393  0.65190932  1
  Si0+  Si99  1  0.67546731  0.42566160  0.01712879  1
  Si0+  Si100  1  0.81985070  0.57111877  0.34975569  1
  Si0+  Si101  1  0.17478387  0.92917662  0.34605193  1
  Si0+  Si102  1  0.07093462  0.68021937  0.65281579  1
  Si0+  Si103  1  0.57330911  0.67836469  0.65055716  1
  Si0+  Si104  1  0.07388385  0.67825760  0.98312222  1
  Si0+  Si105  1  0.32377788  0.07123170  0.68364063  1
  Si0+  Si106  1  0.68088496  0.42717283  0.68168213  1
  Si0+  Si107  1  0.42636125  0.82238816  0.98417569  1
  Si0+  Si108  1  0.32380559  0.57302870  0.01554739  1
  Si0+  Si109  1  0.57347334  0.17526781  0.64899604  1
  Si0+  Si110  1  0.42781093  0.32293888  0.98300082  1
  Si0+  Si111  1  0.82063492  0.57247093  0.68187612  1
  Si0+  Si112  1  0.82276202  0.07381682  0.01555605  1
  Si0+  Si113  1  0.81968511  0.07056095  0.68217923  1
  Si0+  Si114  1  0.67942510  0.92853494  0.68346338  1
  Si0+  Si115  1  0.57514222  0.17773488  0.31894086  1
  Si0+  Si116  1  0.07183628  0.67487295  0.31758022  1
  Si0+  Si117  1  0.18125153  0.43114934  0.01472784  1
  Si0+  Si118  1  0.82361400  0.07273960  0.34965785  1
  Si0+  Si119  1  0.92481026  0.32384886  0.31641383  1
  O2-  O120  1  0.24227687  -0.00374066  0.06080621  1
  O2-  O121  1  0.24873357  -0.00940012  0.39229737  1
  O2-  O122  1  0.25324849  0.00360222  0.72639369  1
  O2-  O123  1  0.25413508  0.50048500  0.05675414  1
  O2-  O124  1  0.25002587  0.50238150  0.39663852  1
  O2-  O125  1  0.25310411  0.49810324  0.73450758  1
  O2-  O126  1  0.75484537  0.00490976  0.06083860  1
  O2-  O127  1  0.75456218  0.00472735  0.39553124  1
  O2-  O128  1  0.74769462  0.00132896  0.72620047  1
  O2-  O129  1  0.74585474  0.49289971  0.06154691  1
  O2-  O130  1  0.75077905  0.49792468  0.39109318  1
  O2-  O131  1  0.75400392  0.49673196  0.72289127  1
  O2-  O132  1  -0.00429147  0.25771420  0.27345439  1
  O2-  O133  1  0.00441084  0.25662865  0.59929622  1
  O2-  O134  1  -0.00189639  0.24948574  0.93525433  1
  O2-  O135  1  0.00530011  0.74541654  0.27295001  1
  O2-  O136  1  0.00031985  0.75226419  0.61025654  1
  O2-  O137  1  0.00775959  0.74902421  0.93740503  1
  O2-  O138  1  0.50387344  0.24299541  0.27416630  1
  O2-  O139  1  0.50383709  0.24274209  0.60543150  1
  O2-  O140  1  0.49775299  0.25433985  0.94070384  1
  O2-  O141  1  0.49682345  0.75070752  0.26870309  1
  O2-  O142  1  0.49963703  0.74171245  0.60806603  1
  O2-  O143  1  0.49114883  0.75071658  0.93824954  1
  O2-  O144  1  0.07478262  0.18249521  0.09596239  1
  O2-  O145  1  0.06880536  0.17885963  0.43051756  1
  O2-  O146  1  0.06717325  0.17755866  0.76229383  1
  O2-  O147  1  0.07322065  0.67813718  0.08865773  1
  O2-  O148  1  0.06848401  0.67499927  0.42352780  1
  O2-  O149  1  0.06847172  0.68019679  0.75797843  1
  O2-  O150  1  0.56715380  0.17802252  0.10207761  1
  O2-  O151  1  0.57903208  0.18258960  0.42456139  1
  O2-  O152  1  0.57426383  0.17515480  0.75487601  1
  O2-  O153  1  0.56920381  0.68080441  0.09687402  1
  O2-  O154  1  0.57252064  0.68123622  0.43229753  1
  O2-  O155  1  0.57755299  0.68141606  0.75607409  1
  O2-  O156  1  0.17947846  0.42977534  0.23426537  1
  O2-  O157  1  0.18032398  0.43055890  0.57104294  1
  O2-  O158  1  0.18141798  0.43207738  0.90981243  1
  O2-  O159  1  0.17150146  0.93319674  0.24065862  1
  O2-  O160  1  0.17614445  0.92977121  0.56600721  1
  O2-  O161  1  0.17704953  0.92371755  0.91209244  1
  O2-  O162  1  0.68178980  0.42275968  0.24346510  1
  O2-  O163  1  0.67993120  0.42903684  0.57635399  1
  O2-  O164  1  0.67417081  0.42773255  0.91124274  1
  O2-  O165  1  0.68233608  0.92781748  0.23669890  1
  O2-  O166  1  0.68201097  0.92715503  0.57861574  1
  O2-  O167  1  0.68036895  0.93134595  0.90019673  1
  O2-  O168  1  0.42740472  0.32377421  0.08858385  1
  O2-  O169  1  0.43144297  0.31951744  0.43302318  1
  O2-  O170  1  0.43569231  0.31843297  0.76647017  1
  O2-  O171  1  0.42760554  0.82214172  0.08932435  1
  O2-  O172  1  0.42757973  0.82348252  0.43168323  1
  O2-  O173  1  0.43209599  0.82132157  0.76790487  1
  O2-  O174  1  0.93264282  0.32331846  0.10066698  1
  O2-  O175  1  0.92064510  0.32204349  0.42165168  1
  O2-  O176  1  0.92648132  0.32106689  0.76331488  1
  O2-  O177  1  0.92818370  0.81648792  0.09774688  1
  O2-  O178  1  0.93167175  0.81752880  0.43453823  1
  O2-  O179  1  0.92426525  0.81857669  0.75678843  1
  O2-  O180  1  0.31921482  0.07151836  0.23507257  1
  O2-  O181  1  0.32490156  0.06982434  0.57821678  1
  O2-  O182  1  0.31963004  0.06774206  0.89970962  1
  O2-  O183  1  0.32231444  0.56851194  0.23242618  1
  O2-  O184  1  0.32180918  0.57252612  0.56966038  1
  O2-  O185  1  0.32279074  0.57432497  0.91060381  1
  O2-  O186  1  0.82222109  0.07384885  0.24436690  1
  O2-  O187  1  0.81876344  0.06813793  0.57703407  1
  O2-  O188  1  0.81990175  0.07135934  0.90947443  1
  O2-  O189  1  0.81996770  0.57184329  0.24485129  1
  O2-  O190  1  0.81775488  0.57729377  0.57674586  1
  O2-  O191  1  0.81800456  0.56890744  0.90107516  1
  O2-  O192  1  0.03797698  0.08723058  0.26003443  1
  O2-  O193  1  0.03525157  0.08215871  0.59615913  1
  O2-  O194  1  0.04858614  0.07980390  0.93034838  1
  O2-  O195  1  0.04263212  0.58182015  0.27207529  1
  O2-  O196  1  0.04079214  0.59018312  0.60374440  1
  O2-  O197  1  0.04441425  0.58621509  0.93677228  1
  O2-  O198  1  0.55209673  0.08199434  0.27847852  1
  O2-  O199  1  0.55027813  0.08084594  0.60392146  1
  O2-  O200  1  0.53588740  0.08237659  0.93279282  1
  O2-  O201  1  0.54828575  0.58058055  0.26370149  1
  O2-  O202  1  0.55596821  0.58211666  0.60772667  1
  O2-  O203  1  0.54360454  0.58188653  0.92963602  1
  O2-  O204  1  0.16559156  0.21338538  0.26301182  1
  O2-  O205  1  0.17216090  0.20125346  0.59952310  1
  O2-  O206  1  0.17016010  0.21127559  0.92857612  1
  O2-  O207  1  0.16547345  0.69627920  0.27068544  1
  O2-  O208  1  0.16225975  0.70840328  0.60602949  1
  O2-  O209  1  0.16859796  0.70112476  0.93742094  1
  O2-  O210  1  0.66764324  0.20544894  0.27128863  1
  O2-  O211  1  0.66662623  0.20102038  0.60262139  1
  O2-  O212  1  0.66543981  0.20451993  0.93176062  1
  O2-  O213  1  0.66849201  0.71094403  0.26669367  1
  O2-  O214  1  0.66497333  0.70963684  0.60250781  1
  O2-  O215  1  0.66468896  0.71279131  0.92943035  1
  O2-  O216  1  0.09099777  0.46097810  0.06368258  1
  O2-  O217  1  0.07920405  0.45256217  0.40192882  1
  O2-  O218  1  0.08023926  0.45982543  0.73529387  1
  O2-  O219  1  0.07891335  0.95083636  0.05999913  1
  O2-  O220  1  0.08259296  0.96046183  0.39301740  1
  O2-  O221  1  0.08002055  0.95993983  0.73352564  1
  O2-  O222  1  0.58183380  0.45319364  0.06249450  1
  O2-  O223  1  0.58862567  0.45673207  0.39540368  1
  O2-  O224  1  0.59131982  0.45574743  0.73254852  1
  O2-  O225  1  0.58379161  0.96071871  0.06819591  1
  O2-  O226  1  0.58586616  0.95864055  0.40773283  1
  O2-  O227  1  0.58672714  0.95430541  0.73005808  1
  O2-  O228  1  0.20860226  0.33900147  0.06130874  1
  O2-  O229  1  0.21153081  0.33131525  0.40021695  1
  O2-  O230  1  0.20847287  0.32843538  0.73582517  1
  O2-  O231  1  0.19781783  0.83251878  0.06511824  1
  O2-  O232  1  0.19121815  0.83198494  0.38826142  1
  O2-  O233  1  0.20520056  0.83443320  0.73683039  1
  O2-  O234  1  0.69817472  0.33082376  0.06206523  1
  O2-  O235  1  0.70726886  0.33619305  0.39939614  1
  O2-  O236  1  0.70577622  0.33346907  0.72738533  1
  O2-  O237  1  0.71307485  0.83359902  0.06619094  1
  O2-  O238  1  0.71615948  0.83356358  0.40556125  1
  O2-  O239  1  0.71005342  0.83715306  0.73085373  1
  O2-  O240  1  0.46235293  0.41363603  0.26420737  1
  O2-  O241  1  0.46705420  0.41579976  0.59988266  1
  O2-  O242  1  0.45288551  0.41588429  0.93559725  1
  O2-  O243  1  0.45945702  0.92354763  0.26887003  1
  O2-  O244  1  0.46172210  0.91443488  0.59909821  1
  O2-  O245  1  0.45594160  0.91442488  0.93789071  1
  O2-  O246  1  0.94741400  0.41971516  0.27389812  1
  O2-  O247  1  0.94799827  0.42638798  0.60109797  1
  O2-  O248  1  0.95973428  0.42201587  0.93536662  1
  O2-  O249  1  0.95748103  0.91528074  0.26392528  1
  O2-  O250  1  0.95214561  0.91333217  0.60549351  1
  O2-  O251  1  0.95416506  0.91622125  0.92891934  1
  O2-  O252  1  0.33465572  0.28749092  0.26449849  1
  O2-  O253  1  0.33492003  0.29175644  0.59961475  1
  O2-  O254  1  0.33557064  0.29508965  0.93645987  1
  O2-  O255  1  0.32609402  0.80268766  0.26404285  1
  O2-  O256  1  0.32928590  0.79343356  0.60256893  1
  O2-  O257  1  0.33041042  0.79968055  0.94097956  1
  O2-  O258  1  0.83183204  0.29727420  0.26928749  1
  O2-  O259  1  0.83118343  0.29154418  0.59646078  1
  O2-  O260  1  0.82897971  0.30130272  0.93498027  1
  O2-  O261  1  0.83531807  0.78486172  0.26786444  1
  O2-  O262  1  0.83643810  0.78932399  0.60383821  1
  O2-  O263  1  0.83481136  0.78339645  0.92936457  1
  O2-  O264  1  0.41328968  0.03929987  0.06914795  1
  O2-  O265  1  0.41777574  0.04632924  0.40521247  1
  O2-  O266  1  0.41783516  0.04316274  0.72897190  1
  O2-  O267  1  0.41677499  0.54600735  0.06058476  1
  O2-  O268  1  0.42287928  0.54388497  0.39745709  1
  O2-  O269  1  0.42382699  0.54414293  0.73398887  1
  O2-  O270  1  0.91780912  0.04813541  0.05826061  1
  O2-  O271  1  0.91653030  0.04333830  0.39515206  1
  O2-  O272  1  0.91006695  0.04087138  0.73054301  1
  O2-  O273  1  0.91721268  0.54254591  0.07046089  1
  O2-  O274  1  0.91164375  0.54620067  0.39916440  1
  O2-  O275  1  0.91346555  0.55105888  0.72958388  1
  O2-  O276  1  0.28919162  0.16818303  0.06611935  1
  O2-  O277  1  0.28476374  0.16437711  0.40159070  1
  O2-  O278  1  0.30051275  0.16514675  0.72933106  1
  O2-  O279  1  0.29553239  0.66433364  0.06385078  1
  O2-  O280  1  0.29571457  0.67307392  0.39665313  1
  O2-  O281  1  0.29189028  0.66826702  0.73749889  1
  O2-  O282  1  0.79831310  0.16825665  0.05995714  1
  O2-  O283  1  0.79845275  0.16605640  0.39770117  1
  O2-  O284  1  0.79350092  0.16329074  0.72882973  1
  O2-  O285  1  0.78565843  0.66450336  0.06789031  1
  O2-  O286  1  0.78981765  0.66104320  0.39971071  1
  O2-  O287  1  0.78808234  0.66264174  0.73138059  1
