# generated using pymatgen
data_Ca2Al2SiO7
_symmetry_space_group_name_H-M   'P 1'
_cell_length_a   15.47310687
_cell_length_b   15.47101483
_cell_length_c   15.29613357
_cell_angle_alpha   89.99268046
_cell_angle_beta   90.00756998
_cell_angle_gamma   90.01688902
_symmetry_Int_Tables_number   1
_chemical_formula_structural   Ca2Al2SiO7
_chemical_formula_sum   'Ca48 Al48 Si24 O168'
_cell_volume   3661.65960451
_cell_formula_units_Z   24
loop_
 _symmetry_equiv_pos_site_id
 _symmetry_equiv_pos_as_xyz
  1  'x, y, z'
loop_
 _atom_type_symbol
 _atom_type_oxidation_number
  Ca2+  2.0
  Al0+  0.0
  Si0+  0.0
  O2-  -2.0
loop_
 _atom_site_type_symbol
 _atom_site_label
 _atom_site_symmetry_multiplicity
 _atom_site_fract_x
 _atom_site_fract_y
 _atom_site_fract_z
 _atom_site_occupancy
  Ca2+  Ca0  1  0.15510500  0.07591625  0.17104847  1
  Ca2+  Ca1  1  0.16222854  0.07341593  0.50182544  1
  Ca2+  Ca2  1  0.16464465  0.08507520  0.83987739  1
  Ca2+  Ca3  1  0.17427352  0.59204034  0.17410392  1
  Ca2+  Ca4  1  0.16005873  0.57844755  0.50319482  1
  Ca2+  Ca5  1  0.16493715  0.58470618  0.83863866  1
  Ca2+  Ca6  1  0.67991919  0.07505098  0.16674893  1
  Ca2+  Ca7  1  0.67994150  0.08019879  0.50394419  1
  Ca2+  Ca8  1  0.67889036  0.07459158  0.84096894  1
  Ca2+  Ca9  1  0.67866705  0.58035726  0.16684901  1
  Ca2+  Ca10  1  0.67238530  0.57779774  0.50319631  1
  Ca2+  Ca11  1  0.66865053  0.57744514  0.84339349  1
  Ca2+  Ca12  1  0.07766313  0.32868488  0.15769892  1
  Ca2+  Ca13  1  0.07929212  0.33843893  0.49842995  1
  Ca2+  Ca14  1  0.06558877  0.33597306  0.82984165  1
  Ca2+  Ca15  1  0.07481997  0.82528395  0.16558039  1
  Ca2+  Ca16  1  0.08204285  0.82237653  0.49101274  1
  Ca2+  Ca17  1  0.07634692  0.82151615  0.83590337  1
  Ca2+  Ca18  1  0.58793137  0.34256742  0.16320721  1
  Ca2+  Ca19  1  0.58918115  0.33849697  0.49447986  1
  Ca2+  Ca20  1  0.58567536  0.34048021  0.82683882  1
  Ca2+  Ca21  1  0.58068868  0.82828020  0.15666375  1
  Ca2+  Ca22  1  0.58146282  0.82671070  0.49860263  1
  Ca2+  Ca23  1  0.59513297  0.81805089  0.83589502  1
  Ca2+  Ca24  1  0.32357037  0.42808184  0.17142097  1
  Ca2+  Ca25  1  0.31813036  0.42147608  0.49851439  1
  Ca2+  Ca26  1  0.32283104  0.42257240  0.83756081  1
  Ca2+  Ca27  1  0.32377687  0.91821945  0.17281088  1
  Ca2+  Ca28  1  0.32598167  0.91304696  0.49914573  1
  Ca2+  Ca29  1  0.33090955  0.91591290  0.83795007  1
  Ca2+  Ca30  1  0.83438795  0.42913421  0.16788168  1
  Ca2+  Ca31  1  0.82847732  0.42135409  0.50376482  1
  Ca2+  Ca32  1  0.82615331  0.41747858  0.84036325  1
  Ca2+  Ca33  1  0.84937669  0.92484810  0.16886439  1
  Ca2+  Ca34  1  0.84974238  0.92905318  0.50035498  1
  Ca2+  Ca35  1  0.83685444  0.92480119  0.84390669  1
  Ca2+  Ca36  1  0.42152503  0.17080317  0.16029468  1
  Ca2+  Ca37  1  0.42202275  0.17099238  0.49352114  1
  Ca2+  Ca38  1  0.42153417  0.17019007  0.82870984  1
  Ca2+  Ca39  1  0.42089711  0.65642161  0.16007344  1
  Ca2+  Ca40  1  0.42387345  0.65487801  0.49769560  1
  Ca2+  Ca41  1  0.42920300  0.65735006  0.83353835  1
  Ca2+  Ca42  1  0.91499775  0.17197901  0.15751139  1
  Ca2+  Ca43  1  0.90625354  0.17278959  0.49848469  1
  Ca2+  Ca44  1  0.90615413  0.17605163  0.83429867  1
  Ca2+  Ca45  1  0.92088049  0.66909873  0.15747393  1
  Ca2+  Ca46  1  0.92651407  0.66883713  0.48865825  1
  Ca2+  Ca47  1  0.92245737  0.66230011  0.83109625  1
  Al0+  Al48  1  0.00278348  -0.00127385  -0.00357608  1
  Al0+  Al49  1  0.00204860  0.00026866  0.34115730  1
  Al0+  Al50  1  0.00291934  0.00149456  0.67503232  1
  Al0+  Al51  1  -0.00069743  0.49627077  -0.00459405  1
  Al0+  Al52  1  0.00026065  0.49892265  0.33431490  1
  Al0+  Al53  1  -0.00110424  0.49811266  0.66217568  1
  Al0+  Al54  1  0.49892718  0.00114415  0.00222318  1
  Al0+  Al55  1  0.50327720  0.00122161  0.33202694  1
  Al0+  Al56  1  0.50020510  0.00039362  0.66542756  1
  Al0+  Al57  1  0.49609332  0.49952399  0.00208541  1
  Al0+  Al58  1  0.49752479  0.49801547  0.33828902  1
  Al0+  Al59  1  0.49796211  0.49975146  0.66281654  1
  Al0+  Al60  1  0.25274500  0.25025347  -0.00387799  1
  Al0+  Al61  1  0.25316125  0.25163460  0.33431385  1
  Al0+  Al62  1  0.25022960  0.25062018  0.66929731  1
  Al0+  Al63  1  0.25062721  0.75186004  0.00026534  1
  Al0+  Al64  1  0.25333546  0.75246548  0.33930525  1
  Al0+  Al65  1  0.25065872  0.75151871  0.66460633  1
  Al0+  Al66  1  0.74720413  0.24553793  0.00321374  1
  Al0+  Al67  1  0.74993873  0.24684773  0.33730722  1
  Al0+  Al68  1  0.74938906  0.24917077  0.66919806  1
  Al0+  Al69  1  0.74769572  0.74929080  -0.00176599  1
  Al0+  Al70  1  0.74809299  0.75246200  0.33284353  1
  Al0+  Al71  1  0.74957745  0.75189901  0.65796920  1
  Al0+  Al72  1  0.92891013  0.82275601  0.31968641  1
  Al0+  Al73  1  0.67704567  0.42788325  0.01301361  1
  Al0+  Al74  1  0.92528301  0.31953142  0.98585631  1
  Al0+  Al75  1  0.67869440  0.43178334  0.67954413  1
  Al0+  Al76  1  0.17678502  0.42934932  0.68293150  1
  Al0+  Al77  1  0.18092568  0.93129579  0.34771558  1
  Al0+  Al78  1  0.82256366  0.57541925  0.34794856  1
  Al0+  Al79  1  0.82112370  0.06943548  0.68271419  1
  Al0+  Al80  1  0.67780008  0.92648029  0.01428881  1
  Al0+  Al81  1  0.57081020  0.67796852  0.65095787  1
  Al0+  Al82  1  0.68151757  0.43031796  0.34766415  1
  Al0+  Al83  1  0.06995541  0.67956573  0.65233950  1
  Al0+  Al84  1  0.92725052  0.31782916  0.65055797  1
  Al0+  Al85  1  0.17705577  0.42728128  0.34639376  1
  Al0+  Al86  1  0.31716743  0.57126287  0.01180945  1
  Al0+  Al87  1  0.07207138  0.67707857  0.31852115  1
  Al0+  Al88  1  0.07270649  0.17862565  0.98583083  1
  Al0+  Al89  1  0.82101320  0.06773004  0.34789740  1
  Al0+  Al90  1  0.56940907  0.67783498  0.98931052  1
  Al0+  Al91  1  0.82394155  0.57083161  0.01166766  1
  Al0+  Al92  1  0.32029561  0.57245316  0.34970088  1
  Al0+  Al93  1  0.07257997  0.67762760  0.98631510  1
  Al0+  Al94  1  0.82308091  0.06726302  0.01676488  1
  Al0+  Al95  1  0.92719593  0.82011427  0.98530644  1
  Si0+  Si96  1  0.32246640  0.07116486  0.68156396  1
  Si0+  Si97  1  0.42802496  0.82399557  0.64893720  1
  Si0+  Si98  1  0.92733838  0.31904214  0.31962944  1
  Si0+  Si99  1  0.56816318  0.67741059  0.31773120  1
  Si0+  Si100  1  0.42988275  0.32029297  0.31601753  1
  Si0+  Si101  1  0.43048192  0.32086612  0.98291079  1
  Si0+  Si102  1  0.57265062  0.17929901  0.31607789  1
  Si0+  Si103  1  0.32580612  0.07285503  0.34934188  1
  Si0+  Si104  1  0.67552868  0.92752738  0.68282673  1
  Si0+  Si105  1  0.42792339  0.82443137  0.98429401  1
  Si0+  Si106  1  0.56948837  0.17937947  0.65072869  1
  Si0+  Si107  1  0.18099308  0.93011047  0.01518496  1
  Si0+  Si108  1  0.18122811  0.92842492  0.68532739  1
  Si0+  Si109  1  0.32012955  0.57273390  0.68387206  1
  Si0+  Si110  1  0.17786363  0.42633647  0.01424945  1
  Si0+  Si111  1  0.42720776  0.32045806  0.64903242  1
  Si0+  Si112  1  0.67362298  0.92809381  0.35195020  1
  Si0+  Si113  1  0.07439798  0.17793877  0.64921733  1
  Si0+  Si114  1  0.92922943  0.82512143  0.65089613  1
  Si0+  Si115  1  0.82118357  0.57430329  0.68071444  1
  Si0+  Si116  1  0.56891483  0.17649346  0.98392222  1
  Si0+  Si117  1  0.43066965  0.82436651  0.31805714  1
  Si0+  Si118  1  0.32174949  0.07353698  0.01492003  1
  Si0+  Si119  1  0.07286244  0.17999464  0.32295920  1
  O2-  O120  1  0.24833730  0.00588523  0.05668332  1
  O2-  O121  1  0.25647261  0.00628575  0.39488852  1
  O2-  O122  1  0.25217538  0.00106490  0.72576179  1
  O2-  O123  1  0.23711279  0.50281358  0.05875136  1
  O2-  O124  1  0.24124799  0.50675795  0.39701222  1
  O2-  O125  1  0.24797580  0.50830977  0.72851293  1
  O2-  O126  1  0.75582983  -0.00971312  0.06652341  1
  O2-  O127  1  0.74979739  -0.01078785  0.39453150  1
  O2-  O128  1  0.74980366  -0.00993500  0.72597665  1
  O2-  O129  1  0.75214314  0.49729670  0.06081405  1
  O2-  O130  1  0.75164676  0.50242882  0.39907203  1
  O2-  O131  1  0.74974889  0.50898246  0.72582668  1
  O2-  O132  1  0.00502008  0.25315313  0.28058748  1
  O2-  O133  1  0.00393894  0.24361790  0.60397961  1
  O2-  O134  1  -0.00141685  0.24775140  0.93575557  1
  O2-  O135  1  -0.00602653  0.74394596  0.27026613  1
  O2-  O136  1  -0.00664381  0.75275821  0.60666794  1
  O2-  O137  1  -0.00602415  0.74258955  0.93573789  1
  O2-  O138  1  0.50298829  0.25150478  0.27343381  1
  O2-  O139  1  0.50109645  0.25213407  0.60667884  1
  O2-  O140  1  0.50421995  0.25285645  0.94035990  1
  O2-  O141  1  0.49859651  0.75093155  0.27626885  1
  O2-  O142  1  0.49531079  0.75380024  0.60545695  1
  O2-  O143  1  0.49770586  0.75644947  0.94181709  1
  O2-  O144  1  0.07504283  0.18088800  0.10019150  1
  O2-  O145  1  0.07320215  0.17949319  0.42805232  1
  O2-  O146  1  0.07755520  0.17948677  0.75410695  1
  O2-  O147  1  0.07858683  0.68323391  0.09907306  1
  O2-  O148  1  0.07239403  0.68092525  0.43239815  1
  O2-  O149  1  0.07158440  0.68200393  0.76525878  1
  O2-  O150  1  0.56362096  0.17308836  0.08877603  1
  O2-  O151  1  0.56984464  0.17811779  0.42145937  1
  O2-  O152  1  0.56492379  0.17787590  0.75571726  1
  O2-  O153  1  0.56438986  0.67626571  0.10225781  1
  O2-  O154  1  0.56535886  0.67828575  0.42312216  1
  O2-  O155  1  0.56896551  0.67689071  0.76382381  1
  O2-  O156  1  0.18314725  0.41684044  0.23358511  1
  O2-  O157  1  0.18045500  0.42687116  0.57012719  1
  O2-  O158  1  0.18317640  0.42380782  0.90870347  1
  O2-  O159  1  0.18225067  0.93501992  0.23472086  1
  O2-  O160  1  0.18211937  0.92982614  0.58028835  1
  O2-  O161  1  0.18559240  0.92929545  0.90983685  1
  O2-  O162  1  0.68194664  0.43099003  0.23462152  1
  O2-  O163  1  0.67993848  0.43139078  0.56680530  1
  O2-  O164  1  0.67511473  0.43103265  0.89924966  1
  O2-  O165  1  0.66208798  0.93395508  0.24770124  1
  O2-  O166  1  0.66908550  0.93198348  0.57745199  1
  O2-  O167  1  0.67373500  0.93239933  0.90057988  1
  O2-  O168  1  0.42782879  0.31759486  0.08786092  1
  O2-  O169  1  0.42865937  0.31639924  0.42118052  1
  O2-  O170  1  0.42679518  0.31786805  0.75433884  1
  O2-  O171  1  0.42667165  0.82722266  0.08983980  1
  O2-  O172  1  0.43422807  0.82972524  0.42302879  1
  O2-  O173  1  0.42704234  0.82810460  0.75409324  1
  O2-  O174  1  0.92735582  0.31890475  0.09997075  1
  O2-  O175  1  0.92428582  0.31589637  0.42479269  1
  O2-  O176  1  0.92490857  0.31652234  0.76304675  1
  O2-  O177  1  0.93451605  0.82337092  0.09836945  1
  O2-  O178  1  0.93649114  0.82625084  0.43348852  1
  O2-  O179  1  0.93049468  0.82577601  0.75615850  1
  O2-  O180  1  0.32781431  0.07170180  0.24386168  1
  O2-  O181  1  0.32355662  0.07079268  0.57660931  1
  O2-  O182  1  0.32424021  0.07246572  0.90953084  1
  O2-  O183  1  0.32263308  0.56869390  0.23609557  1
  O2-  O184  1  0.32072793  0.57006377  0.57856036  1
  O2-  O185  1  0.32039743  0.56755631  0.89872108  1
  O2-  O186  1  0.82104164  0.07006917  0.23560376  1
  O2-  O187  1  0.81910571  0.06891747  0.56926385  1
  O2-  O188  1  0.81853547  0.06880417  0.90327068  1
  O2-  O189  1  0.82149091  0.57451235  0.23462380  1
  O2-  O190  1  0.81977793  0.57242081  0.57519455  1
  O2-  O191  1  0.82184021  0.57016655  0.89782346  1
  O2-  O192  1  0.04253091  0.08879104  0.27670957  1
  O2-  O193  1  0.05079648  0.08169429  0.60723487  1
  O2-  O194  1  0.05160335  0.07889787  0.93335247  1
  O2-  O195  1  0.05386961  0.57503508  0.26895810  1
  O2-  O196  1  0.04191375  0.58243793  0.59898500  1
  O2-  O197  1  0.05204906  0.57678080  0.93523432  1
  O2-  O198  1  0.54138966  0.08890887  0.26793397  1
  O2-  O199  1  0.53808101  0.08900755  0.60159315  1
  O2-  O200  1  0.53273983  0.08853437  0.93365828  1
  O2-  O201  1  0.53535489  0.58614427  0.27305954  1
  O2-  O202  1  0.53624571  0.58284941  0.59520241  1
  O2-  O203  1  0.53159817  0.58362850  0.93368463  1
  O2-  O204  1  0.16690596  0.20152125  0.27640030  1
  O2-  O205  1  0.16868540  0.20293885  0.60316371  1
  O2-  O206  1  0.17250620  0.20514904  0.93271065  1
  O2-  O207  1  0.17167198  0.71294937  0.27135151  1
  O2-  O208  1  0.16716304  0.71266832  0.60005153  1
  O2-  O209  1  0.16863952  0.71481817  0.93166016  1
  O2-  O210  1  0.66439324  0.20599607  0.26913078  1
  O2-  O211  1  0.66127967  0.20576810  0.60400395  1
  O2-  O212  1  0.66229470  0.19691963  0.93816364  1
  O2-  O213  1  0.66087334  0.70293429  0.27214712  1
  O2-  O214  1  0.66605479  0.70889834  0.59346721  1
  O2-  O215  1  0.66490450  0.70420607  0.93117402  1
  O2-  O216  1  0.08093916  0.43945733  0.05506368  1
  O2-  O217  1  0.07731841  0.44652495  0.39913088  1
  O2-  O218  1  0.07841530  0.45695439  0.73398371  1
  O2-  O219  1  0.08959232  0.95600397  0.06252541  1
  O2-  O220  1  0.08863504  0.96518272  0.40728885  1
  O2-  O221  1  0.09121532  0.95644166  0.73492229  1
  O2-  O222  1  0.57906618  0.45774492  0.06605628  1
  O2-  O223  1  0.58153062  0.45497496  0.39926961  1
  O2-  O224  1  0.57855622  0.45724635  0.72965585  1
  O2-  O225  1  0.58105471  0.96288858  0.06799004  1
  O2-  O226  1  0.58449935  0.96311327  0.40306520  1
  O2-  O227  1  0.58395422  0.95873820  0.73011557  1
  O2-  O228  1  0.21460462  0.33620042  0.06091947  1
  O2-  O229  1  0.21573122  0.33231933  0.40284305  1
  O2-  O230  1  0.21433625  0.33413010  0.73580471  1
  O2-  O231  1  0.21427022  0.84165540  0.06453231  1
  O2-  O232  1  0.21512447  0.83797084  0.40551442  1
  O2-  O233  1  0.21270270  0.83801209  0.73287773  1
  O2-  O234  1  0.69613625  0.32643372  0.06293444  1
  O2-  O235  1  0.70752913  0.33053989  0.39950864  1
  O2-  O236  1  0.70711077  0.33397931  0.73176906  1
  O2-  O237  1  0.69179174  0.82454586  0.06300587  1
  O2-  O238  1  0.68981100  0.83175311  0.39433809  1
  O2-  O239  1  0.69684133  0.83090903  0.72337797  1
  O2-  O240  1  0.45656362  0.41260267  0.26964792  1
  O2-  O241  1  0.45183081  0.41225684  0.60136279  1
  O2-  O242  1  0.45523329  0.41245264  0.93456413  1
  O2-  O243  1  0.45912984  0.91578435  0.26894084  1
  O2-  O244  1  0.45490377  0.91722472  0.60094821  1
  O2-  O245  1  0.45108959  0.91885318  0.93776005  1
  O2-  O246  1  0.94988100  0.41217211  0.27357501  1
  O2-  O247  1  0.95759344  0.41410628  0.59621079  1
  O2-  O248  1  0.95260485  0.41634310  0.92905289  1
  O2-  O249  1  0.96758512  0.91997228  0.26915852  1
  O2-  O250  1  0.96260204  0.91810267  0.60731888  1
  O2-  O251  1  0.96413833  0.91523601  0.93011885  1
  O2-  O252  1  0.34011854  0.28896143  0.26629147  1
  O2-  O253  1  0.33754193  0.28646196  0.60112524  1
  O2-  O254  1  0.34139096  0.28874971  0.93213742  1
  O2-  O255  1  0.33715069  0.80125270  0.27293954  1
  O2-  O256  1  0.33441972  0.80007734  0.60220762  1
  O2-  O257  1  0.33570538  0.79802700  0.93638820  1
  O2-  O258  1  0.83844391  0.28300409  0.27241798  1
  O2-  O259  1  0.83111846  0.28339814  0.59672158  1
  O2-  O260  1  0.82668503  0.28776738  0.93393765  1
  O2-  O261  1  0.82489752  0.80964089  0.27269535  1
  O2-  O262  1  0.83358536  0.80938935  0.60484752  1
  O2-  O263  1  0.82587357  0.80271100  0.93452495  1
  O2-  O264  1  0.41121139  0.04364901  0.06520354  1
  O2-  O265  1  0.41871269  0.04563414  0.39654973  1
  O2-  O266  1  0.41418173  0.04317036  0.72980820  1
  O2-  O267  1  0.40986273  0.53342793  0.06812514  1
  O2-  O268  1  0.41371894  0.53290128  0.40570314  1
  O2-  O269  1  0.41237460  0.54063416  0.72873436  1
  O2-  O270  1  0.92449424  0.04356404  0.06602544  1
  O2-  O271  1  0.91724187  0.04167802  0.40525462  1
  O2-  O272  1  0.91934953  0.04528257  0.73626490  1
  O2-  O273  1  0.92233769  0.54176555  0.06526456  1
  O2-  O274  1  0.92081725  0.54637807  0.39983380  1
  O2-  O275  1  0.91402800  0.54540358  0.72491659  1
  O2-  O276  1  0.29875959  0.16662435  0.06194069  1
  O2-  O277  1  0.30255212  0.16665094  0.39517489  1
  O2-  O278  1  0.29618529  0.16265053  0.73019127  1
  O2-  O279  1  0.29507741  0.67035125  0.06524614  1
  O2-  O280  1  0.30687307  0.67403053  0.40094169  1
  O2-  O281  1  0.30134172  0.66917765  0.72659191  1
  O2-  O282  1  0.78820815  0.16327062  0.07027797  1
  O2-  O283  1  0.78334254  0.16100680  0.40410524  1
  O2-  O284  1  0.78297628  0.16325892  0.73583767  1
  O2-  O285  1  0.79490827  0.66902957  0.06340434  1
  O2-  O286  1  0.79403774  0.67425642  0.40063414  1
  O2-  O287  1  0.79951710  0.67093243  0.72195929  1
