# generated using pymatgen
data_Ca2Al2SiO7
_symmetry_space_group_name_H-M   'P 1'
_cell_length_a   15.46317357
_cell_length_b   15.46313946
_cell_length_c   15.28643588
_cell_angle_alpha   90.00811606
_cell_angle_beta   90.00071138
_cell_angle_gamma   89.96914916
_symmetry_Int_Tables_number   1
_chemical_formula_structural   Ca2Al2SiO7
_chemical_formula_sum   'Ca48 Al48 Si24 O168'
_cell_volume   3655.12703187
_cell_formula_units_Z   24
loop_
 _symmetry_equiv_pos_site_id
 _symmetry_equiv_pos_as_xyz
  1  'x, y, z'
loop_
 _atom_type_symbol
 _atom_type_oxidation_number
  Ca2+  2.0
  Al0+  0.0
  Si0+  0.0
  O2-  -2.0
loop_
 _atom_site_type_symbol
 _atom_site_label
 _atom_site_symmetry_multiplicity
 _atom_site_fract_x
 _atom_site_fract_y
 _atom_site_fract_z
 _atom_site_occupancy
  Ca2+  Ca0  1  0.16849096  0.07486773  0.17723756  1
  Ca2+  Ca1  1  0.16065491  0.07585358  0.50523859  1
  Ca2+  Ca2  1  0.16379629  0.08517259  0.83315928  1
  Ca2+  Ca3  1  0.15866540  0.57659523  0.17223341  1
  Ca2+  Ca4  1  0.16686306  0.58481417  0.50324350  1
  Ca2+  Ca5  1  0.16878214  0.58371129  0.83471676  1
  Ca2+  Ca6  1  0.67283849  0.08516002  0.17701429  1
  Ca2+  Ca7  1  0.66757153  0.08330475  0.50564181  1
  Ca2+  Ca8  1  0.66020750  0.07888195  0.82895431  1
  Ca2+  Ca9  1  0.67799810  0.57820080  0.17499937  1
  Ca2+  Ca10  1  0.67231265  0.58189041  0.50997005  1
  Ca2+  Ca11  1  0.66298106  0.57728402  0.82972154  1
  Ca2+  Ca12  1  0.07379257  0.34663427  0.16424619  1
  Ca2+  Ca13  1  0.07456452  0.33435422  0.49561595  1
  Ca2+  Ca14  1  0.07509407  0.33468268  0.82770054  1
  Ca2+  Ca15  1  0.08274558  0.82433340  0.16890974  1
  Ca2+  Ca16  1  0.07690165  0.82429030  0.49411927  1
  Ca2+  Ca17  1  0.07913451  0.82158337  0.82351631  1
  Ca2+  Ca18  1  0.57918078  0.32666914  0.16356252  1
  Ca2+  Ca19  1  0.58410975  0.32953588  0.49974857  1
  Ca2+  Ca20  1  0.57361290  0.33259604  0.81983986  1
  Ca2+  Ca21  1  0.57853411  0.83396023  0.16871930  1
  Ca2+  Ca22  1  0.57402842  0.83893933  0.50057855  1
  Ca2+  Ca23  1  0.57899656  0.82641201  0.81883618  1
  Ca2+  Ca24  1  0.31958507  0.41254781  0.17058575  1
  Ca2+  Ca25  1  0.32757227  0.42073476  0.50996470  1
  Ca2+  Ca26  1  0.33209012  0.41962265  0.83810750  1
  Ca2+  Ca27  1  0.32730797  0.91570964  0.17792650  1
  Ca2+  Ca28  1  0.33033455  0.90830830  0.50369770  1
  Ca2+  Ca29  1  0.33571779  0.91780946  0.83313840  1
  Ca2+  Ca30  1  0.83945710  0.41959711  0.17648555  1
  Ca2+  Ca31  1  0.83341938  0.41872088  0.50386659  1
  Ca2+  Ca32  1  0.83128977  0.40853940  0.83196247  1
  Ca2+  Ca33  1  0.83638472  0.92582236  0.17981712  1
  Ca2+  Ca34  1  0.83711348  0.92052055  0.50822549  1
  Ca2+  Ca35  1  0.82939444  0.91106131  0.83038450  1
  Ca2+  Ca36  1  0.42234647  0.17024701  0.16511134  1
  Ca2+  Ca37  1  0.42934323  0.16838317  0.50049153  1
  Ca2+  Ca38  1  0.41807206  0.18124437  0.82471825  1
  Ca2+  Ca39  1  0.41271932  0.67257783  0.16888095  1
  Ca2+  Ca40  1  0.41957548  0.67003751  0.50240248  1
  Ca2+  Ca41  1  0.41942407  0.67022938  0.81893844  1
  Ca2+  Ca42  1  0.91352777  0.17747727  0.16694520  1
  Ca2+  Ca43  1  0.91324638  0.17675705  0.49755645  1
  Ca2+  Ca44  1  0.92388298  0.17694964  0.82526234  1
  Ca2+  Ca45  1  0.92852556  0.66010639  0.16849847  1
  Ca2+  Ca46  1  0.92165794  0.67348170  0.49233964  1
  Ca2+  Ca47  1  0.93021885  0.66793222  0.82504484  1
  Al0+  Al48  1  -0.00181404  -0.00023066  0.00185367  1
  Al0+  Al49  1  0.00056827  0.00079385  0.33987045  1
  Al0+  Al50  1  0.00043177  0.00023546  0.66690088  1
  Al0+  Al51  1  0.00021488  0.50108351  -0.00731488  1
  Al0+  Al52  1  -0.00077605  0.50015713  0.33662097  1
  Al0+  Al53  1  0.00081261  0.49953138  0.66146094  1
  Al0+  Al54  1  0.50021667  -0.00094970  0.00286154  1
  Al0+  Al55  1  0.50065502  0.00117024  0.32306444  1
  Al0+  Al56  1  0.49916479  0.00130320  0.66661945  1
  Al0+  Al57  1  0.50048036  0.50089965  0.00161952  1
  Al0+  Al58  1  0.49870321  0.49941933  0.33009835  1
  Al0+  Al59  1  0.49938716  0.50182079  0.66707408  1
  Al0+  Al60  1  0.25064282  0.24936533  0.00306418  1
  Al0+  Al61  1  0.25057642  0.24932886  0.33966201  1
  Al0+  Al62  1  0.24948783  0.24876416  0.66088569  1
  Al0+  Al63  1  0.25048614  0.75045533  -0.00316249  1
  Al0+  Al64  1  0.25062907  0.74960645  0.32905174  1
  Al0+  Al65  1  0.24943802  0.74921389  0.66667863  1
  Al0+  Al66  1  0.74959335  0.24752854  -0.00370496  1
  Al0+  Al67  1  0.74976199  0.24863065  0.32854839  1
  Al0+  Al68  1  0.75085186  0.24969139  0.66729086  1
  Al0+  Al69  1  0.74881915  0.74978123  0.00340994  1
  Al0+  Al70  1  0.74862952  0.75092293  0.33320290  1
  Al0+  Al71  1  0.75081165  0.75033014  0.66773045  1
  Al0+  Al72  1  0.07049195  0.68035909  0.98467058  1
  Al0+  Al73  1  0.92685699  0.82409531  0.31849999  1
  Al0+  Al74  1  0.67872674  0.92950301  0.67973830  1
  Al0+  Al75  1  0.57231471  0.67787625  0.65268912  1
  Al0+  Al76  1  0.56998883  0.18128193  0.31825318  1
  Al0+  Al77  1  0.07219437  0.67837276  0.65024811  1
  Al0+  Al78  1  0.06985616  0.67938904  0.31728730  1
  Al0+  Al79  1  0.82044945  0.07151672  0.34826392  1
  Al0+  Al80  1  0.92875769  0.32076374  0.65023846  1
  Al0+  Al81  1  0.92809723  0.82057604  0.65336382  1
  Al0+  Al82  1  0.07250476  0.17812854  0.65161738  1
  Al0+  Al83  1  0.42894342  0.82218706  0.65329692  1
  Al0+  Al84  1  0.42797861  0.32437243  0.65114555  1
  Al0+  Al85  1  0.68052716  0.42876331  0.67946275  1
  Al0+  Al86  1  0.43085467  0.81909097  0.31881815  1
  Al0+  Al87  1  0.81977772  0.57157473  0.34693528  1
  Al0+  Al88  1  0.18075503  0.92855869  0.34820878  1
  Al0+  Al89  1  0.17893176  0.42934163  0.34862759  1
  Al0+  Al90  1  0.93169738  0.31911770  0.31939183  1
  Al0+  Al91  1  0.42852725  0.32054932  0.98779991  1
  Al0+  Al92  1  0.17943968  0.43069106  0.01186180  1
  Al0+  Al93  1  0.31922482  0.57064780  0.67995131  1
  Al0+  Al94  1  0.57057157  0.17943592  0.65328071  1
  Al0+  Al95  1  0.92933325  0.32091924  0.98599739  1
  Si0+  Si96  1  0.67793676  0.42694109  0.01476445  1
  Si0+  Si97  1  0.67692865  0.42774815  0.34726262  1
  Si0+  Si98  1  0.43021418  0.82066176  0.98481070  1
  Si0+  Si99  1  0.67614246  0.92910042  0.34901607  1
  Si0+  Si100  1  0.32336952  0.57215308  0.34953030  1
  Si0+  Si101  1  0.32118376  0.07166656  0.68231959  1
  Si0+  Si102  1  0.82385538  0.57210077  0.68464525  1
  Si0+  Si103  1  0.57131570  0.17703850  0.98186061  1
  Si0+  Si104  1  0.07459724  0.17759933  0.31717635  1
  Si0+  Si105  1  0.32469479  0.07111403  0.35108636  1
  Si0+  Si106  1  0.17904210  0.92820788  0.01420359  1
  Si0+  Si107  1  0.57296925  0.67984547  0.98598026  1
  Si0+  Si108  1  0.32149303  0.07015527  0.01598507  1
  Si0+  Si109  1  0.17765384  0.42594849  0.68364406  1
  Si0+  Si110  1  0.57336934  0.67450018  0.31483666  1
  Si0+  Si111  1  0.67829084  0.92820878  0.01726950  1
  Si0+  Si112  1  0.17876724  0.92921159  0.68362818  1
  Si0+  Si113  1  0.82004685  0.56961707  0.01337165  1
  Si0+  Si114  1  0.07204021  0.17452549  0.98682828  1
  Si0+  Si115  1  0.82332131  0.07191286  0.68660894  1
  Si0+  Si116  1  0.82039950  0.07074031  0.01566422  1
  Si0+  Si117  1  0.32381482  0.57417288  0.01780743  1
  Si0+  Si118  1  0.42532061  0.32388001  0.31587967  1
  Si0+  Si119  1  0.92649152  0.82439219  0.98447870  1
  O2-  O120  1  0.24920250  -0.00005637  0.05736306  1
  O2-  O121  1  0.25489179  0.00410713  0.39544549  1
  O2-  O122  1  0.24903754  0.00163688  0.72601539  1
  O2-  O123  1  0.25517428  0.50473586  0.06048189  1
  O2-  O124  1  0.25668801  0.50169626  0.39288082  1
  O2-  O125  1  0.24679531  0.49415987  0.72813985  1
  O2-  O126  1  0.75001703  -0.00126769  0.05835806  1
  O2-  O127  1  0.75022616  -0.00853172  0.39259143  1
  O2-  O128  1  0.75403682  0.00256319  0.73011107  1
  O2-  O129  1  0.75169012  0.49545435  0.05638390  1
  O2-  O130  1  0.74093273  0.50021435  0.39114191  1
  O2-  O131  1  0.75576870  0.50228282  0.72932713  1
  O2-  O132  1  0.00882685  0.24753370  0.27034047  1
  O2-  O133  1  0.00199583  0.25007540  0.60095012  1
  O2-  O134  1  0.00609181  0.24608949  0.94371440  1
  O2-  O135  1  -0.00332931  0.75085484  0.26661928  1
  O2-  O136  1  -0.00300910  0.74737423  0.60251797  1
  O2-  O137  1  -0.00371294  0.75707861  0.94098269  1
  O2-  O138  1  0.49492884  0.25588873  0.27171596  1
  O2-  O139  1  0.50272033  0.25460221  0.60275265  1
  O2-  O140  1  0.50482691  0.24821367  0.93973756  1
  O2-  O141  1  0.50487315  0.74402001  0.27051117  1
  O2-  O142  1  0.50269336  0.75228056  0.60370865  1
  O2-  O143  1  0.49972238  0.74853665  0.94388922  1
  O2-  O144  1  0.07004216  0.16799344  0.09190546  1
  O2-  O145  1  0.07351386  0.17911466  0.42217073  1
  O2-  O146  1  0.07126337  0.17865468  0.76641828  1
  O2-  O147  1  0.06947491  0.67993905  0.09739842  1
  O2-  O148  1  0.07027012  0.68093892  0.42985862  1
  O2-  O149  1  0.07239403  0.68108028  0.76467304  1
  O2-  O150  1  0.57133029  0.17663546  0.08762072  1
  O2-  O151  1  0.56948854  0.18102485  0.43055085  1
  O2-  O152  1  0.56547945  0.17898690  0.76744042  1
  O2-  O153  1  0.57490998  0.68226079  0.09107571  1
  O2-  O154  1  0.57281929  0.67146340  0.41941750  1
  O2-  O155  1  0.56942253  0.67928453  0.76747592  1
  O2-  O156  1  0.17930422  0.43073344  0.23458565  1
  O2-  O157  1  0.17884741  0.42622272  0.57824818  1
  O2-  O158  1  0.18066821  0.43106748  0.89924723  1
  O2-  O159  1  0.18334813  0.93023852  0.23372429  1
  O2-  O160  1  0.17978595  0.92919156  0.57897778  1
  O2-  O161  1  0.18063235  0.92891734  0.90918504  1
  O2-  O162  1  0.67765250  0.42878298  0.24058910  1
  O2-  O163  1  0.68172934  0.42964509  0.56645970  1
  O2-  O164  1  0.67559926  0.42858250  0.91013114  1
  O2-  O165  1  0.67489405  0.93302798  0.24235695  1
  O2-  O166  1  0.67628153  0.93355217  0.56727486  1
  O2-  O167  1  0.67586940  0.92755082  0.91260183  1
  O2-  O168  1  0.42990356  0.31631767  0.10096828  1
  O2-  O169  1  0.42641741  0.32549764  0.42073785  1
  O2-  O170  1  0.42733681  0.32180288  0.76552543  1
  O2-  O171  1  0.43038944  0.82151545  0.08990535  1
  O2-  O172  1  0.43207651  0.82009067  0.43092004  1
  O2-  O173  1  0.43013196  0.82194873  0.76790766  1
  O2-  O174  1  0.92854184  0.32096278  0.09909117  1
  O2-  O175  1  0.92945712  0.31807276  0.43132625  1
  O2-  O176  1  0.93020480  0.31872106  0.76464931  1
  O2-  O177  1  0.92654606  0.82737922  0.08958058  1
  O2-  O178  1  0.92850785  0.82308073  0.43134391  1
  O2-  O179  1  0.93132319  0.81931314  0.76816099  1
  O2-  O180  1  0.32285737  0.06972838  0.24442593  1
  O2-  O181  1  0.32270316  0.06994062  0.57773024  1
  O2-  O182  1  0.32373707  0.06889942  0.91106515  1
  O2-  O183  1  0.32439268  0.57108577  0.24330630  1
  O2-  O184  1  0.31783498  0.57145687  0.56702224  1
  O2-  O185  1  0.32544084  0.57575752  0.91263798  1
  O2-  O186  1  0.81728246  0.07302229  0.23392356  1
  O2-  O187  1  0.82362656  0.07179573  0.58138417  1
  O2-  O188  1  0.82122020  0.07071188  0.91113034  1
  O2-  O189  1  0.81994210  0.56721298  0.23249442  1
  O2-  O190  1  0.82223683  0.57214927  0.57933875  1
  O2-  O191  1  0.81701594  0.57245937  0.90880966  1
  O2-  O192  1  0.04766922  0.08401071  0.27230640  1
  O2-  O193  1  0.04509759  0.07920291  0.60125921  1
  O2-  O194  1  0.04351193  0.08261687  0.93731714  1
  O2-  O195  1  0.03740797  0.58148868  0.26490085  1
  O2-  O196  1  0.04932378  0.57912369  0.59950851  1
  O2-  O197  1  0.03775486  0.58647363  0.92780693  1
  O2-  O198  1  0.53871564  0.08704398  0.25863708  1
  O2-  O199  1  0.53727467  0.08386975  0.59932046  1
  O2-  O200  1  0.54271280  0.08272504  0.93869156  1
  O2-  O201  1  0.54686915  0.58181251  0.26529100  1
  O2-  O202  1  0.54221796  0.58197556  0.59838999  1
  O2-  O203  1  0.54847145  0.58634034  0.94110773  1
  O2-  O204  1  0.17077744  0.19854731  0.27333553  1
  O2-  O205  1  0.17122902  0.19904212  0.59774561  1
  O2-  O206  1  0.16735369  0.19657233  0.94337472  1
  O2-  O207  1  0.16800957  0.70750252  0.26302745  1
  O2-  O208  1  0.16857946  0.71074217  0.59838063  1
  O2-  O209  1  0.16794091  0.71081713  0.93170356  1
  O2-  O210  1  0.66429808  0.21332883  0.26004975  1
  O2-  O211  1  0.67058229  0.20179544  0.60375248  1
  O2-  O212  1  0.66558985  0.19815987  0.93642590  1
  O2-  O213  1  0.66592955  0.70139745  0.26690634  1
  O2-  O214  1  0.67175189  0.70224616  0.60306508  1
  O2-  O215  1  0.66359700  0.70983737  0.93775462  1
  O2-  O216  1  0.08196198  0.46426798  0.06389841  1
  O2-  O217  1  0.08381202  0.46138339  0.40263419  1
  O2-  O218  1  0.08346478  0.45275295  0.72855854  1
  O2-  O219  1  0.08624552  0.95426868  0.06095859  1
  O2-  O220  1  0.08544564  0.95879740  0.40351987  1
  O2-  O221  1  0.08773598  0.95745808  0.73340993  1
  O2-  O222  1  0.58784705  0.45725030  0.06513967  1
  O2-  O223  1  0.58077518  0.44798754  0.39005472  1
  O2-  O224  1  0.58450145  0.46165405  0.73493164  1
  O2-  O225  1  0.58660873  0.95693329  0.06605284  1
  O2-  O226  1  0.58387150  0.96236993  0.39241692  1
  O2-  O227  1  0.58249799  0.96253340  0.73638318  1
  O2-  O228  1  0.20777643  0.33301514  0.06710097  1
  O2-  O229  1  0.20632192  0.33169686  0.40220841  1
  O2-  O230  1  0.20219087  0.33098867  0.72813507  1
  O2-  O231  1  0.20976415  0.83723173  0.06171447  1
  O2-  O232  1  0.21459781  0.83208110  0.39936160  1
  O2-  O233  1  0.20905794  0.83882920  0.73262711  1
  O2-  O234  1  0.70262862  0.33271296  0.05947679  1
  O2-  O235  1  0.70656497  0.33543934  0.39139056  1
  O2-  O236  1  0.70951023  0.33203939  0.73619484  1
  O2-  O237  1  0.70357329  0.83597503  0.06580374  1
  O2-  O238  1  0.69051478  0.83217761  0.39058909  1
  O2-  O239  1  0.70820988  0.83281162  0.73688757  1
  O2-  O240  1  0.44900994  0.41714260  0.26725002  1
  O2-  O241  1  0.45436446  0.42229040  0.59934852  1
  O2-  O242  1  0.45679795  0.41944689  0.93730730  1
  O2-  O243  1  0.46178740  0.91409640  0.26014749  1
  O2-  O244  1  0.45499919  0.92038853  0.60087396  1
  O2-  O245  1  0.45907179  0.91317168  0.93921517  1
  O2-  O246  1  0.96208760  0.41624388  0.26621697  1
  O2-  O247  1  0.95401822  0.41930336  0.59829555  1
  O2-  O248  1  0.95820319  0.41617500  0.92986501  1
  O2-  O249  1  0.95879177  0.92298391  0.26718859  1
  O2-  O250  1  0.95715669  0.91895477  0.60361672  1
  O2-  O251  1  0.94999855  0.91836243  0.93781515  1
  O2-  O252  1  0.33210285  0.29423090  0.27065876  1
  O2-  O253  1  0.33155532  0.29327655  0.59815625  1
  O2-  O254  1  0.33255949  0.28735639  0.93412667  1
  O2-  O255  1  0.33596393  0.78773914  0.26111242  1
  O2-  O256  1  0.33151217  0.79256209  0.60200524  1
  O2-  O257  1  0.33791791  0.79652438  0.93729577  1
  O2-  O258  1  0.83588295  0.28719745  0.26353076  1
  O2-  O259  1  0.83086682  0.29128543  0.59893021  1
  O2-  O260  1  0.83276454  0.28839522  0.93254560  1
  O2-  O261  1  0.82573280  0.80141819  0.26716767  1
  O2-  O262  1  0.82856854  0.79883662  0.60240603  1
  O2-  O263  1  0.83195596  0.79665044  0.94107103  1
  O2-  O264  1  0.41268443  0.04010095  0.06505680  1
  O2-  O265  1  0.41873951  0.04238289  0.39289491  1
  O2-  O266  1  0.41082292  0.04231260  0.73361084  1
  O2-  O267  1  0.41803271  0.55092926  0.06491071  1
  O2-  O268  1  0.41858541  0.54918371  0.39381308  1
  O2-  O269  1  0.41644678  0.54361882  0.73549893  1
  O2-  O270  1  0.91240058  0.04456266  0.06451122  1
  O2-  O271  1  0.91777217  0.04737992  0.40255826  1
  O2-  O272  1  0.91650940  0.04494682  0.73433367  1
  O2-  O273  1  0.91268707  0.54252480  0.05869974  1
  O2-  O274  1  0.91382577  0.53838217  0.40198939  1
  O2-  O275  1  0.91814352  0.54526331  0.72974374  1
  O2-  O276  1  0.29572644  0.16112917  0.06577591  1
  O2-  O277  1  0.30404905  0.16538493  0.39674145  1
  O2-  O278  1  0.29259455  0.16364361  0.73044853  1
  O2-  O279  1  0.29722941  0.66866035  0.06281735  1
  O2-  O280  1  0.29675373  0.66558741  0.39354109  1
  O2-  O281  1  0.28777331  0.66699307  0.73682295  1
  O2-  O282  1  0.79048881  0.16238967  0.06345110  1
  O2-  O283  1  0.78358657  0.16673485  0.40041873  1
  O2-  O284  1  0.79665806  0.16474028  0.73380704  1
  O2-  O285  1  0.78950723  0.66025900  0.06306928  1
  O2-  O286  1  0.79160526  0.66953982  0.39919903  1
  O2-  O287  1  0.79842918  0.66508105  0.73260990  1
