# generated using pymatgen
data_Ca2Al2SiO7
_symmetry_space_group_name_H-M   'P 1'
_cell_length_a   15.45248028
_cell_length_b   15.45230836
_cell_length_c   15.27982358
_cell_angle_alpha   90.00068407
_cell_angle_beta   90.00484734
_cell_angle_gamma   90.00704639
_symmetry_Int_Tables_number   1
_chemical_formula_structural   Ca2Al2SiO7
_chemical_formula_sum   'Ca48 Al48 Si24 O168'
_cell_volume   3648.46260441
_cell_formula_units_Z   24
loop_
 _symmetry_equiv_pos_site_id
 _symmetry_equiv_pos_as_xyz
  1  'x, y, z'
loop_
 _atom_type_symbol
 _atom_type_oxidation_number
  Ca2+  2.0
  Al0+  0.0
  Si0+  0.0
  O2-  -2.0
loop_
 _atom_site_type_symbol
 _atom_site_label
 _atom_site_symmetry_multiplicity
 _atom_site_fract_x
 _atom_site_fract_y
 _atom_site_fract_z
 _atom_site_occupancy
  Ca2+  Ca0  1  0.17101018  0.07921318  0.17382470  1
  Ca2+  Ca1  1  0.16312284  0.07265768  0.50597977  1
  Ca2+  Ca2  1  0.17996682  0.07994199  0.83721294  1
  Ca2+  Ca3  1  0.16366266  0.58696692  0.16344254  1
  Ca2+  Ca4  1  0.16412758  0.58068739  0.50589990  1
  Ca2+  Ca5  1  0.16717191  0.57296155  0.84259833  1
  Ca2+  Ca6  1  0.66926518  0.07808194  0.16631512  1
  Ca2+  Ca7  1  0.67154803  0.08532563  0.50310785  1
  Ca2+  Ca8  1  0.66104975  0.08148003  0.84194356  1
  Ca2+  Ca9  1  0.67050049  0.57704989  0.17050029  1
  Ca2+  Ca10  1  0.67946371  0.58186419  0.51090425  1
  Ca2+  Ca11  1  0.66613503  0.57572961  0.83566000  1
  Ca2+  Ca12  1  0.08435686  0.32898418  0.16205473  1
  Ca2+  Ca13  1  0.07987028  0.33089962  0.49832666  1
  Ca2+  Ca14  1  0.08163323  0.33972830  0.82702901  1
  Ca2+  Ca15  1  0.07590310  0.82714474  0.16107860  1
  Ca2+  Ca16  1  0.08135649  0.83086170  0.48777023  1
  Ca2+  Ca17  1  0.08308174  0.82898604  0.83333931  1
  Ca2+  Ca18  1  0.57878320  0.32775148  0.15367682  1
  Ca2+  Ca19  1  0.58757623  0.33070389  0.50327789  1
  Ca2+  Ca20  1  0.58443732  0.32784250  0.82828854  1
  Ca2+  Ca21  1  0.57913522  0.83349822  0.15544221  1
  Ca2+  Ca22  1  0.58348992  0.82611693  0.50110737  1
  Ca2+  Ca23  1  0.57840645  0.83176890  0.83150403  1
  Ca2+  Ca24  1  0.33239720  0.41934087  0.16095822  1
  Ca2+  Ca25  1  0.32318457  0.41704867  0.50677797  1
  Ca2+  Ca26  1  0.32467912  0.41823260  0.84500219  1
  Ca2+  Ca27  1  0.33151197  0.92038402  0.16789210  1
  Ca2+  Ca28  1  0.31673936  0.92043388  0.50866148  1
  Ca2+  Ca29  1  0.33724682  0.92508719  0.83811293  1
  Ca2+  Ca30  1  0.82709695  0.42160659  0.16963561  1
  Ca2+  Ca31  1  0.83534887  0.42910990  0.51054370  1
  Ca2+  Ca32  1  0.82539667  0.41780288  0.83350448  1
  Ca2+  Ca33  1  0.83395629  0.91439041  0.16959801  1
  Ca2+  Ca34  1  0.84339385  0.92437426  0.49849196  1
  Ca2+  Ca35  1  0.82608653  0.91610909  0.84096135  1
  Ca2+  Ca36  1  0.42110457  0.17210620  0.15188603  1
  Ca2+  Ca37  1  0.41888301  0.16163120  0.50325505  1
  Ca2+  Ca38  1  0.42348947  0.16389610  0.83234289  1
  Ca2+  Ca39  1  0.41335878  0.67445921  0.15515734  1
  Ca2+  Ca40  1  0.42589051  0.66112420  0.49966225  1
  Ca2+  Ca41  1  0.41757415  0.66777169  0.83252818  1
  Ca2+  Ca42  1  0.92404586  0.15751665  0.16726775  1
  Ca2+  Ca43  1  0.91899929  0.17396962  0.49317812  1
  Ca2+  Ca44  1  0.91769529  0.17725828  0.82644709  1
  Ca2+  Ca45  1  0.92342356  0.67278484  0.16243769  1
  Ca2+  Ca46  1  0.91962184  0.66947954  0.48968727  1
  Ca2+  Ca47  1  0.91690806  0.66759367  0.83210932  1
  Al0+  Al48  1  0.00030487  -0.00010430  -0.00684148  1
  Al0+  Al49  1  -0.00087415  0.00088156  0.33347535  1
  Al0+  Al50  1  -0.00024721  -0.00022140  0.67332788  1
  Al0+  Al51  1  0.00001198  0.49926832  0.00190768  1
  Al0+  Al52  1  -0.00040001  0.49924888  0.33234485  1
  Al0+  Al53  1  -0.00043169  0.50250178  0.66997293  1
  Al0+  Al54  1  0.50109512  -0.00115802  0.00254212  1
  Al0+  Al55  1  0.50090873  0.00026724  0.33462596  1
  Al0+  Al56  1  0.49980703  0.00048544  0.66102353  1
  Al0+  Al57  1  0.49854809  0.49907290  0.00540330  1
  Al0+  Al58  1  0.49865444  0.49838108  0.33401667  1
  Al0+  Al59  1  0.50084558  0.49938623  0.66249826  1
  Al0+  Al60  1  0.25086069  0.24973910  0.00467441  1
  Al0+  Al61  1  0.25152783  0.25114977  0.33046684  1
  Al0+  Al62  1  0.25051089  0.24857206  0.67269670  1
  Al0+  Al63  1  0.24928769  0.75012646  -0.00718218  1
  Al0+  Al64  1  0.25161372  0.74925009  0.33556609  1
  Al0+  Al65  1  0.24834903  0.75086630  0.66888714  1
  Al0+  Al66  1  0.75236329  0.24949013  0.00298331  1
  Al0+  Al67  1  0.74798148  0.24868552  0.33586030  1
  Al0+  Al68  1  0.75080383  0.25172192  0.65892206  1
  Al0+  Al69  1  0.75034691  0.75110504  0.00130585  1
  Al0+  Al70  1  0.74819702  0.74838591  0.33322568  1
  Al0+  Al71  1  0.75094809  0.75163771  0.66463719  1
  Al0+  Al72  1  0.07339291  0.67680342  0.31846508  1
  Al0+  Al73  1  0.92781490  0.82182295  0.31870567  1
  Al0+  Al74  1  0.32147189  0.06890372  0.01518030  1
  Al0+  Al75  1  0.57071675  0.17852201  0.65064948  1
  Al0+  Al76  1  0.18085591  0.92985293  0.34397047  1
  Al0+  Al77  1  0.17568311  0.92691677  0.68508171  1
  Al0+  Al78  1  0.06997334  0.67817114  0.98189041  1
  Al0+  Al79  1  0.57226871  0.18000628  0.98647454  1
  Al0+  Al80  1  0.67920361  0.42816973  0.68115660  1
  Al0+  Al81  1  0.32013293  0.57293666  0.01427101  1
  Al0+  Al82  1  0.42929863  0.82119938  0.98693252  1
  Al0+  Al83  1  0.42838071  0.32206405  0.98396470  1
  Al0+  Al84  1  0.68002858  0.92910928  0.01207869  1
  Al0+  Al85  1  0.57085511  0.67856557  0.65359869  1
  Al0+  Al86  1  0.92742995  0.82200532  0.98204432  1
  Al0+  Al87  1  0.82144105  0.57436059  0.68346062  1
  Al0+  Al88  1  0.67904342  0.42760897  0.01365840  1
  Al0+  Al89  1  0.81997000  0.06963139  0.34714280  1
  Al0+  Al90  1  0.07055149  0.17989859  0.32131980  1
  Al0+  Al91  1  0.32239657  0.06936553  0.68221659  1
  Al0+  Al92  1  0.82008640  0.56968532  0.34609231  1
  Al0+  Al93  1  0.17947149  0.43028040  0.67834545  1
  Al0+  Al94  1  0.17681989  0.42840693  0.01819018  1
  Al0+  Al95  1  0.93066127  0.32242959  0.65300656  1
  Si0+  Si96  1  0.57132906  0.17870939  0.31691927  1
  Si0+  Si97  1  0.67592968  0.42765293  0.35157702  1
  Si0+  Si98  1  0.07041052  0.68066791  0.65161557  1
  Si0+  Si99  1  0.42905670  0.32145200  0.31723934  1
  Si0+  Si100  1  0.32333024  0.07428580  0.35011196  1
  Si0+  Si101  1  0.82053969  0.07264639  0.68089946  1
  Si0+  Si102  1  0.17660292  0.92870638  0.01678800  1
  Si0+  Si103  1  0.57027491  0.67750977  0.31791605  1
  Si0+  Si104  1  0.42579969  0.32197465  0.64915052  1
  Si0+  Si105  1  0.32208061  0.57140199  0.34991179  1
  Si0+  Si106  1  0.57263578  0.67646710  0.98562493  1
  Si0+  Si107  1  0.07263441  0.17878829  0.98437340  1
  Si0+  Si108  1  0.82454609  0.07246592  0.01539462  1
  Si0+  Si109  1  0.43046664  0.82002069  0.32020334  1
  Si0+  Si110  1  0.92958078  0.32042482  0.98656710  1
  Si0+  Si111  1  0.67989271  0.93031762  0.67900225  1
  Si0+  Si112  1  0.82128338  0.57224940  0.01785652  1
  Si0+  Si113  1  0.92858306  0.82288055  0.65038634  1
  Si0+  Si114  1  0.18021091  0.42767849  0.34829898  1
  Si0+  Si115  1  0.42697747  0.82202341  0.64767826  1
  Si0+  Si116  1  0.67508189  0.92718574  0.35215696  1
  Si0+  Si117  1  0.92663800  0.32194655  0.31598218  1
  Si0+  Si118  1  0.32370622  0.57208651  0.68140525  1
  Si0+  Si119  1  0.07249230  0.17765164  0.65182650  1
  O2-  O120  1  0.24527818  -0.00363565  0.06264383  1
  O2-  O121  1  0.25340625  0.00630917  0.39279109  1
  O2-  O122  1  0.25085028  -0.00299183  0.73219253  1
  O2-  O123  1  0.24793073  0.50229417  0.06713136  1
  O2-  O124  1  0.24762578  0.50278360  0.39032424  1
  O2-  O125  1  0.25637716  0.50229341  0.72452670  1
  O2-  O126  1  0.75680091  0.00202954  0.05805207  1
  O2-  O127  1  0.74692724  -0.00668385  0.39541148  1
  O2-  O128  1  0.74811435  0.00325977  0.72241022  1
  O2-  O129  1  0.75074906  0.50471732  0.06135611  1
  O2-  O130  1  0.74648573  0.49469877  0.39443191  1
  O2-  O131  1  0.74827322  0.50253468  0.73149616  1
  O2-  O132  1  -0.00510698  0.25277857  0.27168111  1
  O2-  O133  1  0.00572327  0.24759401  0.60653011  1
  O2-  O134  1  0.00263140  0.25153261  0.94369942  1
  O2-  O135  1  0.00067311  0.74949857  0.27067855  1
  O2-  O136  1  0.00154104  0.75359813  0.60889307  1
  O2-  O137  1  -0.00212735  0.74963168  0.93073395  1
  O2-  O138  1  0.49946822  0.24908502  0.27629463  1
  O2-  O139  1  0.49530735  0.25365638  0.60419041  1
  O2-  O140  1  0.50261615  0.25259679  0.93407137  1
  O2-  O141  1  0.50167129  0.75036935  0.27587775  1
  O2-  O142  1  0.49364211  0.75047710  0.60422027  1
  O2-  O143  1  0.50250098  0.74397574  0.94180014  1
  O2-  O144  1  0.07055379  0.17687427  0.08983807  1
  O2-  O145  1  0.07047837  0.18254688  0.43453923  1
  O2-  O146  1  0.06981515  0.17776687  0.75753004  1
  O2-  O147  1  0.06782982  0.68016343  0.09563932  1
  O2-  O148  1  0.07347042  0.67711671  0.43274319  1
  O2-  O149  1  0.06948856  0.68009787  0.75608853  1
  O2-  O150  1  0.57162971  0.18074270  0.10081268  1
  O2-  O151  1  0.57111756  0.17865620  0.42204812  1
  O2-  O152  1  0.57198510  0.17642914  0.76290008  1
  O2-  O153  1  0.57284233  0.67900392  0.09190481  1
  O2-  O154  1  0.56883182  0.67721702  0.42311962  1
  O2-  O155  1  0.56993032  0.68130069  0.76636913  1
  O2-  O156  1  0.18318108  0.42429143  0.24400821  1
  O2-  O157  1  0.18016906  0.43182969  0.56421110  1
  O2-  O158  1  0.17679965  0.42878822  0.90447110  1
  O2-  O159  1  0.18482015  0.93076604  0.23120330  1
  O2-  O160  1  0.17431276  0.92774614  0.57063546  1
  O2-  O161  1  0.17650534  0.93267035  0.91135236  1
  O2-  O162  1  0.67420222  0.42857878  0.24578018  1
  O2-  O163  1  0.68191668  0.43009462  0.56708634  1
  O2-  O164  1  0.68189918  0.42647849  0.90103164  1
  O2-  O165  1  0.66981804  0.92982256  0.24698852  1
  O2-  O166  1  0.68192793  0.93014605  0.57361797  1
  O2-  O167  1  0.67984262  0.93051613  0.89846662  1
  O2-  O168  1  0.43042466  0.31935372  0.09853869  1
  O2-  O169  1  0.42768076  0.32317745  0.42236399  1
  O2-  O170  1  0.42523680  0.32325955  0.75378677  1
  O2-  O171  1  0.43184116  0.82108957  0.10097229  1
  O2-  O172  1  0.43186046  0.81792780  0.42529904  1
  O2-  O173  1  0.42958109  0.82381214  0.75292966  1
  O2-  O174  1  0.92876607  0.31828867  0.09187820  1
  O2-  O175  1  0.92933418  0.32231207  0.42164716  1
  O2-  O176  1  0.93037983  0.31926803  0.76642705  1
  O2-  O177  1  0.92837818  0.82224042  0.09554690  1
  O2-  O178  1  0.93058769  0.82166680  0.43300328  1
  O2-  O179  1  0.92585827  0.82299346  0.75500457  1
  O2-  O180  1  0.32499054  0.07342284  0.24471148  1
  O2-  O181  1  0.32037537  0.06708835  0.56779800  1
  O2-  O182  1  0.32163722  0.06743283  0.90247398  1
  O2-  O183  1  0.32730756  0.57172937  0.24572809  1
  O2-  O184  1  0.32165782  0.57136962  0.57480814  1
  O2-  O185  1  0.31988500  0.57108217  0.90057270  1
  O2-  O186  1  0.81684064  0.07108612  0.23428878  1
  O2-  O187  1  0.82212445  0.07041603  0.57566553  1
  O2-  O188  1  0.82414880  0.07477038  0.90957054  1
  O2-  O189  1  0.81589350  0.56725626  0.23310331  1
  O2-  O190  1  0.82205355  0.57429221  0.56935344  1
  O2-  O191  1  0.82067657  0.57141485  0.91243477  1
  O2-  O192  1  0.03908320  0.08480514  0.26544200  1
  O2-  O193  1  0.04282611  0.08398420  0.60727708  1
  O2-  O194  1  0.04416609  0.08891160  0.93413126  1
  O2-  O195  1  0.04551059  0.57797828  0.26614513  1
  O2-  O196  1  0.04138435  0.58942381  0.60365442  1
  O2-  O197  1  0.04107872  0.57811907  0.93201275  1
  O2-  O198  1  0.54524041  0.08530304  0.27140504  1
  O2-  O199  1  0.53982907  0.08286060  0.59255327  1
  O2-  O200  1  0.54170321  0.08172737  0.93565295  1
  O2-  O201  1  0.54086606  0.58530113  0.27205103  1
  O2-  O202  1  0.54187804  0.58279359  0.59508191  1
  O2-  O203  1  0.54746470  0.58266559  0.94120972  1
  O2-  O204  1  0.16740364  0.21048327  0.26687964  1
  O2-  O205  1  0.16703253  0.20098161  0.60685800  1
  O2-  O206  1  0.16466475  0.20615938  0.93867147  1
  O2-  O207  1  0.17328631  0.70458230  0.26800033  1
  O2-  O208  1  0.16395766  0.70485298  0.60431439  1
  O2-  O209  1  0.16767010  0.70551815  0.92762153  1
  O2-  O210  1  0.66310137  0.20647913  0.26967539  1
  O2-  O211  1  0.66608046  0.21036087  0.59346773  1
  O2-  O212  1  0.67295020  0.20469600  0.93630855  1
  O2-  O213  1  0.66191409  0.70272178  0.26984966  1
  O2-  O214  1  0.66568955  0.71488453  0.59739254  1
  O2-  O215  1  0.66537457  0.70338860  0.93967673  1
  O2-  O216  1  0.07783561  0.45477587  0.07170951  1
  O2-  O217  1  0.08646407  0.45102034  0.39383100  1
  O2-  O218  1  0.08512033  0.46337375  0.73369900  1
  O2-  O219  1  0.08255441  0.95656642  0.06098290  1
  O2-  O220  1  0.08441568  0.96013150  0.39824091  1
  O2-  O221  1  0.07875108  0.95667203  0.73994022  1
  O2-  O222  1  0.58293968  0.45574048  0.06988269  1
  O2-  O223  1  0.58240520  0.45448037  0.39774120  1
  O2-  O224  1  0.57853103  0.45347122  0.73003635  1
  O2-  O225  1  0.58618724  0.96124400  0.07035833  1
  O2-  O226  1  0.58340685  0.95678679  0.40157317  1
  O2-  O227  1  0.58650667  0.95551242  0.72333253  1
  O2-  O228  1  0.20669244  0.33063988  0.07166545  1
  O2-  O229  1  0.21335998  0.33799101  0.39778667  1
  O2-  O230  1  0.20433861  0.33275542  0.73222343  1
  O2-  O231  1  0.20193277  0.83403968  0.05866318  1
  O2-  O232  1  0.21370020  0.83434417  0.40077647  1
  O2-  O233  1  0.20274369  0.82771566  0.73623129  1
  O2-  O234  1  0.71437926  0.33312752  0.07058807  1
  O2-  O235  1  0.69874926  0.33286335  0.39570212  1
  O2-  O236  1  0.71113953  0.32960286  0.73115072  1
  O2-  O237  1  0.70751546  0.83244058  0.06871009  1
  O2-  O238  1  0.69643733  0.83153717  0.39539266  1
  O2-  O239  1  0.70938441  0.84007272  0.72714950  1
  O2-  O240  1  0.45789824  0.41314659  0.26953393  1
  O2-  O241  1  0.45012111  0.41517339  0.60002953  1
  O2-  O242  1  0.45265690  0.42273502  0.93493162  1
  O2-  O243  1  0.45676951  0.91325443  0.27419872  1
  O2-  O244  1  0.45627918  0.91295460  0.59814458  1
  O2-  O245  1  0.46575221  0.91500962  0.93226713  1
  O2-  O246  1  0.95307488  0.41435921  0.26873526  1
  O2-  O247  1  0.96289713  0.41932803  0.59966886  1
  O2-  O248  1  0.95446211  0.41260764  0.93955174  1
  O2-  O249  1  0.95416287  0.92058928  0.26665486  1
  O2-  O250  1  0.95617526  0.91661327  0.60556147  1
  O2-  O251  1  0.95435709  0.92072589  0.92776810  1
  O2-  O252  1  0.33787402  0.29508214  0.26845779  1
  O2-  O253  1  0.33238966  0.29339731  0.60206513  1
  O2-  O254  1  0.32922409  0.29198558  0.93432114  1
  O2-  O255  1  0.33963623  0.79114876  0.27251581  1
  O2-  O256  1  0.33191303  0.79721968  0.60327723  1
  O2-  O257  1  0.33369678  0.79485323  0.93000151  1
  O2-  O258  1  0.83137505  0.29679480  0.27297826  1
  O2-  O259  1  0.83671262  0.29081968  0.59450054  1
  O2-  O260  1  0.83963013  0.28936554  0.93753687  1
  O2-  O261  1  0.82765450  0.79430549  0.26804178  1
  O2-  O262  1  0.83758096  0.79616711  0.60086825  1
  O2-  O263  1  0.82778122  0.79396687  0.93064452  1
  O2-  O264  1  0.41648343  0.03619319  0.07096554  1
  O2-  O265  1  0.41691927  0.04703655  0.39611976  1
  O2-  O266  1  0.42183830  0.03957020  0.73226718  1
  O2-  O267  1  0.41786349  0.54617121  0.07087926  1
  O2-  O268  1  0.41234163  0.53855750  0.39935909  1
  O2-  O269  1  0.41826218  0.54939478  0.72491881  1
  O2-  O270  1  0.91863819  0.04578023  0.06040116  1
  O2-  O271  1  0.91635994  0.04169165  0.40330313  1
  O2-  O272  1  0.91078045  0.04517876  0.73104857  1
  O2-  O273  1  0.91327204  0.54287436  0.06431470  1
  O2-  O274  1  0.91762783  0.53984773  0.39998257  1
  O2-  O275  1  0.91830655  0.54432929  0.73676696  1
  O2-  O276  1  0.29136282  0.16512483  0.06991395  1
  O2-  O277  1  0.29954084  0.16884841  0.39499207  1
  O2-  O278  1  0.29617903  0.16743625  0.73580517  1
  O2-  O279  1  0.29199341  0.67287878  0.06572786  1
  O2-  O280  1  0.29825526  0.66300245  0.39971907  1
  O2-  O281  1  0.29930434  0.66615464  0.72571025  1
  O2-  O282  1  0.79966125  0.16428594  0.06509953  1
  O2-  O283  1  0.78748007  0.16597061  0.40260969  1
  O2-  O284  1  0.79394610  0.16548961  0.72522057  1
  O2-  O285  1  0.79659259  0.66594066  0.06377297  1
  O2-  O286  1  0.78850958  0.66627445  0.40049171  1
  O2-  O287  1  0.79238039  0.67327136  0.73441891  1
