# generated using pymatgen
data_Ca2Al2SiO7
_symmetry_space_group_name_H-M   'P 1'
_cell_length_a   15.45940327
_cell_length_b   15.45872506
_cell_length_c   15.28439433
_cell_angle_alpha   90.00340050
_cell_angle_beta   90.00455344
_cell_angle_gamma   89.99787351
_symmetry_Int_Tables_number   1
_chemical_formula_structural   Ca2Al2SiO7
_chemical_formula_sum   'Ca48 Al48 Si24 O168'
_cell_volume   3652.70526361
_cell_formula_units_Z   24
loop_
 _symmetry_equiv_pos_site_id
 _symmetry_equiv_pos_as_xyz
  1  'x, y, z'
loop_
 _atom_type_symbol
 _atom_type_oxidation_number
  Ca2+  2.0
  Al0+  0.0
  Si0+  0.0
  O2-  -2.0
loop_
 _atom_site_type_symbol
 _atom_site_label
 _atom_site_symmetry_multiplicity
 _atom_site_fract_x
 _atom_site_fract_y
 _atom_site_fract_z
 _atom_site_occupancy
  Ca2+  Ca0  1  0.17139233  0.07748836  0.16481349  1
  Ca2+  Ca1  1  0.17022360  0.07987562  0.50354951  1
  Ca2+  Ca2  1  0.17661784  0.07533517  0.84729837  1
  Ca2+  Ca3  1  0.16099689  0.58024422  0.17341278  1
  Ca2+  Ca4  1  0.16638724  0.58830951  0.49420053  1
  Ca2+  Ca5  1  0.16646411  0.58168920  0.84295006  1
  Ca2+  Ca6  1  0.67556644  0.08381573  0.17407803  1
  Ca2+  Ca7  1  0.66583967  0.07594020  0.49823318  1
  Ca2+  Ca8  1  0.66541245  0.07820827  0.83904609  1
  Ca2+  Ca9  1  0.65926917  0.57185781  0.16990068  1
  Ca2+  Ca10  1  0.67120096  0.57924242  0.50494252  1
  Ca2+  Ca11  1  0.67269053  0.58236352  0.84165998  1
  Ca2+  Ca12  1  0.07841778  0.33872609  0.15877689  1
  Ca2+  Ca13  1  0.08276972  0.33335349  0.49328272  1
  Ca2+  Ca14  1  0.07828853  0.33800224  0.83673105  1
  Ca2+  Ca15  1  0.07609256  0.82665963  0.15941667  1
  Ca2+  Ca16  1  0.06698604  0.82866049  0.48882039  1
  Ca2+  Ca17  1  0.07311237  0.83810450  0.83494814  1
  Ca2+  Ca18  1  0.59181769  0.32519131  0.15933669  1
  Ca2+  Ca19  1  0.59178982  0.32194086  0.49320500  1
  Ca2+  Ca20  1  0.59177774  0.32078259  0.83380557  1
  Ca2+  Ca21  1  0.58057351  0.83195545  0.16506665  1
  Ca2+  Ca22  1  0.57628066  0.84220064  0.49437249  1
  Ca2+  Ca23  1  0.58152831  0.83149692  0.82758122  1
  Ca2+  Ca24  1  0.32118935  0.42523604  0.17513753  1
  Ca2+  Ca25  1  0.32959786  0.42334778  0.49738172  1
  Ca2+  Ca26  1  0.32588683  0.41787499  0.84346120  1
  Ca2+  Ca27  1  0.33180883  0.91527567  0.16749808  1
  Ca2+  Ca28  1  0.33661676  0.91061728  0.50364927  1
  Ca2+  Ca29  1  0.32979298  0.91901897  0.84124603  1
  Ca2+  Ca30  1  0.82376090  0.41273038  0.16885820  1
  Ca2+  Ca31  1  0.82895141  0.42495166  0.50101658  1
  Ca2+  Ca32  1  0.83118105  0.42309454  0.84123870  1
  Ca2+  Ca33  1  0.83387909  0.92369280  0.17354837  1
  Ca2+  Ca34  1  0.82311915  0.91103514  0.50357297  1
  Ca2+  Ca35  1  0.83278763  0.91870332  0.83885369  1
  Ca2+  Ca36  1  0.42988300  0.16393345  0.16049212  1
  Ca2+  Ca37  1  0.43247983  0.16533573  0.49358534  1
  Ca2+  Ca38  1  0.42837391  0.15979819  0.83180110  1
  Ca2+  Ca39  1  0.41853759  0.66751509  0.16519453  1
  Ca2+  Ca40  1  0.41439461  0.67724711  0.49172189  1
  Ca2+  Ca41  1  0.42468386  0.67056554  0.83149428  1
  Ca2+  Ca42  1  0.90927079  0.16984657  0.15829493  1
  Ca2+  Ca43  1  0.91493254  0.16645006  0.49374424  1
  Ca2+  Ca44  1  0.90968206  0.17119741  0.83805078  1
  Ca2+  Ca45  1  0.92323390  0.67742427  0.16001994  1
  Ca2+  Ca46  1  0.91414560  0.67512366  0.49414554  1
  Ca2+  Ca47  1  0.91817766  0.67599634  0.83035055  1
  Al0+  Al48  1  0.00127810  0.00154807  0.00369468  1
  Al0+  Al49  1  0.00197959  0.00273608  0.33376895  1
  Al0+  Al50  1  -0.00026365  0.00012429  0.66241966  1
  Al0+  Al51  1  -0.00085812  0.50154294  -0.00436399  1
  Al0+  Al52  1  -0.00125226  0.49842985  0.33501731  1
  Al0+  Al53  1  -0.00020434  0.49946503  0.66961168  1
  Al0+  Al54  1  0.50073107  0.00008113  -0.00036967  1
  Al0+  Al55  1  0.50120108  0.00093844  0.32625647  1
  Al0+  Al56  1  0.50131742  0.00046698  0.66301538  1
  Al0+  Al57  1  0.49987728  0.49903169  -0.00178208  1
  Al0+  Al58  1  0.49694618  0.49882051  0.34477788  1
  Al0+  Al59  1  0.49795222  0.49735009  0.66830698  1
  Al0+  Al60  1  0.25097853  0.25101729  0.00848191  1
  Al0+  Al61  1  0.25110786  0.25032127  0.33798073  1
  Al0+  Al62  1  0.25046313  0.25021020  0.66699367  1
  Al0+  Al63  1  0.24998753  0.75009536  -0.00063375  1
  Al0+  Al64  1  0.24977788  0.75009214  0.32955628  1
  Al0+  Al65  1  0.24997035  0.74841435  0.66606493  1
  Al0+  Al66  1  0.75022954  0.24983761  -0.00339788  1
  Al0+  Al67  1  0.75170692  0.24916461  0.33875543  1
  Al0+  Al68  1  0.75199592  0.24971508  0.66065047  1
  Al0+  Al69  1  0.74970840  0.75013006  -0.00653896  1
  Al0+  Al70  1  0.74729485  0.75057503  0.33162691  1
  Al0+  Al71  1  0.74998271  0.74902017  0.67186127  1
  Al0+  Al72  1  0.17631956  0.42850821  0.35015528  1
  Al0+  Al73  1  0.82036089  0.57039469  0.68149646  1
  Al0+  Al74  1  0.57027365  0.67646482  0.98728181  1
  Al0+  Al75  1  0.57118388  0.17906123  0.98602826  1
  Al0+  Al76  1  0.92891290  0.32058130  0.98686731  1
  Al0+  Al77  1  0.92832818  0.82121708  0.65153599  1
  Al0+  Al78  1  0.17927183  0.92750235  0.01594648  1
  Al0+  Al79  1  0.07180623  0.67925645  0.98362743  1
  Al0+  Al80  1  0.06844761  0.67887769  0.31850721  1
  Al0+  Al81  1  0.81874369  0.06982904  0.01109918  1
  Al0+  Al82  1  0.68020821  0.43031759  0.01143193  1
  Al0+  Al83  1  0.57149167  0.18250877  0.31736409  1
  Al0+  Al84  1  0.42963915  0.82103315  0.31791416  1
  Al0+  Al85  1  0.17716233  0.43128069  0.01337004  1
  Al0+  Al86  1  0.82343271  0.07067276  0.34955046  1
  Al0+  Al87  1  0.43013898  0.81861908  0.65433675  1
  Al0+  Al88  1  0.67825762  0.92834837  0.34679186  1
  Al0+  Al89  1  0.92498098  0.82367285  0.31740425  1
  Al0+  Al90  1  0.31971276  0.57356831  0.34958024  1
  Al0+  Al91  1  0.67853286  0.93100919  0.68139398  1
  Al0+  Al92  1  0.67809303  0.42796057  0.34741231  1
  Al0+  Al93  1  0.57133222  0.18054550  0.65087252  1
  Al0+  Al94  1  0.92900240  0.82491313  0.98403338  1
  Al0+  Al95  1  0.32453255  0.07123078  0.01618420  1
  Si0+  Si96  1  0.42916136  0.82187876  0.98318284  1
  Si0+  Si97  1  0.82439270  0.07283168  0.68403986  1
  Si0+  Si98  1  0.67802003  0.42592954  0.68388476  1
  Si0+  Si99  1  0.93093880  0.31865526  0.31952794  1
  Si0+  Si100  1  0.42671138  0.32300747  0.31710823  1
  Si0+  Si101  1  0.32079274  0.57173922  0.68397767  1
  Si0+  Si102  1  0.57190218  0.67535851  0.65055426  1
  Si0+  Si103  1  0.07560855  0.17886591  0.31803329  1
  Si0+  Si104  1  0.32194379  0.07036832  0.34955355  1
  Si0+  Si105  1  0.07301318  0.17952831  0.65248703  1
  Si0+  Si106  1  0.42451234  0.32237897  0.64861847  1
  Si0+  Si107  1  0.17992846  0.42781927  0.68340232  1
  Si0+  Si108  1  0.82167203  0.57406120  0.01708903  1
  Si0+  Si109  1  0.42691009  0.32147290  0.98498673  1
  Si0+  Si110  1  0.32042371  0.07052176  0.67968259  1
  Si0+  Si111  1  0.93135069  0.32170979  0.65006780  1
  Si0+  Si112  1  0.07459443  0.17947055  0.98463719  1
  Si0+  Si113  1  0.17796937  0.92877566  0.67954620  1
  Si0+  Si114  1  0.57136189  0.67393615  0.31948205  1
  Si0+  Si115  1  0.07156934  0.67626804  0.64941327  1
  Si0+  Si116  1  0.32305798  0.57202851  0.01540914  1
  Si0+  Si117  1  0.82054849  0.57193547  0.34738281  1
  Si0+  Si118  1  0.18027948  0.92946906  0.34941830  1
  Si0+  Si119  1  0.67743875  0.92507173  0.01591050  1
  O2-  O120  1  0.25345533  -0.00197839  0.06566482  1
  O2-  O121  1  0.25200818  -0.00077829  0.39389098  1
  O2-  O122  1  0.24986526  -0.00081560  0.72184161  1
  O2-  O123  1  0.24993330  0.50775919  0.05866666  1
  O2-  O124  1  0.24655917  0.50209953  0.40030694  1
  O2-  O125  1  0.25061285  0.49923118  0.72525145  1
  O2-  O126  1  0.74778232  -0.00741063  0.05840668  1
  O2-  O127  1  0.75483431  -0.00495966  0.39852399  1
  O2-  O128  1  0.75513975  0.00459215  0.72727085  1
  O2-  O129  1  0.75144093  0.50675463  0.06104631  1
  O2-  O130  1  0.74826950  0.50723609  0.39297538  1
  O2-  O131  1  0.74270596  0.49790482  0.72792839  1
  O2-  O132  1  0.00343924  0.24918577  0.27763740  1
  O2-  O133  1  0.00132275  0.24914025  0.60882849  1
  O2-  O134  1  0.00573050  0.24756524  0.93915986  1
  O2-  O135  1  -0.00304575  0.75100527  0.26905210  1
  O2-  O136  1  0.00307335  0.74547901  0.60627666  1
  O2-  O137  1  0.00082358  0.75219094  0.93364856  1
  O2-  O138  1  0.49871565  0.25953823  0.27114762  1
  O2-  O139  1  0.49795330  0.25822752  0.60558141  1
  O2-  O140  1  0.49376119  0.25164606  0.93922730  1
  O2-  O141  1  0.50421201  0.74436645  0.27529845  1
  O2-  O142  1  0.50398281  0.74409969  0.60559027  1
  O2-  O143  1  0.49828660  0.75347216  0.93946942  1
  O2-  O144  1  0.07470776  0.18079777  0.09014160  1
  O2-  O145  1  0.07688456  0.17955611  0.42399239  1
  O2-  O146  1  0.07669496  0.18076696  0.75701590  1
  O2-  O147  1  0.06896905  0.67790181  0.09678154  1
  O2-  O148  1  0.06635720  0.68149718  0.43291061  1
  O2-  O149  1  0.07275248  0.67576290  0.75464580  1
  O2-  O150  1  0.57265758  0.18153558  0.09867441  1
  O2-  O151  1  0.56906078  0.18218661  0.43090034  1
  O2-  O152  1  0.56980791  0.18092537  0.76406652  1
  O2-  O153  1  0.56667221  0.67415371  0.10028857  1
  O2-  O154  1  0.57108672  0.67315970  0.42527095  1
  O2-  O155  1  0.56840566  0.67485300  0.75623691  1
  O2-  O156  1  0.17681710  0.42757627  0.23703113  1
  O2-  O157  1  0.18032781  0.42534154  0.57878131  1
  O2-  O158  1  0.18072230  0.43037344  0.89931278  1
  O2-  O159  1  0.18063532  0.93201948  0.24495393  1
  O2-  O160  1  0.17838612  0.93125209  0.57425700  1
  O2-  O161  1  0.18119534  0.93085044  0.90112914  1
  O2-  O162  1  0.68064653  0.42723581  0.23430816  1
  O2-  O163  1  0.68063632  0.42610077  0.57813097  1
  O2-  O164  1  0.68295236  0.43042727  0.89811518  1
  O2-  O165  1  0.67627334  0.93076788  0.23346663  1
  O2-  O166  1  0.67648098  0.93281659  0.56867673  1
  O2-  O167  1  0.67551157  0.92732207  0.90986992  1
  O2-  O168  1  0.42845673  0.32294480  0.09015218  1
  O2-  O169  1  0.42523000  0.31794709  0.42310951  1
  O2-  O170  1  0.41890915  0.32073461  0.75397169  1
  O2-  O171  1  0.42999165  0.82155360  0.08861848  1
  O2-  O172  1  0.43017922  0.82121217  0.43154033  1
  O2-  O173  1  0.42873978  0.81707481  0.76723636  1
  O2-  O174  1  0.92801973  0.31881819  0.09999845  1
  O2-  O175  1  0.93250590  0.31833611  0.42533406  1
  O2-  O176  1  0.93144894  0.32186163  0.75498572  1
  O2-  O177  1  0.92885341  0.82396899  0.09717056  1
  O2-  O178  1  0.92625762  0.82098903  0.43170574  1
  O2-  O179  1  0.93235757  0.82450572  0.76403891  1
  O2-  O180  1  0.31953840  0.07129607  0.24507305  1
  O2-  O181  1  0.31768442  0.07148835  0.57435991  1
  O2-  O182  1  0.32348008  0.06964443  0.90140196  1
  O2-  O183  1  0.32152672  0.57068744  0.23625035  1
  O2-  O184  1  0.32011021  0.57316367  0.57950545  1
  O2-  O185  1  0.32389387  0.56896127  0.90906785  1
  O2-  O186  1  0.82062533  0.07452672  0.23613369  1
  O2-  O187  1  0.82625685  0.07332715  0.57880737  1
  O2-  O188  1  0.81586389  0.07104311  0.89756066  1
  O2-  O189  1  0.82207109  0.56862858  0.24223802  1
  O2-  O190  1  0.82026005  0.56709938  0.56795420  1
  O2-  O191  1  0.82053900  0.57135828  0.91109772  1
  O2-  O192  1  0.05091295  0.08688982  0.27073206  1
  O2-  O193  1  0.04668347  0.08827064  0.60280450  1
  O2-  O194  1  0.04948404  0.08624867  0.93821142  1
  O2-  O195  1  0.04110713  0.57868330  0.26883641  1
  O2-  O196  1  0.04615128  0.58177846  0.60466255  1
  O2-  O197  1  0.04272447  0.58185166  0.92840772  1
  O2-  O198  1  0.53803484  0.08786571  0.26286989  1
  O2-  O199  1  0.53583676  0.08621476  0.59600174  1
  O2-  O200  1  0.54065954  0.08213969  0.93132205  1
  O2-  O201  1  0.54210047  0.57998917  0.27558105  1
  O2-  O202  1  0.54666058  0.58023731  0.60642751  1
  O2-  O203  1  0.53765541  0.58169157  0.92919503  1
  O2-  O204  1  0.16741705  0.20700279  0.27154037  1
  O2-  O205  1  0.16414419  0.20837370  0.60281158  1
  O2-  O206  1  0.16850004  0.20627470  0.93881352  1
  O2-  O207  1  0.16715106  0.70545465  0.26710372  1
  O2-  O208  1  0.16565962  0.70166905  0.60430689  1
  O2-  O209  1  0.17202884  0.70433454  0.93120044  1
  O2-  O210  1  0.66978008  0.21387240  0.26790376  1
  O2-  O211  1  0.66843983  0.20956911  0.59630091  1
  O2-  O212  1  0.66481544  0.21353332  0.92897595  1
  O2-  O213  1  0.66473907  0.69582585  0.27208613  1
  O2-  O214  1  0.66660400  0.69881820  0.60754302  1
  O2-  O215  1  0.66642493  0.70428026  0.93110326  1
  O2-  O216  1  0.07918114  0.45955289  0.06517122  1
  O2-  O217  1  0.07759023  0.45466093  0.40465559  1
  O2-  O218  1  0.08772973  0.45466626  0.73006761  1
  O2-  O219  1  0.08338702  0.95993923  0.07038565  1
  O2-  O220  1  0.08980245  0.96023412  0.39842783  1
  O2-  O221  1  0.08710014  0.95961545  0.72673571  1
  O2-  O222  1  0.58224749  0.45753592  0.06448368  1
  O2-  O223  1  0.58129232  0.45125294  0.40435381  1
  O2-  O224  1  0.58110844  0.44409846  0.72655013  1
  O2-  O225  1  0.58403121  0.95108280  0.06083772  1
  O2-  O226  1  0.58063498  0.96397656  0.39900019  1
  O2-  O227  1  0.58197496  0.96420262  0.73537049  1
  O2-  O228  1  0.20625971  0.33556520  0.06884071  1
  O2-  O229  1  0.20792251  0.33065856  0.40500038  1
  O2-  O230  1  0.20810403  0.33590086  0.73123336  1
  O2-  O231  1  0.20687235  0.82879830  0.06810394  1
  O2-  O232  1  0.20732455  0.83762171  0.39615509  1
  O2-  O233  1  0.20496787  0.83650341  0.72592893  1
  O2-  O234  1  0.71506629  0.33509442  0.06462085  1
  O2-  O235  1  0.71704050  0.33599420  0.40462133  1
  O2-  O236  1  0.70983260  0.33313022  0.72800513  1
  O2-  O237  1  0.69992089  0.83010389  0.05987360  1
  O2-  O238  1  0.69860554  0.82729440  0.39969394  1
  O2-  O239  1  0.70493229  0.83299917  0.73435293  1
  O2-  O240  1  0.44648248  0.41976072  0.27690211  1
  O2-  O241  1  0.44557933  0.41814031  0.60451781  1
  O2-  O242  1  0.45249129  0.41380764  0.93584360  1
  O2-  O243  1  0.45991505  0.91629153  0.26204206  1
  O2-  O244  1  0.45856025  0.91567409  0.60005501  1
  O2-  O245  1  0.45425124  0.91531399  0.93643344  1
  O2-  O246  1  0.95573378  0.41077316  0.27227595  1
  O2-  O247  1  0.96225998  0.41240779  0.60205890  1
  O2-  O248  1  0.95903995  0.41601830  0.93017009  1
  O2-  O249  1  0.95687603  0.92296039  0.26897017  1
  O2-  O250  1  0.95977898  0.91767369  0.59650773  1
  O2-  O251  1  0.96052916  0.92330531  0.93129115  1
  O2-  O252  1  0.33371249  0.29396649  0.27163792  1
  O2-  O253  1  0.33272938  0.29278176  0.60010192  1
  O2-  O254  1  0.33231278  0.29678688  0.93951076  1
  O2-  O255  1  0.33339341  0.79129683  0.26382184  1
  O2-  O256  1  0.33268806  0.78843154  0.60007577  1
  O2-  O257  1  0.33561905  0.79697168  0.93684029  1
  O2-  O258  1  0.83966019  0.28894796  0.27324372  1
  O2-  O259  1  0.83990245  0.29588593  0.60092141  1
  O2-  O260  1  0.83565144  0.28652209  0.92835998  1
  O2-  O261  1  0.82590759  0.79753835  0.26548678  1
  O2-  O262  1  0.83076674  0.78816151  0.60101897  1
  O2-  O263  1  0.83067754  0.79712713  0.93030885  1
  O2-  O264  1  0.42251347  0.04245335  0.06914752  1
  O2-  O265  1  0.41402105  0.04163690  0.39511273  1
  O2-  O266  1  0.41204911  0.04247933  0.72601578  1
  O2-  O267  1  0.41429394  0.54171867  0.06263830  1
  O2-  O268  1  0.41535110  0.54440782  0.40895858  1
  O2-  O269  1  0.41314067  0.54417660  0.73163525  1
  O2-  O270  1  0.91746691  0.04808950  0.06437996  1
  O2-  O271  1  0.92525141  0.05138671  0.40081421  1
  O2-  O272  1  0.91903497  0.04813357  0.72908831  1
  O2-  O273  1  0.91463252  0.54595251  0.06114475  1
  O2-  O274  1  0.91092145  0.54048332  0.39708086  1
  O2-  O275  1  0.91610734  0.53602673  0.73572343  1
  O2-  O276  1  0.29647556  0.16858165  0.07054171  1
  O2-  O277  1  0.29363739  0.16124680  0.39927625  1
  O2-  O278  1  0.29211759  0.16209768  0.72750290  1
  O2-  O279  1  0.30374575  0.66746444  0.05855421  1
  O2-  O280  1  0.28986203  0.67206082  0.40314680  1
  O2-  O281  1  0.29204176  0.66275876  0.73279093  1
  O2-  O282  1  0.78594718  0.16579121  0.06482285  1
  O2-  O283  1  0.79163626  0.16691614  0.40567112  1
  O2-  O284  1  0.79933402  0.16848812  0.72664258  1
  O2-  O285  1  0.79727461  0.66866953  0.06040104  1
  O2-  O286  1  0.79741898  0.66613191  0.39327168  1
  O2-  O287  1  0.79221921  0.66600767  0.73794643  1
