# generated using pymatgen
data_Ca2Al2SiO7
_symmetry_space_group_name_H-M   'P 1'
_cell_length_a   15.46145737
_cell_length_b   15.46053702
_cell_length_c   15.28516409
_cell_angle_alpha   89.99947419
_cell_angle_beta   89.98624663
_cell_angle_gamma   90.00236566
_symmetry_Int_Tables_number   1
_chemical_formula_structural   Ca2Al2SiO7
_chemical_formula_sum   'Ca48 Al48 Si24 O168'
_cell_volume   3653.80272015
_cell_formula_units_Z   24
loop_
 _symmetry_equiv_pos_site_id
 _symmetry_equiv_pos_as_xyz
  1  'x, y, z'
loop_
 _atom_type_symbol
 _atom_type_oxidation_number
  Ca2+  2.0
  Al0+  0.0
  Si0+  0.0
  O2-  -2.0
loop_
 _atom_site_type_symbol
 _atom_site_label
 _atom_site_symmetry_multiplicity
 _atom_site_fract_x
 _atom_site_fract_y
 _atom_site_fract_z
 _atom_site_occupancy
  Ca2+  Ca0  1  0.17731850  0.06892814  0.17088154  1
  Ca2+  Ca1  1  0.17155849  0.07564037  0.49780593  1
  Ca2+  Ca2  1  0.17433783  0.07318573  0.84634774  1
  Ca2+  Ca3  1  0.16952031  0.59170908  0.16624907  1
  Ca2+  Ca4  1  0.16712706  0.58735392  0.50611163  1
  Ca2+  Ca5  1  0.17582506  0.59134132  0.83667925  1
  Ca2+  Ca6  1  0.67588824  0.08420430  0.16912547  1
  Ca2+  Ca7  1  0.67375937  0.07893818  0.50798479  1
  Ca2+  Ca8  1  0.67038583  0.08327285  0.83121639  1
  Ca2+  Ca9  1  0.65393846  0.57729298  0.16515630  1
  Ca2+  Ca10  1  0.67596887  0.58192684  0.50818995  1
  Ca2+  Ca11  1  0.66748057  0.58180893  0.84256376  1
  Ca2+  Ca12  1  0.07639462  0.33081354  0.16518330  1
  Ca2+  Ca13  1  0.07559289  0.32945810  0.49175568  1
  Ca2+  Ca14  1  0.08257557  0.32875165  0.83034309  1
  Ca2+  Ca15  1  0.08872237  0.83089897  0.16453253  1
  Ca2+  Ca16  1  0.08117089  0.82264187  0.49102666  1
  Ca2+  Ca17  1  0.08946665  0.82440811  0.83224793  1
  Ca2+  Ca18  1  0.57344862  0.33216802  0.15891697  1
  Ca2+  Ca19  1  0.57970992  0.32534486  0.49577285  1
  Ca2+  Ca20  1  0.58217785  0.33003187  0.83423638  1
  Ca2+  Ca21  1  0.57096243  0.83001238  0.15967971  1
  Ca2+  Ca22  1  0.57441798  0.84016945  0.49868472  1
  Ca2+  Ca23  1  0.57116481  0.84036702  0.82942580  1
  Ca2+  Ca24  1  0.34177677  0.42234666  0.16863912  1
  Ca2+  Ca25  1  0.33378715  0.42370560  0.50356154  1
  Ca2+  Ca26  1  0.33942917  0.42938505  0.84081675  1
  Ca2+  Ca27  1  0.32892933  0.91477582  0.17239694  1
  Ca2+  Ca28  1  0.33116769  0.90944270  0.50007569  1
  Ca2+  Ca29  1  0.33172291  0.91628248  0.84332201  1
  Ca2+  Ca30  1  0.82666221  0.41580570  0.16992857  1
  Ca2+  Ca31  1  0.83677622  0.42172376  0.50482832  1
  Ca2+  Ca32  1  0.82584211  0.42422068  0.83741213  1
  Ca2+  Ca33  1  0.83755028  0.92525657  0.17480135  1
  Ca2+  Ca34  1  0.83098919  0.92264270  0.50717188  1
  Ca2+  Ca35  1  0.82735341  0.92553533  0.83808949  1
  Ca2+  Ca36  1  0.40256425  0.17553507  0.16196217  1
  Ca2+  Ca37  1  0.42367083  0.16662380  0.49144125  1
  Ca2+  Ca38  1  0.41735549  0.17127207  0.82774455  1
  Ca2+  Ca39  1  0.41591341  0.67748091  0.15669755  1
  Ca2+  Ca40  1  0.41217224  0.67754247  0.49875700  1
  Ca2+  Ca41  1  0.41526547  0.67429176  0.83268894  1
  Ca2+  Ca42  1  0.90911390  0.16733335  0.16357264  1
  Ca2+  Ca43  1  0.91001119  0.16932975  0.49217974  1
  Ca2+  Ca44  1  0.91011758  0.16351821  0.83082305  1
  Ca2+  Ca45  1  0.92927498  0.67449607  0.16382148  1
  Ca2+  Ca46  1  0.92462869  0.66956789  0.49180231  1
  Ca2+  Ca47  1  0.92817352  0.66219620  0.82705992  1
  Al0+  Al48  1  0.00079911  0.00112205  0.00710178  1
  Al0+  Al49  1  0.00226584  -0.00011617  0.34045322  1
  Al0+  Al50  1  0.00140608  -0.00042266  0.67056253  1
  Al0+  Al51  1  -0.00131579  0.50019571  -0.00472065  1
  Al0+  Al52  1  0.00058506  0.49789810  0.32440629  1
  Al0+  Al53  1  0.00045520  0.49749060  0.66757366  1
  Al0+  Al54  1  0.50280986  0.00387702  0.00087189  1
  Al0+  Al55  1  0.50271667  0.00046379  0.33047044  1
  Al0+  Al56  1  0.49987290  0.00214877  0.66022984  1
  Al0+  Al57  1  0.49963000  0.49887057  0.00040482  1
  Al0+  Al58  1  0.50021408  0.49668974  0.33558461  1
  Al0+  Al59  1  0.49922895  0.50135517  0.66939140  1
  Al0+  Al60  1  0.24672264  0.25157472  -0.00358164  1
  Al0+  Al61  1  0.24971176  0.25130476  0.33473352  1
  Al0+  Al62  1  0.24765803  0.25053991  0.66381530  1
  Al0+  Al63  1  0.24914698  0.74849582  -0.00015583  1
  Al0+  Al64  1  0.25247182  0.74912664  0.33074684  1
  Al0+  Al65  1  0.24962885  0.74885721  0.66233646  1
  Al0+  Al66  1  0.74832321  0.25306100  0.00625638  1
  Al0+  Al67  1  0.74845680  0.25029555  0.33332461  1
  Al0+  Al68  1  0.74887284  0.25054676  0.66521936  1
  Al0+  Al69  1  0.75199670  0.75063613  -0.00116417  1
  Al0+  Al70  1  0.75167992  0.74764073  0.32942587  1
  Al0+  Al71  1  0.74925888  0.75084349  0.67719398  1
  Al0+  Al72  1  0.92769109  0.31886440  0.31873158  1
  Al0+  Al73  1  0.43203228  0.82064948  0.31929679  1
  Al0+  Al74  1  0.92781250  0.82334011  0.32001757  1
  Al0+  Al75  1  0.42981259  0.82286206  0.98516104  1
  Al0+  Al76  1  0.82274195  0.57134061  0.67953209  1
  Al0+  Al77  1  0.31939792  0.57097441  0.67992098  1
  Al0+  Al78  1  0.81900032  0.06999663  0.01478713  1
  Al0+  Al79  1  0.06904394  0.67990948  0.98355326  1
  Al0+  Al80  1  0.32289983  0.07272696  0.34953702  1
  Al0+  Al81  1  0.18163403  0.92614418  0.35172608  1
  Al0+  Al82  1  0.67992834  0.43272540  0.01468427  1
  Al0+  Al83  1  0.31911759  0.56835779  0.01428169  1
  Al0+  Al84  1  0.57161245  0.67825707  0.98532884  1
  Al0+  Al85  1  0.07196025  0.67873493  0.31701620  1
  Al0+  Al86  1  0.06858487  0.67920322  0.65260330  1
  Al0+  Al87  1  0.82040737  0.07042795  0.34796339  1
  Al0+  Al88  1  0.56996195  0.18120489  0.65219949  1
  Al0+  Al89  1  0.82190314  0.07175667  0.68186459  1
  Al0+  Al90  1  0.42684115  0.31930824  0.98497516  1
  Al0+  Al91  1  0.18178150  0.92758245  0.01473316  1
  Al0+  Al92  1  0.67557114  0.92925168  0.68216771  1
  Al0+  Al93  1  0.32420334  0.07407666  0.01201081  1
  Al0+  Al94  1  0.43017011  0.82015837  0.65233270  1
  Al0+  Al95  1  0.42875703  0.32009292  0.32016756  1
  Si0+  Si96  1  0.57442559  0.67602252  0.65123440  1
  Si0+  Si97  1  0.42625398  0.32417632  0.64951816  1
  Si0+  Si98  1  0.17746136  0.42578108  0.68328166  1
  Si0+  Si99  1  0.67721879  0.92603859  0.01847786  1
  Si0+  Si100  1  0.82303415  0.56870070  0.34601171  1
  Si0+  Si101  1  0.32174653  0.56926864  0.34844875  1
  Si0+  Si102  1  0.07253784  0.17602058  0.65116722  1
  Si0+  Si103  1  0.67850070  0.42950810  0.35054895  1
  Si0+  Si104  1  0.57194245  0.17866532  0.31471980  1
  Si0+  Si105  1  0.18090797  0.92895259  0.68130584  1
  Si0+  Si106  1  0.06844110  0.17925157  0.98506941  1
  Si0+  Si107  1  0.67893294  0.92465137  0.34853982  1
  Si0+  Si108  1  0.67803158  0.42885943  0.68258832  1
  Si0+  Si109  1  0.07272345  0.17767248  0.31682686  1
  Si0+  Si110  1  0.17427173  0.42715400  0.01665482  1
  Si0+  Si111  1  0.92645942  0.32021497  0.98312065  1
  Si0+  Si112  1  0.57377943  0.67510126  0.31985325  1
  Si0+  Si113  1  0.57539752  0.18054390  0.98330941  1
  Si0+  Si114  1  0.92645403  0.82326156  0.65330962  1
  Si0+  Si115  1  0.92849761  0.82626689  0.98251616  1
  Si0+  Si116  1  0.32038725  0.07310944  0.67935654  1
  Si0+  Si117  1  0.93007669  0.31813103  0.65285128  1
  Si0+  Si118  1  0.82499658  0.57342520  0.01835500  1
  Si0+  Si119  1  0.17678724  0.42950264  0.34745162  1
  O2-  O120  1  0.25944713  -0.00442083  0.06184860  1
  O2-  O121  1  0.25520262  -0.00244887  0.40179788  1
  O2-  O122  1  0.25066402  0.00175455  0.72238350  1
  O2-  O123  1  0.24385848  0.49387912  0.06168407  1
  O2-  O124  1  0.24736920  0.50078097  0.38978970  1
  O2-  O125  1  0.24755774  0.49281372  0.72632328  1
  O2-  O126  1  0.74818437  -0.00731647  0.06246405  1
  O2-  O127  1  0.75003975  -0.00881558  0.39303708  1
  O2-  O128  1  0.75100828  -0.00115336  0.73125393  1
  O2-  O129  1  0.75066577  0.51100591  0.06293021  1
  O2-  O130  1  0.75044379  0.50023109  0.39115276  1
  O2-  O131  1  0.74275833  0.50176511  0.72578626  1
  O2-  O132  1  -0.00151294  0.24062349  0.27188684  1
  O2-  O133  1  -0.00164989  0.24466838  0.61010242  1
  O2-  O134  1  -0.00303313  0.24921727  0.94054493  1
  O2-  O135  1  0.00304302  0.75498184  0.26931980  1
  O2-  O136  1  -0.00950177  0.75090591  0.60761776  1
  O2-  O137  1  -0.00625720  0.75466761  0.93732873  1
  O2-  O138  1  0.49761907  0.24145489  0.27145077  1
  O2-  O139  1  0.49379678  0.25492199  0.60538736  1
  O2-  O140  1  0.49850278  0.24092429  0.93971071  1
  O2-  O141  1  0.50840958  0.74630999  0.27609718  1
  O2-  O142  1  0.50739661  0.74594039  0.60667190  1
  O2-  O143  1  0.50400931  0.75335721  0.93396629  1
  O2-  O144  1  0.06739163  0.18200327  0.08985128  1
  O2-  O145  1  0.07319075  0.18303019  0.42300968  1
  O2-  O146  1  0.07575594  0.17842077  0.75624783  1
  O2-  O147  1  0.06711197  0.67797006  0.09616640  1
  O2-  O148  1  0.06839408  0.67552348  0.43105414  1
  O2-  O149  1  0.07013294  0.68104374  0.76548154  1
  O2-  O150  1  0.58192498  0.18592134  0.08842498  1
  O2-  O151  1  0.57401539  0.18308604  0.42051825  1
  O2-  O152  1  0.56940223  0.18408757  0.76532531  1
  O2-  O153  1  0.56708562  0.67869174  0.09950399  1
  O2-  O154  1  0.57445747  0.67260326  0.42553766  1
  O2-  O155  1  0.57176689  0.67234938  0.75610637  1
  O2-  O156  1  0.17542634  0.42830004  0.24271621  1
  O2-  O157  1  0.17563523  0.42366103  0.57757415  1
  O2-  O158  1  0.17325882  0.42656602  0.91091952  1
  O2-  O159  1  0.18322426  0.92622725  0.23856522  1
  O2-  O160  1  0.18027247  0.92945601  0.57650123  1
  O2-  O161  1  0.17971192  0.93082819  0.90019271  1
  O2-  O162  1  0.67660941  0.43056510  0.24575006  1
  O2-  O163  1  0.68005388  0.42823629  0.57657390  1
  O2-  O164  1  0.68424502  0.43003277  0.90139257  1
  O2-  O165  1  0.67899388  0.92600485  0.24307490  1
  O2-  O166  1  0.67690800  0.93115094  0.56820731  1
  O2-  O167  1  0.67691637  0.92786652  0.91299412  1
  O2-  O168  1  0.42872859  0.31964426  0.09818961  1
  O2-  O169  1  0.43344812  0.32421194  0.43341703  1
  O2-  O170  1  0.42520592  0.32299726  0.75493136  1
  O2-  O171  1  0.43013227  0.82039402  0.09875240  1
  O2-  O172  1  0.43195834  0.81765633  0.43277120  1
  O2-  O173  1  0.42759317  0.82086168  0.76485244  1
  O2-  O174  1  0.92693897  0.31985752  0.08819729  1
  O2-  O175  1  0.93006043  0.32126995  0.43238115  1
  O2-  O176  1  0.93128213  0.31857323  0.75802839  1
  O2-  O177  1  0.93013546  0.82651249  0.08799272  1
  O2-  O178  1  0.92417310  0.81752113  0.43393468  1
  O2-  O179  1  0.93126737  0.82540751  0.75872007  1
  O2-  O180  1  0.31757992  0.07506462  0.23659414  1
  O2-  O181  1  0.31744084  0.07534784  0.57459267  1
  O2-  O182  1  0.31875449  0.07561655  0.89751332  1
  O2-  O183  1  0.32428067  0.56695849  0.24369534  1
  O2-  O184  1  0.31727771  0.56918034  0.56620127  1
  O2-  O185  1  0.31765313  0.56845868  0.90104533  1
  O2-  O186  1  0.81595154  0.07312636  0.23486205  1
  O2-  O187  1  0.82102051  0.07275400  0.56846052  1
  O2-  O188  1  0.81723737  0.07123416  0.90182729  1
  O2-  O189  1  0.82276371  0.56618574  0.24133453  1
  O2-  O190  1  0.82368545  0.56686722  0.56571906  1
  O2-  O191  1  0.82739914  0.56734386  0.91262594  1
  O2-  O192  1  0.05378835  0.08164795  0.27542020  1
  O2-  O193  1  0.04813097  0.08313826  0.60490087  1
  O2-  O194  1  0.04081705  0.08724800  0.93812279  1
  O2-  O195  1  0.04126818  0.58208598  0.26224440  1
  O2-  O196  1  0.04178814  0.57963380  0.60147264  1
  O2-  O197  1  0.03819087  0.58265462  0.92892124  1
  O2-  O198  1  0.55627951  0.08303528  0.27030953  1
  O2-  O199  1  0.54019806  0.08665456  0.59449279  1
  O2-  O200  1  0.56025081  0.08416211  0.94014814  1
  O2-  O201  1  0.54362541  0.58237908  0.27448378  1
  O2-  O202  1  0.54868904  0.58218589  0.60373275  1
  O2-  O203  1  0.54196850  0.58022739  0.93299462  1
  O2-  O204  1  0.16286379  0.21143928  0.26971991  1
  O2-  O205  1  0.16187583  0.20731862  0.60017830  1
  O2-  O206  1  0.15792590  0.20878021  0.93355245  1
  O2-  O207  1  0.17152579  0.70364741  0.26631381  1
  O2-  O208  1  0.16330455  0.71238946  0.59713816  1
  O2-  O209  1  0.16547741  0.71094258  0.92989899  1
  O2-  O210  1  0.66230459  0.21261112  0.26745747  1
  O2-  O211  1  0.66585241  0.21431096  0.59663402  1
  O2-  O212  1  0.66467073  0.21766181  0.93470602  1
  O2-  O213  1  0.66807294  0.69372095  0.27235034  1
  O2-  O214  1  0.67038097  0.69921180  0.60811443  1
  O2-  O215  1  0.67463546  0.69759668  0.93710136  1
  O2-  O216  1  0.08006663  0.45327320  0.06156733  1
  O2-  O217  1  0.08452743  0.45716191  0.39519854  1
  O2-  O218  1  0.08448004  0.45054936  0.73073193  1
  O2-  O219  1  0.08593474  0.96182049  0.06927104  1
  O2-  O220  1  0.08371790  0.95482279  0.40642770  1
  O2-  O221  1  0.08942757  0.95531338  0.73004216  1
  O2-  O222  1  0.58320851  0.46010765  0.07004349  1
  O2-  O223  1  0.58799334  0.45738098  0.40103906  1
  O2-  O224  1  0.58300600  0.44883904  0.72756517  1
  O2-  O225  1  0.58520673  0.95467629  0.06595747  1
  O2-  O226  1  0.58660840  0.95388489  0.39513176  1
  O2-  O227  1  0.57843329  0.96501162  0.73377604  1
  O2-  O228  1  0.19673987  0.33273978  0.06174239  1
  O2-  O229  1  0.20421281  0.33895510  0.39773594  1
  O2-  O230  1  0.20070379  0.33115927  0.72971133  1
  O2-  O231  1  0.20489077  0.82856931  0.06691528  1
  O2-  O232  1  0.21173199  0.82694404  0.40374213  1
  O2-  O233  1  0.21099881  0.83765726  0.72721015  1
  O2-  O234  1  0.71501338  0.33941746  0.07217905  1
  O2-  O235  1  0.70753544  0.33829476  0.39794491  1
  O2-  O236  1  0.70942309  0.33777491  0.72963510  1
  O2-  O237  1  0.70001649  0.83105753  0.06312317  1
  O2-  O238  1  0.70039783  0.82902935  0.39317891  1
  O2-  O239  1  0.69705124  0.83061132  0.73744460  1
  O2-  O240  1  0.46472735  0.41522897  0.26607387  1
  O2-  O241  1  0.45318710  0.41788983  0.60405253  1
  O2-  O242  1  0.46362309  0.41379073  0.93126013  1
  O2-  O243  1  0.46053026  0.91775785  0.26548050  1
  O2-  O244  1  0.45836068  0.91676311  0.59685531  1
  O2-  O245  1  0.45626487  0.92393379  0.93474362  1
  O2-  O246  1  0.96156144  0.41198882  0.26077931  1
  O2-  O247  1  0.96115772  0.40829762  0.60377723  1
  O2-  O248  1  0.95458587  0.41123485  0.93441110  1
  O2-  O249  1  0.95280181  0.92440207  0.27159129  1
  O2-  O250  1  0.95590498  0.91606530  0.60663249  1
  O2-  O251  1  0.95688735  0.91967422  0.93734879  1
  O2-  O252  1  0.32962710  0.29676385  0.26796559  1
  O2-  O253  1  0.33135202  0.30066878  0.60431257  1
  O2-  O254  1  0.32850321  0.29526856  0.93010895  1
  O2-  O255  1  0.33723106  0.78686011  0.26541472  1
  O2-  O256  1  0.33556978  0.78482275  0.59655131  1
  O2-  O257  1  0.33181248  0.79139117  0.93368417  1
  O2-  O258  1  0.82991375  0.29159585  0.26548443  1
  O2-  O259  1  0.83774186  0.29478528  0.60451219  1
  O2-  O260  1  0.83487071  0.29121488  0.93658335  1
  O2-  O261  1  0.83128316  0.79233119  0.26351382  1
  O2-  O262  1  0.82983986  0.80274886  0.61187011  1
  O2-  O263  1  0.83318138  0.80496429  0.93817605  1
  O2-  O264  1  0.42651860  0.06043446  0.06164069  1
  O2-  O265  1  0.42515100  0.04950355  0.39699962  1
  O2-  O266  1  0.41329287  0.04822624  0.72372260  1
  O2-  O267  1  0.41469937  0.53600699  0.06846204  1
  O2-  O268  1  0.41163561  0.53709129  0.39801711  1
  O2-  O269  1  0.41686802  0.54318888  0.73396083  1
  O2-  O270  1  0.91640573  0.04449639  0.06929145  1
  O2-  O271  1  0.91925908  0.04923066  0.40146002  1
  O2-  O272  1  0.92168635  0.04666050  0.73482004  1
  O2-  O273  1  0.91555774  0.53895629  0.06493693  1
  O2-  O274  1  0.91391914  0.53620537  0.39275467  1
  O2-  O275  1  0.91618544  0.53248216  0.73512730  1
  O2-  O276  1  0.28559645  0.17023326  0.06371540  1
  O2-  O277  1  0.29160574  0.17117586  0.40331644  1
  O2-  O278  1  0.29174590  0.16553242  0.72624737  1
  O2-  O279  1  0.28730882  0.66407914  0.06826033  1
  O2-  O280  1  0.29593275  0.66125197  0.39527518  1
  O2-  O281  1  0.28450049  0.66638625  0.73306342  1
  O2-  O282  1  0.78662336  0.16641529  0.06833345  1
  O2-  O283  1  0.78566830  0.16727927  0.40087022  1
  O2-  O284  1  0.79158298  0.17088691  0.73316567  1
  O2-  O285  1  0.80864270  0.67040269  0.06011296  1
  O2-  O286  1  0.79758964  0.66116390  0.39344931  1
  O2-  O287  1  0.80052785  0.66811111  0.73592273  1
