# generated using pymatgen
data_Ca2Al2SiO7
_symmetry_space_group_name_H-M   'P 1'
_cell_length_a   15.45784213
_cell_length_b   15.45836215
_cell_length_c   15.28313652
_cell_angle_alpha   90.00556532
_cell_angle_beta   89.99465019
_cell_angle_gamma   89.97942157
_symmetry_Int_Tables_number   1
_chemical_formula_structural   Ca2Al2SiO7
_chemical_formula_sum   'Ca48 Al48 Si24 O168'
_cell_volume   3651.94985354
_cell_formula_units_Z   24
loop_
 _symmetry_equiv_pos_site_id
 _symmetry_equiv_pos_as_xyz
  1  'x, y, z'
loop_
 _atom_type_symbol
 _atom_type_oxidation_number
  Ca2+  2.0
  Al0+  0.0
  Si0+  0.0
  O2-  -2.0
loop_
 _atom_site_type_symbol
 _atom_site_label
 _atom_site_symmetry_multiplicity
 _atom_site_fract_x
 _atom_site_fract_y
 _atom_site_fract_z
 _atom_site_occupancy
  Ca2+  Ca0  1  0.15642325  0.07396249  0.16945570  1
  Ca2+  Ca1  1  0.16070096  0.08131155  0.50013955  1
  Ca2+  Ca2  1  0.16090720  0.07945574  0.83930986  1
  Ca2+  Ca3  1  0.17741779  0.59449277  0.16767033  1
  Ca2+  Ca4  1  0.17965816  0.58661912  0.50413053  1
  Ca2+  Ca5  1  0.17499035  0.59110432  0.84093992  1
  Ca2+  Ca6  1  0.66885545  0.07456108  0.16669955  1
  Ca2+  Ca7  1  0.66780212  0.08422240  0.50721981  1
  Ca2+  Ca8  1  0.66705729  0.07683383  0.84011931  1
  Ca2+  Ca9  1  0.67225082  0.58560823  0.16728759  1
  Ca2+  Ca10  1  0.66570691  0.57017544  0.50444689  1
  Ca2+  Ca11  1  0.67222346  0.58135924  0.84136774  1
  Ca2+  Ca12  1  0.08361481  0.32150169  0.15635047  1
  Ca2+  Ca13  1  0.08669157  0.32222013  0.49582535  1
  Ca2+  Ca14  1  0.07375121  0.32713953  0.82825504  1
  Ca2+  Ca15  1  0.07637551  0.83466675  0.15918979  1
  Ca2+  Ca16  1  0.07393846  0.83739291  0.49429735  1
  Ca2+  Ca17  1  0.07768525  0.83099550  0.83605148  1
  Ca2+  Ca18  1  0.58085470  0.34043306  0.16976344  1
  Ca2+  Ca19  1  0.58541558  0.33414573  0.49685587  1
  Ca2+  Ca20  1  0.58706228  0.32792046  0.82633269  1
  Ca2+  Ca21  1  0.57204402  0.82853622  0.15517596  1
  Ca2+  Ca22  1  0.56744277  0.83082042  0.49464455  1
  Ca2+  Ca23  1  0.57637592  0.82908122  0.83264861  1
  Ca2+  Ca24  1  0.33684015  0.42945854  0.17397772  1
  Ca2+  Ca25  1  0.34038741  0.42783478  0.50377464  1
  Ca2+  Ca26  1  0.33320470  0.43100801  0.83953373  1
  Ca2+  Ca27  1  0.32043498  0.90726562  0.16991218  1
  Ca2+  Ca28  1  0.32692743  0.90928463  0.50272833  1
  Ca2+  Ca29  1  0.33038258  0.91473841  0.84238751  1
  Ca2+  Ca30  1  0.83304066  0.42144772  0.16822567  1
  Ca2+  Ca31  1  0.82403240  0.40964935  0.50708244  1
  Ca2+  Ca32  1  0.83252223  0.41414303  0.83959413  1
  Ca2+  Ca33  1  0.82952686  0.90653224  0.16849495  1
  Ca2+  Ca34  1  0.83708037  0.91585293  0.50415998  1
  Ca2+  Ca35  1  0.83045610  0.91182671  0.84208217  1
  Ca2+  Ca36  1  0.41254415  0.17693773  0.16535440  1
  Ca2+  Ca37  1  0.42421190  0.17425578  0.49491838  1
  Ca2+  Ca38  1  0.42427367  0.16671272  0.82740139  1
  Ca2+  Ca39  1  0.41707256  0.67175023  0.15923747  1
  Ca2+  Ca40  1  0.40950157  0.67153140  0.49623225  1
  Ca2+  Ca41  1  0.41216929  0.67437594  0.83450833  1
  Ca2+  Ca42  1  0.92680883  0.17213768  0.16045392  1
  Ca2+  Ca43  1  0.92678646  0.17086685  0.49971208  1
  Ca2+  Ca44  1  0.92570715  0.17374156  0.83007564  1
  Ca2+  Ca45  1  0.92182404  0.67304092  0.15432334  1
  Ca2+  Ca46  1  0.91456968  0.67829260  0.49625808  1
  Ca2+  Ca47  1  0.91521836  0.67337368  0.83406118  1
  Al0+  Al48  1  -0.00081985  0.00196775  -0.00295345  1
  Al0+  Al49  1  -0.00131460  0.00001723  0.33024180  1
  Al0+  Al50  1  -0.00052984  -0.00000126  0.66150510  1
  Al0+  Al51  1  0.00017847  0.49925692  -0.00257118  1
  Al0+  Al52  1  0.00108598  0.50048854  0.33628037  1
  Al0+  Al53  1  -0.00003308  0.50119699  0.66137027  1
  Al0+  Al54  1  0.49941633  0.00174477  0.00373653  1
  Al0+  Al55  1  0.49932003  0.00030302  0.32956339  1
  Al0+  Al56  1  0.49883042  -0.00093756  0.65823351  1
  Al0+  Al57  1  0.50017203  0.50051107  0.00055961  1
  Al0+  Al58  1  0.50205536  0.49944836  0.33871737  1
  Al0+  Al59  1  0.50176395  0.50071670  0.67878854  1
  Al0+  Al60  1  0.25169951  0.25050267  -0.00582416  1
  Al0+  Al61  1  0.25216702  0.24864548  0.32499143  1
  Al0+  Al62  1  0.25158961  0.24990631  0.66446436  1
  Al0+  Al63  1  0.24900194  0.75251545  0.00155870  1
  Al0+  Al64  1  0.24843961  0.75150000  0.34051890  1
  Al0+  Al65  1  0.24898853  0.75135711  0.66845282  1
  Al0+  Al66  1  0.74880988  0.24871767  0.00090429  1
  Al0+  Al67  1  0.75148313  0.24810603  0.33598208  1
  Al0+  Al68  1  0.75109584  0.24749194  0.66512833  1
  Al0+  Al69  1  0.74714717  0.74767718  0.00241719  1
  Al0+  Al70  1  0.74845697  0.75010674  0.33410911  1
  Al0+  Al71  1  0.74787471  0.74869181  0.66087451  1
  Al0+  Al72  1  0.67825299  0.92773669  0.01306948  1
  Al0+  Al73  1  0.07307250  0.17918131  0.64978131  1
  Al0+  Al74  1  0.07064813  0.18039958  0.31765991  1
  Al0+  Al75  1  0.92878816  0.32285265  0.65023149  1
  Al0+  Al76  1  0.17879770  0.93192047  0.34860967  1
  Al0+  Al77  1  0.31967289  0.57077974  0.01554111  1
  Al0+  Al78  1  0.92680082  0.82089825  0.98622259  1
  Al0+  Al79  1  0.42831673  0.81925832  0.65231363  1
  Al0+  Al80  1  0.07225654  0.67893283  0.98630113  1
  Al0+  Al81  1  0.07265779  0.17858265  0.98320064  1
  Al0+  Al82  1  0.92733742  0.32187763  0.98659550  1
  Al0+  Al83  1  0.92854739  0.81963527  0.31851341  1
  Al0+  Al84  1  0.31940432  0.57171137  0.68392515  1
  Al0+  Al85  1  0.82235000  0.56996299  0.01260599  1
  Al0+  Al86  1  0.57069710  0.17849238  0.65407596  1
  Al0+  Al87  1  0.42682986  0.82062705  0.31843011  1
  Al0+  Al88  1  0.68272449  0.42970692  0.34740662  1
  Al0+  Al89  1  0.92789772  0.81914383  0.65283460  1
  Al0+  Al90  1  0.31970223  0.56999137  0.34786090  1
  Al0+  Al91  1  0.17874489  0.93222564  0.01252519  1
  Al0+  Al92  1  0.42816355  0.82215390  0.98601810  1
  Al0+  Al93  1  0.68231758  0.42752624  0.68308579  1
  Al0+  Al94  1  0.57061348  0.67699286  0.98491539  1
  Al0+  Al95  1  0.43212146  0.32172089  0.32088115  1
  Si0+  Si96  1  0.32381145  0.07436952  0.35064352  1
  Si0+  Si97  1  0.82123041  0.06783698  0.68185472  1
  Si0+  Si98  1  0.42990003  0.32260732  0.98399465  1
  Si0+  Si99  1  0.07369178  0.67891102  0.64890352  1
  Si0+  Si100  1  0.82421308  0.57400383  0.35142498  1
  Si0+  Si101  1  0.43032317  0.32418232  0.65263950  1
  Si0+  Si102  1  0.92673191  0.32280876  0.31728001  1
  Si0+  Si103  1  0.82051310  0.07218661  0.01692358  1
  Si0+  Si104  1  0.57515015  0.17736066  0.31468446  1
  Si0+  Si105  1  0.57043142  0.67767813  0.31810269  1
  Si0+  Si106  1  0.67687424  0.92844984  0.67916398  1
  Si0+  Si107  1  0.57159514  0.67624470  0.64913461  1
  Si0+  Si108  1  0.67830962  0.42533003  0.01784253  1
  Si0+  Si109  1  0.07192923  0.67725108  0.31890792  1
  Si0+  Si110  1  0.32386804  0.07504031  0.01702379  1
  Si0+  Si111  1  0.81948019  0.06861745  0.34958271  1
  Si0+  Si112  1  0.17820791  0.42401813  0.34837639  1
  Si0+  Si113  1  0.82256298  0.57438341  0.68220841  1
  Si0+  Si114  1  0.17715073  0.42619750  0.68246417  1
  Si0+  Si115  1  0.67637431  0.92801216  0.35012242  1
  Si0+  Si116  1  0.17809916  0.93193416  0.68220170  1
  Si0+  Si117  1  0.17878783  0.42630249  0.01530014  1
  Si0+  Si118  1  0.32323088  0.07128439  0.67932517  1
  Si0+  Si119  1  0.57008501  0.17924947  0.98676901  1
  O2-  O120  1  0.25322942  0.00793515  0.05952347  1
  O2-  O121  1  0.25617810  0.00492190  0.39561007  1
  O2-  O122  1  0.24948877  0.00386212  0.72244016  1
  O2-  O123  1  0.24409061  0.49679856  0.06222738  1
  O2-  O124  1  0.24479157  0.49429356  0.39396133  1
  O2-  O125  1  0.24357364  0.49637256  0.72818484  1
  O2-  O126  1  0.75664332  -0.00138224  0.06119310  1
  O2-  O127  1  0.74752356  -0.00152259  0.39304367  1
  O2-  O128  1  0.75014111  -0.00385216  0.72322480  1
  O2-  O129  1  0.74852338  0.49349053  0.05948655  1
  O2-  O130  1  0.75981461  0.50126164  0.39561530  1
  O2-  O131  1  0.75941732  0.50081948  0.72693938  1
  O2-  O132  1  0.00119994  0.26103033  0.27302374  1
  O2-  O133  1  0.00524296  0.25545361  0.60020452  1
  O2-  O134  1  0.00113908  0.25217938  0.93620105  1
  O2-  O135  1  -0.00082732  0.74087163  0.27440328  1
  O2-  O136  1  0.00080840  0.74346632  0.60510390  1
  O2-  O137  1  -0.00208257  0.74849478  0.93572464  1
  O2-  O138  1  0.50569404  0.24606168  0.27203972  1
  O2-  O139  1  0.49874028  0.25566620  0.60760953  1
  O2-  O140  1  0.50074721  0.25083895  0.94320782  1
  O2-  O141  1  0.50295398  0.74707614  0.27359901  1
  O2-  O142  1  0.50049207  0.74237745  0.60483634  1
  O2-  O143  1  0.49961240  0.75019815  0.93517595  1
  O2-  O144  1  0.07106501  0.17935286  0.09697850  1
  O2-  O145  1  0.06845350  0.18039862  0.43074006  1
  O2-  O146  1  0.07027726  0.17696891  0.76270049  1
  O2-  O147  1  0.07253171  0.68171813  0.10017114  1
  O2-  O148  1  0.07139774  0.67874156  0.42487864  1
  O2-  O149  1  0.07596866  0.68155178  0.75404894  1
  O2-  O150  1  0.57010674  0.17956912  0.09184955  1
  O2-  O151  1  0.57537118  0.17685620  0.42038572  1
  O2-  O152  1  0.56841569  0.17640643  0.76745155  1
  O2-  O153  1  0.56891094  0.67678367  0.09896225  1
  O2-  O154  1  0.57036818  0.67918315  0.42408688  1
  O2-  O155  1  0.57536601  0.67956312  0.75411165  1
  O2-  O156  1  0.17918499  0.42357765  0.24303421  1
  O2-  O157  1  0.18100037  0.42540811  0.57659367  1
  O2-  O158  1  0.18411044  0.42461490  0.90974679  1
  O2-  O159  1  0.17762952  0.93207372  0.23591705  1
  O2-  O160  1  0.17797697  0.93207142  0.57685881  1
  O2-  O161  1  0.18003854  0.93334187  0.89887579  1
  O2-  O162  1  0.68346114  0.43110364  0.23443151  1
  O2-  O163  1  0.68096073  0.42886219  0.56965872  1
  O2-  O164  1  0.67836347  0.42183127  0.91248496  1
  O2-  O165  1  0.67687232  0.92864022  0.24518577  1
  O2-  O166  1  0.67727234  0.93144074  0.57374158  1
  O2-  O167  1  0.67616963  0.93253545  0.89945270  1
  O2-  O168  1  0.43042843  0.32276617  0.08927381  1
  O2-  O169  1  0.43462534  0.32103483  0.43412829  1
  O2-  O170  1  0.43078095  0.32089129  0.75841776  1
  O2-  O171  1  0.42839426  0.82006075  0.09960618  1
  O2-  O172  1  0.42805044  0.81884930  0.43201172  1
  O2-  O173  1  0.42976663  0.82239761  0.76475639  1
  O2-  O174  1  0.92675865  0.31875041  0.10068136  1
  O2-  O175  1  0.92450758  0.31857791  0.42261019  1
  O2-  O176  1  0.92814564  0.31905996  0.76343056  1
  O2-  O177  1  0.92860448  0.81950297  0.09984222  1
  O2-  O178  1  0.92949525  0.82029838  0.43214421  1
  O2-  O179  1  0.92693094  0.81995864  0.76516917  1
  O2-  O180  1  0.32427573  0.07597931  0.24531345  1
  O2-  O181  1  0.32519020  0.07054510  0.57447632  1
  O2-  O182  1  0.32752554  0.07507753  0.91105448  1
  O2-  O183  1  0.31977494  0.57002876  0.23502610  1
  O2-  O184  1  0.31935554  0.57055648  0.57041400  1
  O2-  O185  1  0.31909460  0.56907474  0.90243161  1
  O2-  O186  1  0.81712337  0.06975313  0.24462319  1
  O2-  O187  1  0.82047850  0.06643326  0.57627686  1
  O2-  O188  1  0.81603477  0.07495806  0.91125353  1
  O2-  O189  1  0.82330323  0.57514913  0.24608637  1
  O2-  O190  1  0.81766723  0.57721700  0.57642078  1
  O2-  O191  1  0.81938544  0.56986041  0.89945282  1
  O2-  O192  1  0.03187430  0.08674331  0.26437781  1
  O2-  O193  1  0.03837034  0.08318956  0.59546867  1
  O2-  O194  1  0.04073751  0.08254904  0.92890911  1
  O2-  O195  1  0.05412705  0.58091800  0.27467593  1
  O2-  O196  1  0.05534896  0.58373160  0.60293512  1
  O2-  O197  1  0.05018251  0.57920393  0.93411089  1
  O2-  O198  1  0.55013749  0.08379075  0.26863560  1
  O2-  O199  1  0.53809927  0.08502898  0.59498821  1
  O2-  O200  1  0.54120419  0.08860466  0.93813561  1
  O2-  O201  1  0.54571332  0.58403077  0.27353855  1
  O2-  O202  1  0.54606567  0.58066572  0.60747344  1
  O2-  O203  1  0.54341200  0.57841483  0.93176497  1
  O2-  O204  1  0.16851654  0.20376646  0.26333285  1
  O2-  O205  1  0.17368478  0.20290000  0.59762111  1
  O2-  O206  1  0.17202004  0.20410630  0.93037728  1
  O2-  O207  1  0.16411923  0.70831108  0.27460462  1
  O2-  O208  1  0.16451740  0.71099290  0.60092343  1
  O2-  O209  1  0.16795122  0.71280657  0.93170662  1
  O2-  O210  1  0.66843216  0.20407840  0.26887661  1
  O2-  O211  1  0.66737550  0.20569337  0.59937030  1
  O2-  O212  1  0.66172930  0.20520954  0.93848114  1
  O2-  O213  1  0.66462314  0.70278908  0.27318428  1
  O2-  O214  1  0.66280449  0.70294551  0.59848857  1
  O2-  O215  1  0.66827043  0.70514913  0.93182046  1
  O2-  O216  1  0.08323602  0.44530452  0.05894362  1
  O2-  O217  1  0.08324273  0.44575190  0.39492313  1
  O2-  O218  1  0.08134882  0.44929852  0.72486334  1
  O2-  O219  1  0.08136755  0.96303579  0.06623796  1
  O2-  O220  1  0.08191777  0.96568490  0.40178246  1
  O2-  O221  1  0.08599838  0.96064875  0.72828746  1
  O2-  O222  1  0.58498917  0.45313283  0.06340733  1
  O2-  O223  1  0.58771902  0.46154917  0.40433299  1
  O2-  O224  1  0.58682249  0.45694334  0.73985892  1
  O2-  O225  1  0.58441158  0.96491534  0.07003249  1
  O2-  O226  1  0.58430696  0.95741275  0.39690290  1
  O2-  O227  1  0.58566930  0.95993761  0.72532565  1
  O2-  O228  1  0.20867539  0.33314765  0.06124874  1
  O2-  O229  1  0.20692304  0.33064143  0.39347354  1
  O2-  O230  1  0.20380841  0.33259709  0.72877651  1
  O2-  O231  1  0.20989514  0.83695707  0.06855791  1
  O2-  O232  1  0.20777609  0.83621295  0.40600330  1
  O2-  O233  1  0.20637947  0.84041074  0.72886457  1
  O2-  O234  1  0.70160570  0.33155217  0.06569209  1
  O2-  O235  1  0.71010501  0.33101632  0.40073949  1
  O2-  O236  1  0.71089263  0.32879352  0.73478251  1
  O2-  O237  1  0.70405030  0.83133962  0.06906359  1
  O2-  O238  1  0.70281991  0.83588440  0.39802577  1
  O2-  O239  1  0.70198297  0.83467380  0.72338419  1
  O2-  O240  1  0.46619439  0.41734568  0.26678120  1
  O2-  O241  1  0.45803516  0.41829552  0.60949778  1
  O2-  O242  1  0.45888505  0.41300142  0.93581572  1
  O2-  O243  1  0.45550132  0.91844896  0.26644263  1
  O2-  O244  1  0.46063467  0.91358294  0.59462168  1
  O2-  O245  1  0.45626672  0.92235014  0.93616787  1
  O2-  O246  1  0.94471433  0.42036621  0.27668053  1
  O2-  O247  1  0.94789351  0.42382674  0.59782752  1
  O2-  O248  1  0.95202912  0.41972555  0.93228872  1
  O2-  O249  1  0.95956587  0.91546925  0.26509902  1
  O2-  O250  1  0.96071756  0.91452823  0.59756179  1
  O2-  O251  1  0.95292344  0.91989715  0.93419743  1
  O2-  O252  1  0.33727181  0.29225604  0.26296348  1
  O2-  O253  1  0.33712847  0.29969517  0.60576301  1
  O2-  O254  1  0.33953262  0.29555940  0.93405992  1
  O2-  O255  1  0.32894593  0.78884511  0.26903289  1
  O2-  O256  1  0.33077710  0.78947931  0.59951327  1
  O2-  O257  1  0.33066623  0.79356172  0.93297207  1
  O2-  O258  1  0.83565307  0.29021678  0.27027025  1
  O2-  O259  1  0.83322186  0.28582403  0.59682281  1
  O2-  O260  1  0.82890769  0.29028511  0.93471301  1
  O2-  O261  1  0.82904226  0.79287606  0.26848480  1
  O2-  O262  1  0.83095382  0.79096786  0.59638089  1
  O2-  O263  1  0.82776419  0.79304334  0.93547938  1
  O2-  O264  1  0.41642226  0.05162687  0.06615101  1
  O2-  O265  1  0.41929294  0.05090630  0.39510707  1
  O2-  O266  1  0.41414479  0.03983750  0.72736460  1
  O2-  O267  1  0.41628311  0.53692347  0.06827747  1
  O2-  O268  1  0.41581038  0.53841440  0.40286563  1
  O2-  O269  1  0.41521764  0.54174879  0.73948145  1
  O2-  O270  1  0.91573636  0.05219706  0.06075538  1
  O2-  O271  1  0.91008701  0.03837037  0.39732852  1
  O2-  O272  1  0.91298396  0.03937280  0.72856399  1
  O2-  O273  1  0.91951975  0.54142109  0.06793315  1
  O2-  O274  1  0.91971647  0.55465676  0.39708043  1
  O2-  O275  1  0.91995466  0.55698979  0.72306129  1
  O2-  O276  1  0.29968072  0.17031472  0.06105950  1
  O2-  O277  1  0.29781486  0.16843140  0.39624353  1
  O2-  O278  1  0.30140338  0.16510613  0.72655577  1
  O2-  O279  1  0.28900642  0.66760243  0.06836632  1
  O2-  O280  1  0.28657031  0.66470660  0.40471233  1
  O2-  O281  1  0.28647008  0.66859583  0.73639631  1
  O2-  O282  1  0.78785313  0.16247537  0.06687257  1
  O2-  O283  1  0.79220906  0.15993255  0.39899635  1
  O2-  O284  1  0.79216769  0.15873911  0.72928921  1
  O2-  O285  1  0.78869417  0.66418593  0.06985786  1
  O2-  O286  1  0.79280105  0.66588796  0.39916121  1
  O2-  O287  1  0.79065036  0.66643764  0.72874573  1
