# generated using pymatgen
data_Ca2Al2SiO7
_symmetry_space_group_name_H-M   'P 1'
_cell_length_a   15.46519036
_cell_length_b   15.46313743
_cell_length_c   15.28792581
_cell_angle_alpha   89.99304074
_cell_angle_beta   89.99161086
_cell_angle_gamma   89.99893471
_symmetry_Int_Tables_number   1
_chemical_formula_structural   Ca2Al2SiO7
_chemical_formula_sum   'Ca48 Al48 Si24 O168'
_cell_volume   3655.96007354
_cell_formula_units_Z   24
loop_
 _symmetry_equiv_pos_site_id
 _symmetry_equiv_pos_as_xyz
  1  'x, y, z'
loop_
 _atom_type_symbol
 _atom_type_oxidation_number
  Ca2+  2.0
  Al0+  0.0
  Si0+  0.0
  O2-  -2.0
loop_
 _atom_site_type_symbol
 _atom_site_label
 _atom_site_symmetry_multiplicity
 _atom_site_fract_x
 _atom_site_fract_y
 _atom_site_fract_z
 _atom_site_occupancy
  Ca2+  Ca0  1  0.16345906  0.07853837  0.17053488  1
  Ca2+  Ca1  1  0.17461209  0.09186816  0.50442077  1
  Ca2+  Ca2  1  0.16365503  0.08238528  0.83854813  1
  Ca2+  Ca3  1  0.15498473  0.56867620  0.16600207  1
  Ca2+  Ca4  1  0.16048452  0.57072362  0.50682187  1
  Ca2+  Ca5  1  0.15511757  0.57414879  0.83787724  1
  Ca2+  Ca6  1  0.68354537  0.08712718  0.16738088  1
  Ca2+  Ca7  1  0.67430075  0.08379707  0.50134881  1
  Ca2+  Ca8  1  0.67594218  0.08105740  0.84129501  1
  Ca2+  Ca9  1  0.67743538  0.57901155  0.16686369  1
  Ca2+  Ca10  1  0.67733621  0.58880264  0.50651551  1
  Ca2+  Ca11  1  0.67763617  0.58286649  0.84047833  1
  Ca2+  Ca12  1  0.08472652  0.32271863  0.15826803  1
  Ca2+  Ca13  1  0.08525475  0.32900217  0.50003906  1
  Ca2+  Ca14  1  0.07719482  0.33127604  0.82897086  1
  Ca2+  Ca15  1  0.08082715  0.82568919  0.15147629  1
  Ca2+  Ca16  1  0.08588559  0.82393673  0.49988684  1
  Ca2+  Ca17  1  0.08199294  0.82334560  0.83693215  1
  Ca2+  Ca18  1  0.57631012  0.33741165  0.15590003  1
  Ca2+  Ca19  1  0.57879154  0.33183695  0.49733610  1
  Ca2+  Ca20  1  0.57633537  0.34491439  0.83602484  1
  Ca2+  Ca21  1  0.56990641  0.83861162  0.16232748  1
  Ca2+  Ca22  1  0.57943995  0.82854963  0.49559721  1
  Ca2+  Ca23  1  0.57841215  0.82921544  0.82953878  1
  Ca2+  Ca24  1  0.32104212  0.41000854  0.16695240  1
  Ca2+  Ca25  1  0.31817066  0.41256115  0.50471708  1
  Ca2+  Ca26  1  0.32028830  0.41529920  0.84092719  1
  Ca2+  Ca27  1  0.32914670  0.91679040  0.17024501  1
  Ca2+  Ca28  1  0.33771778  0.92661545  0.50245216  1
  Ca2+  Ca29  1  0.32686586  0.92070383  0.84071339  1
  Ca2+  Ca30  1  0.84424909  0.42795715  0.16448712  1
  Ca2+  Ca31  1  0.83827154  0.42603448  0.50688218  1
  Ca2+  Ca32  1  0.83659137  0.42221313  0.84210016  1
  Ca2+  Ca33  1  0.84668617  0.93016174  0.16570651  1
  Ca2+  Ca34  1  0.83755745  0.92469796  0.50052313  1
  Ca2+  Ca35  1  0.83998379  0.92264182  0.84338516  1
  Ca2+  Ca36  1  0.41726015  0.16912290  0.16164822  1
  Ca2+  Ca37  1  0.41188094  0.16201132  0.49527040  1
  Ca2+  Ca38  1  0.41255173  0.17171985  0.83226064  1
  Ca2+  Ca39  1  0.41419294  0.67825460  0.15819825  1
  Ca2+  Ca40  1  0.42447560  0.67010626  0.49374114  1
  Ca2+  Ca41  1  0.42177156  0.67133203  0.82936290  1
  Ca2+  Ca42  1  0.92513170  0.16810019  0.15522281  1
  Ca2+  Ca43  1  0.92851151  0.17191707  0.49285490  1
  Ca2+  Ca44  1  0.92536933  0.17599007  0.83043394  1
  Ca2+  Ca45  1  0.91714504  0.67005417  0.15783863  1
  Ca2+  Ca46  1  0.91898980  0.65851321  0.50059166  1
  Ca2+  Ca47  1  0.92352275  0.65936907  0.83159882  1
  Al0+  Al48  1  0.00312029  -0.00211683  0.00047170  1
  Al0+  Al49  1  0.00141287  -0.00138559  0.33767478  1
  Al0+  Al50  1  0.00213997  0.00041404  0.66281639  1
  Al0+  Al51  1  0.00032291  0.49824736  0.00395239  1
  Al0+  Al52  1  -0.00103805  0.49853571  0.34215027  1
  Al0+  Al53  1  -0.00132685  0.50044355  0.66650346  1
  Al0+  Al54  1  0.50028243  0.00057703  -0.00506577  1
  Al0+  Al55  1  0.50005201  -0.00037272  0.33201004  1
  Al0+  Al56  1  0.50002719  0.00237279  0.67135493  1
  Al0+  Al57  1  0.50001549  0.50121901  -0.00031276  1
  Al0+  Al58  1  0.50064716  0.50013424  0.33188846  1
  Al0+  Al59  1  0.49936399  0.50133843  0.65859507  1
  Al0+  Al60  1  0.25339271  0.24978473  -0.00375627  1
  Al0+  Al61  1  0.24901403  0.24833719  0.33642516  1
  Al0+  Al62  1  0.25030850  0.25030669  0.67279463  1
  Al0+  Al63  1  0.25035547  0.75129241  -0.00595578  1
  Al0+  Al64  1  0.25052383  0.74779090  0.32970875  1
  Al0+  Al65  1  0.24932060  0.75191052  0.66050376  1
  Al0+  Al66  1  0.74920977  0.24906316  0.00438566  1
  Al0+  Al67  1  0.75003373  0.25118609  0.33783588  1
  Al0+  Al68  1  0.74777575  0.25151843  0.66297597  1
  Al0+  Al69  1  0.74775584  0.75221644  0.00281644  1
  Al0+  Al70  1  0.75004331  0.74909096  0.33625038  1
  Al0+  Al71  1  0.74848665  0.75129083  0.66608232  1
  Al0+  Al72  1  0.17972094  0.42796334  0.01355816  1
  Al0+  Al73  1  0.42985329  0.82057276  0.31919463  1
  Al0+  Al74  1  0.18021028  0.43156984  0.68249111  1
  Al0+  Al75  1  0.82233454  0.06963912  0.01110738  1
  Al0+  Al76  1  0.92775181  0.32048837  0.98755403  1
  Al0+  Al77  1  0.57088236  0.68006169  0.65239408  1
  Al0+  Al78  1  0.18116145  0.42928051  0.34788777  1
  Al0+  Al79  1  0.92714522  0.32154077  0.65040232  1
  Al0+  Al80  1  0.18109292  0.92875734  0.01302385  1
  Al0+  Al81  1  0.06968372  0.67690006  0.98673662  1
  Al0+  Al82  1  0.07128118  0.17930444  0.31869214  1
  Al0+  Al83  1  0.07308820  0.17767569  0.98551180  1
  Al0+  Al84  1  0.06960900  0.67936018  0.65184663  1
  Al0+  Al85  1  0.82207909  0.57194196  0.01557881  1
  Al0+  Al86  1  0.81860732  0.57053098  0.68191153  1
  Al0+  Al87  1  0.31960980  0.06772659  0.34491385  1
  Al0+  Al88  1  0.42832583  0.82267435  0.98386472  1
  Al0+  Al89  1  0.43024227  0.32190688  0.98656808  1
  Al0+  Al90  1  0.07228276  0.17907035  0.65030030  1
  Al0+  Al91  1  0.82368085  0.07211789  0.34855854  1
  Al0+  Al92  1  0.32061868  0.07004400  0.68301602  1
  Al0+  Al93  1  0.81845725  0.57026902  0.34968577  1
  Al0+  Al94  1  0.92690601  0.82131861  0.98735535  1
  Al0+  Al95  1  0.67723066  0.42890253  0.01464116  1
  Si0+  Si96  1  0.32375260  0.57426082  0.68064154  1
  Si0+  Si97  1  0.67457811  0.42692336  0.68223885  1
  Si0+  Si98  1  0.82154760  0.07178177  0.68018310  1
  Si0+  Si99  1  0.32251005  0.57272750  0.01457198  1
  Si0+  Si100  1  0.57276262  0.17915975  0.31861653  1
  Si0+  Si101  1  0.57118192  0.67873484  0.98401508  1
  Si0+  Si102  1  0.42912394  0.82449117  0.64918518  1
  Si0+  Si103  1  0.67950930  0.93050207  0.68126673  1
  Si0+  Si104  1  0.92659821  0.82359292  0.64879926  1
  Si0+  Si105  1  0.42883967  0.32011211  0.65070926  1
  Si0+  Si106  1  0.42911072  0.32005626  0.31982652  1
  Si0+  Si107  1  0.32398861  0.57340895  0.34919236  1
  Si0+  Si108  1  0.06954941  0.67666456  0.31933201  1
  Si0+  Si109  1  0.92725136  0.32219209  0.31678812  1
  Si0+  Si110  1  0.17703916  0.92541427  0.68400959  1
  Si0+  Si111  1  0.57384005  0.67783483  0.31414514  1
  Si0+  Si112  1  0.57049121  0.17733161  0.65057642  1
  Si0+  Si113  1  0.67371655  0.42774496  0.35227351  1
  Si0+  Si114  1  0.92883443  0.82016276  0.32014115  1
  Si0+  Si115  1  0.67816099  0.93024451  0.34961644  1
  Si0+  Si116  1  0.17760229  0.92347648  0.35111057  1
  Si0+  Si117  1  0.67516025  0.92861988  0.01682185  1
  Si0+  Si118  1  0.32360259  0.07143352  0.01682127  1
  Si0+  Si119  1  0.57261410  0.17796709  0.98310427  1
  O2-  O120  1  0.25428891  0.00426271  0.06127794  1
  O2-  O121  1  0.24599655  -0.00679909  0.39417044  1
  O2-  O122  1  0.24480627  -0.00413009  0.72678424  1
  O2-  O123  1  0.25349313  0.50479031  0.05975374  1
  O2-  O124  1  0.25609511  0.50483796  0.39411165  1
  O2-  O125  1  0.25328372  0.50962647  0.72700861  1
  O2-  O126  1  0.74846878  -0.00674175  0.05918942  1
  O2-  O127  1  0.74814529  -0.00281227  0.39509450  1
  O2-  O128  1  0.75324039  -0.00157266  0.72320591  1
  O2-  O129  1  0.75235670  0.49685950  0.06556775  1
  O2-  O130  1  0.74274567  0.49583483  0.39581434  1
  O2-  O131  1  0.74450149  0.49382815  0.72560251  1
  O2-  O132  1  -0.00751697  0.25015194  0.27329893  1
  O2-  O133  1  -0.00147677  0.24896788  0.59976611  1
  O2-  O134  1  0.00159506  0.25083721  0.93702148  1
  O2-  O135  1  0.00141438  0.75072779  0.27831057  1
  O2-  O136  1  -0.00551138  0.75399612  0.60441133  1
  O2-  O137  1  -0.00674631  0.74487346  0.93695696  1
  O2-  O138  1  0.50394845  0.25282149  0.27778461  1
  O2-  O139  1  0.49957121  0.24851809  0.60817099  1
  O2-  O140  1  0.50670225  0.24926844  0.93883382  1
  O2-  O141  1  0.50225116  0.74389671  0.27098064  1
  O2-  O142  1  0.49433356  0.75277993  0.60459444  1
  O2-  O143  1  0.50359927  0.74819293  0.93896088  1
  O2-  O144  1  0.07218799  0.17757037  0.09970863  1
  O2-  O145  1  0.07310168  0.18216472  0.43161196  1
  O2-  O146  1  0.06987081  0.17754940  0.76322196  1
  O2-  O147  1  0.07022428  0.67846771  0.10108764  1
  O2-  O148  1  0.06882553  0.67751153  0.42464108  1
  O2-  O149  1  0.06937081  0.67975960  0.76407738  1
  O2-  O150  1  0.56972147  0.17507008  0.08897761  1
  O2-  O151  1  0.57195696  0.17875658  0.42418454  1
  O2-  O152  1  0.57215223  0.17497992  0.75501082  1
  O2-  O153  1  0.56865878  0.67930681  0.08973586  1
  O2-  O154  1  0.57332451  0.67992983  0.42004638  1
  O2-  O155  1  0.56939424  0.68280718  0.76514068  1
  O2-  O156  1  0.18198497  0.42911384  0.23496494  1
  O2-  O157  1  0.18352890  0.43074639  0.56888644  1
  O2-  O158  1  0.18090038  0.42862866  0.90079103  1
  O2-  O159  1  0.17777226  0.92211618  0.24575573  1
  O2-  O160  1  0.17895906  0.92247013  0.57814763  1
  O2-  O161  1  0.18276793  0.92790963  0.90007108  1
  O2-  O162  1  0.66865244  0.42832423  0.24746059  1
  O2-  O163  1  0.67252171  0.42690624  0.57639575  1
  O2-  O164  1  0.67399869  0.43415628  0.90107699  1
  O2-  O165  1  0.67624141  0.93244995  0.24452570  1
  O2-  O166  1  0.67760302  0.93317260  0.57591662  1
  O2-  O167  1  0.67201534  0.93128492  0.91094563  1
  O2-  O168  1  0.42984526  0.31864342  0.10028458  1
  O2-  O169  1  0.43013531  0.31833972  0.42528980  1
  O2-  O170  1  0.43116908  0.32128795  0.75540417  1
  O2-  O171  1  0.43018549  0.82294436  0.09731464  1
  O2-  O172  1  0.43377370  0.82071306  0.43248755  1
  O2-  O173  1  0.43166372  0.82466557  0.75450108  1
  O2-  O174  1  0.93023343  0.31915946  0.10159003  1
  O2-  O175  1  0.92823617  0.32204010  0.42242153  1
  O2-  O176  1  0.92508044  0.31905725  0.76356448  1
  O2-  O177  1  0.93121663  0.82203290  0.10155014  1
  O2-  O178  1  0.92862441  0.81983816  0.42545927  1
  O2-  O179  1  0.92583470  0.82604742  0.75370939  1
  O2-  O180  1  0.32117176  0.06792980  0.23243177  1
  O2-  O181  1  0.32370880  0.06783573  0.56943601  1
  O2-  O182  1  0.32500387  0.06920606  0.91124473  1
  O2-  O183  1  0.32539177  0.57404280  0.24395724  1
  O2-  O184  1  0.32495416  0.57071854  0.57474150  1
  O2-  O185  1  0.32517507  0.57036301  0.90888396  1
  O2-  O186  1  0.82307471  0.07113895  0.23575851  1
  O2-  O187  1  0.81824878  0.06971570  0.57480312  1
  O2-  O188  1  0.81882325  0.06847287  0.89762885  1
  O2-  O189  1  0.81907219  0.57185093  0.23724719  1
  O2-  O190  1  0.81603598  0.57055904  0.56838788  1
  O2-  O191  1  0.81960301  0.57243001  0.90221098  1
  O2-  O192  1  0.04431245  0.07876842  0.27047591  1
  O2-  O193  1  0.04801199  0.07919254  0.59693513  1
  O2-  O194  1  0.04430430  0.07967607  0.93365068  1
  O2-  O195  1  0.03765748  0.58510332  0.27456096  1
  O2-  O196  1  0.03698591  0.58422602  0.59651094  1
  O2-  O197  1  0.04322182  0.57810724  0.93525701  1
  O2-  O198  1  0.54272618  0.08876645  0.27096022  1
  O2-  O199  1  0.54173392  0.08596163  0.60201560  1
  O2-  O200  1  0.54466639  0.08659154  0.93342113  1
  O2-  O201  1  0.55101909  0.58257503  0.27054314  1
  O2-  O202  1  0.54227967  0.58432692  0.59412418  1
  O2-  O203  1  0.54443188  0.58667298  0.93634917  1
  O2-  O204  1  0.16776348  0.21197266  0.26565770  1
  O2-  O205  1  0.17179825  0.21107692  0.60065928  1
  O2-  O206  1  0.17219490  0.20314618  0.93402521  1
  O2-  O207  1  0.16296839  0.69893500  0.27319537  1
  O2-  O208  1  0.16649879  0.70914957  0.59526439  1
  O2-  O209  1  0.16623290  0.70790339  0.93213355  1
  O2-  O210  1  0.66567152  0.20492911  0.27235419  1
  O2-  O211  1  0.66092858  0.20527047  0.59993071  1
  O2-  O212  1  0.66698273  0.19954585  0.93804569  1
  O2-  O213  1  0.66664353  0.70661924  0.26900784  1
  O2-  O214  1  0.66530726  0.71556190  0.59613578  1
  O2-  O215  1  0.66446834  0.70496402  0.93835377  1
  O2-  O216  1  0.08462911  0.45695620  0.07078026  1
  O2-  O217  1  0.08603810  0.46065935  0.40397328  1
  O2-  O218  1  0.08302600  0.46201106  0.73337445  1
  O2-  O219  1  0.08537080  0.95706739  0.06969905  1
  O2-  O220  1  0.08438417  0.94665832  0.39860140  1
  O2-  O221  1  0.08239269  0.95017767  0.72778987  1
  O2-  O222  1  0.57989290  0.46141241  0.06953148  1
  O2-  O223  1  0.57984836  0.45284907  0.39993033  1
  O2-  O224  1  0.58022179  0.45507647  0.72561241  1
  O2-  O225  1  0.58363941  0.96103903  0.06405496  1
  O2-  O226  1  0.58627386  0.95862187  0.39815740  1
  O2-  O227  1  0.58967152  0.96120738  0.73075176  1
  O2-  O228  1  0.21644541  0.33226944  0.06669299  1
  O2-  O229  1  0.21567494  0.33462545  0.40321107  1
  O2-  O230  1  0.21462172  0.33695275  0.73654364  1
  O2-  O231  1  0.21378831  0.83215422  0.06680138  1
  O2-  O232  1  0.20487068  0.82958383  0.39670993  1
  O2-  O233  1  0.20484450  0.83219115  0.72983268  1
  O2-  O234  1  0.69581025  0.32786043  0.06603630  1
  O2-  O235  1  0.69730376  0.33347265  0.39834512  1
  O2-  O236  1  0.69501376  0.33138984  0.72667860  1
  O2-  O237  1  0.69210499  0.83397835  0.06321383  1
  O2-  O238  1  0.70280185  0.83614142  0.39556180  1
  O2-  O239  1  0.70318113  0.83817603  0.72846680  1
  O2-  O240  1  0.45265692  0.41350967  0.27330957  1
  O2-  O241  1  0.45559456  0.41080762  0.59977184  1
  O2-  O242  1  0.45968059  0.41869866  0.93177810  1
  O2-  O243  1  0.46351736  0.91612110  0.26439116  1
  O2-  O244  1  0.46148219  0.91702582  0.60412876  1
  O2-  O245  1  0.46059172  0.91814904  0.92869310  1
  O2-  O246  1  0.95744272  0.41584085  0.27372409  1
  O2-  O247  1  0.95792016  0.41912232  0.59775862  1
  O2-  O248  1  0.95459740  0.41936125  0.93663262  1
  O2-  O249  1  0.95533811  0.91296240  0.27471125  1
  O2-  O250  1  0.95426376  0.91600534  0.60020116  1
  O2-  O251  1  0.96141444  0.91636051  0.93222135  1
  O2-  O252  1  0.33919020  0.28782537  0.27273666  1
  O2-  O253  1  0.33789126  0.28978288  0.60410688  1
  O2-  O254  1  0.33704320  0.28893178  0.92853251  1
  O2-  O255  1  0.33254272  0.79164410  0.26521972  1
  O2-  O256  1  0.33460452  0.80478050  0.60318506  1
  O2-  O257  1  0.33431992  0.79121356  0.92702110  1
  O2-  O258  1  0.83067764  0.30207764  0.27478456  1
  O2-  O259  1  0.82709975  0.29601344  0.59710881  1
  O2-  O260  1  0.82831615  0.29278860  0.93645804  1
  O2-  O261  1  0.83655593  0.79261526  0.27404790  1
  O2-  O262  1  0.83225636  0.80032380  0.60285317  1
  O2-  O263  1  0.82418204  0.80474164  0.93842576  1
  O2-  O264  1  0.41776133  0.04460848  0.06162910  1
  O2-  O265  1  0.41716208  0.03789331  0.39980889  1
  O2-  O266  1  0.41770517  0.04081831  0.73762810  1
  O2-  O267  1  0.41533243  0.54811536  0.06253213  1
  O2-  O268  1  0.41864970  0.54886019  0.39484993  1
  O2-  O269  1  0.41735413  0.54623467  0.72555416  1
  O2-  O270  1  0.91747043  0.03733082  0.06668093  1
  O2-  O271  1  0.91805206  0.03790195  0.40524921  1
  O2-  O272  1  0.91465303  0.04559960  0.72448108  1
  O2-  O273  1  0.91958617  0.54406498  0.07106733  1
  O2-  O274  1  0.91379663  0.53838584  0.40560311  1
  O2-  O275  1  0.91559936  0.54113514  0.73343566  1
  O2-  O276  1  0.30195809  0.16633204  0.06080158  1
  O2-  O277  1  0.29010116  0.16373003  0.40123528  1
  O2-  O278  1  0.29337077  0.16686891  0.73691380  1
  O2-  O279  1  0.29776954  0.66718675  0.05855792  1
  O2-  O280  1  0.29900174  0.66701347  0.39595634  1
  O2-  O281  1  0.30332849  0.67098342  0.72181315  1
  O2-  O282  1  0.78933787  0.16344161  0.06917398  1
  O2-  O283  1  0.79069069  0.16780180  0.40344595  1
  O2-  O284  1  0.78883738  0.16276104  0.72524118  1
  O2-  O285  1  0.79088931  0.67052322  0.06849543  1
  O2-  O286  1  0.78787168  0.66719567  0.40466632  1
  O2-  O287  1  0.78687727  0.66839723  0.73271059  1
