# generated using pymatgen
data_Ca2Al2SiO7
_symmetry_space_group_name_H-M   'P 1'
_cell_length_a   15.46006977
_cell_length_b   15.46019011
_cell_length_c   15.28633225
_cell_angle_alpha   90.00679281
_cell_angle_beta   89.99681230
_cell_angle_gamma   89.99284145
_symmetry_Int_Tables_number   1
_chemical_formula_structural   Ca2Al2SiO7
_chemical_formula_sum   'Ca48 Al48 Si24 O168'
_cell_volume   3653.67208719
_cell_formula_units_Z   24
loop_
 _symmetry_equiv_pos_site_id
 _symmetry_equiv_pos_as_xyz
  1  'x, y, z'
loop_
 _atom_type_symbol
 _atom_type_oxidation_number
  Ca2+  2.0
  Al0+  0.0
  Si0+  0.0
  O2-  -2.0
loop_
 _atom_site_type_symbol
 _atom_site_label
 _atom_site_symmetry_multiplicity
 _atom_site_fract_x
 _atom_site_fract_y
 _atom_site_fract_z
 _atom_site_occupancy
  Ca2+  Ca0  1  0.17517590  0.08323671  0.16676074  1
  Ca2+  Ca1  1  0.17070953  0.07361940  0.50862371  1
  Ca2+  Ca2  1  0.17230665  0.07586376  0.83736853  1
  Ca2+  Ca3  1  0.16714055  0.58585374  0.17205652  1
  Ca2+  Ca4  1  0.17168095  0.58719688  0.51070229  1
  Ca2+  Ca5  1  0.17485029  0.58150429  0.82999934  1
  Ca2+  Ca6  1  0.66849216  0.07023114  0.16706839  1
  Ca2+  Ca7  1  0.66419458  0.07617297  0.50270093  1
  Ca2+  Ca8  1  0.66768272  0.07814308  0.84156966  1
  Ca2+  Ca9  1  0.66214813  0.57663977  0.17375086  1
  Ca2+  Ca10  1  0.67270260  0.59106229  0.50192759  1
  Ca2+  Ca11  1  0.66882633  0.58679125  0.83716255  1
  Ca2+  Ca12  1  0.07309546  0.33111905  0.15738628  1
  Ca2+  Ca13  1  0.07640279  0.34485175  0.50208015  1
  Ca2+  Ca14  1  0.07336662  0.33372157  0.82668203  1
  Ca2+  Ca15  1  0.07802149  0.82701867  0.16835875  1
  Ca2+  Ca16  1  0.07299298  0.83128568  0.49434493  1
  Ca2+  Ca17  1  0.07682928  0.83641400  0.82478633  1
  Ca2+  Ca18  1  0.58204520  0.33863083  0.15688289  1
  Ca2+  Ca19  1  0.59161131  0.32724380  0.49847759  1
  Ca2+  Ca20  1  0.58430874  0.32890376  0.83200420  1
  Ca2+  Ca21  1  0.58680704  0.82556135  0.16181796  1
  Ca2+  Ca22  1  0.57663544  0.82106513  0.49337665  1
  Ca2+  Ca23  1  0.57884081  0.82839768  0.82790375  1
  Ca2+  Ca24  1  0.33475351  0.41752626  0.17011987  1
  Ca2+  Ca25  1  0.32430232  0.42854236  0.51189900  1
  Ca2+  Ca26  1  0.33589769  0.42053246  0.83607224  1
  Ca2+  Ca27  1  0.34533069  0.91850232  0.16779310  1
  Ca2+  Ca28  1  0.32915739  0.90588514  0.50775131  1
  Ca2+  Ca29  1  0.33500101  0.91495038  0.83746231  1
  Ca2+  Ca30  1  0.82053551  0.41976168  0.17210568  1
  Ca2+  Ca31  1  0.83157026  0.43084819  0.50501292  1
  Ca2+  Ca32  1  0.83072505  0.41972245  0.83829004  1
  Ca2+  Ca33  1  0.82232912  0.91356535  0.17123415  1
  Ca2+  Ca34  1  0.82855468  0.90510844  0.50238171  1
  Ca2+  Ca35  1  0.82696598  0.92196145  0.84205360  1
  Ca2+  Ca36  1  0.41786532  0.17315279  0.15646115  1
  Ca2+  Ca37  1  0.42333936  0.16668431  0.50100303  1
  Ca2+  Ca38  1  0.41958379  0.16860192  0.83148217  1
  Ca2+  Ca39  1  0.42989608  0.67759494  0.15989014  1
  Ca2+  Ca40  1  0.42142987  0.67137493  0.49596971  1
  Ca2+  Ca41  1  0.42972462  0.67232824  0.82693945  1
  Ca2+  Ca42  1  0.91203906  0.17175475  0.15747977  1
  Ca2+  Ca43  1  0.91699173  0.17464646  0.49964102  1
  Ca2+  Ca44  1  0.90495502  0.17896339  0.83006771  1
  Ca2+  Ca45  1  0.91446007  0.66504861  0.17211773  1
  Ca2+  Ca46  1  0.91595922  0.67098056  0.49466828  1
  Ca2+  Ca47  1  0.91436725  0.67285831  0.82368608  1
  Al0+  Al48  1  0.00312812  0.00015346  0.00492357  1
  Al0+  Al49  1  0.00254494  0.00149337  0.32878355  1
  Al0+  Al50  1  -0.00048086  0.00251162  0.66703217  1
  Al0+  Al51  1  0.00116105  0.49917285  -0.00397877  1
  Al0+  Al52  1  -0.00161955  0.49844042  0.33074796  1
  Al0+  Al53  1  -0.00163119  0.50070423  0.67149446  1
  Al0+  Al54  1  0.49901168  0.00022706  0.00561755  1
  Al0+  Al55  1  0.50153705  0.00389770  0.33587564  1
  Al0+  Al56  1  0.49978656  0.00057455  0.65901883  1
  Al0+  Al57  1  0.49960335  0.50130618  -0.00432561  1
  Al0+  Al58  1  0.49696820  0.49771077  0.33647616  1
  Al0+  Al59  1  0.50118426  0.49831723  0.66635811  1
  Al0+  Al60  1  0.24863901  0.24912203  -0.00086691  1
  Al0+  Al61  1  0.25004987  0.24912339  0.33567334  1
  Al0+  Al62  1  0.24896801  0.24811701  0.66978217  1
  Al0+  Al63  1  0.24964211  0.74869446  -0.00227393  1
  Al0+  Al64  1  0.24935372  0.75161050  0.32524749  1
  Al0+  Al65  1  0.24951063  0.74969219  0.67652723  1
  Al0+  Al66  1  0.74957600  0.25192916  0.00345794  1
  Al0+  Al67  1  0.75018915  0.24810596  0.33552915  1
  Al0+  Al68  1  0.75077023  0.25050330  0.65608162  1
  Al0+  Al69  1  0.75358006  0.74904335  0.00044296  1
  Al0+  Al70  1  0.74948411  0.74957126  0.33305878  1
  Al0+  Al71  1  0.74908793  0.75024529  0.66555679  1
  Al0+  Al72  1  0.92908842  0.82415699  0.65551805  1
  Al0+  Al73  1  0.57063596  0.18008419  0.65312241  1
  Al0+  Al74  1  0.67517559  0.42687975  0.35009949  1
  Al0+  Al75  1  0.32420890  0.57173827  0.68387314  1
  Al0+  Al76  1  0.42854809  0.82296750  0.31781384  1
  Al0+  Al77  1  0.42976175  0.82309347  0.98403940  1
  Al0+  Al78  1  0.82055536  0.56946538  0.34866784  1
  Al0+  Al79  1  0.42765126  0.82006612  0.65228673  1
  Al0+  Al80  1  0.17788442  0.42779127  0.68333936  1
  Al0+  Al81  1  0.92779979  0.82243325  0.31693276  1
  Al0+  Al82  1  0.67954085  0.92941136  0.34960817  1
  Al0+  Al83  1  0.93021463  0.32255015  0.65105849  1
  Al0+  Al84  1  0.57041775  0.67658731  0.31786028  1
  Al0+  Al85  1  0.81823464  0.57241135  0.68157362  1
  Al0+  Al86  1  0.57430601  0.67917528  0.98418752  1
  Al0+  Al87  1  0.57213150  0.67661826  0.65038050  1
  Al0+  Al88  1  0.82200408  0.07240998  0.01363068  1
  Al0+  Al89  1  0.17761301  0.92919613  0.67962687  1
  Al0+  Al90  1  0.67941293  0.92709318  0.01398728  1
  Al0+  Al91  1  0.92783741  0.31938825  0.98642508  1
  Al0+  Al92  1  0.67863876  0.43216841  0.01090033  1
  Al0+  Al93  1  0.31967982  0.07019389  0.01339187  1
  Al0+  Al94  1  0.07083487  0.67717046  0.31983025  1
  Al0+  Al95  1  0.42676916  0.32165494  0.98658459  1
  Si0+  Si96  1  0.82572423  0.57184431  0.01682319  1
  Si0+  Si97  1  0.57095096  0.17938145  0.98606193  1
  Si0+  Si98  1  0.68008700  0.42435606  0.68326007  1
  Si0+  Si99  1  0.31778142  0.57211888  0.34596874  1
  Si0+  Si100  1  0.42737953  0.31822922  0.32009618  1
  Si0+  Si101  1  0.82526943  0.07119485  0.35156208  1
  Si0+  Si102  1  0.17797432  0.92502588  0.02013315  1
  Si0+  Si103  1  0.42515065  0.32149663  0.64962174  1
  Si0+  Si104  1  0.18033724  0.92962800  0.34749402  1
  Si0+  Si105  1  0.82000734  0.07293309  0.67937523  1
  Si0+  Si106  1  0.07170743  0.67770895  0.98225480  1
  Si0+  Si107  1  0.07301145  0.17836768  0.64959671  1
  Si0+  Si108  1  0.32039111  0.57033300  0.01678222  1
  Si0+  Si109  1  0.07232344  0.17722324  0.98240944  1
  Si0+  Si110  1  0.07327933  0.17940992  0.31753159  1
  Si0+  Si111  1  0.32088093  0.07310632  0.35014861  1
  Si0+  Si112  1  0.92936821  0.31915402  0.31699894  1
  Si0+  Si113  1  0.17896107  0.42745119  0.34616453  1
  Si0+  Si114  1  0.32373036  0.07085128  0.68346112  1
  Si0+  Si115  1  0.17896004  0.42933324  0.01593280  1
  Si0+  Si116  1  0.67873577  0.93056947  0.68002128  1
  Si0+  Si117  1  0.93160295  0.82179809  0.98528236  1
  Si0+  Si118  1  0.57243348  0.18030780  0.31588909  1
  Si0+  Si119  1  0.07026251  0.67958032  0.65430892  1
  O2-  O120  1  0.24945905  -0.00794776  0.06283605  1
  O2-  O121  1  0.25512510  -0.00335971  0.39079695  1
  O2-  O122  1  0.25525131  0.00135180  0.72599514  1
  O2-  O123  1  0.25001785  0.49859973  0.06066209  1
  O2-  O124  1  0.24390340  0.50346180  0.38823528  1
  O2-  O125  1  0.25438148  0.49540552  0.73271395  1
  O2-  O126  1  0.75344286  -0.00192705  0.06402997  1
  O2-  O127  1  0.75992686  -0.00014067  0.39628866  1
  O2-  O128  1  0.75064020  0.00111027  0.72197687  1
  O2-  O129  1  0.75253833  0.50700374  0.05879485  1
  O2-  O130  1  0.74479165  0.50133973  0.39935739  1
  O2-  O131  1  0.74264909  0.49813192  0.72773871  1
  O2-  O132  1  -0.00034885  0.24706186  0.27486794  1
  O2-  O133  1  0.00906759  0.25115632  0.60443716  1
  O2-  O134  1  -0.00162789  0.24042216  0.93931861  1
  O2-  O135  1  -0.00230847  0.74716468  0.26808017  1
  O2-  O136  1  0.00441984  0.74991050  0.60930551  1
  O2-  O137  1  0.00136212  0.75009939  0.94183701  1
  O2-  O138  1  0.50371117  0.25438050  0.27568798  1
  O2-  O139  1  0.49614624  0.25534586  0.60505891  1
  O2-  O140  1  0.50175106  0.24707863  0.94094384  1
  O2-  O141  1  0.50242872  0.75293433  0.26842184  1
  O2-  O142  1  0.49628865  0.74568127  0.60209884  1
  O2-  O143  1  0.50470446  0.75420693  0.93531142  1
  O2-  O144  1  0.07564901  0.18125191  0.08850128  1
  O2-  O145  1  0.07530937  0.18000488  0.42237432  1
  O2-  O146  1  0.07118013  0.17597285  0.75479678  1
  O2-  O147  1  0.07207453  0.67635249  0.08732116  1
  O2-  O148  1  0.07486457  0.67940613  0.43312655  1
  O2-  O149  1  0.06756236  0.68059325  0.76028087  1
  O2-  O150  1  0.56932547  0.18183887  0.09186692  1
  O2-  O151  1  0.57048903  0.17961542  0.42119643  1
  O2-  O152  1  0.57076066  0.17944662  0.76629041  1
  O2-  O153  1  0.57121752  0.67602617  0.09767712  1
  O2-  O154  1  0.56631165  0.67648518  0.43111093  1
  O2-  O155  1  0.57476377  0.68153511  0.76374290  1
  O2-  O156  1  0.18238560  0.42339505  0.24088418  1
  O2-  O157  1  0.17849551  0.43106077  0.56870124  1
  O2-  O158  1  0.17818066  0.43053296  0.91150185  1
  O2-  O159  1  0.17876660  0.93305974  0.24261995  1
  O2-  O160  1  0.17644564  0.93196253  0.56603302  1
  O2-  O161  1  0.17416010  0.92767626  0.91466560  1
  O2-  O162  1  0.67701068  0.42484792  0.23624121  1
  O2-  O163  1  0.68487880  0.42081394  0.57792959  1
  O2-  O164  1  0.68138222  0.42888739  0.89808528  1
  O2-  O165  1  0.67907868  0.93340336  0.23673872  1
  O2-  O166  1  0.67994717  0.93238104  0.57495475  1
  O2-  O167  1  0.68096588  0.93010231  0.89974622  1
  O2-  O168  1  0.42592364  0.32001884  0.10034475  1
  O2-  O169  1  0.42148029  0.31316105  0.42463456  1
  O2-  O170  1  0.42440611  0.31839955  0.75511117  1
  O2-  O171  1  0.42988392  0.82001463  0.09746868  1
  O2-  O172  1  0.42388021  0.81835878  0.43102609  1
  O2-  O173  1  0.43166439  0.82362449  0.76544193  1
  O2-  O174  1  0.93191819  0.31902646  0.09991978  1
  O2-  O175  1  0.93219980  0.31934806  0.42204633  1
  O2-  O176  1  0.92825369  0.31862135  0.76403817  1
  O2-  O177  1  0.93284761  0.82117023  0.09004645  1
  O2-  O178  1  0.93293679  0.82463161  0.43046590  1
  O2-  O179  1  0.93023708  0.82459270  0.76914940  1
  O2-  O180  1  0.31698185  0.07876058  0.24536701  1
  O2-  O181  1  0.32132363  0.07350594  0.57747435  1
  O2-  O182  1  0.31618336  0.07255655  0.90061569  1
  O2-  O183  1  0.31729432  0.56799206  0.24070645  1
  O2-  O184  1  0.31917534  0.57192147  0.56936108  1
  O2-  O185  1  0.31813266  0.56864430  0.91221567  1
  O2-  O186  1  0.82331938  0.07446161  0.24621674  1
  O2-  O187  1  0.82023423  0.07359316  0.57427020  1
  O2-  O188  1  0.81955445  0.07208721  0.89948572  1
  O2-  O189  1  0.82468893  0.56266411  0.23503485  1
  O2-  O190  1  0.82088086  0.57197589  0.56892297  1
  O2-  O191  1  0.82824521  0.57100933  0.91119307  1
  O2-  O192  1  0.05068206  0.08769861  0.26792627  1
  O2-  O193  1  0.04135321  0.08787468  0.60029707  1
  O2-  O194  1  0.05431274  0.08045931  0.94029194  1
  O2-  O195  1  0.04523809  0.57784484  0.26489937  1
  O2-  O196  1  0.04450522  0.58633992  0.60858998  1
  O2-  O197  1  0.04440275  0.58627397  0.93440781  1
  O2-  O198  1  0.54037904  0.09050949  0.26818376  1
  O2-  O199  1  0.53811249  0.08628069  0.59409218  1
  O2-  O200  1  0.54524499  0.08572651  0.94137314  1
  O2-  O201  1  0.53751537  0.57739416  0.26748577  1
  O2-  O202  1  0.55035109  0.57523805  0.60045384  1
  O2-  O203  1  0.54139267  0.58297553  0.92987733  1
  O2-  O204  1  0.16379825  0.21174093  0.26910169  1
  O2-  O205  1  0.16856764  0.19774829  0.60415851  1
  O2-  O206  1  0.16245246  0.20892462  0.93382946  1
  O2-  O207  1  0.16612674  0.70855325  0.26131189  1
  O2-  O208  1  0.16547075  0.70255890  0.61179660  1
  O2-  O209  1  0.16332826  0.70472615  0.93466175  1
  O2-  O210  1  0.66602549  0.20326900  0.27017395  1
  O2-  O211  1  0.66485751  0.21013855  0.59366602  1
  O2-  O212  1  0.66381590  0.20636334  0.93989538  1
  O2-  O213  1  0.67041757  0.70025459  0.26747757  1
  O2-  O214  1  0.66810013  0.71143149  0.59688415  1
  O2-  O215  1  0.67523742  0.70322147  0.93398512  1
  O2-  O216  1  0.08736432  0.45923263  0.06373715  1
  O2-  O217  1  0.08502881  0.44961605  0.39054166  1
  O2-  O218  1  0.08129621  0.45885960  0.73751232  1
  O2-  O219  1  0.08668808  0.95405963  0.06948070  1
  O2-  O220  1  0.08969388  0.96220867  0.39501687  1
  O2-  O221  1  0.08275558  0.96545149  0.73549665  1
  O2-  O222  1  0.58064018  0.46010866  0.06482438  1
  O2-  O223  1  0.57376938  0.44606229  0.40144266  1
  O2-  O224  1  0.58271052  0.44033397  0.72421124  1
  O2-  O225  1  0.58271712  0.95719552  0.06874898  1
  O2-  O226  1  0.58510745  0.96800792  0.40400915  1
  O2-  O227  1  0.58704366  0.96173355  0.72526874  1
  O2-  O228  1  0.20461653  0.33681068  0.06322877  1
  O2-  O229  1  0.21112143  0.33812172  0.39633849  1
  O2-  O230  1  0.20020969  0.32660504  0.73364330  1
  O2-  O231  1  0.20031515  0.82965210  0.06368910  1
  O2-  O232  1  0.20473134  0.83608583  0.39268480  1
  O2-  O233  1  0.20233246  0.83380283  0.73769946  1
  O2-  O234  1  0.70874271  0.33642182  0.06752777  1
  O2-  O235  1  0.70790573  0.32828145  0.40137994  1
  O2-  O236  1  0.71241797  0.33202646  0.72866079  1
  O2-  O237  1  0.71097638  0.82947977  0.06727683  1
  O2-  O238  1  0.70630440  0.83156559  0.40205602  1
  O2-  O239  1  0.70679761  0.83974824  0.72766389  1
  O2-  O240  1  0.44735631  0.41220891  0.27423503  1
  O2-  O241  1  0.44684182  0.41598231  0.60465634  1
  O2-  O242  1  0.45673213  0.41697784  0.93165078  1
  O2-  O243  1  0.45379991  0.92530419  0.27153293  1
  O2-  O244  1  0.45438240  0.91813332  0.59753885  1
  O2-  O245  1  0.45237234  0.92463988  0.93520707  1
  O2-  O246  1  0.95858957  0.40901680  0.26768603  1
  O2-  O247  1  0.96175040  0.41956932  0.59821945  1
  O2-  O248  1  0.96288033  0.41437305  0.93214492  1
  O2-  O249  1  0.96035764  0.92019580  0.26352634  1
  O2-  O250  1  0.95838085  0.92063213  0.60054030  1
  O2-  O251  1  0.96063859  0.91453185  0.93973727  1
  O2-  O252  1  0.33751711  0.28492057  0.27032056  1
  O2-  O253  1  0.33199881  0.29294432  0.60312045  1
  O2-  O254  1  0.33064525  0.28996409  0.93259262  1
  O2-  O255  1  0.33102556  0.79621675  0.26219376  1
  O2-  O256  1  0.32603496  0.79313878  0.60490473  1
  O2-  O257  1  0.33007880  0.79316201  0.93396896  1
  O2-  O258  1  0.83711320  0.28985245  0.27143696  1
  O2-  O259  1  0.83801704  0.28678192  0.59273345  1
  O2-  O260  1  0.83079240  0.29052414  0.93254437  1
  O2-  O261  1  0.82945981  0.79556092  0.26486017  1
  O2-  O262  1  0.83379621  0.79191352  0.60184254  1
  O2-  O263  1  0.83989848  0.79576120  0.93743194  1
  O2-  O264  1  0.41630335  0.04631397  0.07075207  1
  O2-  O265  1  0.41466918  0.05337240  0.39616686  1
  O2-  O266  1  0.41796594  0.04583404  0.72772593  1
  O2-  O267  1  0.41178266  0.54162252  0.06348903  1
  O2-  O268  1  0.40686146  0.54091557  0.39572486  1
  O2-  O269  1  0.42338260  0.54345859  0.73568301  1
  O2-  O270  1  0.92292367  0.05016908  0.06525761  1
  O2-  O271  1  0.92202067  0.05185501  0.39433673  1
  O2-  O272  1  0.91212977  0.04902609  0.72741411  1
  O2-  O273  1  0.91825144  0.54124195  0.06288739  1
  O2-  O274  1  0.91905556  0.53647337  0.40122316  1
  O2-  O275  1  0.91428619  0.54172236  0.73643062  1
  O2-  O276  1  0.28392916  0.16585050  0.06912860  1
  O2-  O277  1  0.28583977  0.16146455  0.40095661  1
  O2-  O278  1  0.29775472  0.16384997  0.73051863  1
  O2-  O279  1  0.28919013  0.66149547  0.06361290  1
  O2-  O280  1  0.29064856  0.66495957  0.39104703  1
  O2-  O281  1  0.29133744  0.66626459  0.74154384  1
  O2-  O282  1  0.79158592  0.16910816  0.06874125  1
  O2-  O283  1  0.79571529  0.16347523  0.39884353  1
  O2-  O284  1  0.78850504  0.16453587  0.72503390  1
  O2-  O285  1  0.80640401  0.66695517  0.06146667  1
  O2-  O286  1  0.79892336  0.67024534  0.39864640  1
  O2-  O287  1  0.78862461  0.66940329  0.73651144  1
