# generated using pymatgen
data_Ca2Al2SiO7
_symmetry_space_group_name_H-M   'P 1'
_cell_length_a   15.45428474
_cell_length_b   15.45472876
_cell_length_c   15.28125865
_cell_angle_alpha   90.00531010
_cell_angle_beta   89.99496115
_cell_angle_gamma   90.00190266
_symmetry_Int_Tables_number   1
_chemical_formula_structural   Ca2Al2SiO7
_chemical_formula_sum   'Ca48 Al48 Si24 O168'
_cell_volume   3649.80296606
_cell_formula_units_Z   24
loop_
 _symmetry_equiv_pos_site_id
 _symmetry_equiv_pos_as_xyz
  1  'x, y, z'
loop_
 _atom_type_symbol
 _atom_type_oxidation_number
  Ca2+  2.0
  Al0+  0.0
  Si0+  0.0
  O2-  -2.0
loop_
 _atom_site_type_symbol
 _atom_site_label
 _atom_site_symmetry_multiplicity
 _atom_site_fract_x
 _atom_site_fract_y
 _atom_site_fract_z
 _atom_site_occupancy
  Ca2+  Ca0  1  0.16583777  0.07410603  0.16934452  1
  Ca2+  Ca1  1  0.17231747  0.07165761  0.50868354  1
  Ca2+  Ca2  1  0.17324862  0.07303537  0.83678004  1
  Ca2+  Ca3  1  0.17902589  0.57632938  0.16645374  1
  Ca2+  Ca4  1  0.17034756  0.58559677  0.50314448  1
  Ca2+  Ca5  1  0.17237942  0.58117878  0.84223438  1
  Ca2+  Ca6  1  0.66358885  0.08249423  0.17195736  1
  Ca2+  Ca7  1  0.66539956  0.08421640  0.50429694  1
  Ca2+  Ca8  1  0.66480485  0.08889001  0.83241668  1
  Ca2+  Ca9  1  0.66825373  0.57970817  0.17044602  1
  Ca2+  Ca10  1  0.67154150  0.57528421  0.50338885  1
  Ca2+  Ca11  1  0.67612814  0.58823366  0.84090866  1
  Ca2+  Ca12  1  0.07883135  0.33548813  0.15788030  1
  Ca2+  Ca13  1  0.08070686  0.32963153  0.49769113  1
  Ca2+  Ca14  1  0.07831830  0.34369942  0.83328738  1
  Ca2+  Ca15  1  0.07405305  0.83960344  0.16173012  1
  Ca2+  Ca16  1  0.08253500  0.83324286  0.49614491  1
  Ca2+  Ca17  1  0.08517017  0.83074946  0.82912141  1
  Ca2+  Ca18  1  0.57970611  0.32812284  0.16166231  1
  Ca2+  Ca19  1  0.57697948  0.32466325  0.49308158  1
  Ca2+  Ca20  1  0.57109263  0.32557095  0.82799543  1
  Ca2+  Ca21  1  0.58488778  0.82732794  0.15954391  1
  Ca2+  Ca22  1  0.57673152  0.83855958  0.49702131  1
  Ca2+  Ca23  1  0.57720097  0.82559713  0.83027512  1
  Ca2+  Ca24  1  0.34714271  0.42432742  0.16743878  1
  Ca2+  Ca25  1  0.34170355  0.41866332  0.50103225  1
  Ca2+  Ca26  1  0.33097692  0.41567935  0.84353534  1
  Ca2+  Ca27  1  0.31866601  0.91357815  0.17284727  1
  Ca2+  Ca28  1  0.32552402  0.91989024  0.51214936  1
  Ca2+  Ca29  1  0.32740575  0.91477745  0.83377482  1
  Ca2+  Ca30  1  0.82932374  0.42119459  0.16887130  1
  Ca2+  Ca31  1  0.82252034  0.41711866  0.50681823  1
  Ca2+  Ca32  1  0.83542111  0.42906938  0.84207322  1
  Ca2+  Ca33  1  0.82917747  0.91337501  0.17363968  1
  Ca2+  Ca34  1  0.82730055  0.91788670  0.50167814  1
  Ca2+  Ca35  1  0.83640003  0.92258990  0.83752924  1
  Ca2+  Ca36  1  0.42794205  0.17564596  0.15884581  1
  Ca2+  Ca37  1  0.42074615  0.17265815  0.49461098  1
  Ca2+  Ca38  1  0.42187374  0.17144351  0.82370315  1
  Ca2+  Ca39  1  0.42027841  0.66071320  0.16098464  1
  Ca2+  Ca40  1  0.41107260  0.67310570  0.49709726  1
  Ca2+  Ca41  1  0.41792148  0.66710394  0.83158007  1
  Ca2+  Ca42  1  0.91811775  0.17438499  0.15924456  1
  Ca2+  Ca43  1  0.91558864  0.16060318  0.49941760  1
  Ca2+  Ca44  1  0.91540261  0.17183245  0.83097905  1
  Ca2+  Ca45  1  0.91251992  0.67879151  0.15850547  1
  Ca2+  Ca46  1  0.92246125  0.66850300  0.49790953  1
  Ca2+  Ca47  1  0.91986588  0.66884889  0.82790250  1
  Al0+  Al48  1  -0.00172968  0.00124743  0.00007804  1
  Al0+  Al49  1  -0.00028217  -0.00064702  0.33318411  1
  Al0+  Al50  1  -0.00241106  -0.00036660  0.67398841  1
  Al0+  Al51  1  0.00073394  0.50284208  0.00647603  1
  Al0+  Al52  1  0.00358296  0.50139389  0.33233189  1
  Al0+  Al53  1  -0.00056361  0.50151212  0.66322037  1
  Al0+  Al54  1  0.50046371  -0.00068753  -0.00337229  1
  Al0+  Al55  1  0.49928856  0.00002948  0.33150686  1
  Al0+  Al56  1  0.49958865  -0.00118439  0.66378999  1
  Al0+  Al57  1  0.50312068  0.49926289  -0.00659044  1
  Al0+  Al58  1  0.50187792  0.50141933  0.34126390  1
  Al0+  Al59  1  0.50073895  0.49928669  0.66423133  1
  Al0+  Al60  1  0.24883616  0.24708647  0.00177204  1
  Al0+  Al61  1  0.24921116  0.25150626  0.32760455  1
  Al0+  Al62  1  0.24809099  0.24966255  0.66583360  1
  Al0+  Al63  1  0.24879783  0.74980631  0.01042728  1
  Al0+  Al64  1  0.24890384  0.74795552  0.33943062  1
  Al0+  Al65  1  0.24877129  0.74719425  0.66283290  1
  Al0+  Al66  1  0.75226269  0.25070538  -0.00779784  1
  Al0+  Al67  1  0.75028029  0.25069182  0.33401977  1
  Al0+  Al68  1  0.74817245  0.24997467  0.66833184  1
  Al0+  Al69  1  0.75038625  0.75230700  -0.00545077  1
  Al0+  Al70  1  0.75091866  0.75202444  0.33625254  1
  Al0+  Al71  1  0.75089889  0.74977481  0.66907286  1
  Al0+  Al72  1  0.42966177  0.81770755  0.65400392  1
  Al0+  Al73  1  0.92882468  0.82257514  0.98464794  1
  Al0+  Al74  1  0.32423975  0.56916159  0.01360664  1
  Al0+  Al75  1  0.17766669  0.93015346  0.34877169  1
  Al0+  Al76  1  0.17870428  0.92984285  0.01551593  1
  Al0+  Al77  1  0.17909313  0.92618980  0.68286162  1
  Al0+  Al78  1  0.57199687  0.17666969  0.98214250  1
  Al0+  Al79  1  0.68098719  0.42889666  0.34663463  1
  Al0+  Al80  1  0.81922159  0.07114944  0.68143604  1
  Al0+  Al81  1  0.57127965  0.67890802  0.98792163  1
  Al0+  Al82  1  0.06981896  0.67872760  0.65338553  1
  Al0+  Al83  1  0.57130258  0.17875744  0.64889265  1
  Al0+  Al84  1  0.17878261  0.42639042  0.01463633  1
  Al0+  Al85  1  0.32186040  0.07190248  0.68101669  1
  Al0+  Al86  1  0.57245392  0.17766197  0.31651681  1
  Al0+  Al87  1  0.42977885  0.32345348  0.31636336  1
  Al0+  Al88  1  0.82104899  0.57439308  0.01465691  1
  Al0+  Al89  1  0.42529196  0.32148781  0.64948163  1
  Al0+  Al90  1  0.93043324  0.81951161  0.32057113  1
  Al0+  Al91  1  0.42809534  0.32069740  0.98393807  1
  Al0+  Al92  1  0.32141570  0.56840891  0.34940139  1
  Al0+  Al93  1  0.82133960  0.56976818  0.68009901  1
  Al0+  Al94  1  0.93197814  0.32361914  0.98689979  1
  Al0+  Al95  1  0.67734994  0.92846660  0.34568857  1
  Si0+  Si96  1  0.32433046  0.07108824  0.01814362  1
  Si0+  Si97  1  0.92960045  0.32149991  0.65176778  1
  Si0+  Si98  1  0.07196360  0.68057980  0.98585913  1
  Si0+  Si99  1  0.07426953  0.67711508  0.31315484  1
  Si0+  Si100  1  0.06888527  0.17733023  0.65307734  1
  Si0+  Si101  1  0.67905670  0.92993146  0.01326397  1
  Si0+  Si102  1  0.42531853  0.82049152  0.98633500  1
  Si0+  Si103  1  0.57528303  0.67775633  0.64821005  1
  Si0+  Si104  1  0.57094117  0.68123555  0.32121812  1
  Si0+  Si105  1  0.82355228  0.57328000  0.34971178  1
  Si0+  Si106  1  0.81981246  0.07255708  0.01549822  1
  Si0+  Si107  1  0.32121104  0.56986053  0.68082242  1
  Si0+  Si108  1  0.17622759  0.42643983  0.35199746  1
  Si0+  Si109  1  0.67671645  0.92677807  0.68506298  1
  Si0+  Si110  1  0.06993000  0.17865232  0.31897362  1
  Si0+  Si111  1  0.67738352  0.42854803  0.68588884  1
  Si0+  Si112  1  0.17819102  0.42887553  0.67927888  1
  Si0+  Si113  1  0.07112204  0.17682142  0.98280491  1
  Si0+  Si114  1  0.68139898  0.42809202  0.01452079  1
  Si0+  Si115  1  0.82111907  0.07227869  0.34790347  1
  Si0+  Si116  1  0.42680379  0.82081179  0.31876308  1
  Si0+  Si117  1  0.92760708  0.82390232  0.64952977  1
  Si0+  Si118  1  0.32061033  0.07263153  0.34797802  1
  Si0+  Si119  1  0.92914175  0.32234515  0.32013865  1
  O2-  O120  1  0.25536757  0.00238283  0.06290363  1
  O2-  O121  1  0.25426922  0.00268073  0.39432624  1
  O2-  O122  1  0.25186739  -0.00211866  0.73175399  1
  O2-  O123  1  0.25697554  0.49225144  0.06400349  1
  O2-  O124  1  0.24737065  0.49226728  0.39608778  1
  O2-  O125  1  0.25448971  0.49417322  0.72089866  1
  O2-  O126  1  0.74703539  0.00342617  0.05673288  1
  O2-  O127  1  0.74930620  0.00643345  0.39119162  1
  O2-  O128  1  0.74505284  -0.00368058  0.72885226  1
  O2-  O129  1  0.74749729  0.49861816  0.06101605  1
  O2-  O130  1  0.75920427  0.50070755  0.39372433  1
  O2-  O131  1  0.74440810  0.49931661  0.72934300  1
  O2-  O132  1  0.00069082  0.25211610  0.27775055  1
  O2-  O133  1  -0.00280808  0.24740121  0.60900415  1
  O2-  O134  1  0.00990148  0.25274096  0.93888522  1
  O2-  O135  1  0.00366155  0.74483859  0.27088145  1
  O2-  O136  1  -0.00299312  0.75551461  0.60632584  1
  O2-  O137  1  0.00422654  0.74872428  0.93923943  1
  O2-  O138  1  0.50058551  0.24991379  0.26737615  1
  O2-  O139  1  0.49684020  0.24872087  0.60018261  1
  O2-  O140  1  0.49660475  0.24570106  0.93393245  1
  O2-  O141  1  0.50038784  0.75215948  0.27730916  1
  O2-  O142  1  0.50568250  0.74543301  0.60404214  1
  O2-  O143  1  0.49205648  0.74958985  0.94255010  1
  O2-  O144  1  0.06507770  0.17368306  0.08886614  1
  O2-  O145  1  0.06827404  0.17823254  0.42446725  1
  O2-  O146  1  0.06812771  0.17923134  0.75779047  1
  O2-  O147  1  0.07081358  0.68249612  0.09143983  1
  O2-  O148  1  0.07224360  0.67573479  0.41901788  1
  O2-  O149  1  0.06937193  0.67680665  0.76635439  1
  O2-  O150  1  0.57344276  0.17685748  0.09575305  1
  O2-  O151  1  0.57302511  0.17837938  0.42955788  1
  O2-  O152  1  0.57176297  0.18269389  0.76217930  1
  O2-  O153  1  0.57292513  0.68193736  0.10160581  1
  O2-  O154  1  0.57098732  0.68308512  0.42627481  1
  O2-  O155  1  0.57537912  0.67894584  0.75388344  1
  O2-  O156  1  0.17028329  0.42830098  0.24718536  1
  O2-  O157  1  0.17461550  0.43017202  0.57400170  1
  O2-  O158  1  0.17602192  0.43259030  0.90050536  1
  O2-  O159  1  0.17640370  0.93306075  0.23550063  1
  O2-  O160  1  0.17855697  0.92919101  0.56903863  1
  O2-  O161  1  0.17989684  0.92931842  0.90278169  1
  O2-  O162  1  0.68321343  0.43115740  0.23339541  1
  O2-  O163  1  0.68040899  0.42876864  0.57978755  1
  O2-  O164  1  0.68474548  0.42953023  0.90912238  1
  O2-  O165  1  0.68078184  0.92528698  0.23233694  1
  O2-  O166  1  0.67908717  0.92482533  0.57920002  1
  O2-  O167  1  0.68035639  0.92887541  0.90845724  1
  O2-  O168  1  0.43389925  0.32169706  0.09739391  1
  O2-  O169  1  0.42984229  0.32091922  0.42969155  1
  O2-  O170  1  0.42494743  0.32270161  0.76277415  1
  O2-  O171  1  0.42782136  0.82185454  0.09232932  1
  O2-  O172  1  0.42690425  0.81959227  0.42393407  1
  O2-  O173  1  0.42961018  0.81351773  0.76736346  1
  O2-  O174  1  0.93015603  0.31941849  0.10061057  1
  O2-  O175  1  0.93016585  0.32161528  0.42563034  1
  O2-  O176  1  0.93296480  0.32413878  0.75664586  1
  O2-  O177  1  0.92786471  0.82255893  0.09809030  1
  O2-  O178  1  0.93031787  0.81905924  0.43359956  1
  O2-  O179  1  0.92728341  0.82319222  0.75507078  1
  O2-  O180  1  0.31763959  0.06994199  0.24229403  1
  O2-  O181  1  0.31736596  0.07136304  0.56694896  1
  O2-  O182  1  0.32319604  0.06953542  0.91275654  1
  O2-  O183  1  0.32208636  0.56900997  0.23662058  1
  O2-  O184  1  0.31873649  0.57081361  0.57551699  1
  O2-  O185  1  0.32002432  0.57293252  0.89977262  1
  O2-  O186  1  0.82373465  0.07246092  0.24226165  1
  O2-  O187  1  0.82136692  0.06898314  0.56802945  1
  O2-  O188  1  0.82149745  0.07159715  0.91059149  1
  O2-  O189  1  0.82053688  0.57440845  0.24409656  1
  O2-  O190  1  0.82172352  0.56545826  0.56657206  1
  O2-  O191  1  0.82073202  0.57319448  0.90147109  1
  O2-  O192  1  0.03888244  0.08877087  0.26981692  1
  O2-  O193  1  0.03905162  0.08563667  0.60585542  1
  O2-  O194  1  0.03615319  0.08778909  0.93395072  1
  O2-  O195  1  0.05143344  0.58239376  0.26772422  1
  O2-  O196  1  0.03584475  0.58450752  0.59467218  1
  O2-  O197  1  0.04640396  0.58685290  0.94096331  1
  O2-  O198  1  0.54461339  0.07828540  0.26374935  1
  O2-  O199  1  0.54872899  0.07789564  0.59912861  1
  O2-  O200  1  0.54673958  0.07670545  0.92992207  1
  O2-  O201  1  0.54265188  0.58938617  0.27511347  1
  O2-  O202  1  0.55094653  0.58339945  0.60360907  1
  O2-  O203  1  0.54769737  0.58305927  0.92987647  1
  O2-  O204  1  0.16092680  0.20375686  0.26901979  1
  O2-  O205  1  0.15877607  0.20634972  0.60277322  1
  O2-  O206  1  0.16767172  0.19184398  0.94032305  1
  O2-  O207  1  0.16797120  0.70454134  0.26936266  1
  O2-  O208  1  0.16544755  0.70660886  0.59624278  1
  O2-  O209  1  0.16633015  0.70697649  0.94148171  1
  O2-  O210  1  0.67257636  0.20594626  0.26556312  1
  O2-  O211  1  0.67048198  0.20962917  0.59721146  1
  O2-  O212  1  0.67009593  0.20634682  0.92974245  1
  O2-  O213  1  0.66308806  0.70849210  0.27401341  1
  O2-  O214  1  0.66906782  0.70356754  0.60217162  1
  O2-  O215  1  0.66372591  0.71624842  0.93004354  1
  O2-  O216  1  0.08366303  0.46076519  0.07164591  1
  O2-  O217  1  0.08347725  0.45486534  0.40073410  1
  O2-  O218  1  0.08802969  0.46215199  0.72654806  1
  O2-  O219  1  0.08219262  0.96541973  0.06805033  1
  O2-  O220  1  0.08189515  0.96370020  0.40272283  1
  O2-  O221  1  0.08090166  0.95500037  0.73515211  1
  O2-  O222  1  0.58735446  0.45287958  0.05885929  1
  O2-  O223  1  0.58867711  0.46384917  0.40526289  1
  O2-  O224  1  0.58287846  0.45333368  0.72996741  1
  O2-  O225  1  0.58566746  0.95304975  0.06066687  1
  O2-  O226  1  0.57911580  0.95473065  0.39904302  1
  O2-  O227  1  0.58286791  0.95052347  0.73033393  1
  O2-  O228  1  0.19437647  0.32381527  0.06444359  1
  O2-  O229  1  0.19739163  0.33039456  0.39536716  1
  O2-  O230  1  0.19794928  0.33544426  0.72635954  1
  O2-  O231  1  0.20687522  0.83461380  0.07362495  1
  O2-  O232  1  0.20572071  0.83252585  0.40075441  1
  O2-  O233  1  0.20917549  0.82708921  0.73327936  1
  O2-  O234  1  0.71130134  0.33513093  0.05993674  1
  O2-  O235  1  0.71270840  0.33318245  0.40267885  1
  O2-  O236  1  0.70528248  0.33608999  0.73127782  1
  O2-  O237  1  0.71058029  0.83968253  0.06142613  1
  O2-  O238  1  0.71162327  0.83465246  0.40376712  1
  O2-  O239  1  0.70304402  0.83333411  0.73143080  1
  O2-  O240  1  0.46337808  0.42291258  0.26874801  1
  O2-  O241  1  0.45599198  0.42068437  0.59797459  1
  O2-  O242  1  0.45774941  0.41785528  0.92917599  1
  O2-  O243  1  0.45028840  0.91313470  0.27103261  1
  O2-  O244  1  0.45782660  0.91418390  0.59852666  1
  O2-  O245  1  0.45325619  0.91232287  0.93849082  1
  O2-  O246  1  0.95617765  0.41490770  0.27327321  1
  O2-  O247  1  0.96121532  0.41021696  0.60073873  1
  O2-  O248  1  0.96119409  0.42183082  0.93471558  1
  O2-  O249  1  0.96040934  0.91668091  0.26616250  1
  O2-  O250  1  0.95254520  0.91819440  0.60466405  1
  O2-  O251  1  0.95865020  0.91982820  0.93200686  1
  O2-  O252  1  0.32890168  0.30021322  0.26507695  1
  O2-  O253  1  0.32512744  0.29637115  0.59735036  1
  O2-  O254  1  0.32619200  0.29619851  0.93619389  1
  O2-  O255  1  0.33530525  0.78927896  0.27276589  1
  O2-  O256  1  0.33483596  0.78455280  0.59757625  1
  O2-  O257  1  0.33087519  0.79535173  0.94252580  1
  O2-  O258  1  0.83850814  0.29441634  0.27157979  1
  O2-  O259  1  0.83684761  0.29499024  0.60611844  1
  O2-  O260  1  0.83855355  0.29038698  0.92925358  1
  O2-  O261  1  0.83301278  0.78912121  0.26675104  1
  O2-  O262  1  0.83369035  0.79681116  0.60435097  1
  O2-  O263  1  0.83375243  0.79274055  0.92850365  1
  O2-  O264  1  0.41838269  0.04480271  0.06325630  1
  O2-  O265  1  0.41498986  0.04891206  0.39228799  1
  O2-  O266  1  0.42081815  0.04385373  0.73218484  1
  O2-  O267  1  0.42526589  0.54403465  0.06415103  1
  O2-  O268  1  0.41757711  0.54270322  0.40656921  1
  O2-  O269  1  0.41606323  0.54894332  0.72524199  1
  O2-  O270  1  0.91046336  0.04347368  0.06449760  1
  O2-  O271  1  0.91314828  0.04302463  0.39549015  1
  O2-  O272  1  0.91462398  0.04205466  0.73891000  1
  O2-  O273  1  0.91640575  0.54529505  0.07091384  1
  O2-  O274  1  0.91967183  0.55079943  0.39202351  1
  O2-  O275  1  0.91714355  0.53546763  0.73354869  1
  O2-  O276  1  0.29794492  0.16384077  0.06540615  1
  O2-  O277  1  0.29234350  0.16656852  0.39188019  1
  O2-  O278  1  0.28881586  0.16919639  0.73407536  1
  O2-  O279  1  0.29348072  0.66529165  0.07084886  1
  O2-  O280  1  0.28784184  0.66382708  0.40500295  1
  O2-  O281  1  0.28863967  0.65923203  0.72870989  1
  O2-  O282  1  0.79442679  0.16577377  0.06174744  1
  O2-  O283  1  0.80065166  0.16656730  0.39491166  1
  O2-  O284  1  0.79141076  0.16892859  0.73539377  1
  O2-  O285  1  0.78718194  0.67118460  0.06663998  1
  O2-  O286  1  0.79401703  0.66437525  0.39801910  1
  O2-  O287  1  0.79496943  0.66803958  0.73309808  1
