# generated using pymatgen
data_Ca2Al2SiO7
_symmetry_space_group_name_H-M   'P 1'
_cell_length_a   15.45869744
_cell_length_b   15.45999206
_cell_length_c   15.28532082
_cell_angle_alpha   90.00586526
_cell_angle_beta   89.99269646
_cell_angle_gamma   89.99821578
_symmetry_Int_Tables_number   1
_chemical_formula_structural   Ca2Al2SiO7
_chemical_formula_sum   'Ca48 Al48 Si24 O168'
_cell_volume   3653.05924756
_cell_formula_units_Z   24
loop_
 _symmetry_equiv_pos_site_id
 _symmetry_equiv_pos_as_xyz
  1  'x, y, z'
loop_
 _atom_type_symbol
 _atom_type_oxidation_number
  Ca2+  2.0
  Al0+  0.0
  Si0+  0.0
  O2-  -2.0
loop_
 _atom_site_type_symbol
 _atom_site_label
 _atom_site_symmetry_multiplicity
 _atom_site_fract_x
 _atom_site_fract_y
 _atom_site_fract_z
 _atom_site_occupancy
  Ca2+  Ca0  1  0.16774668  0.08536842  0.16700462  1
  Ca2+  Ca1  1  0.15955864  0.08678458  0.50476137  1
  Ca2+  Ca2  1  0.16983133  0.08047955  0.84098107  1
  Ca2+  Ca3  1  0.17695579  0.57674838  0.16765941  1
  Ca2+  Ca4  1  0.17009748  0.58582820  0.50303884  1
  Ca2+  Ca5  1  0.17170316  0.57821705  0.84164354  1
  Ca2+  Ca6  1  0.67278898  0.08949262  0.16987735  1
  Ca2+  Ca7  1  0.67161990  0.08089705  0.51010496  1
  Ca2+  Ca8  1  0.67930008  0.08520733  0.83412706  1
  Ca2+  Ca9  1  0.67022519  0.56730491  0.17425337  1
  Ca2+  Ca10  1  0.67308147  0.57417431  0.50491863  1
  Ca2+  Ca11  1  0.66134197  0.57385617  0.83374812  1
  Ca2+  Ca12  1  0.07299344  0.33778105  0.16069480  1
  Ca2+  Ca13  1  0.07059642  0.32158795  0.49502209  1
  Ca2+  Ca14  1  0.07268973  0.33233532  0.82491455  1
  Ca2+  Ca15  1  0.08130283  0.83392653  0.16482179  1
  Ca2+  Ca16  1  0.07596915  0.82647508  0.49630229  1
  Ca2+  Ca17  1  0.08972713  0.82727857  0.82837530  1
  Ca2+  Ca18  1  0.58550522  0.33342234  0.16197708  1
  Ca2+  Ca19  1  0.58521423  0.33475439  0.49818088  1
  Ca2+  Ca20  1  0.57279529  0.34239563  0.82975111  1
  Ca2+  Ca21  1  0.58231626  0.82651150  0.16140249  1
  Ca2+  Ca22  1  0.58485802  0.83191318  0.50074822  1
  Ca2+  Ca23  1  0.57697969  0.82678625  0.82061712  1
  Ca2+  Ca24  1  0.33412662  0.42176278  0.16723314  1
  Ca2+  Ca25  1  0.33558666  0.42021995  0.50415547  1
  Ca2+  Ca26  1  0.32794457  0.41699698  0.84480953  1
  Ca2+  Ca27  1  0.32679393  0.92216080  0.16559365  1
  Ca2+  Ca28  1  0.33406980  0.91904393  0.50638665  1
  Ca2+  Ca29  1  0.32984956  0.92206006  0.84087256  1
  Ca2+  Ca30  1  0.82714003  0.41261313  0.17354066  1
  Ca2+  Ca31  1  0.82579733  0.40690300  0.50317880  1
  Ca2+  Ca32  1  0.82287126  0.40565771  0.83707903  1
  Ca2+  Ca33  1  0.83865465  0.92398649  0.17108811  1
  Ca2+  Ca34  1  0.83077721  0.92266115  0.50979971  1
  Ca2+  Ca35  1  0.83366390  0.93040792  0.83548602  1
  Ca2+  Ca36  1  0.42481175  0.17088679  0.15884570  1
  Ca2+  Ca37  1  0.42458734  0.17523660  0.49541641  1
  Ca2+  Ca38  1  0.41017842  0.17842727  0.83008912  1
  Ca2+  Ca39  1  0.41226821  0.65984701  0.16269136  1
  Ca2+  Ca40  1  0.42300267  0.66806460  0.50111608  1
  Ca2+  Ca41  1  0.41936349  0.67032591  0.82400431  1
  Ca2+  Ca42  1  0.91818553  0.17751361  0.16246526  1
  Ca2+  Ca43  1  0.91803313  0.17206857  0.49623032  1
  Ca2+  Ca44  1  0.91692507  0.17218425  0.82890517  1
  Ca2+  Ca45  1  0.90623350  0.67250235  0.16646057  1
  Ca2+  Ca46  1  0.91686927  0.66851096  0.49314168  1
  Ca2+  Ca47  1  0.92694912  0.66724964  0.82551012  1
  Al0+  Al48  1  -0.00173507  0.00007212  0.00720115  1
  Al0+  Al49  1  0.00084792  -0.00194103  0.32724940  1
  Al0+  Al50  1  0.00182965  -0.00113241  0.67018958  1
  Al0+  Al51  1  -0.00116021  0.50264521  -0.00156886  1
  Al0+  Al52  1  0.00265600  0.50119908  0.33236037  1
  Al0+  Al53  1  0.00056569  0.49932223  0.65701483  1
  Al0+  Al54  1  0.50132402  -0.00189061  0.00156540  1
  Al0+  Al55  1  0.49846170  0.00024418  0.32823037  1
  Al0+  Al56  1  0.49840178  0.00056681  0.66853560  1
  Al0+  Al57  1  0.50209396  0.49876638  0.00388488  1
  Al0+  Al58  1  0.49974723  0.50132725  0.34198265  1
  Al0+  Al59  1  0.50045069  0.50282491  0.66168996  1
  Al0+  Al60  1  0.24991944  0.24933789  0.00562629  1
  Al0+  Al61  1  0.25184286  0.24951610  0.33094816  1
  Al0+  Al62  1  0.24918500  0.25166854  0.65818978  1
  Al0+  Al63  1  0.24997556  0.75105838  0.00745271  1
  Al0+  Al64  1  0.24969328  0.75155466  0.33755396  1
  Al0+  Al65  1  0.25076733  0.75096351  0.65840413  1
  Al0+  Al66  1  0.75056673  0.24816889  0.00365156  1
  Al0+  Al67  1  0.74987497  0.24776732  0.33128280  1
  Al0+  Al68  1  0.74797366  0.25071048  0.67385810  1
  Al0+  Al69  1  0.74971290  0.75096173  -0.00532070  1
  Al0+  Al70  1  0.74843333  0.74872274  0.33089311  1
  Al0+  Al71  1  0.74964287  0.74841490  0.66844330  1
  Al0+  Al72  1  0.82241588  0.07075139  0.68166877  1
  Al0+  Al73  1  0.17508481  0.42757692  0.01290029  1
  Al0+  Al74  1  0.92522061  0.31960052  0.65190406  1
  Al0+  Al75  1  0.07161034  0.67816421  0.65300197  1
  Al0+  Al76  1  0.07253997  0.17769761  0.31541067  1
  Al0+  Al77  1  0.32325340  0.07295121  0.01520595  1
  Al0+  Al78  1  0.67883460  0.43096831  0.68242890  1
  Al0+  Al79  1  0.67647807  0.92638177  0.68174107  1
  Al0+  Al80  1  0.57015055  0.17823369  0.32049151  1
  Al0+  Al81  1  0.17881835  0.92898570  0.01589753  1
  Al0+  Al82  1  0.32178577  0.56977106  0.01202318  1
  Al0+  Al83  1  0.68094319  0.43020379  0.01332507  1
  Al0+  Al84  1  0.31946415  0.57138924  0.35123076  1
  Al0+  Al85  1  0.81926951  0.06986876  0.01729902  1
  Al0+  Al86  1  0.92881457  0.32243370  0.98494053  1
  Al0+  Al87  1  0.92939052  0.32156774  0.31707533  1
  Al0+  Al88  1  0.07105222  0.17724013  0.65455223  1
  Al0+  Al89  1  0.42999056  0.32011475  0.98834745  1
  Al0+  Al90  1  0.82254138  0.57266800  0.34753129  1
  Al0+  Al91  1  0.68147788  0.42643828  0.35057579  1
  Al0+  Al92  1  0.42924137  0.82338092  0.65178551  1
  Al0+  Al93  1  0.57305845  0.67884499  0.64992065  1
  Al0+  Al94  1  0.42804248  0.32259722  0.65322149  1
  Al0+  Al95  1  0.92787660  0.81774956  0.31990798  1
  Si0+  Si96  1  0.82106809  0.06772272  0.34781270  1
  Si0+  Si97  1  0.07196368  0.68192349  0.98652284  1
  Si0+  Si98  1  0.92811335  0.82292876  0.98307847  1
  Si0+  Si99  1  0.18085694  0.92827435  0.67962454  1
  Si0+  Si100  1  0.82574998  0.57202234  0.68339506  1
  Si0+  Si101  1  0.32260596  0.07070470  0.34963095  1
  Si0+  Si102  1  0.67873040  0.92540802  0.01750610  1
  Si0+  Si103  1  0.17896342  0.93126745  0.35134373  1
  Si0+  Si104  1  0.67649369  0.92833009  0.34605138  1
  Si0+  Si105  1  0.57265177  0.17572936  0.98151222  1
  Si0+  Si106  1  0.32029426  0.07401180  0.67919576  1
  Si0+  Si107  1  0.07112697  0.17717454  0.98446842  1
  Si0+  Si108  1  0.57094392  0.67871988  0.98560310  1
  Si0+  Si109  1  0.92892525  0.82161234  0.65332111  1
  Si0+  Si110  1  0.17823633  0.42560477  0.35239644  1
  Si0+  Si111  1  0.42985818  0.32445021  0.31641194  1
  Si0+  Si112  1  0.56893271  0.67942129  0.31700571  1
  Si0+  Si113  1  0.07510780  0.67887246  0.31439624  1
  Si0+  Si114  1  0.42761671  0.82132144  0.31560248  1
  Si0+  Si115  1  0.17925641  0.42893830  0.67885392  1
  Si0+  Si116  1  0.42828306  0.82025395  0.98652035  1
  Si0+  Si117  1  0.57060977  0.17885842  0.65365597  1
  Si0+  Si118  1  0.31897678  0.57167825  0.68029253  1
  Si0+  Si119  1  0.82260548  0.57555658  0.01375082  1
  O2-  O120  1  0.24878283  0.00320985  0.06577967  1
  O2-  O121  1  0.24740806  0.00478117  0.39360937  1
  O2-  O122  1  0.24991527  0.00159558  0.72079225  1
  O2-  O123  1  0.25173246  0.49582927  0.06201596  1
  O2-  O124  1  0.24589173  0.49550031  0.39766079  1
  O2-  O125  1  0.24946054  0.50013241  0.72298430  1
  O2-  O126  1  0.74451086  -0.00517587  0.06431785  1
  O2-  O127  1  0.74840949  -0.00234338  0.38913818  1
  O2-  O128  1  0.74980545  -0.00243249  0.73079030  1
  O2-  O129  1  0.75841308  0.50295584  0.05757627  1
  O2-  O130  1  0.75726037  0.49574776  0.39918862  1
  O2-  O131  1  0.75685835  0.50375847  0.72831964  1
  O2-  O132  1  0.00425224  0.25291160  0.26576766  1
  O2-  O133  1  -0.00471408  0.24452222  0.60436356  1
  O2-  O134  1  0.00707991  0.24990810  0.93968850  1
  O2-  O135  1  -0.00044146  0.74057839  0.27078709  1
  O2-  O136  1  -0.00699729  0.74950621  0.60786490  1
  O2-  O137  1  0.00052961  0.75244178  0.94275701  1
  O2-  O138  1  0.49927011  0.25614874  0.27326353  1
  O2-  O139  1  0.50372410  0.24834936  0.60793166  1
  O2-  O140  1  0.50128044  0.24273547  0.93889897  1
  O2-  O141  1  0.49644666  0.74850242  0.27295373  1
  O2-  O142  1  0.50492457  0.75577201  0.60099381  1
  O2-  O143  1  0.49874934  0.74916416  0.94435287  1
  O2-  O144  1  0.06698803  0.17610360  0.08982878  1
  O2-  O145  1  0.06834288  0.17552198  0.42898251  1
  O2-  O146  1  0.07562427  0.17930211  0.76800103  1
  O2-  O147  1  0.07225900  0.68346593  0.09126383  1
  O2-  O148  1  0.07811092  0.68489772  0.42001060  1
  O2-  O149  1  0.07453707  0.68098913  0.76669994  1
  O2-  O150  1  0.57198991  0.17626405  0.08747813  1
  O2-  O151  1  0.56681852  0.17327907  0.43351806  1
  O2-  O152  1  0.56803960  0.17851471  0.75913718  1
  O2-  O153  1  0.57232718  0.68137454  0.09098367  1
  O2-  O154  1  0.56933452  0.68309892  0.42150996  1
  O2-  O155  1  0.56620950  0.67680421  0.76415338  1
  O2-  O156  1  0.18000597  0.42688089  0.24677167  1
  O2-  O157  1  0.18217666  0.43000521  0.57397175  1
  O2-  O158  1  0.17498657  0.43155465  0.89851760  1
  O2-  O159  1  0.18142790  0.92897289  0.24652836  1
  O2-  O160  1  0.18055496  0.92775417  0.57448234  1
  O2-  O161  1  0.18198637  0.92582984  0.90181410  1
  O2-  O162  1  0.67909079  0.42890254  0.23672701  1
  O2-  O163  1  0.67876801  0.43060705  0.56984730  1
  O2-  O164  1  0.67739671  0.43350265  0.90030667  1
  O2-  O165  1  0.67642316  0.92847508  0.24082030  1
  O2-  O166  1  0.67846251  0.92982281  0.56726114  1
  O2-  O167  1  0.68081932  0.92346538  0.91243663  1
  O2-  O168  1  0.43504360  0.32181754  0.10126851  1
  O2-  O169  1  0.42933794  0.32199519  0.42232734  1
  O2-  O170  1  0.42484125  0.32175227  0.76642853  1
  O2-  O171  1  0.42992214  0.81991034  0.09188025  1
  O2-  O172  1  0.42920699  0.82417313  0.42032769  1
  O2-  O173  1  0.42449556  0.81968617  0.76572270  1
  O2-  O174  1  0.92816477  0.32183995  0.09771354  1
  O2-  O175  1  0.92732704  0.31578296  0.43042355  1
  O2-  O176  1  0.92813302  0.32026208  0.76577477  1
  O2-  O177  1  0.92503376  0.82035368  0.08807939  1
  O2-  O178  1  0.93042707  0.81991192  0.43310225  1
  O2-  O179  1  0.93385530  0.82203618  0.75917145  1
  O2-  O180  1  0.32465726  0.06600178  0.24503128  1
  O2-  O181  1  0.32062118  0.07281957  0.57392965  1
  O2-  O182  1  0.32230805  0.07035867  0.90092141  1
  O2-  O183  1  0.31866521  0.57118812  0.23809233  1
  O2-  O184  1  0.31666049  0.57168823  0.57517753  1
  O2-  O185  1  0.31976864  0.57298391  0.89817229  1
  O2-  O186  1  0.81966164  0.06620013  0.24271966  1
  O2-  O187  1  0.82201111  0.06836611  0.56746837  1
  O2-  O188  1  0.82021823  0.06808155  0.90442605  1
  O2-  O189  1  0.81412496  0.57676478  0.23387193  1
  O2-  O190  1  0.82490100  0.57325309  0.57810804  1
  O2-  O191  1  0.82162452  0.58012549  0.90830130  1
  O2-  O192  1  0.04361080  0.07956431  0.26266335  1
  O2-  O193  1  0.04852836  0.07621355  0.60348190  1
  O2-  O194  1  0.04123432  0.08349690  0.93982978  1
  O2-  O195  1  0.06052204  0.58223174  0.27205662  1
  O2-  O196  1  0.04609795  0.58286032  0.59495613  1
  O2-  O197  1  0.04496453  0.59108737  0.93681360  1
  O2-  O198  1  0.53646075  0.08366026  0.26243664  1
  O2-  O199  1  0.54467860  0.08586134  0.60674843  1
  O2-  O200  1  0.55086053  0.07998546  0.93792997  1
  O2-  O201  1  0.54013579  0.58659734  0.27233391  1
  O2-  O202  1  0.53816239  0.58496670  0.59302769  1
  O2-  O203  1  0.54310323  0.58709408  0.93914411  1
  O2-  O204  1  0.17448975  0.19997521  0.26668032  1
  O2-  O205  1  0.16607440  0.20850692  0.59606115  1
  O2-  O206  1  0.16813874  0.19495773  0.94324810  1
  O2-  O207  1  0.16557543  0.71485818  0.26778123  1
  O2-  O208  1  0.16434915  0.71398195  0.59518579  1
  O2-  O209  1  0.16373649  0.71198956  0.93936255  1
  O2-  O210  1  0.66694953  0.20479704  0.26569376  1
  O2-  O211  1  0.66449281  0.20335183  0.60869154  1
  O2-  O212  1  0.66592139  0.20344166  0.93733724  1
  O2-  O213  1  0.65871538  0.70928833  0.26695750  1
  O2-  O214  1  0.67350089  0.70199373  0.59870474  1
  O2-  O215  1  0.66142324  0.70744779  0.93569480  1
  O2-  O216  1  0.07952789  0.46354229  0.06745933  1
  O2-  O217  1  0.08419523  0.45040684  0.39750700  1
  O2-  O218  1  0.08631761  0.45665058  0.72389119  1
  O2-  O219  1  0.08002415  0.95293659  0.06923294  1
  O2-  O220  1  0.08564643  0.95666720  0.39713319  1
  O2-  O221  1  0.08943071  0.95112782  0.72992455  1
  O2-  O222  1  0.58730990  0.46396629  0.07075370  1
  O2-  O223  1  0.58386220  0.45817299  0.40302171  1
  O2-  O224  1  0.58170455  0.46687930  0.73408275  1
  O2-  O225  1  0.58387854  0.94651236  0.06282056  1
  O2-  O226  1  0.58415391  0.95661579  0.39210996  1
  O2-  O227  1  0.57722637  0.95369416  0.73445424  1
  O2-  O228  1  0.19751068  0.32900814  0.06633365  1
  O2-  O229  1  0.20604189  0.33182615  0.39750315  1
  O2-  O230  1  0.20810281  0.33710031  0.72542240  1
  O2-  O231  1  0.21049732  0.83374674  0.07364153  1
  O2-  O232  1  0.20958505  0.84081812  0.39971251  1
  O2-  O233  1  0.21212350  0.83700536  0.72671817  1
  O2-  O234  1  0.70807077  0.33289779  0.06626092  1
  O2-  O235  1  0.70671617  0.32600066  0.40184367  1
  O2-  O236  1  0.70405439  0.33407993  0.73850169  1
  O2-  O237  1  0.70628873  0.83174918  0.06354168  1
  O2-  O238  1  0.70262572  0.83594217  0.39212350  1
  O2-  O239  1  0.70099161  0.82660047  0.73423758  1
  O2-  O240  1  0.45452556  0.41959252  0.27384376  1
  O2-  O241  1  0.45812414  0.41821571  0.59855474  1
  O2-  O242  1  0.46300225  0.41682424  0.93439867  1
  O2-  O243  1  0.45712617  0.91142842  0.26594666  1
  O2-  O244  1  0.45258568  0.92347806  0.59901706  1
  O2-  O245  1  0.45569839  0.91197679  0.93862686  1
  O2-  O246  1  0.95382025  0.42280568  0.26683933  1
  O2-  O247  1  0.95480574  0.41620402  0.59696864  1
  O2-  O248  1  0.95408064  0.42155648  0.93237176  1
  O2-  O249  1  0.96286784  0.91169387  0.26340087  1
  O2-  O250  1  0.95908804  0.91300106  0.60578004  1
  O2-  O251  1  0.95644088  0.91526414  0.93793636  1
  O2-  O252  1  0.33653515  0.29842912  0.27096306  1
  O2-  O253  1  0.33457262  0.29072854  0.59436368  1
  O2-  O254  1  0.33069220  0.29294221  0.93624841  1
  O2-  O255  1  0.33464480  0.79385649  0.27065830  1
  O2-  O256  1  0.33409322  0.79157359  0.59407911  1
  O2-  O257  1  0.33556853  0.79320812  0.94083499  1
  O2-  O258  1  0.83193561  0.28884553  0.26471751  1
  O2-  O259  1  0.82557397  0.29150953  0.60215872  1
  O2-  O260  1  0.83265871  0.28552322  0.93362185  1
  O2-  O261  1  0.83063707  0.79083964  0.26345445  1
  O2-  O262  1  0.83347684  0.80201610  0.60982794  1
  O2-  O263  1  0.83714054  0.79490987  0.93361310  1
  O2-  O264  1  0.42101401  0.04026617  0.06836170  1
  O2-  O265  1  0.41241402  0.03635757  0.39754259  1
  O2-  O266  1  0.41130499  0.04844509  0.72852711  1
  O2-  O267  1  0.41939177  0.54320563  0.06730233  1
  O2-  O268  1  0.41590425  0.54316540  0.40638351  1
  O2-  O269  1  0.41216485  0.54674027  0.72496795  1
  O2-  O270  1  0.91385879  0.03734331  0.07316061  1
  O2-  O271  1  0.91282375  0.03664772  0.39295118  1
  O2-  O272  1  0.92012712  0.04025199  0.73646555  1
  O2-  O273  1  0.91749429  0.55714983  0.05898444  1
  O2-  O274  1  0.92649540  0.55780695  0.39363238  1
  O2-  O275  1  0.92111114  0.54730148  0.72706977  1
  O2-  O276  1  0.29957268  0.17048124  0.07103194  1
  O2-  O277  1  0.30185991  0.16534354  0.39455137  1
  O2-  O278  1  0.29024613  0.16571556  0.72567974  1
  O2-  O279  1  0.29192091  0.66624402  0.06841850  1
  O2-  O280  1  0.28806478  0.66880937  0.40417727  1
  O2-  O281  1  0.28961253  0.66424949  0.72548724  1
  O2-  O282  1  0.78687867  0.16465067  0.07278897  1
  O2-  O283  1  0.79328280  0.15920469  0.39437987  1
  O2-  O284  1  0.79121783  0.16682132  0.73741848  1
  O2-  O285  1  0.79225896  0.66816347  0.06025071  1
  O2-  O286  1  0.78811672  0.66984382  0.40128668  1
  O2-  O287  1  0.80303403  0.66633847  0.72992967  1
