# generated using pymatgen
data_Ca2Al2SiO7
_symmetry_space_group_name_H-M   'P 1'
_cell_length_a   15.45826977
_cell_length_b   15.45815727
_cell_length_c   15.28399997
_cell_angle_alpha   89.99547963
_cell_angle_beta   90.00152813
_cell_angle_gamma   90.00435721
_symmetry_Int_Tables_number   1
_chemical_formula_structural   Ca2Al2SiO7
_chemical_formula_sum   'Ca48 Al48 Si24 O168'
_cell_volume   3652.20905522
_cell_formula_units_Z   24
loop_
 _symmetry_equiv_pos_site_id
 _symmetry_equiv_pos_as_xyz
  1  'x, y, z'
loop_
 _atom_type_symbol
 _atom_type_oxidation_number
  Ca2+  2.0
  Al0+  0.0
  Si0+  0.0
  O2-  -2.0
loop_
 _atom_site_type_symbol
 _atom_site_label
 _atom_site_symmetry_multiplicity
 _atom_site_fract_x
 _atom_site_fract_y
 _atom_site_fract_z
 _atom_site_occupancy
  Ca2+  Ca0  1  0.17139154  0.08072817  0.17066484  1
  Ca2+  Ca1  1  0.18288199  0.07815313  0.50847654  1
  Ca2+  Ca2  1  0.16739735  0.07285598  0.83989535  1
  Ca2+  Ca3  1  0.17039183  0.58624924  0.16274637  1
  Ca2+  Ca4  1  0.17210613  0.57868227  0.51166944  1
  Ca2+  Ca5  1  0.17095182  0.58339685  0.83695783  1
  Ca2+  Ca6  1  0.66725429  0.08417447  0.17673742  1
  Ca2+  Ca7  1  0.66656045  0.07650683  0.50583248  1
  Ca2+  Ca8  1  0.66470557  0.08604924  0.83108944  1
  Ca2+  Ca9  1  0.66868814  0.57735318  0.17099038  1
  Ca2+  Ca10  1  0.66224610  0.57417267  0.50129912  1
  Ca2+  Ca11  1  0.67498034  0.58288388  0.84242148  1
  Ca2+  Ca12  1  0.08169161  0.32317053  0.16032476  1
  Ca2+  Ca13  1  0.08334822  0.33475511  0.49845785  1
  Ca2+  Ca14  1  0.08520422  0.33087782  0.83049616  1
  Ca2+  Ca15  1  0.07663105  0.83379185  0.15816111  1
  Ca2+  Ca16  1  0.08278965  0.83392950  0.49873819  1
  Ca2+  Ca17  1  0.09453241  0.82498589  0.82900966  1
  Ca2+  Ca18  1  0.57851418  0.32515519  0.16358706  1
  Ca2+  Ca19  1  0.57757260  0.32212158  0.48992366  1
  Ca2+  Ca20  1  0.57796050  0.32334754  0.83065280  1
  Ca2+  Ca21  1  0.57011614  0.84460640  0.16586033  1
  Ca2+  Ca22  1  0.58301903  0.83667236  0.49336874  1
  Ca2+  Ca23  1  0.57677285  0.83632368  0.82989543  1
  Ca2+  Ca24  1  0.34490526  0.41873292  0.16829543  1
  Ca2+  Ca25  1  0.33077858  0.42090507  0.50737882  1
  Ca2+  Ca26  1  0.33545492  0.42742735  0.83821940  1
  Ca2+  Ca27  1  0.33110152  0.91718632  0.17021145  1
  Ca2+  Ca28  1  0.33787762  0.92690971  0.50418122  1
  Ca2+  Ca29  1  0.32596378  0.91909899  0.83594287  1
  Ca2+  Ca30  1  0.82856682  0.42349395  0.17085279  1
  Ca2+  Ca31  1  0.82391487  0.41231503  0.50097955  1
  Ca2+  Ca32  1  0.83286619  0.42315977  0.83997368  1
  Ca2+  Ca33  1  0.82620680  0.92240191  0.17927309  1
  Ca2+  Ca34  1  0.82518646  0.92348819  0.50215813  1
  Ca2+  Ca35  1  0.82643563  0.91864260  0.83316557  1
  Ca2+  Ca36  1  0.42463144  0.17235996  0.16210455  1
  Ca2+  Ca37  1  0.42357941  0.16292591  0.49129461  1
  Ca2+  Ca38  1  0.42588734  0.16358820  0.82790224  1
  Ca2+  Ca39  1  0.41369625  0.67828983  0.15989755  1
  Ca2+  Ca40  1  0.41286561  0.67440116  0.49548380  1
  Ca2+  Ca41  1  0.40314405  0.67143237  0.83308397  1
  Ca2+  Ca42  1  0.92077854  0.16254010  0.16133872  1
  Ca2+  Ca43  1  0.91577185  0.15666332  0.49868494  1
  Ca2+  Ca44  1  0.92198662  0.16159691  0.82992347  1
  Ca2+  Ca45  1  0.91930668  0.67265212  0.16011652  1
  Ca2+  Ca46  1  0.92532695  0.67531102  0.49422519  1
  Ca2+  Ca47  1  0.92904330  0.66277140  0.82809109  1
  Al0+  Al48  1  -0.00184769  -0.00072426  -0.00065814  1
  Al0+  Al49  1  0.00010197  -0.00256820  0.33257096  1
  Al0+  Al50  1  -0.00161795  -0.00061119  0.67166102  1
  Al0+  Al51  1  0.00030192  0.50118672  0.00314575  1
  Al0+  Al52  1  0.00180266  0.49927555  0.33214437  1
  Al0+  Al53  1  0.00029506  0.49963865  0.66260625  1
  Al0+  Al54  1  0.49863677  0.00002688  -0.00886874  1
  Al0+  Al55  1  0.49952499  -0.00088119  0.33170352  1
  Al0+  Al56  1  0.50104232  -0.00095194  0.66989046  1
  Al0+  Al57  1  0.50075377  0.50042090  0.00142619  1
  Al0+  Al58  1  0.50072932  0.50075920  0.33597616  1
  Al0+  Al59  1  0.50026164  0.50029861  0.67120358  1
  Al0+  Al60  1  0.24958836  0.25047164  -0.00839017  1
  Al0+  Al61  1  0.24981817  0.25091605  0.33381006  1
  Al0+  Al62  1  0.24977382  0.25131049  0.67289150  1
  Al0+  Al63  1  0.24795897  0.74993577  0.00214964  1
  Al0+  Al64  1  0.25019903  0.74757306  0.32965087  1
  Al0+  Al65  1  0.25031710  0.74939038  0.66458115  1
  Al0+  Al66  1  0.74956376  0.25036262  -0.00333125  1
  Al0+  Al67  1  0.75235741  0.25247892  0.33668009  1
  Al0+  Al68  1  0.74941244  0.24911868  0.66651857  1
  Al0+  Al69  1  0.74897369  0.75182939  0.00632762  1
  Al0+  Al70  1  0.75306806  0.74966997  0.33281036  1
  Al0+  Al71  1  0.74960069  0.75010273  0.66819563  1
  Al0+  Al72  1  0.42950862  0.82055856  0.32024064  1
  Al0+  Al73  1  0.42853423  0.32420630  0.98271526  1
  Al0+  Al74  1  0.82000870  0.07210473  0.68425436  1
  Al0+  Al75  1  0.42722876  0.32248710  0.31983865  1
  Al0+  Al76  1  0.07007504  0.17703550  0.98615287  1
  Al0+  Al77  1  0.17903318  0.92965707  0.01546271  1
  Al0+  Al78  1  0.17926076  0.92943253  0.68005978  1
  Al0+  Al79  1  0.42801517  0.81931519  0.98457431  1
  Al0+  Al80  1  0.31968636  0.07131990  0.34358834  1
  Al0+  Al81  1  0.57240493  0.17862454  0.31973852  1
  Al0+  Al82  1  0.82347177  0.07257325  0.34708979  1
  Al0+  Al83  1  0.32156184  0.57053300  0.68156804  1
  Al0+  Al84  1  0.67865515  0.92691196  0.68368755  1
  Al0+  Al85  1  0.17585389  0.42887377  0.68244835  1
  Al0+  Al86  1  0.93040546  0.82086046  0.31927705  1
  Al0+  Al87  1  0.07156423  0.67969678  0.65126617  1
  Al0+  Al88  1  0.67923473  0.43074245  0.34724610  1
  Al0+  Al89  1  0.67773890  0.92911186  0.34682282  1
  Al0+  Al90  1  0.32049487  0.56971943  0.01644200  1
  Al0+  Al91  1  0.56961972  0.17944291  0.64920768  1
  Al0+  Al92  1  0.06829843  0.68062320  0.98598475  1
  Al0+  Al93  1  0.32347380  0.07219760  0.68284169  1
  Al0+  Al94  1  0.82265850  0.57222247  0.01426060  1
  Al0+  Al95  1  0.57172833  0.17890815  0.98282779  1
  Si0+  Si96  1  0.81949630  0.07128875  0.01478483  1
  Si0+  Si97  1  0.67927801  0.42865410  0.68261719  1
  Si0+  Si98  1  0.42784848  0.32390290  0.65019833  1
  Si0+  Si99  1  0.07198726  0.67595267  0.31425329  1
  Si0+  Si100  1  0.92917563  0.32091460  0.65077551  1
  Si0+  Si101  1  0.82036078  0.57015380  0.67886618  1
  Si0+  Si102  1  0.92488763  0.82247085  0.98188857  1
  Si0+  Si103  1  0.17835655  0.92580498  0.34835108  1
  Si0+  Si104  1  0.43061567  0.81844944  0.65152666  1
  Si0+  Si105  1  0.82498213  0.57164644  0.35181067  1
  Si0+  Si106  1  0.67931550  0.42761520  0.01688548  1
  Si0+  Si107  1  0.17819878  0.42860953  0.34725767  1
  Si0+  Si108  1  0.92894627  0.32186074  0.98451054  1
  Si0+  Si109  1  0.17772552  0.42598250  0.01851601  1
  Si0+  Si110  1  0.92929490  0.32334955  0.31824268  1
  Si0+  Si111  1  0.32036118  0.57153856  0.34770061  1
  Si0+  Si112  1  0.07121974  0.17738173  0.65174104  1
  Si0+  Si113  1  0.57304553  0.67876663  0.98524031  1
  Si0+  Si114  1  0.67648880  0.93018434  0.01605010  1
  Si0+  Si115  1  0.07065712  0.17945514  0.32144496  1
  Si0+  Si116  1  0.57329656  0.67693792  0.31769872  1
  Si0+  Si117  1  0.92569348  0.82219822  0.64967798  1
  Si0+  Si118  1  0.57472016  0.67694996  0.65238007  1
  Si0+  Si119  1  0.32235944  0.07285270  0.01626394  1
  O2-  O120  1  0.25221758  0.00603389  0.06188609  1
  O2-  O121  1  0.24785822  -0.00624161  0.39134052  1
  O2-  O122  1  0.24725063  0.00400683  0.73176695  1
  O2-  O123  1  0.24976802  0.49076500  0.06395153  1
  O2-  O124  1  0.25041193  0.49886804  0.38823277  1
  O2-  O125  1  0.24979323  0.49853555  0.73180107  1
  O2-  O126  1  0.74681899  0.00256362  0.05696725  1
  O2-  O127  1  0.74758770  0.00400139  0.39600378  1
  O2-  O128  1  0.74852387  0.00029404  0.73487268  1
  O2-  O129  1  0.74701895  0.49821529  0.06023485  1
  O2-  O130  1  0.75408125  0.50541697  0.39628215  1
  O2-  O131  1  0.74909936  0.50118184  0.72415660  1
  O2-  O132  1  -0.00371369  0.24749577  0.27844016  1
  O2-  O133  1  0.00060603  0.24948724  0.60897590  1
  O2-  O134  1  -0.00332164  0.25342176  0.93917769  1
  O2-  O135  1  0.00449574  0.74608210  0.27148659  1
  O2-  O136  1  -0.00210174  0.75622307  0.60602914  1
  O2-  O137  1  -0.00732964  0.75350405  0.93719509  1
  O2-  O138  1  0.49928379  0.25025015  0.27062090  1
  O2-  O139  1  0.49149759  0.25174223  0.60427844  1
  O2-  O140  1  0.49740487  0.24912911  0.93332505  1
  O2-  O141  1  0.50781284  0.74859219  0.27381357  1
  O2-  O142  1  0.50312394  0.74744959  0.61063998  1
  O2-  O143  1  0.50271061  0.74373388  0.93830954  1
  O2-  O144  1  0.06719278  0.17786980  0.10017737  1
  O2-  O145  1  0.07165808  0.18245107  0.42652306  1
  O2-  O146  1  0.06791391  0.17793046  0.75664657  1
  O2-  O147  1  0.06629781  0.68182938  0.09931084  1
  O2-  O148  1  0.07158834  0.67369732  0.41987747  1
  O2-  O149  1  0.06883999  0.67816352  0.76414834  1
  O2-  O150  1  0.57518875  0.17946899  0.09628310  1
  O2-  O151  1  0.57073831  0.17963113  0.43335757  1
  O2-  O152  1  0.57109796  0.18393200  0.76212626  1
  O2-  O153  1  0.57358633  0.68030661  0.09077095  1
  O2-  O154  1  0.56985002  0.67430944  0.42374588  1
  O2-  O155  1  0.57933902  0.67622632  0.75713476  1
  O2-  O156  1  0.17348366  0.42832390  0.24264616  1
  O2-  O157  1  0.17534209  0.43108814  0.56792301  1
  O2-  O158  1  0.17345621  0.42977360  0.91347750  1
  O2-  O159  1  0.17753517  0.92741159  0.24266484  1
  O2-  O160  1  0.18109370  0.93098728  0.56589850  1
  O2-  O161  1  0.18044112  0.92966769  0.90272228  1
  O2-  O162  1  0.68255431  0.43346434  0.23425046  1
  O2-  O163  1  0.67996214  0.43002649  0.57748042  1
  O2-  O164  1  0.68240836  0.42857943  0.91080940  1
  O2-  O165  1  0.67900843  0.93023079  0.23280604  1
  O2-  O166  1  0.67990510  0.92425539  0.57044031  1
  O2-  O167  1  0.67901787  0.92670809  0.91124344  1
  O2-  O168  1  0.43254506  0.32318335  0.09654038  1
  O2-  O169  1  0.42648841  0.32370549  0.43341427  1
  O2-  O170  1  0.43350559  0.32746411  0.75528656  1
  O2-  O171  1  0.43002727  0.82041405  0.09791343  1
  O2-  O172  1  0.42661384  0.81705032  0.43340037  1
  O2-  O173  1  0.42998364  0.81603489  0.75658946  1
  O2-  O174  1  0.92868738  0.32022425  0.09040768  1
  O2-  O175  1  0.93275694  0.32966446  0.42310635  1
  O2-  O176  1  0.92869380  0.32392723  0.75581091  1
  O2-  O177  1  0.92600936  0.82196242  0.08769122  1
  O2-  O178  1  0.93301330  0.81927329  0.43245354  1
  O2-  O179  1  0.92147339  0.81786551  0.75509025  1
  O2-  O180  1  0.31558939  0.07337458  0.23062362  1
  O2-  O181  1  0.32331741  0.06983801  0.56858165  1
  O2-  O182  1  0.32141165  0.06955592  0.91084096  1
  O2-  O183  1  0.31912458  0.57342823  0.24285631  1
  O2-  O184  1  0.32182211  0.57007509  0.56716692  1
  O2-  O185  1  0.31702004  0.57061047  0.90387996  1
  O2-  O186  1  0.82566553  0.07034326  0.23300945  1
  O2-  O187  1  0.82014387  0.07095565  0.57097925  1
  O2-  O188  1  0.82050839  0.07034510  0.91005815  1
  O2-  O189  1  0.82641557  0.56871537  0.24620066  1
  O2-  O190  1  0.81850370  0.56836592  0.57385585  1
  O2-  O191  1  0.82164148  0.56919937  0.90040353  1
  O2-  O192  1  0.04637201  0.08680294  0.27425202  1
  O2-  O193  1  0.04188271  0.08578151  0.60437681  1
  O2-  O194  1  0.03496328  0.08236257  0.93105751  1
  O2-  O195  1  0.04469758  0.58281522  0.26751724  1
  O2-  O196  1  0.03756847  0.58405837  0.59577057  1
  O2-  O197  1  0.03792660  0.58270552  0.93382529  1
  O2-  O198  1  0.54528153  0.08048615  0.26667438  1
  O2-  O199  1  0.54163913  0.07977396  0.60014222  1
  O2-  O200  1  0.54457387  0.08125430  0.92807292  1
  O2-  O201  1  0.54451564  0.58507584  0.27021781  1
  O2-  O202  1  0.54654879  0.58438258  0.60557325  1
  O2-  O203  1  0.55363904  0.58348236  0.94072795  1
  O2-  O204  1  0.15945825  0.21185572  0.27115892  1
  O2-  O205  1  0.16406500  0.20484358  0.60560736  1
  O2-  O206  1  0.16580278  0.20432096  0.93027424  1
  O2-  O207  1  0.16600954  0.69951531  0.26877347  1
  O2-  O208  1  0.16788744  0.70925048  0.59549918  1
  O2-  O209  1  0.16441061  0.71223966  0.93321300  1
  O2-  O210  1  0.67201107  0.20935284  0.26942989  1
  O2-  O211  1  0.66679090  0.21323549  0.59772610  1
  O2-  O212  1  0.66982775  0.20993497  0.92899286  1
  O2-  O213  1  0.66947535  0.69546312  0.27458675  1
  O2-  O214  1  0.66572961  0.70360751  0.60213670  1
  O2-  O215  1  0.66655550  0.70712106  0.93927636  1
  O2-  O216  1  0.08546484  0.45502554  0.06675159  1
  O2-  O217  1  0.08714672  0.45785662  0.39660012  1
  O2-  O218  1  0.07696781  0.45819574  0.73414441  1
  O2-  O219  1  0.08039880  0.95982230  0.06728418  1
  O2-  O220  1  0.08548479  0.95175180  0.39464097  1
  O2-  O221  1  0.07966125  0.95134018  0.73277774  1
  O2-  O222  1  0.58645677  0.45305501  0.06320473  1
  O2-  O223  1  0.58405545  0.46292623  0.40431804  1
  O2-  O224  1  0.58859888  0.45623666  0.73123023  1
  O2-  O225  1  0.58335829  0.95859179  0.05995396  1
  O2-  O226  1  0.57844446  0.95234633  0.39943321  1
  O2-  O227  1  0.58086518  0.95391300  0.73671771  1
  O2-  O228  1  0.19859686  0.32958717  0.06120575  1
  O2-  O229  1  0.20378291  0.33744146  0.39676520  1
  O2-  O230  1  0.19745419  0.32944681  0.73468003  1
  O2-  O231  1  0.20976483  0.83411563  0.07063789  1
  O2-  O232  1  0.20215951  0.83055932  0.39200360  1
  O2-  O233  1  0.21134078  0.83183026  0.73137214  1
  O2-  O234  1  0.70857121  0.33503807  0.06303380  1
  O2-  O235  1  0.71274398  0.33659583  0.40393563  1
  O2-  O236  1  0.71081395  0.33884403  0.73023607  1
  O2-  O237  1  0.70327201  0.83925031  0.06558867  1
  O2-  O238  1  0.70750943  0.82955214  0.39815182  1
  O2-  O239  1  0.70802942  0.82837032  0.73772294  1
  O2-  O240  1  0.45771585  0.42148047  0.26866640  1
  O2-  O241  1  0.45792973  0.41710768  0.60408704  1
  O2-  O242  1  0.46074510  0.42233743  0.93037978  1
  O2-  O243  1  0.45692712  0.91645627  0.26368647  1
  O2-  O244  1  0.45889274  0.91048239  0.60549229  1
  O2-  O245  1  0.45881637  0.91408976  0.92834853  1
  O2-  O246  1  0.96190010  0.41266014  0.26756618  1
  O2-  O247  1  0.95663113  0.41138570  0.59975392  1
  O2-  O248  1  0.95526212  0.41555743  0.93918542  1
  O2-  O249  1  0.96107283  0.91660080  0.26259132  1
  O2-  O250  1  0.94983333  0.91712075  0.60592920  1
  O2-  O251  1  0.94953492  0.91600256  0.93653188  1
  O2-  O252  1  0.32785321  0.29712228  0.26663428  1
  O2-  O253  1  0.33038726  0.30516035  0.60922469  1
  O2-  O254  1  0.32804372  0.30409348  0.93163913  1
  O2-  O255  1  0.33409471  0.78614793  0.26488818  1
  O2-  O256  1  0.34042837  0.78945499  0.60182253  1
  O2-  O257  1  0.33190146  0.78634436  0.93234902  1
  O2-  O258  1  0.83663030  0.30168413  0.27081908  1
  O2-  O259  1  0.83756764  0.29274437  0.60292599  1
  O2-  O260  1  0.83560871  0.29848914  0.93706539  1
  O2-  O261  1  0.83412662  0.78996333  0.26379304  1
  O2-  O262  1  0.83401666  0.79153056  0.60173313  1
  O2-  O263  1  0.83008174  0.79702741  0.93850938  1
  O2-  O264  1  0.41631177  0.04423021  0.05977987  1
  O2-  O265  1  0.41561550  0.04037334  0.39752918  1
  O2-  O266  1  0.41886446  0.03875384  0.73675776  1
  O2-  O267  1  0.41979466  0.54449832  0.06900129  1
  O2-  O268  1  0.41260461  0.54742727  0.39561534  1
  O2-  O269  1  0.42056278  0.54552833  0.73601368  1
  O2-  O270  1  0.91060126  0.04216873  0.06279033  1
  O2-  O271  1  0.92073746  0.03925588  0.40096126  1
  O2-  O272  1  0.91814975  0.04404391  0.73761430  1
  O2-  O273  1  0.91709820  0.53943858  0.07117471  1
  O2-  O274  1  0.91797528  0.54206646  0.39750503  1
  O2-  O275  1  0.91132156  0.53949827  0.72557455  1
  O2-  O276  1  0.29753525  0.16838681  0.05830545  1
  O2-  O277  1  0.28643941  0.16645870  0.39994878  1
  O2-  O278  1  0.30129192  0.17224227  0.73344548  1
  O2-  O279  1  0.28462509  0.66450351  0.07102386  1
  O2-  O280  1  0.28979080  0.66208164  0.39681560  1
  O2-  O281  1  0.29116425  0.66845518  0.73238766  1
  O2-  O282  1  0.79579876  0.16544785  0.06009395  1
  O2-  O283  1  0.80657626  0.17418860  0.39740074  1
  O2-  O284  1  0.79317062  0.17161653  0.73643130  1
  O2-  O285  1  0.79205813  0.66831219  0.06973776  1
  O2-  O286  1  0.80283867  0.66604310  0.39652861  1
  O2-  O287  1  0.79470994  0.66151412  0.72724571  1
