# generated using pymatgen
data_Ca2Al2SiO7
_symmetry_space_group_name_H-M   'P 1'
_cell_length_a   15.47352182
_cell_length_b   15.47899687
_cell_length_c   15.29798713
_cell_angle_alpha   90.01206686
_cell_angle_beta   90.00434042
_cell_angle_gamma   89.98282464
_symmetry_Int_Tables_number   1
_chemical_formula_structural   Ca2Al2SiO7
_chemical_formula_sum   'Ca48 Al48 Si24 O168'
_cell_volume   3664.09094693
_cell_formula_units_Z   24
loop_
 _symmetry_equiv_pos_site_id
 _symmetry_equiv_pos_as_xyz
  1  'x, y, z'
loop_
 _atom_type_symbol
 _atom_type_oxidation_number
  Ca2+  2.0
  Al0+  0.0
  Si0+  0.0
  O2-  -2.0
loop_
 _atom_site_type_symbol
 _atom_site_label
 _atom_site_symmetry_multiplicity
 _atom_site_fract_x
 _atom_site_fract_y
 _atom_site_fract_z
 _atom_site_occupancy
  Ca2+  Ca0  1  0.17616463  0.07906457  0.17414971  1
  Ca2+  Ca1  1  0.17191329  0.07977117  0.50271793  1
  Ca2+  Ca2  1  0.17526327  0.07847084  0.83437973  1
  Ca2+  Ca3  1  0.15962961  0.56893102  0.17117471  1
  Ca2+  Ca4  1  0.16391574  0.57522091  0.49899094  1
  Ca2+  Ca5  1  0.16614866  0.57506484  0.83892850  1
  Ca2+  Ca6  1  0.66325455  0.07634513  0.17233165  1
  Ca2+  Ca7  1  0.66954961  0.08122219  0.50068425  1
  Ca2+  Ca8  1  0.67369498  0.08169274  0.84059667  1
  Ca2+  Ca9  1  0.66665821  0.58421752  0.17640491  1
  Ca2+  Ca10  1  0.65993638  0.58584409  0.50219418  1
  Ca2+  Ca11  1  0.66456532  0.58375298  0.83563594  1
  Ca2+  Ca12  1  0.09268492  0.32724515  0.16863441  1
  Ca2+  Ca13  1  0.07828293  0.31984567  0.49113998  1
  Ca2+  Ca14  1  0.08138416  0.32586186  0.82451784  1
  Ca2+  Ca15  1  0.07223367  0.85122427  0.16404577  1
  Ca2+  Ca16  1  0.08081858  0.84322877  0.49147725  1
  Ca2+  Ca17  1  0.08232094  0.84525299  0.83114587  1
  Ca2+  Ca18  1  0.57592395  0.31752970  0.16792094  1
  Ca2+  Ca19  1  0.57472825  0.32298341  0.48931084  1
  Ca2+  Ca20  1  0.58165763  0.32464543  0.83168107  1
  Ca2+  Ca21  1  0.57693245  0.84397573  0.16774559  1
  Ca2+  Ca22  1  0.57300947  0.83201001  0.49112787  1
  Ca2+  Ca23  1  0.57707776  0.83271991  0.82733924  1
  Ca2+  Ca24  1  0.32631819  0.41550058  0.17546410  1
  Ca2+  Ca25  1  0.32979340  0.40978674  0.49715699  1
  Ca2+  Ca26  1  0.32661405  0.41982075  0.84079323  1
  Ca2+  Ca27  1  0.32668473  0.92484014  0.17664630  1
  Ca2+  Ca28  1  0.33153395  0.92377342  0.50494074  1
  Ca2+  Ca29  1  0.32632891  0.92243421  0.83666890  1
  Ca2+  Ca30  1  0.83481127  0.41839841  0.17569257  1
  Ca2+  Ca31  1  0.83726317  0.41188286  0.50357637  1
  Ca2+  Ca32  1  0.83596141  0.41684823  0.83534368  1
  Ca2+  Ca33  1  0.82365528  0.90768707  0.17273550  1
  Ca2+  Ca34  1  0.82880883  0.91983505  0.50076968  1
  Ca2+  Ca35  1  0.82947898  0.92238058  0.83882355  1
  Ca2+  Ca36  1  0.42227564  0.15355493  0.16654884  1
  Ca2+  Ca37  1  0.41590975  0.16465359  0.48852591  1
  Ca2+  Ca38  1  0.41806319  0.15491242  0.83431050  1
  Ca2+  Ca39  1  0.41874465  0.67297452  0.17041019  1
  Ca2+  Ca40  1  0.42344077  0.67994279  0.49485903  1
  Ca2+  Ca41  1  0.42116584  0.67682296  0.82058981  1
  Ca2+  Ca42  1  0.92555863  0.16749699  0.16829472  1
  Ca2+  Ca43  1  0.92734963  0.16585193  0.49547260  1
  Ca2+  Ca44  1  0.92549722  0.16885936  0.81896639  1
  Ca2+  Ca45  1  0.91790243  0.68018719  0.16651597  1
  Ca2+  Ca46  1  0.92013417  0.67571544  0.49295793  1
  Ca2+  Ca47  1  0.91872965  0.67538987  0.83390652  1
  Al0+  Al48  1  -0.00117354  0.00419554  -0.00548146  1
  Al0+  Al49  1  -0.00143745  0.00258441  0.32622402  1
  Al0+  Al50  1  -0.00157771  0.00120716  0.66900217  1
  Al0+  Al51  1  -0.00059906  0.50221422  0.00322320  1
  Al0+  Al52  1  -0.00136465  0.50186364  0.33656982  1
  Al0+  Al53  1  -0.00281253  0.50236241  0.66620505  1
  Al0+  Al54  1  0.50314623  -0.00079032  -0.00109870  1
  Al0+  Al55  1  0.50104784  -0.00271128  0.33481859  1
  Al0+  Al56  1  0.50024270  -0.00117303  0.66610824  1
  Al0+  Al57  1  0.50061604  0.49871735  0.00037432  1
  Al0+  Al58  1  0.50100253  0.49916514  0.32765430  1
  Al0+  Al59  1  0.50074252  0.49831698  0.66578389  1
  Al0+  Al60  1  0.25103565  0.25148338  0.00533206  1
  Al0+  Al61  1  0.24806463  0.25132001  0.33502663  1
  Al0+  Al62  1  0.24941498  0.24872549  0.66849039  1
  Al0+  Al63  1  0.24880430  0.74836939  0.00273820  1
  Al0+  Al64  1  0.25011765  0.74592138  0.33185249  1
  Al0+  Al65  1  0.24947569  0.74821941  0.66666161  1
  Al0+  Al66  1  0.74876516  0.25186121  -0.00346859  1
  Al0+  Al67  1  0.74918973  0.25176949  0.32686123  1
  Al0+  Al68  1  0.74780977  0.25237894  0.66934668  1
  Al0+  Al69  1  0.75188010  0.74993795  -0.00235878  1
  Al0+  Al70  1  0.75222259  0.74901873  0.33368200  1
  Al0+  Al71  1  0.75229599  0.74635903  0.66599763  1
  Al0+  Al72  1  0.17821957  0.42969289  0.34993071  1
  Al0+  Al73  1  0.81823011  0.07214551  0.67871047  1
  Al0+  Al74  1  0.93001458  0.82205635  0.98405759  1
  Al0+  Al75  1  0.42800127  0.82249485  0.65169943  1
  Al0+  Al76  1  0.17632636  0.92742286  0.34660535  1
  Al0+  Al77  1  0.17942828  0.43097262  0.01295950  1
  Al0+  Al78  1  0.07185863  0.17770477  0.65080345  1
  Al0+  Al79  1  0.17838456  0.92678664  0.68091839  1
  Al0+  Al80  1  0.68308885  0.92910270  0.01244563  1
  Al0+  Al81  1  0.57017733  0.17829339  0.98389224  1
  Al0+  Al82  1  0.68069426  0.92769842  0.34805384  1
  Al0+  Al83  1  0.42707631  0.82112831  0.31641279  1
  Al0+  Al84  1  0.57203908  0.68046134  0.31771143  1
  Al0+  Al85  1  0.32089033  0.06957781  0.34865248  1
  Al0+  Al86  1  0.92773649  0.32243994  0.65307555  1
  Al0+  Al87  1  0.92914934  0.32301954  0.31758200  1
  Al0+  Al88  1  0.42695017  0.32041014  0.31895577  1
  Al0+  Al89  1  0.07134659  0.17924125  0.31571510  1
  Al0+  Al90  1  0.57201833  0.67760995  0.65279719  1
  Al0+  Al91  1  0.93203214  0.82195041  0.32151044  1
  Al0+  Al92  1  0.32177563  0.06877186  0.01588051  1
  Al0+  Al93  1  0.32350095  0.07252903  0.68243099  1
  Al0+  Al94  1  0.17613336  0.92821577  0.01529548  1
  Al0+  Al95  1  0.57025932  0.17609192  0.31955793  1
  Si0+  Si96  1  0.42796311  0.32277745  0.98210647  1
  Si0+  Si97  1  0.42843553  0.81993292  0.98507656  1
  Si0+  Si98  1  0.32498866  0.57280285  0.01676567  1
  Si0+  Si99  1  0.32171814  0.56865462  0.68035444  1
  Si0+  Si100  1  0.67775628  0.43041779  0.68328605  1
  Si0+  Si101  1  0.32524337  0.57002783  0.35211251  1
  Si0+  Si102  1  0.92920889  0.32360148  0.98501067  1
  Si0+  Si103  1  0.82234984  0.57184870  0.68494528  1
  Si0+  Si104  1  0.81913148  0.57010522  0.01614195  1
  Si0+  Si105  1  0.82057748  0.07498998  0.34767217  1
  Si0+  Si106  1  0.07231984  0.67671270  0.31721004  1
  Si0+  Si107  1  0.07082643  0.67606931  0.98321400  1
  Si0+  Si108  1  0.67917321  0.42906928  0.34863078  1
  Si0+  Si109  1  0.93039904  0.82069935  0.65248523  1
  Si0+  Si110  1  0.42869921  0.32097831  0.65446711  1
  Si0+  Si111  1  0.82200275  0.07597106  0.01625658  1
  Si0+  Si112  1  0.81997126  0.57089685  0.35095498  1
  Si0+  Si113  1  0.57102897  0.17922705  0.65378499  1
  Si0+  Si114  1  0.68002347  0.92538972  0.68228220  1
  Si0+  Si115  1  0.07127344  0.67743744  0.65243781  1
  Si0+  Si116  1  0.57099068  0.67696284  0.98508061  1
  Si0+  Si117  1  0.17744858  0.43032469  0.68056359  1
  Si0+  Si118  1  0.67812446  0.42834935  0.01681336  1
  Si0+  Si119  1  0.07259136  0.18206468  0.98288556  1
  O2-  O120  1  0.25025530  -0.00329599  0.06542264  1
  O2-  O121  1  0.25006692  -0.00395993  0.39815976  1
  O2-  O122  1  0.25186077  -0.00175381  0.72951216  1
  O2-  O123  1  0.25456306  0.50545877  0.05940251  1
  O2-  O124  1  0.25543533  0.50218918  0.39667528  1
  O2-  O125  1  0.24997837  0.49908281  0.72410637  1
  O2-  O126  1  0.75716484  0.00404357  0.06010690  1
  O2-  O127  1  0.75268028  0.00588241  0.39275300  1
  O2-  O128  1  0.74487544  -0.00302152  0.72748801  1
  O2-  O129  1  0.74840929  0.49972129  0.05920315  1
  O2-  O130  1  0.74981680  0.49918741  0.39302786  1
  O2-  O131  1  0.74996095  0.50106526  0.72539895  1
  O2-  O132  1  0.00132776  0.25392446  0.26515370  1
  O2-  O133  1  -0.00171424  0.25016670  0.60357934  1
  O2-  O134  1  -0.00085190  0.25256721  0.94229766  1
  O2-  O135  1  0.01338694  0.75417407  0.27411487  1
  O2-  O136  1  0.00668257  0.75462206  0.61154195  1
  O2-  O137  1  0.01041422  0.75184244  0.93808637  1
  O2-  O138  1  0.49249646  0.24247746  0.26958929  1
  O2-  O139  1  0.49298509  0.24337633  0.61382988  1
  O2-  O140  1  0.49366699  0.25179288  0.93690815  1
  O2-  O141  1  0.50229290  0.75218637  0.26520240  1
  O2-  O142  1  0.50416066  0.75289180  0.60420673  1
  O2-  O143  1  0.49765962  0.74543930  0.94362311  1
  O2-  O144  1  0.07213655  0.18252403  0.08748832  1
  O2-  O145  1  0.06938141  0.17805223  0.42906036  1
  O2-  O146  1  0.07194153  0.18196102  0.76524294  1
  O2-  O147  1  0.06417596  0.66696795  0.08758533  1
  O2-  O148  1  0.06665987  0.67201348  0.42302670  1
  O2-  O149  1  0.06752315  0.67079421  0.75730640  1
  O2-  O150  1  0.57269801  0.18034052  0.09601943  1
  O2-  O151  1  0.57430819  0.18120979  0.43366606  1
  O2-  O152  1  0.57396560  0.18311090  0.75895975  1
  O2-  O153  1  0.57187670  0.67408109  0.08935222  1
  O2-  O154  1  0.57006972  0.68056520  0.43111138  1
  O2-  O155  1  0.56938833  0.67653653  0.76718077  1
  O2-  O156  1  0.17696708  0.43458150  0.23682561  1
  O2-  O157  1  0.17716025  0.43302080  0.57608355  1
  O2-  O158  1  0.17959167  0.43319674  0.89890622  1
  O2-  O159  1  0.17651687  0.93166758  0.23327912  1
  O2-  O160  1  0.17743271  0.92574889  0.56808929  1
  O2-  O161  1  0.17851331  0.93014543  0.90164141  1
  O2-  O162  1  0.68130165  0.43119810  0.24340392  1
  O2-  O163  1  0.67570470  0.43034687  0.57869802  1
  O2-  O164  1  0.67831293  0.42973430  0.91130638  1
  O2-  O165  1  0.68355088  0.92675864  0.23485261  1
  O2-  O166  1  0.68337655  0.92436383  0.57705621  1
  O2-  O167  1  0.68392187  0.92886044  0.89884810  1
  O2-  O168  1  0.43107391  0.32829697  0.08657258  1
  O2-  O169  1  0.43241010  0.32204762  0.43341756  1
  O2-  O170  1  0.43194508  0.32731488  0.75947691  1
  O2-  O171  1  0.42953021  0.81931430  0.08959930  1
  O2-  O172  1  0.42754221  0.81963504  0.42971415  1
  O2-  O173  1  0.42872079  0.81864256  0.76631690  1
  O2-  O174  1  0.92809591  0.32476898  0.08940215  1
  O2-  O175  1  0.92928408  0.32157487  0.43092382  1
  O2-  O176  1  0.93127259  0.32390935  0.76745641  1
  O2-  O177  1  0.92670587  0.81664604  0.09654670  1
  O2-  O178  1  0.92982837  0.81846745  0.43502059  1
  O2-  O179  1  0.92783714  0.81703575  0.75765005  1
  O2-  O180  1  0.32066463  0.06798586  0.23525312  1
  O2-  O181  1  0.32439133  0.07533153  0.56989119  1
  O2-  O182  1  0.32040559  0.06759653  0.90215758  1
  O2-  O183  1  0.32575857  0.56844490  0.24637160  1
  O2-  O184  1  0.32201681  0.56640699  0.57593415  1
  O2-  O185  1  0.32623224  0.57094547  0.91055377  1
  O2-  O186  1  0.81953095  0.07513369  0.24201419  1
  O2-  O187  1  0.81657778  0.07111902  0.56587215  1
  O2-  O188  1  0.81945301  0.07622688  0.91022227  1
  O2-  O189  1  0.81950384  0.57066712  0.24559895  1
  O2-  O190  1  0.82571709  0.57393418  0.58056995  1
  O2-  O191  1  0.81883724  0.56874913  0.91071943  1
  O2-  O192  1  0.03887983  0.08443550  0.25850293  1
  O2-  O193  1  0.04025518  0.08000580  0.59943612  1
  O2-  O194  1  0.04458825  0.09165607  0.93331500  1
  O2-  O195  1  0.03393379  0.58856109  0.26851698  1
  O2-  O196  1  0.03565099  0.58972305  0.60186072  1
  O2-  O197  1  0.03561441  0.58645832  0.93236482  1
  O2-  O198  1  0.54798919  0.07673301  0.26753918  1
  O2-  O199  1  0.55330255  0.08460019  0.60927914  1
  O2-  O200  1  0.54289246  0.08124839  0.92850754  1
  O2-  O201  1  0.54407997  0.58210415  0.26414381  1
  O2-  O202  1  0.54121293  0.57961140  0.60050316  1
  O2-  O203  1  0.54628579  0.58373476  0.93733184  1
  O2-  O204  1  0.16859417  0.21064081  0.26363788  1
  O2-  O205  1  0.17000445  0.20838019  0.59971070  1
  O2-  O206  1  0.16400373  0.21361878  0.93700589  1
  O2-  O207  1  0.16916486  0.68598574  0.27424832  1
  O2-  O208  1  0.16519857  0.69524223  0.60651308  1
  O2-  O209  1  0.16843556  0.69087274  0.94098076  1
  O2-  O210  1  0.66481678  0.21184651  0.26358168  1
  O2-  O211  1  0.65898056  0.21545058  0.60537406  1
  O2-  O212  1  0.66565674  0.21482308  0.92872481  1
  O2-  O213  1  0.67246323  0.70359783  0.26744347  1
  O2-  O214  1  0.67375852  0.69726776  0.60365366  1
  O2-  O215  1  0.66252892  0.70569761  0.93734880  1
  O2-  O216  1  0.08352135  0.46385756  0.06707130  1
  O2-  O217  1  0.08314710  0.46644044  0.40399656  1
  O2-  O218  1  0.08663659  0.46254413  0.72821206  1
  O2-  O219  1  0.07656627  0.96060593  0.06267350  1
  O2-  O220  1  0.07645078  0.95819104  0.39596747  1
  O2-  O221  1  0.07971455  0.95617892  0.73356057  1
  O2-  O222  1  0.58633232  0.45587663  0.06338273  1
  O2-  O223  1  0.58739254  0.45764202  0.39560132  1
  O2-  O224  1  0.58735301  0.46000883  0.73384900  1
  O2-  O225  1  0.58668686  0.95943675  0.06511281  1
  O2-  O226  1  0.58427109  0.95546127  0.40245434  1
  O2-  O227  1  0.58490442  0.94731117  0.72594817  1
  O2-  O228  1  0.20954067  0.33607916  0.06834742  1
  O2-  O229  1  0.20629245  0.33375052  0.40512701  1
  O2-  O230  1  0.20365317  0.33873558  0.72838098  1
  O2-  O231  1  0.19430221  0.82524444  0.06306319  1
  O2-  O232  1  0.19582646  0.82373957  0.39292950  1
  O2-  O233  1  0.20253321  0.82595160  0.73392751  1
  O2-  O234  1  0.70750467  0.33709403  0.06306368  1
  O2-  O235  1  0.70680943  0.33714429  0.39572572  1
  O2-  O236  1  0.70528854  0.34020337  0.73425090  1
  O2-  O237  1  0.71446408  0.83207272  0.06508072  1
  O2-  O238  1  0.71655801  0.83272953  0.40222368  1
  O2-  O239  1  0.70912120  0.83230077  0.72849298  1
  O2-  O240  1  0.46186426  0.41534341  0.26334692  1
  O2-  O241  1  0.46282538  0.40915944  0.60447829  1
  O2-  O242  1  0.45749626  0.41555792  0.93372215  1
  O2-  O243  1  0.45777452  0.91836376  0.26401092  1
  O2-  O244  1  0.45520068  0.92076679  0.59894631  1
  O2-  O245  1  0.46149806  0.90907995  0.93656890  1
  O2-  O246  1  0.95402567  0.42404601  0.26823792  1
  O2-  O247  1  0.95343254  0.42231298  0.60228685  1
  O2-  O248  1  0.95707230  0.41622292  0.93832586  1
  O2-  O249  1  0.95265833  0.91842710  0.26376712  1
  O2-  O250  1  0.95143191  0.91389543  0.60681091  1
  O2-  O251  1  0.95386575  0.92069807  0.93013930  1
  O2-  O252  1  0.32562401  0.30358660  0.27036477  1
  O2-  O253  1  0.33443570  0.30103373  0.60975731  1
  O2-  O254  1  0.33270571  0.30066705  0.93782751  1
  O2-  O255  1  0.33003447  0.78764001  0.26268544  1
  O2-  O256  1  0.33091472  0.78851240  0.60034521  1
  O2-  O257  1  0.33535672  0.79325151  0.93879955  1
  O2-  O258  1  0.83088576  0.29696282  0.26326646  1
  O2-  O259  1  0.82652173  0.29927263  0.60454567  1
  O2-  O260  1  0.83623651  0.29928166  0.93752789  1
  O2-  O261  1  0.83921745  0.78120099  0.26702022  1
  O2-  O262  1  0.84118693  0.78595354  0.60466665  1
  O2-  O263  1  0.83637845  0.78276247  0.92806952  1
  O2-  O264  1  0.42139859  0.04028596  0.06460849  1
  O2-  O265  1  0.42055238  0.04373249  0.40002928  1
  O2-  O266  1  0.42325004  0.04460535  0.73484304  1
  O2-  O267  1  0.41802529  0.54548792  0.06291859  1
  O2-  O268  1  0.41846238  0.54168850  0.39736569  1
  O2-  O269  1  0.41255637  0.53862302  0.72959471  1
  O2-  O270  1  0.91748846  0.05485891  0.05812974  1
  O2-  O271  1  0.91398603  0.04766436  0.39210265  1
  O2-  O272  1  0.91398238  0.04202699  0.73469843  1
  O2-  O273  1  0.91008857  0.54230984  0.06418444  1
  O2-  O274  1  0.91107884  0.54464344  0.40034573  1
  O2-  O275  1  0.91266953  0.54264392  0.73579542  1
  O2-  O276  1  0.29673564  0.16899764  0.06577738  1
  O2-  O277  1  0.29371307  0.16934614  0.39890125  1
  O2-  O278  1  0.29512358  0.17138494  0.73722607  1
  O2-  O279  1  0.30186829  0.66618181  0.06297418  1
  O2-  O280  1  0.29895214  0.66320590  0.39812144  1
  O2-  O281  1  0.29417722  0.65952726  0.72957341  1
  O2-  O282  1  0.79402035  0.16929390  0.06099235  1
  O2-  O283  1  0.79393085  0.16856840  0.39318180  1
  O2-  O284  1  0.78723763  0.16848959  0.73477332  1
  O2-  O285  1  0.79080579  0.66157723  0.06257777  1
  O2-  O286  1  0.79193720  0.66124149  0.40061385  1
  O2-  O287  1  0.79450862  0.66256694  0.73556661  1
