# generated using pymatgen
data_Ca2Al2SiO7
_symmetry_space_group_name_H-M   'P 1'
_cell_length_a   15.45774616
_cell_length_b   15.45934902
_cell_length_c   15.28378983
_cell_angle_alpha   90.00862729
_cell_angle_beta   89.99419293
_cell_angle_gamma   90.00830721
_symmetry_Int_Tables_number   1
_chemical_formula_structural   Ca2Al2SiO7
_chemical_formula_sum   'Ca48 Al48 Si24 O168'
_cell_volume   3652.31661278
_cell_formula_units_Z   24
loop_
 _symmetry_equiv_pos_site_id
 _symmetry_equiv_pos_as_xyz
  1  'x, y, z'
loop_
 _atom_type_symbol
 _atom_type_oxidation_number
  Ca2+  2.0
  Al0+  0.0
  Si0+  0.0
  O2-  -2.0
loop_
 _atom_site_type_symbol
 _atom_site_label
 _atom_site_symmetry_multiplicity
 _atom_site_fract_x
 _atom_site_fract_y
 _atom_site_fract_z
 _atom_site_occupancy
  Ca2+  Ca0  1  0.17243262  0.07568124  0.17126092  1
  Ca2+  Ca1  1  0.16698844  0.06807042  0.50536368  1
  Ca2+  Ca2  1  0.17288717  0.07628249  0.83744487  1
  Ca2+  Ca3  1  0.17760788  0.59419385  0.17080021  1
  Ca2+  Ca4  1  0.16961601  0.59145360  0.50418392  1
  Ca2+  Ca5  1  0.16549495  0.58406356  0.83242803  1
  Ca2+  Ca6  1  0.67120989  0.06949328  0.16548114  1
  Ca2+  Ca7  1  0.66340408  0.07823585  0.50212064  1
  Ca2+  Ca8  1  0.67061660  0.07804391  0.83997579  1
  Ca2+  Ca9  1  0.67887071  0.58456774  0.17788028  1
  Ca2+  Ca10  1  0.66649227  0.57814260  0.50050009  1
  Ca2+  Ca11  1  0.67281530  0.57704945  0.83910719  1
  Ca2+  Ca12  1  0.07690789  0.32999397  0.15844476  1
  Ca2+  Ca13  1  0.07795436  0.34191874  0.50016563  1
  Ca2+  Ca14  1  0.07247410  0.33633112  0.82650442  1
  Ca2+  Ca15  1  0.07973584  0.82981086  0.16533339  1
  Ca2+  Ca16  1  0.08497738  0.82652024  0.49618112  1
  Ca2+  Ca17  1  0.07246023  0.83040120  0.82331032  1
  Ca2+  Ca18  1  0.58710385  0.33508390  0.16602780  1
  Ca2+  Ca19  1  0.59505746  0.33014051  0.49778218  1
  Ca2+  Ca20  1  0.58677060  0.32475031  0.82341838  1
  Ca2+  Ca21  1  0.57798786  0.83525268  0.16283149  1
  Ca2+  Ca22  1  0.57172487  0.82988655  0.48963848  1
  Ca2+  Ca23  1  0.57289904  0.83961930  0.83063027  1
  Ca2+  Ca24  1  0.33508653  0.43260407  0.17230783  1
  Ca2+  Ca25  1  0.32720730  0.42743075  0.50608411  1
  Ca2+  Ca26  1  0.32444997  0.42370635  0.83993608  1
  Ca2+  Ca27  1  0.33340328  0.91410952  0.17057446  1
  Ca2+  Ca28  1  0.32405382  0.90230712  0.50209048  1
  Ca2+  Ca29  1  0.33016902  0.91348169  0.83731603  1
  Ca2+  Ca30  1  0.83306846  0.42714208  0.17134602  1
  Ca2+  Ca31  1  0.82764203  0.42291499  0.50438478  1
  Ca2+  Ca32  1  0.83507106  0.41881221  0.83741232  1
  Ca2+  Ca33  1  0.82213469  0.90749015  0.16753344  1
  Ca2+  Ca34  1  0.82754700  0.91161957  0.50395665  1
  Ca2+  Ca35  1  0.83044480  0.91728815  0.84571190  1
  Ca2+  Ca36  1  0.41655853  0.16595588  0.15971902  1
  Ca2+  Ca37  1  0.42217329  0.16961336  0.49916879  1
  Ca2+  Ca38  1  0.42370528  0.16185394  0.82792649  1
  Ca2+  Ca39  1  0.41848097  0.67331709  0.16464132  1
  Ca2+  Ca40  1  0.41876129  0.67401205  0.49009540  1
  Ca2+  Ca41  1  0.41282875  0.67617728  0.83187554  1
  Ca2+  Ca42  1  0.91276337  0.17194845  0.15868616  1
  Ca2+  Ca43  1  0.91511931  0.17448926  0.49967055  1
  Ca2+  Ca44  1  0.90752700  0.17727845  0.82993034  1
  Ca2+  Ca45  1  0.91958146  0.66380587  0.16098661  1
  Ca2+  Ca46  1  0.92863075  0.66442045  0.49648177  1
  Ca2+  Ca47  1  0.91601144  0.67649665  0.82831300  1
  Al0+  Al48  1  0.00089292  0.00063697  0.00019466  1
  Al0+  Al49  1  0.00153521  0.00192665  0.33614985  1
  Al0+  Al50  1  -0.00085385  0.00197531  0.66824493  1
  Al0+  Al51  1  -0.00030738  0.49702893  -0.00135994  1
  Al0+  Al52  1  0.00011382  0.50037515  0.32957731  1
  Al0+  Al53  1  0.00084823  0.50112356  0.66322927  1
  Al0+  Al54  1  0.49868358  -0.00039744  0.00280333  1
  Al0+  Al55  1  0.50113288  0.00329785  0.33291751  1
  Al0+  Al56  1  0.50040036  0.00107184  0.65662351  1
  Al0+  Al57  1  0.49796483  0.49952130  0.00201785  1
  Al0+  Al58  1  0.50014292  0.49961600  0.33822653  1
  Al0+  Al59  1  0.50013183  0.49931121  0.67401451  1
  Al0+  Al60  1  0.24978229  0.24856774  0.00269867  1
  Al0+  Al61  1  0.25033590  0.24964928  0.33236367  1
  Al0+  Al62  1  0.25059856  0.25067534  0.67090431  1
  Al0+  Al63  1  0.25087783  0.74870721  -0.00130204  1
  Al0+  Al64  1  0.24885440  0.75095638  0.33220399  1
  Al0+  Al65  1  0.24924635  0.75181990  0.66709870  1
  Al0+  Al66  1  0.74926940  0.24792543  -0.00056463  1
  Al0+  Al67  1  0.75051054  0.24981780  0.33298136  1
  Al0+  Al68  1  0.74958706  0.24983014  0.66048944  1
  Al0+  Al69  1  0.74953648  0.74629935  0.00316110  1
  Al0+  Al70  1  0.75027828  0.75040763  0.34260622  1
  Al0+  Al71  1  0.74796613  0.74985256  0.66515732  1
  Al0+  Al72  1  0.06949812  0.67924596  0.31740034  1
  Al0+  Al73  1  0.57004060  0.18104308  0.65171810  1
  Al0+  Al74  1  0.43070647  0.81975724  0.65268788  1
  Al0+  Al75  1  0.92938933  0.31872149  0.98616083  1
  Al0+  Al76  1  0.82450126  0.57304409  0.35096598  1
  Al0+  Al77  1  0.82281086  0.07209117  0.01362992  1
  Al0+  Al78  1  0.32054826  0.07012910  0.01265746  1
  Al0+  Al79  1  0.67897170  0.92735299  0.01295098  1
  Al0+  Al80  1  0.18037710  0.93055310  0.34662268  1
  Al0+  Al81  1  0.82127459  0.56899995  0.01210468  1
  Al0+  Al82  1  0.32017205  0.57135308  0.01429594  1
  Al0+  Al83  1  0.68027265  0.42790692  0.68209577  1
  Al0+  Al84  1  0.93028090  0.32061870  0.65105520  1
  Al0+  Al85  1  0.17816586  0.42890811  0.68055632  1
  Al0+  Al86  1  0.17838094  0.92861991  0.68207132  1
  Al0+  Al87  1  0.42949935  0.82140315  0.31631470  1
  Al0+  Al88  1  0.92773401  0.82011309  0.98911524  1
  Al0+  Al89  1  0.31965300  0.57139376  0.34744246  1
  Al0+  Al90  1  0.68012949  0.42866361  0.34818941  1
  Al0+  Al91  1  0.06921298  0.68138467  0.65215133  1
  Al0+  Al92  1  0.57269440  0.67697627  0.31905189  1
  Al0+  Al93  1  0.92541614  0.82519577  0.65171475  1
  Al0+  Al94  1  0.67864814  0.92962262  0.34912263  1
  Al0+  Al95  1  0.43060058  0.82063477  0.98521997  1
  Si0+  Si96  1  0.81965335  0.07123352  0.68007998  1
  Si0+  Si97  1  0.07235126  0.67793420  0.98300385  1
  Si0+  Si98  1  0.07492847  0.17835221  0.65010554  1
  Si0+  Si99  1  0.42622202  0.32384739  0.65152795  1
  Si0+  Si100  1  0.82211489  0.57188999  0.68403640  1
  Si0+  Si101  1  0.32178749  0.57315284  0.68483791  1
  Si0+  Si102  1  0.92815637  0.82472008  0.31820777  1
  Si0+  Si103  1  0.42712995  0.32278350  0.98533983  1
  Si0+  Si104  1  0.57216343  0.67439949  0.65165258  1
  Si0+  Si105  1  0.82206546  0.07258422  0.35112243  1
  Si0+  Si106  1  0.56835298  0.18023618  0.98577572  1
  Si0+  Si107  1  0.07508057  0.17700328  0.98228605  1
  Si0+  Si108  1  0.32280751  0.07510274  0.35156738  1
  Si0+  Si109  1  0.17783077  0.42762161  0.01721102  1
  Si0+  Si110  1  0.07197158  0.17782373  0.31808112  1
  Si0+  Si111  1  0.57243548  0.67510024  0.98322759  1
  Si0+  Si112  1  0.32325386  0.07152880  0.68173532  1
  Si0+  Si113  1  0.17873389  0.42566827  0.34793142  1
  Si0+  Si114  1  0.67706574  0.42634615  0.01510564  1
  Si0+  Si115  1  0.57214633  0.18051679  0.31462353  1
  Si0+  Si116  1  0.92962476  0.31935591  0.31689440  1
  Si0+  Si117  1  0.67745521  0.92927955  0.68003034  1
  Si0+  Si118  1  0.42729459  0.32048713  0.31824804  1
  Si0+  Si119  1  0.17762784  0.92685347  0.01641691  1
  O2-  O120  1  0.24631880  -0.00393516  0.06017927  1
  O2-  O121  1  0.25800554  0.00263558  0.39438166  1
  O2-  O122  1  0.25417916  0.00382996  0.72652755  1
  O2-  O123  1  0.24538099  0.49674649  0.06164947  1
  O2-  O124  1  0.24420119  0.49658725  0.39282541  1
  O2-  O125  1  0.25367459  0.50263587  0.72746082  1
  O2-  O126  1  0.75710233  -0.00596638  0.06259544  1
  O2-  O127  1  0.75637516  0.00177485  0.39604986  1
  O2-  O128  1  0.75416580  -0.00548669  0.72186035  1
  O2-  O129  1  0.74479946  0.49571428  0.05841198  1
  O2-  O130  1  0.74927486  0.50276908  0.39877506  1
  O2-  O131  1  0.75301416  0.50356233  0.72919751  1
  O2-  O132  1  0.00204736  0.24938377  0.27517169  1
  O2-  O133  1  0.00833239  0.24863785  0.60448634  1
  O2-  O134  1  0.00304380  0.24273299  0.93885747  1
  O2-  O135  1  -0.00808878  0.75209468  0.27250909  1
  O2-  O136  1  -0.00199003  0.75412127  0.60180419  1
  O2-  O137  1  0.00280812  0.74656175  0.94059058  1
  O2-  O138  1  0.49969284  0.25114130  0.27413818  1
  O2-  O139  1  0.49714404  0.25841780  0.60565104  1
  O2-  O140  1  0.49846571  0.25231487  0.94260756  1
  O2-  O141  1  0.50377705  0.75109786  0.26678441  1
  O2-  O142  1  0.50379850  0.74323731  0.60792895  1
  O2-  O143  1  0.50571866  0.74588835  0.93854009  1
  O2-  O144  1  0.07820708  0.18069550  0.08823581  1
  O2-  O145  1  0.07187178  0.17806242  0.42289084  1
  O2-  O146  1  0.07404905  0.17852619  0.75564638  1
  O2-  O147  1  0.07329831  0.67929578  0.08869646  1
  O2-  O148  1  0.07095287  0.67991058  0.43005487  1
  O2-  O149  1  0.06768707  0.68129635  0.76619653  1
  O2-  O150  1  0.56776521  0.18193154  0.09097281  1
  O2-  O151  1  0.57245409  0.18109421  0.41970225  1
  O2-  O152  1  0.56889572  0.17913726  0.76527405  1
  O2-  O153  1  0.57106370  0.67296762  0.08833746  1
  O2-  O154  1  0.56779452  0.67738230  0.43297639  1
  O2-  O155  1  0.57290536  0.67499885  0.75757815  1
  O2-  O156  1  0.18232316  0.42096263  0.24236918  1
  O2-  O157  1  0.18146092  0.42847386  0.56742651  1
  O2-  O158  1  0.17894102  0.42726179  0.91152028  1
  O2-  O159  1  0.17823952  0.93458462  0.23343830  1
  O2-  O160  1  0.18027232  0.92941632  0.56900526  1
  O2-  O161  1  0.17871908  0.92806903  0.91074455  1
  O2-  O162  1  0.68443507  0.42469234  0.23427995  1
  O2-  O163  1  0.68245613  0.42829790  0.56960440  1
  O2-  O164  1  0.67737968  0.42540358  0.90932434  1
  O2-  O165  1  0.67820946  0.93228616  0.23609387  1
  O2-  O166  1  0.67634919  0.93296599  0.57519009  1
  O2-  O167  1  0.67654229  0.93221137  0.89881930  1
  O2-  O168  1  0.42836960  0.32232271  0.09060813  1
  O2-  O169  1  0.42317595  0.31663722  0.42303487  1
  O2-  O170  1  0.42632537  0.32090870  0.75740698  1
  O2-  O171  1  0.43031789  0.82101229  0.09765051  1
  O2-  O172  1  0.42918199  0.81897147  0.43006613  1
  O2-  O173  1  0.43208845  0.82163657  0.76625870  1
  O2-  O174  1  0.93167186  0.31805893  0.09957422  1
  O2-  O175  1  0.92998893  0.31769843  0.42196071  1
  O2-  O176  1  0.92912562  0.31833483  0.76425095  1
  O2-  O177  1  0.92900193  0.81792937  0.10220359  1
  O2-  O178  1  0.93316763  0.82792492  0.42347297  1
  O2-  O179  1  0.92495111  0.82379242  0.76586560  1
  O2-  O180  1  0.31961213  0.07923135  0.24578000  1
  O2-  O181  1  0.32207312  0.07417234  0.57632769  1
  O2-  O182  1  0.32095646  0.07045769  0.89956357  1
  O2-  O183  1  0.31891517  0.56965797  0.23414327  1
  O2-  O184  1  0.32268979  0.57215717  0.57928064  1
  O2-  O185  1  0.31925495  0.56906388  0.90118859  1
  O2-  O186  1  0.82029110  0.07564638  0.24569378  1
  O2-  O187  1  0.81737269  0.07337084  0.57488904  1
  O2-  O188  1  0.81648259  0.07577309  0.89988540  1
  O2-  O189  1  0.82653810  0.56796105  0.23690070  1
  O2-  O190  1  0.82195118  0.57013435  0.57885934  1
  O2-  O191  1  0.82067719  0.56789455  0.89887795  1
  O2-  O192  1  0.04341911  0.08727695  0.26851434  1
  O2-  O193  1  0.04543545  0.08627036  0.60313222  1
  O2-  O194  1  0.05476106  0.08189121  0.93795038  1
  O2-  O195  1  0.04381138  0.58113180  0.26223355  1
  O2-  O196  1  0.04327871  0.58313261  0.59773959  1
  O2-  O197  1  0.04811932  0.58296885  0.93937838  1
  O2-  O198  1  0.54390968  0.08962713  0.26632829  1
  O2-  O199  1  0.53695514  0.08780546  0.59257781  1
  O2-  O200  1  0.53818442  0.08944237  0.93819050  1
  O2-  O201  1  0.54464126  0.57721638  0.26788281  1
  O2-  O202  1  0.54663242  0.57988104  0.60750275  1
  O2-  O203  1  0.54386009  0.58181557  0.93630430  1
  O2-  O204  1  0.16402400  0.20531224  0.26985548  1
  O2-  O205  1  0.16974070  0.20118366  0.60532770  1
  O2-  O206  1  0.16771112  0.20542035  0.93480087  1
  O2-  O207  1  0.16430207  0.71459649  0.26284850  1
  O2-  O208  1  0.16808826  0.70972611  0.60058629  1
  O2-  O209  1  0.16542792  0.70327670  0.93608596  1
  O2-  O210  1  0.66356212  0.20989758  0.26704582  1
  O2-  O211  1  0.66496024  0.21093714  0.59448215  1
  O2-  O212  1  0.65991343  0.20677070  0.93717223  1
  O2-  O213  1  0.67471859  0.70245093  0.27208926  1
  O2-  O214  1  0.66557750  0.69831605  0.60537786  1
  O2-  O215  1  0.66672763  0.69749514  0.93750667  1
  O2-  O216  1  0.08390387  0.45087270  0.06277011  1
  O2-  O217  1  0.08345956  0.44862366  0.38997866  1
  O2-  O218  1  0.08158218  0.46061735  0.73439478  1
  O2-  O219  1  0.08471458  0.95246222  0.06337377  1
  O2-  O220  1  0.08566639  0.96558000  0.40235183  1
  O2-  O221  1  0.08175773  0.96129170  0.73574699  1
  O2-  O222  1  0.58247707  0.44878359  0.06019506  1
  O2-  O223  1  0.58011004  0.44922694  0.40113576  1
  O2-  O224  1  0.58213484  0.45301180  0.73727989  1
  O2-  O225  1  0.58430175  0.96396556  0.06771033  1
  O2-  O226  1  0.58340048  0.96705047  0.40261826  1
  O2-  O227  1  0.58716964  0.96483279  0.72601060  1
  O2-  O228  1  0.20344573  0.33403972  0.06326811  1
  O2-  O229  1  0.20590962  0.33316053  0.39615071  1
  O2-  O230  1  0.20735101  0.33228951  0.73662447  1
  O2-  O231  1  0.20447578  0.83351930  0.06128530  1
  O2-  O232  1  0.20989134  0.83431713  0.40056860  1
  O2-  O233  1  0.21020719  0.83336954  0.73757098  1
  O2-  O234  1  0.70248568  0.33289972  0.06085355  1
  O2-  O235  1  0.71245088  0.33044575  0.40073624  1
  O2-  O236  1  0.71243533  0.33004270  0.73333794  1
  O2-  O237  1  0.70182778  0.82802660  0.06582241  1
  O2-  O238  1  0.70435843  0.83388317  0.40619483  1
  O2-  O239  1  0.69656999  0.83483573  0.72598152  1
  O2-  O240  1  0.45482397  0.41257937  0.27192240  1
  O2-  O241  1  0.44879359  0.41931031  0.60867476  1
  O2-  O242  1  0.45277471  0.41451258  0.93678660  1
  O2-  O243  1  0.45520509  0.92325312  0.26797110  1
  O2-  O244  1  0.46086302  0.91471849  0.59600309  1
  O2-  O245  1  0.46108232  0.91810167  0.93175648  1
  O2-  O246  1  0.95666290  0.41067099  0.26868481  1
  O2-  O247  1  0.96050312  0.41662241  0.59675905  1
  O2-  O248  1  0.96176466  0.41411619  0.93020282  1
  O2-  O249  1  0.95718756  0.91781999  0.27166394  1
  O2-  O250  1  0.95024231  0.92551325  0.60126140  1
  O2-  O251  1  0.95511057  0.91888310  0.93637204  1
  O2-  O252  1  0.33675702  0.29117997  0.26791886  1
  O2-  O253  1  0.33378820  0.29567655  0.60424101  1
  O2-  O254  1  0.33478350  0.29463979  0.93917418  1
  O2-  O255  1  0.33119969  0.79217450  0.26448768  1
  O2-  O256  1  0.33373322  0.78923461  0.60094632  1
  O2-  O257  1  0.33375726  0.78832199  0.93147123  1
  O2-  O258  1  0.83894142  0.28821918  0.26921945  1
  O2-  O259  1  0.83652202  0.28502268  0.59521617  1
  O2-  O260  1  0.83185240  0.28851939  0.93249386  1
  O2-  O261  1  0.83149889  0.80350370  0.27820310  1
  O2-  O262  1  0.82588493  0.79789576  0.60049555  1
  O2-  O263  1  0.83064539  0.78951012  0.93502667  1
  O2-  O264  1  0.41591459  0.04151792  0.06925683  1
  O2-  O265  1  0.41870605  0.05611900  0.39421711  1
  O2-  O266  1  0.41757901  0.04373743  0.72545129  1
  O2-  O267  1  0.41598076  0.53873647  0.06914072  1
  O2-  O268  1  0.41428490  0.53851580  0.40315738  1
  O2-  O269  1  0.41482117  0.54892947  0.73300989  1
  O2-  O270  1  0.92471424  0.05491126  0.06369136  1
  O2-  O271  1  0.91712426  0.05226472  0.39618598  1
  O2-  O272  1  0.91340169  0.05331220  0.72744748  1
  O2-  O273  1  0.91743568  0.53589124  0.06601074  1
  O2-  O274  1  0.92215471  0.53806255  0.40223034  1
  O2-  O275  1  0.91547565  0.54509331  0.72887143  1
  O2-  O276  1  0.29154356  0.16701117  0.06891119  1
  O2-  O277  1  0.29286109  0.16698997  0.39917127  1
  O2-  O278  1  0.30058334  0.16522237  0.72967104  1
  O2-  O279  1  0.28913921  0.66752271  0.06848666  1
  O2-  O280  1  0.28744998  0.66708465  0.40079459  1
  O2-  O281  1  0.29275520  0.66535129  0.73141261  1
  O2-  O282  1  0.78701274  0.16741069  0.06937389  1
  O2-  O283  1  0.79222066  0.16468291  0.39806191  1
  O2-  O284  1  0.78465576  0.16079041  0.72730035  1
  O2-  O285  1  0.79297421  0.66417591  0.06895345  1
  O2-  O286  1  0.80260359  0.67157588  0.40514362  1
  O2-  O287  1  0.79501672  0.66611735  0.72937045  1
