# generated using pymatgen
data_Ca2Al2SiO7
_symmetry_space_group_name_H-M   'P 1'
_cell_length_a   15.46281747
_cell_length_b   15.46266256
_cell_length_c   15.28745440
_cell_angle_alpha   90.00594951
_cell_angle_beta   90.01044967
_cell_angle_gamma   89.99227339
_symmetry_Int_Tables_number   1
_chemical_formula_structural   Ca2Al2SiO7
_chemical_formula_sum   'Ca48 Al48 Si24 O168'
_cell_volume   3655.17410978
_cell_formula_units_Z   24
loop_
 _symmetry_equiv_pos_site_id
 _symmetry_equiv_pos_as_xyz
  1  'x, y, z'
loop_
 _atom_type_symbol
 _atom_type_oxidation_number
  Ca2+  2.0
  Al0+  0.0
  Si0+  0.0
  O2-  -2.0
loop_
 _atom_site_type_symbol
 _atom_site_label
 _atom_site_symmetry_multiplicity
 _atom_site_fract_x
 _atom_site_fract_y
 _atom_site_fract_z
 _atom_site_occupancy
  Ca2+  Ca0  1  0.16177235  0.07533703  0.16659257  1
  Ca2+  Ca1  1  0.17054675  0.07753547  0.51582247  1
  Ca2+  Ca2  1  0.16144390  0.07353604  0.83396746  1
  Ca2+  Ca3  1  0.15510428  0.58261897  0.16544978  1
  Ca2+  Ca4  1  0.16790512  0.58953511  0.50886037  1
  Ca2+  Ca5  1  0.16561187  0.58519733  0.83663043  1
  Ca2+  Ca6  1  0.66654644  0.07450219  0.16833640  1
  Ca2+  Ca7  1  0.67332258  0.07445471  0.51110983  1
  Ca2+  Ca8  1  0.66552958  0.07769293  0.83401357  1
  Ca2+  Ca9  1  0.67958803  0.57569694  0.18006574  1
  Ca2+  Ca10  1  0.67324738  0.58059667  0.50438932  1
  Ca2+  Ca11  1  0.66705310  0.58459026  0.83514079  1
  Ca2+  Ca12  1  0.07184727  0.33758632  0.15944345  1
  Ca2+  Ca13  1  0.07263661  0.32751734  0.49979110  1
  Ca2+  Ca14  1  0.07505886  0.33162878  0.82656421  1
  Ca2+  Ca15  1  0.07115127  0.82488215  0.15808745  1
  Ca2+  Ca16  1  0.08275581  0.82604792  0.49460667  1
  Ca2+  Ca17  1  0.08954826  0.82850831  0.82765986  1
  Ca2+  Ca18  1  0.58908698  0.32687202  0.16041009  1
  Ca2+  Ca19  1  0.58676867  0.32797554  0.49840704  1
  Ca2+  Ca20  1  0.58419854  0.31790910  0.82573111  1
  Ca2+  Ca21  1  0.58640958  0.83827227  0.16147777  1
  Ca2+  Ca22  1  0.58152068  0.83987023  0.50165382  1
  Ca2+  Ca23  1  0.57926792  0.83469512  0.82212642  1
  Ca2+  Ca24  1  0.32343639  0.41674343  0.16836430  1
  Ca2+  Ca25  1  0.33005559  0.42646463  0.50926499  1
  Ca2+  Ca26  1  0.32631796  0.42421929  0.83696188  1
  Ca2+  Ca27  1  0.32472496  0.91463961  0.16501179  1
  Ca2+  Ca28  1  0.32676796  0.91850382  0.51319748  1
  Ca2+  Ca29  1  0.32378442  0.91564109  0.82818473  1
  Ca2+  Ca30  1  0.83569839  0.42061430  0.17661654  1
  Ca2+  Ca31  1  0.83824676  0.41728396  0.49934432  1
  Ca2+  Ca32  1  0.84029789  0.41550080  0.83580731  1
  Ca2+  Ca33  1  0.82604745  0.90741929  0.17204901  1
  Ca2+  Ca34  1  0.82630726  0.91593310  0.50803645  1
  Ca2+  Ca35  1  0.82552144  0.91872061  0.83867117  1
  Ca2+  Ca36  1  0.42585015  0.16795546  0.15930395  1
  Ca2+  Ca37  1  0.42373294  0.15453471  0.50237357  1
  Ca2+  Ca38  1  0.42554166  0.15817636  0.82668916  1
  Ca2+  Ca39  1  0.42217953  0.66802114  0.16389705  1
  Ca2+  Ca40  1  0.41967479  0.67002362  0.50609874  1
  Ca2+  Ca41  1  0.42116183  0.67309208  0.81939126  1
  Ca2+  Ca42  1  0.90961117  0.18086194  0.16357066  1
  Ca2+  Ca43  1  0.91237081  0.17118427  0.50336987  1
  Ca2+  Ca44  1  0.91635711  0.17715123  0.82303996  1
  Ca2+  Ca45  1  0.91969822  0.67240576  0.16474117  1
  Ca2+  Ca46  1  0.92634862  0.67133161  0.49241246  1
  Ca2+  Ca47  1  0.92759311  0.67527789  0.83179668  1
  Al0+  Al48  1  -0.00245035  0.00266808  0.00507015  1
  Al0+  Al49  1  -0.00011849  -0.00077579  0.33021925  1
  Al0+  Al50  1  -0.00228885  0.00162181  0.67174119  1
  Al0+  Al51  1  0.00068891  0.50176064  -0.00349348  1
  Al0+  Al52  1  0.00117153  0.49759555  0.33189330  1
  Al0+  Al53  1  -0.00145782  0.50172516  0.65931883  1
  Al0+  Al54  1  0.50136013  -0.00035826  0.00086240  1
  Al0+  Al55  1  0.49991766  -0.00061917  0.33365300  1
  Al0+  Al56  1  0.49836526  -0.00082970  0.66438191  1
  Al0+  Al57  1  0.49931781  0.49914405  0.00170317  1
  Al0+  Al58  1  0.49792989  0.49884855  0.33523784  1
  Al0+  Al59  1  0.50055699  0.50024823  0.66828267  1
  Al0+  Al60  1  0.25084107  0.25257585  0.00597896  1
  Al0+  Al61  1  0.25261287  0.25004973  0.33308100  1
  Al0+  Al62  1  0.24940607  0.25163459  0.66797639  1
  Al0+  Al63  1  0.25238157  0.75132179  0.00313158  1
  Al0+  Al64  1  0.25216542  0.74969086  0.32763275  1
  Al0+  Al65  1  0.25295846  0.74944518  0.66639556  1
  Al0+  Al66  1  0.74887861  0.24884717  -0.00867745  1
  Al0+  Al67  1  0.74910389  0.24769878  0.33217239  1
  Al0+  Al68  1  0.74749112  0.25089683  0.66127358  1
  Al0+  Al69  1  0.75078132  0.74925456  0.00100275  1
  Al0+  Al70  1  0.74900460  0.74766395  0.34007092  1
  Al0+  Al71  1  0.75079316  0.74631111  0.66860832  1
  Al0+  Al72  1  0.17715842  0.92869068  0.01581958  1
  Al0+  Al73  1  0.82341610  0.56926024  0.35059120  1
  Al0+  Al74  1  0.82015960  0.07388803  0.68298557  1
  Al0+  Al75  1  0.07139641  0.68236118  0.65362078  1
  Al0+  Al76  1  0.92623270  0.82172010  0.31991382  1
  Al0+  Al77  1  0.32125234  0.57022024  0.68020358  1
  Al0+  Al78  1  0.17874546  0.43114804  0.01351291  1
  Al0+  Al79  1  0.32103270  0.07394783  0.68122878  1
  Al0+  Al80  1  0.68057331  0.92941121  0.01408708  1
  Al0+  Al81  1  0.57406684  0.67641375  0.65112845  1
  Al0+  Al82  1  0.68012416  0.92748972  0.68231291  1
  Al0+  Al83  1  0.93005570  0.32091541  0.98625442  1
  Al0+  Al84  1  0.67762094  0.42643656  0.34848189  1
  Al0+  Al85  1  0.43090558  0.82051993  0.65114700  1
  Al0+  Al86  1  0.07347498  0.67911248  0.31705454  1
  Al0+  Al87  1  0.93029952  0.31692938  0.31876947  1
  Al0+  Al88  1  0.92798624  0.32162903  0.64930731  1
  Al0+  Al89  1  0.67894391  0.92877994  0.34831226  1
  Al0+  Al90  1  0.56805836  0.17874847  0.65079680  1
  Al0+  Al91  1  0.07211616  0.17680479  0.65393435  1
  Al0+  Al92  1  0.07148161  0.68216220  0.98340058  1
  Al0+  Al93  1  0.56859792  0.17935611  0.98535840  1
  Al0+  Al94  1  0.17706155  0.92838110  0.67931299  1
  Al0+  Al95  1  0.92610541  0.82377196  0.98431690  1
  Si0+  Si96  1  0.81994906  0.56938386  0.01401492  1
  Si0+  Si97  1  0.82316405  0.56957418  0.68392731  1
  Si0+  Si98  1  0.07688288  0.17760718  0.31578020  1
  Si0+  Si99  1  0.92669424  0.82298435  0.65259029  1
  Si0+  Si100  1  0.17995125  0.92895626  0.34605091  1
  Si0+  Si101  1  0.32103443  0.57209967  0.34877991  1
  Si0+  Si102  1  0.42743697  0.32374966  0.65068542  1
  Si0+  Si103  1  0.43081513  0.82026552  0.98568455  1
  Si0+  Si104  1  0.32420205  0.57266885  0.01893629  1
  Si0+  Si105  1  0.32263008  0.07135071  0.01749040  1
  Si0+  Si106  1  0.82053837  0.07558657  0.01789577  1
  Si0+  Si107  1  0.17558358  0.42988209  0.68196929  1
  Si0+  Si108  1  0.57121116  0.67685132  0.98819859  1
  Si0+  Si109  1  0.67856987  0.42744799  0.01208638  1
  Si0+  Si110  1  0.42616512  0.32350751  0.98308852  1
  Si0+  Si111  1  0.43118206  0.82171891  0.31538281  1
  Si0+  Si112  1  0.42787456  0.32322623  0.31684503  1
  Si0+  Si113  1  0.17997652  0.42794976  0.34912697  1
  Si0+  Si114  1  0.67882909  0.42968797  0.68307452  1
  Si0+  Si115  1  0.82280887  0.07213446  0.34891621  1
  Si0+  Si116  1  0.07464555  0.17837411  0.98577952  1
  Si0+  Si117  1  0.32056633  0.07064244  0.34665213  1
  Si0+  Si118  1  0.56844065  0.17882185  0.31740630  1
  Si0+  Si119  1  0.56987037  0.67669363  0.31874683  1
  O2-  O120  1  0.25035205  0.00661882  0.06256938  1
  O2-  O121  1  0.24543454  0.00467997  0.38823836  1
  O2-  O122  1  0.24465243  0.00564967  0.72913100  1
  O2-  O123  1  0.25309408  0.50615874  0.06266983  1
  O2-  O124  1  0.24675374  0.50380576  0.38993147  1
  O2-  O125  1  0.24525620  0.49736134  0.72666208  1
  O2-  O126  1  0.75762749  0.00116702  0.06222596  1
  O2-  O127  1  0.75949933  -0.00199082  0.39194809  1
  O2-  O128  1  0.75122778  -0.00072519  0.73366646  1
  O2-  O129  1  0.74864038  0.49779002  0.05570668  1
  O2-  O130  1  0.75025487  0.49685416  0.39947435  1
  O2-  O131  1  0.75096991  0.49908939  0.72605352  1
  O2-  O132  1  0.00593476  0.24359155  0.27091993  1
  O2-  O133  1  -0.00120970  0.24655756  0.60236502  1
  O2-  O134  1  0.00514917  0.24598113  0.94203920  1
  O2-  O135  1  -0.00094098  0.75012385  0.26985723  1
  O2-  O136  1  0.00016581  0.76001993  0.60756197  1
  O2-  O137  1  0.00525403  0.75977818  0.93408430  1
  O2-  O138  1  0.50103487  0.25387713  0.27502122  1
  O2-  O139  1  0.49032359  0.25095976  0.60397410  1
  O2-  O140  1  0.49334295  0.25406828  0.93926958  1
  O2-  O141  1  0.50367952  0.75150447  0.27393403  1
  O2-  O142  1  0.50615539  0.75184644  0.60043136  1
  O2-  O143  1  0.50044962  0.74718592  0.94583431  1
  O2-  O144  1  0.07438786  0.18096217  0.09193410  1
  O2-  O145  1  0.08194904  0.17989820  0.42065127  1
  O2-  O146  1  0.07311604  0.18113727  0.76762300  1
  O2-  O147  1  0.06686557  0.68001030  0.09683850  1
  O2-  O148  1  0.07793136  0.68313345  0.43048214  1
  O2-  O149  1  0.06988955  0.67988351  0.76642876  1
  O2-  O150  1  0.56784808  0.18130160  0.09939312  1
  O2-  O151  1  0.56494710  0.17737281  0.42190553  1
  O2-  O152  1  0.56790989  0.18071268  0.76391640  1
  O2-  O153  1  0.56924948  0.67557108  0.09372430  1
  O2-  O154  1  0.56557809  0.67396940  0.42287360  1
  O2-  O155  1  0.57054591  0.67506273  0.76556485  1
  O2-  O156  1  0.18276815  0.42599222  0.24385574  1
  O2-  O157  1  0.17758024  0.43107609  0.57593829  1
  O2-  O158  1  0.18144049  0.43129019  0.90087423  1
  O2-  O159  1  0.18361615  0.92991073  0.24077997  1
  O2-  O160  1  0.18030704  0.92710784  0.56498279  1
  O2-  O161  1  0.18133382  0.92714770  0.90362079  1
  O2-  O162  1  0.67751736  0.42825810  0.23386522  1
  O2-  O163  1  0.67713472  0.43069354  0.57815825  1
  O2-  O164  1  0.67684468  0.42995518  0.90724222  1
  O2-  O165  1  0.67482770  0.93285971  0.23483817  1
  O2-  O166  1  0.68203004  0.92937298  0.56844486  1
  O2-  O167  1  0.67680906  0.92977949  0.90209754  1
  O2-  O168  1  0.42817892  0.32408967  0.08925422  1
  O2-  O169  1  0.42462220  0.32370105  0.42129343  1
  O2-  O170  1  0.43242353  0.32665733  0.75618857  1
  O2-  O171  1  0.43176341  0.81988092  0.09172403  1
  O2-  O172  1  0.42843698  0.82286582  0.41954641  1
  O2-  O173  1  0.42990834  0.81811946  0.76516210  1
  O2-  O174  1  0.92843246  0.32102059  0.09970402  1
  O2-  O175  1  0.93148588  0.31535782  0.43095813  1
  O2-  O176  1  0.93088025  0.32372569  0.76307274  1
  O2-  O177  1  0.92305309  0.81657478  0.09780674  1
  O2-  O178  1  0.93037260  0.82329152  0.43344828  1
  O2-  O179  1  0.92460914  0.81819692  0.75798994  1
  O2-  O180  1  0.32266062  0.06967188  0.24131309  1
  O2-  O181  1  0.32035218  0.07007170  0.56672102  1
  O2-  O182  1  0.32456316  0.06998661  0.91279145  1
  O2-  O183  1  0.32551090  0.56991616  0.24363565  1
  O2-  O184  1  0.32033337  0.56827974  0.56651776  1
  O2-  O185  1  0.32898380  0.57070580  0.91400825  1
  O2-  O186  1  0.81816934  0.07684985  0.24327631  1
  O2-  O187  1  0.81717243  0.07301245  0.56885520  1
  O2-  O188  1  0.81678472  0.07939248  0.91309950  1
  O2-  O189  1  0.82056604  0.56791141  0.23598589  1
  O2-  O190  1  0.82397277  0.56865193  0.57917934  1
  O2-  O191  1  0.81800147  0.56946087  0.90885267  1
  O2-  O192  1  0.05319273  0.08278769  0.27128650  1
  O2-  O193  1  0.04596661  0.07745518  0.60098755  1
  O2-  O194  1  0.05128260  0.08352765  0.94296652  1
  O2-  O195  1  0.04690177  0.57885425  0.26759952  1
  O2-  O196  1  0.03849546  0.58768472  0.59756919  1
  O2-  O197  1  0.03905993  0.58534997  0.93040654  1
  O2-  O198  1  0.53455323  0.08905803  0.26846613  1
  O2-  O199  1  0.53812291  0.08295163  0.59553214  1
  O2-  O200  1  0.53644507  0.08294932  0.93293774  1
  O2-  O201  1  0.53706329  0.58655723  0.26926853  1
  O2-  O202  1  0.54019895  0.57964768  0.59802188  1
  O2-  O203  1  0.54439721  0.58448677  0.94080270  1
  O2-  O204  1  0.17000303  0.20472112  0.26802128  1
  O2-  O205  1  0.17075938  0.20629618  0.60007894  1
  O2-  O206  1  0.16932684  0.20392498  0.94280041  1
  O2-  O207  1  0.17176580  0.70707847  0.26209088  1
  O2-  O208  1  0.16884854  0.70908865  0.60033023  1
  O2-  O209  1  0.17430459  0.70435503  0.93686894  1
  O2-  O210  1  0.66068503  0.20316033  0.26957393  1
  O2-  O211  1  0.66191587  0.21348374  0.59493244  1
  O2-  O212  1  0.66257285  0.21129653  0.92869637  1
  O2-  O213  1  0.66357815  0.69984197  0.27381010  1
  O2-  O214  1  0.67454139  0.69788440  0.60045029  1
  O2-  O215  1  0.66306509  0.70237609  0.94154371  1
  O2-  O216  1  0.08228480  0.46345656  0.06805188  1
  O2-  O217  1  0.08714474  0.44988848  0.39520032  1
  O2-  O218  1  0.08241568  0.45865330  0.72635629  1
  O2-  O219  1  0.08047734  0.95852913  0.07161828  1
  O2-  O220  1  0.08580220  0.95025588  0.39085619  1
  O2-  O221  1  0.07830963  0.95058451  0.73378025  1
  O2-  O222  1  0.58594428  0.45250305  0.06074810  1
  O2-  O223  1  0.57802684  0.45386082  0.39957168  1
  O2-  O224  1  0.58823850  0.45821286  0.73244462  1
  O2-  O225  1  0.58448592  0.96307980  0.06971528  1
  O2-  O226  1  0.58297145  0.96495405  0.40071523  1
  O2-  O227  1  0.58019908  0.95601407  0.73072686  1
  O2-  O228  1  0.21007526  0.33590571  0.07213015  1
  O2-  O229  1  0.21393160  0.33788018  0.39644520  1
  O2-  O230  1  0.19969230  0.33661399  0.72866215  1
  O2-  O231  1  0.21442570  0.83442288  0.07179167  1
  O2-  O232  1  0.21426745  0.83822529  0.39104110  1
  O2-  O233  1  0.21449131  0.83332596  0.73321126  1
  O2-  O234  1  0.70588525  0.33480515  0.05777485  1
  O2-  O235  1  0.70342827  0.32658052  0.39885722  1
  O2-  O236  1  0.70585585  0.33740280  0.72916741  1
  O2-  O237  1  0.70753390  0.83076874  0.06806897  1
  O2-  O238  1  0.69991183  0.83000445  0.40076730  1
  O2-  O239  1  0.70531257  0.82709258  0.73338582  1
  O2-  O240  1  0.45230376  0.41549626  0.26810934  1
  O2-  O241  1  0.45908011  0.41455752  0.60228915  1
  O2-  O242  1  0.45235107  0.41737400  0.93783339  1
  O2-  O243  1  0.45897463  0.91344447  0.26681731  1
  O2-  O244  1  0.45512611  0.91852831  0.59580376  1
  O2-  O245  1  0.46030694  0.91123174  0.93975109  1
  O2-  O246  1  0.96117031  0.41366439  0.26511332  1
  O2-  O247  1  0.95972441  0.41790938  0.59442510  1
  O2-  O248  1  0.96110163  0.41670457  0.93213778  1
  O2-  O249  1  0.95174791  0.92091048  0.26535682  1
  O2-  O250  1  0.94396181  0.91931592  0.61038851  1
  O2-  O251  1  0.94392876  0.92761778  0.94027213  1
  O2-  O252  1  0.33785543  0.29166061  0.26663872  1
  O2-  O253  1  0.33132541  0.30663107  0.60684600  1
  O2-  O254  1  0.33152314  0.30050271  0.93921471  1
  O2-  O255  1  0.34137251  0.79089318  0.26502766  1
  O2-  O256  1  0.33535542  0.78640872  0.59575146  1
  O2-  O257  1  0.33895570  0.79396609  0.93932215  1
  O2-  O258  1  0.83247090  0.28685237  0.26469274  1
  O2-  O259  1  0.82919756  0.29580998  0.59679568  1
  O2-  O260  1  0.83394020  0.29201737  0.93095455  1
  O2-  O261  1  0.82649605  0.79145805  0.26939602  1
  O2-  O262  1  0.83595371  0.79029307  0.60523936  1
  O2-  O263  1  0.83025757  0.78729917  0.93060779  1
  O2-  O264  1  0.41382891  0.03983919  0.06644843  1
  O2-  O265  1  0.41037745  0.03781525  0.39435047  1
  O2-  O266  1  0.41743825  0.04002147  0.73387783  1
  O2-  O267  1  0.41659625  0.54303221  0.06820015  1
  O2-  O268  1  0.41063232  0.54059885  0.39783648  1
  O2-  O269  1  0.41686228  0.53782047  0.73572336  1
  O2-  O270  1  0.91607612  0.06060832  0.06410850  1
  O2-  O271  1  0.91958868  0.05385628  0.39162255  1
  O2-  O272  1  0.91952079  0.05267193  0.73631078  1
  O2-  O273  1  0.91125544  0.54068675  0.06073983  1
  O2-  O274  1  0.92214643  0.53945695  0.40186722  1
  O2-  O275  1  0.91419522  0.53895635  0.73128831  1
  O2-  O276  1  0.30317970  0.16692756  0.06365060  1
  O2-  O277  1  0.30020450  0.16468370  0.39282760  1
  O2-  O278  1  0.30221154  0.17525079  0.73263547  1
  O2-  O279  1  0.30310788  0.66700126  0.06521511  1
  O2-  O280  1  0.29626768  0.66576928  0.39369418  1
  O2-  O281  1  0.29294151  0.66621022  0.73485048  1
  O2-  O282  1  0.78559097  0.16706365  0.06494215  1
  O2-  O283  1  0.79047763  0.16250790  0.39692489  1
  O2-  O284  1  0.78754900  0.17271099  0.73303515  1
  O2-  O285  1  0.79025415  0.65952212  0.06354527  1
  O2-  O286  1  0.79400198  0.66619691  0.40477014  1
  O2-  O287  1  0.79574209  0.66015969  0.73362216  1
