# generated using pymatgen
data_Ca2Al2SiO7
_symmetry_space_group_name_H-M   'P 1'
_cell_length_a   15.45981952
_cell_length_b   15.46188880
_cell_length_c   15.28490162
_cell_angle_alpha   90.02146403
_cell_angle_beta   89.99182647
_cell_angle_gamma   89.99932612
_symmetry_Int_Tables_number   1
_chemical_formula_structural   Ca2Al2SiO7
_chemical_formula_sum   'Ca48 Al48 Si24 O168'
_cell_volume   3653.67217632
_cell_formula_units_Z   24
loop_
 _symmetry_equiv_pos_site_id
 _symmetry_equiv_pos_as_xyz
  1  'x, y, z'
loop_
 _atom_type_symbol
 _atom_type_oxidation_number
  Ca2+  2.0
  Al0+  0.0
  Si0+  0.0
  O2-  -2.0
loop_
 _atom_site_type_symbol
 _atom_site_label
 _atom_site_symmetry_multiplicity
 _atom_site_fract_x
 _atom_site_fract_y
 _atom_site_fract_z
 _atom_site_occupancy
  Ca2+  Ca0  1  0.17707727  0.07988779  0.17305314  1
  Ca2+  Ca1  1  0.17838787  0.07302827  0.50361026  1
  Ca2+  Ca2  1  0.17804445  0.08003265  0.83301039  1
  Ca2+  Ca3  1  0.16626809  0.57710683  0.16683638  1
  Ca2+  Ca4  1  0.16777302  0.57761195  0.50676402  1
  Ca2+  Ca5  1  0.16576970  0.57254134  0.83393003  1
  Ca2+  Ca6  1  0.66769319  0.06931433  0.17132741  1
  Ca2+  Ca7  1  0.66132109  0.07145255  0.50582010  1
  Ca2+  Ca8  1  0.66054098  0.07232406  0.83312509  1
  Ca2+  Ca9  1  0.66171022  0.57937363  0.17006429  1
  Ca2+  Ca10  1  0.66895212  0.58845023  0.50589806  1
  Ca2+  Ca11  1  0.67212036  0.58514974  0.83510927  1
  Ca2+  Ca12  1  0.07977682  0.33429220  0.16224747  1
  Ca2+  Ca13  1  0.07519291  0.33726636  0.49851171  1
  Ca2+  Ca14  1  0.08285922  0.33647540  0.82512146  1
  Ca2+  Ca15  1  0.07270429  0.84560629  0.16492656  1
  Ca2+  Ca16  1  0.07469178  0.84709720  0.49605596  1
  Ca2+  Ca17  1  0.07164935  0.83933888  0.82546039  1
  Ca2+  Ca18  1  0.57085159  0.33230277  0.15892341  1
  Ca2+  Ca19  1  0.58013525  0.32055006  0.49382964  1
  Ca2+  Ca20  1  0.58106485  0.32693377  0.82844321  1
  Ca2+  Ca21  1  0.58617352  0.83430910  0.16856421  1
  Ca2+  Ca22  1  0.57879592  0.83017668  0.49722813  1
  Ca2+  Ca23  1  0.58280199  0.83306834  0.82166066  1
  Ca2+  Ca24  1  0.33154550  0.40958927  0.17061083  1
  Ca2+  Ca25  1  0.32996719  0.41516733  0.50442168  1
  Ca2+  Ca26  1  0.32364030  0.41126539  0.84012540  1
  Ca2+  Ca27  1  0.33222816  0.92832115  0.18067740  1
  Ca2+  Ca28  1  0.33175321  0.91834197  0.50952045  1
  Ca2+  Ca29  1  0.34173836  0.92818391  0.83400385  1
  Ca2+  Ca30  1  0.82553746  0.41500166  0.17159912  1
  Ca2+  Ca31  1  0.83844594  0.42380641  0.50963029  1
  Ca2+  Ca32  1  0.82884627  0.42206216  0.83489838  1
  Ca2+  Ca33  1  0.82656598  0.90713312  0.17127750  1
  Ca2+  Ca34  1  0.82378660  0.90486685  0.50429088  1
  Ca2+  Ca35  1  0.82324290  0.90657362  0.83564254  1
  Ca2+  Ca36  1  0.40687633  0.17187803  0.16415007  1
  Ca2+  Ca37  1  0.41469762  0.16443031  0.49969421  1
  Ca2+  Ca38  1  0.41640714  0.16635713  0.82981164  1
  Ca2+  Ca39  1  0.42043472  0.67416356  0.16798480  1
  Ca2+  Ca40  1  0.42606351  0.67767663  0.49463812  1
  Ca2+  Ca41  1  0.42659576  0.67475493  0.82221644  1
  Ca2+  Ca42  1  0.91841130  0.16962901  0.16519442  1
  Ca2+  Ca43  1  0.91470980  0.18000355  0.49511473  1
  Ca2+  Ca44  1  0.91904245  0.17529495  0.82387023  1
  Ca2+  Ca45  1  0.91877666  0.67801971  0.16501492  1
  Ca2+  Ca46  1  0.91550338  0.67514371  0.50038986  1
  Ca2+  Ca47  1  0.91419119  0.67415396  0.82682779  1
  Al0+  Al48  1  -0.00054475  0.00254507  -0.00708776  1
  Al0+  Al49  1  0.00002428  0.00373178  0.33132087  1
  Al0+  Al50  1  0.00041266  0.00302383  0.66468790  1
  Al0+  Al51  1  0.00046197  0.50177081  0.00464169  1
  Al0+  Al52  1  -0.00178732  0.50069154  0.32736066  1
  Al0+  Al53  1  -0.00143517  0.50204619  0.67201384  1
  Al0+  Al54  1  0.50144273  0.00111556  0.01054699  1
  Al0+  Al55  1  0.50234823  -0.00003935  0.33795091  1
  Al0+  Al56  1  0.50062503  0.00135317  0.66756414  1
  Al0+  Al57  1  0.49907024  0.50064021  -0.00229819  1
  Al0+  Al58  1  0.49966625  0.49796026  0.32772692  1
  Al0+  Al59  1  0.49994768  0.49913463  0.66362868  1
  Al0+  Al60  1  0.24866227  0.25023326  0.00373614  1
  Al0+  Al61  1  0.24829528  0.24861051  0.33552230  1
  Al0+  Al62  1  0.24859253  0.24829103  0.67303412  1
  Al0+  Al63  1  0.24872159  0.74916558  -0.00132687  1
  Al0+  Al64  1  0.24941758  0.74720929  0.33299677  1
  Al0+  Al65  1  0.24782900  0.74852216  0.66957109  1
  Al0+  Al66  1  0.74941827  0.24995840  0.00367569  1
  Al0+  Al67  1  0.74840418  0.25011881  0.32788108  1
  Al0+  Al68  1  0.74918870  0.25024046  0.65762498  1
  Al0+  Al69  1  0.75093667  0.74941239  0.00140166  1
  Al0+  Al70  1  0.75247130  0.74702047  0.32903251  1
  Al0+  Al71  1  0.75182507  0.74819274  0.66849603  1
  Al0+  Al72  1  0.57293176  0.67738910  0.65297429  1
  Al0+  Al73  1  0.67798339  0.42850348  0.01300702  1
  Al0+  Al74  1  0.92819883  0.32323420  0.31731815  1
  Al0+  Al75  1  0.68248571  0.93021439  0.67897146  1
  Al0+  Al76  1  0.42821296  0.32036606  0.98515678  1
  Al0+  Al77  1  0.18057643  0.43080264  0.67856209  1
  Al0+  Al78  1  0.93046887  0.32261374  0.65490604  1
  Al0+  Al79  1  0.32003425  0.06908979  0.01564776  1
  Al0+  Al80  1  0.32183792  0.06866707  0.68403867  1
  Al0+  Al81  1  0.81874610  0.57000217  0.68030683  1
  Al0+  Al82  1  0.17773750  0.92675041  0.34690303  1
  Al0+  Al83  1  0.93086378  0.82210049  0.65295507  1
  Al0+  Al84  1  0.57202061  0.67924002  0.31660010  1
  Al0+  Al85  1  0.17585417  0.92613237  0.68330580  1
  Al0+  Al86  1  0.68313657  0.92715599  0.34920448  1
  Al0+  Al87  1  0.92997186  0.82032080  0.98435951  1
  Al0+  Al88  1  0.57052682  0.17960230  0.65368605  1
  Al0+  Al89  1  0.32186069  0.07144317  0.35077194  1
  Al0+  Al90  1  0.42860833  0.31778314  0.32083201  1
  Al0+  Al91  1  0.68163619  0.92866753  0.01464081  1
  Al0+  Al92  1  0.93224155  0.82128358  0.32029661  1
  Al0+  Al93  1  0.17990033  0.43018401  0.01568767  1
  Al0+  Al94  1  0.42785567  0.82163910  0.65431553  1
  Al0+  Al95  1  0.42810842  0.82258286  0.31860585  1
  Si0+  Si96  1  0.17756688  0.43009568  0.34774701  1
  Si0+  Si97  1  0.32304388  0.57393414  0.01732621  1
  Si0+  Si98  1  0.67617094  0.42476633  0.68028604  1
  Si0+  Si99  1  0.82190454  0.07504989  0.35006328  1
  Si0+  Si100  1  0.07371460  0.17930836  0.64833193  1
  Si0+  Si101  1  0.07332248  0.67492594  0.31604207  1
  Si0+  Si102  1  0.57290393  0.17616366  0.31388575  1
  Si0+  Si103  1  0.57022340  0.67964347  0.98455408  1
  Si0+  Si104  1  0.92745654  0.32256492  0.98485527  1
  Si0+  Si105  1  0.57263850  0.17734818  0.98449440  1
  Si0+  Si106  1  0.82494008  0.07353671  0.01557695  1
  Si0+  Si107  1  0.32486701  0.57223258  0.68305899  1
  Si0+  Si108  1  0.07111737  0.67701435  0.65154609  1
  Si0+  Si109  1  0.42506283  0.32105525  0.65197103  1
  Si0+  Si110  1  0.17582880  0.92768247  0.01470209  1
  Si0+  Si111  1  0.07279352  0.67611383  0.98119222  1
  Si0+  Si112  1  0.42917312  0.82331778  0.98754237  1
  Si0+  Si113  1  0.07049997  0.18171553  0.98334718  1
  Si0+  Si114  1  0.67697631  0.42813037  0.34838562  1
  Si0+  Si115  1  0.32291627  0.56946736  0.34812601  1
  Si0+  Si116  1  0.82211047  0.07649830  0.68094339  1
  Si0+  Si117  1  0.82087936  0.57133449  0.01984998  1
  Si0+  Si118  1  0.07034874  0.18088050  0.31518419  1
  Si0+  Si119  1  0.82071239  0.56753280  0.34812300  1
  O2-  O120  1  0.24887637  -0.01003163  0.06027196  1
  O2-  O121  1  0.25673772  -0.00903565  0.39714938  1
  O2-  O122  1  0.25230304  -0.00664518  0.73356853  1
  O2-  O123  1  0.25558400  0.50381031  0.06247106  1
  O2-  O124  1  0.24948752  0.49984075  0.38981245  1
  O2-  O125  1  0.25837856  0.50119505  0.72718733  1
  O2-  O126  1  0.75875784  0.00247897  0.05934431  1
  O2-  O127  1  0.75723452  0.00360632  0.39479805  1
  O2-  O128  1  0.75795579  0.00444944  0.72645761  1
  O2-  O129  1  0.75305862  0.50140133  0.06331842  1
  O2-  O130  1  0.74990218  0.49656390  0.39099577  1
  O2-  O131  1  0.74155036  0.49639881  0.72497378  1
  O2-  O132  1  0.00132915  0.24865616  0.26890414  1
  O2-  O133  1  0.00325016  0.24750635  0.60567265  1
  O2-  O134  1  -0.00154195  0.25261282  0.94172813  1
  O2-  O135  1  0.01292590  0.75218687  0.27384681  1
  O2-  O136  1  0.01115088  0.75279247  0.60669298  1
  O2-  O137  1  0.00730022  0.74797254  0.93814095  1
  O2-  O138  1  0.50043138  0.24180858  0.27139255  1
  O2-  O139  1  0.49599522  0.25538283  0.60793727  1
  O2-  O140  1  0.50460751  0.24682961  0.93994476  1
  O2-  O141  1  0.50200336  0.75317277  0.26609126  1
  O2-  O142  1  0.49883860  0.74798405  0.60519032  1
  O2-  O143  1  0.49960458  0.75189260  0.94444269  1
  O2-  O144  1  0.06845847  0.18192232  0.08859400  1
  O2-  O145  1  0.06929033  0.18381684  0.42033694  1
  O2-  O146  1  0.07295022  0.18166687  0.75446480  1
  O2-  O147  1  0.07192734  0.67327384  0.08680844  1
  O2-  O148  1  0.06842847  0.66397260  0.42058708  1
  O2-  O149  1  0.06627333  0.67251515  0.75697944  1
  O2-  O150  1  0.57328245  0.17844048  0.08991601  1
  O2-  O151  1  0.57741946  0.18031811  0.41930470  1
  O2-  O152  1  0.57219746  0.18141091  0.76711646  1
  O2-  O153  1  0.56984460  0.67857540  0.08952095  1
  O2-  O154  1  0.57106199  0.67775992  0.42964137  1
  O2-  O155  1  0.57235492  0.67831445  0.76736694  1
  O2-  O156  1  0.17752285  0.43139182  0.24245446  1
  O2-  O157  1  0.18031991  0.43291859  0.56491514  1
  O2-  O158  1  0.17860576  0.43146180  0.90271120  1
  O2-  O159  1  0.17574787  0.93286030  0.23269354  1
  O2-  O160  1  0.17497885  0.93050675  0.57004221  1
  O2-  O161  1  0.17433563  0.93065189  0.90960494  1
  O2-  O162  1  0.67811624  0.42968781  0.24299544  1
  O2-  O163  1  0.67796478  0.42364330  0.57467078  1
  O2-  O164  1  0.68116757  0.42894181  0.89990655  1
  O2-  O165  1  0.68609718  0.92808405  0.23558571  1
  O2-  O166  1  0.68337084  0.92924047  0.56619140  1
  O2-  O167  1  0.68025295  0.92847739  0.90161081  1
  O2-  O168  1  0.42807408  0.31830209  0.09841233  1
  O2-  O169  1  0.43060322  0.31982926  0.43390678  1
  O2-  O170  1  0.42510498  0.32044228  0.75766538  1
  O2-  O171  1  0.42906413  0.82133253  0.09241507  1
  O2-  O172  1  0.42753171  0.81877288  0.43169813  1
  O2-  O173  1  0.43251227  0.82098845  0.76906132  1
  O2-  O174  1  0.92834986  0.32052946  0.09012853  1
  O2-  O175  1  0.93121218  0.32558043  0.43026562  1
  O2-  O176  1  0.93113243  0.32142512  0.76853654  1
  O2-  O177  1  0.93121086  0.81885477  0.09775932  1
  O2-  O178  1  0.93026679  0.81735637  0.43300634  1
  O2-  O179  1  0.92862375  0.81809797  0.76618754  1
  O2-  O180  1  0.31571551  0.07472057  0.23688595  1
  O2-  O181  1  0.31959956  0.07132145  0.57111941  1
  O2-  O182  1  0.32063598  0.06932391  0.90294501  1
  O2-  O183  1  0.32250554  0.56814162  0.24284793  1
  O2-  O184  1  0.32392178  0.57068646  0.57729376  1
  O2-  O185  1  0.32198254  0.57432193  0.91196952  1
  O2-  O186  1  0.82016861  0.07673797  0.24411494  1
  O2-  O187  1  0.81964327  0.07970066  0.57565204  1
  O2-  O188  1  0.82529736  0.07759147  0.91035467  1
  O2-  O189  1  0.82134338  0.56550437  0.24285015  1
  O2-  O190  1  0.82129095  0.56840951  0.56701936  1
  O2-  O191  1  0.82038513  0.57122030  0.91426920  1
  O2-  O192  1  0.04464326  0.08868400  0.26596289  1
  O2-  O193  1  0.04932926  0.08648102  0.60149648  1
  O2-  O194  1  0.04397280  0.09099040  0.93324330  1
  O2-  O195  1  0.03754322  0.58712675  0.26288454  1
  O2-  O196  1  0.03694594  0.58712189  0.60269246  1
  O2-  O197  1  0.04233646  0.58330057  0.93516243  1
  O2-  O198  1  0.55206171  0.08098773  0.27047625  1
  O2-  O199  1  0.53929954  0.08448196  0.59864616  1
  O2-  O200  1  0.54465513  0.08323016  0.94068342  1
  O2-  O201  1  0.53996520  0.58157220  0.26291562  1
  O2-  O202  1  0.54837264  0.57752678  0.59980010  1
  O2-  O203  1  0.54271317  0.58864467  0.93560906  1
  O2-  O204  1  0.16265159  0.20946914  0.26830242  1
  O2-  O205  1  0.16602682  0.20865642  0.60253244  1
  O2-  O206  1  0.16100376  0.21240637  0.93637318  1
  O2-  O207  1  0.16952147  0.68928937  0.27155901  1
  O2-  O208  1  0.16808611  0.69075439  0.60859396  1
  O2-  O209  1  0.16826027  0.69593974  0.93594391  1
  O2-  O210  1  0.66432637  0.20526623  0.26464342  1
  O2-  O211  1  0.66460415  0.20987916  0.59410669  1
  O2-  O212  1  0.66703991  0.20241859  0.93908211  1
  O2-  O213  1  0.67085107  0.70413912  0.26238561  1
  O2-  O214  1  0.67062869  0.70655042  0.60084837  1
  O2-  O215  1  0.66320899  0.70655330  0.93951575  1
  O2-  O216  1  0.08343796  0.46194691  0.07089538  1
  O2-  O217  1  0.08532416  0.46073161  0.39271367  1
  O2-  O218  1  0.08627174  0.46508768  0.73507263  1
  O2-  O219  1  0.08332244  0.96043734  0.05982812  1
  O2-  O220  1  0.08101040  0.96386830  0.39893110  1
  O2-  O221  1  0.07841409  0.96167938  0.73589483  1
  O2-  O222  1  0.58121456  0.46080342  0.06622186  1
  O2-  O223  1  0.58549022  0.45648811  0.39504911  1
  O2-  O224  1  0.58073674  0.44533663  0.72530610  1
  O2-  O225  1  0.58755097  0.96072119  0.07250489  1
  O2-  O226  1  0.58621725  0.95678566  0.40219143  1
  O2-  O227  1  0.58694280  0.96285342  0.73365750  1
  O2-  O228  1  0.20868000  0.33412239  0.07084676  1
  O2-  O229  1  0.20309918  0.33834966  0.39489918  1
  O2-  O230  1  0.20674871  0.33424192  0.73457591  1
  O2-  O231  1  0.19269531  0.83046223  0.05684411  1
  O2-  O232  1  0.19238242  0.82307026  0.39417029  1
  O2-  O233  1  0.19348122  0.82413867  0.73373794  1
  O2-  O234  1  0.70783346  0.33239753  0.06930021  1
  O2-  O235  1  0.70319900  0.33448318  0.39264673  1
  O2-  O236  1  0.70637795  0.33280156  0.72703109  1
  O2-  O237  1  0.71302211  0.83213780  0.06883397  1
  O2-  O238  1  0.71681707  0.82958543  0.39914444  1
  O2-  O239  1  0.71354263  0.83419697  0.73388399  1
  O2-  O240  1  0.46010800  0.41275388  0.26392354  1
  O2-  O241  1  0.44553708  0.41600202  0.60649809  1
  O2-  O242  1  0.45579816  0.41840504  0.93207780  1
  O2-  O243  1  0.45602731  0.92241101  0.26845044  1
  O2-  O244  1  0.45704113  0.91922575  0.60263329  1
  O2-  O245  1  0.45968889  0.91556490  0.94335064  1
  O2-  O246  1  0.96016313  0.41778304  0.26019973  1
  O2-  O247  1  0.96429548  0.41859043  0.60161695  1
  O2-  O248  1  0.95527976  0.41602474  0.94137433  1
  O2-  O249  1  0.95630937  0.92035459  0.26645785  1
  O2-  O250  1  0.95391191  0.92137220  0.60041198  1
  O2-  O251  1  0.95560448  0.91866688  0.93105319  1
  O2-  O252  1  0.32991674  0.29030998  0.26822315  1
  O2-  O253  1  0.33194249  0.29296013  0.60637340  1
  O2-  O254  1  0.33070934  0.28826054  0.93375499  1
  O2-  O255  1  0.32956398  0.79132555  0.26535155  1
  O2-  O256  1  0.32763237  0.79448774  0.60446652  1
  O2-  O257  1  0.33592290  0.79773402  0.94117192  1
  O2-  O258  1  0.83121856  0.29300745  0.26340811  1
  O2-  O259  1  0.83495345  0.29458256  0.59776393  1
  O2-  O260  1  0.83517317  0.29475076  0.93870851  1
  O2-  O261  1  0.83972835  0.78236750  0.26368845  1
  O2-  O262  1  0.83710567  0.78297428  0.59983845  1
  O2-  O263  1  0.83378096  0.78477889  0.93219512  1
  O2-  O264  1  0.41660347  0.04380913  0.07186920  1
  O2-  O265  1  0.42388709  0.05386172  0.39888873  1
  O2-  O266  1  0.42049691  0.04301457  0.73826228  1
  O2-  O267  1  0.41686112  0.54979275  0.06265618  1
  O2-  O268  1  0.41326246  0.53723537  0.39526330  1
  O2-  O269  1  0.41937430  0.54886878  0.72918396  1
  O2-  O270  1  0.91959361  0.05000915  0.06113627  1
  O2-  O271  1  0.91773993  0.05602349  0.39302752  1
  O2-  O272  1  0.91781875  0.05707434  0.72485591  1
  O2-  O273  1  0.91483919  0.54738858  0.06584803  1
  O2-  O274  1  0.91266011  0.53839032  0.39477208  1
  O2-  O275  1  0.91257330  0.53696360  0.73847960  1
  O2-  O276  1  0.28315340  0.16387955  0.06904998  1
  O2-  O277  1  0.28562412  0.16772727  0.40450066  1
  O2-  O278  1  0.28898418  0.16569776  0.73851276  1
  O2-  O279  1  0.29479527  0.66686914  0.06497366  1
  O2-  O280  1  0.29659113  0.66073236  0.39662907  1
  O2-  O281  1  0.29786153  0.66395850  0.73187537  1
  O2-  O282  1  0.79843563  0.16589425  0.06467181  1
  O2-  O283  1  0.79348449  0.16893859  0.39530926  1
  O2-  O284  1  0.79320097  0.16922669  0.72816017  1
  O2-  O285  1  0.79285205  0.66365664  0.06660022  1
  O2-  O286  1  0.79346421  0.65928547  0.39459851  1
  O2-  O287  1  0.78837480  0.66439693  0.73850773  1
