# generated using pymatgen
data_Ca2Al2SiO7
_symmetry_space_group_name_H-M   'P 1'
_cell_length_a   15.45458325
_cell_length_b   15.45414652
_cell_length_c   15.28175944
_cell_angle_alpha   90.00245060
_cell_angle_beta   90.00208619
_cell_angle_gamma   89.99250196
_symmetry_Int_Tables_number   1
_chemical_formula_structural   Ca2Al2SiO7
_chemical_formula_sum   'Ca48 Al48 Si24 O168'
_cell_volume   3649.85556313
_cell_formula_units_Z   24
loop_
 _symmetry_equiv_pos_site_id
 _symmetry_equiv_pos_as_xyz
  1  'x, y, z'
loop_
 _atom_type_symbol
 _atom_type_oxidation_number
  Ca2+  2.0
  Al0+  0.0
  Si0+  0.0
  O2-  -2.0
loop_
 _atom_site_type_symbol
 _atom_site_label
 _atom_site_symmetry_multiplicity
 _atom_site_fract_x
 _atom_site_fract_y
 _atom_site_fract_z
 _atom_site_occupancy
  Ca2+  Ca0  1  0.16302740  0.07856824  0.17554751  1
  Ca2+  Ca1  1  0.16373262  0.07259215  0.50570330  1
  Ca2+  Ca2  1  0.17291128  0.08010225  0.83128474  1
  Ca2+  Ca3  1  0.16894289  0.58283513  0.16791825  1
  Ca2+  Ca4  1  0.15954466  0.58124614  0.50877507  1
  Ca2+  Ca5  1  0.17097362  0.57427003  0.83718602  1
  Ca2+  Ca6  1  0.67935145  0.07809814  0.17054932  1
  Ca2+  Ca7  1  0.67196378  0.08827135  0.50389052  1
  Ca2+  Ca8  1  0.66878886  0.07899196  0.84032726  1
  Ca2+  Ca9  1  0.67085677  0.57967081  0.17497280  1
  Ca2+  Ca10  1  0.67367723  0.58191429  0.49993057  1
  Ca2+  Ca11  1  0.66204086  0.58712250  0.83753712  1
  Ca2+  Ca12  1  0.07989339  0.33076332  0.16584980  1
  Ca2+  Ca13  1  0.07396035  0.33216572  0.49431139  1
  Ca2+  Ca14  1  0.08159472  0.33792053  0.82588469  1
  Ca2+  Ca15  1  0.07318127  0.83461326  0.16881517  1
  Ca2+  Ca16  1  0.08756972  0.82665510  0.49132477  1
  Ca2+  Ca17  1  0.08145270  0.82894641  0.82734663  1
  Ca2+  Ca18  1  0.58021545  0.33708088  0.16177417  1
  Ca2+  Ca19  1  0.57999994  0.33155759  0.49988466  1
  Ca2+  Ca20  1  0.56812085  0.32895948  0.82456705  1
  Ca2+  Ca21  1  0.58823282  0.82635827  0.15754691  1
  Ca2+  Ca22  1  0.57667162  0.83282915  0.50266233  1
  Ca2+  Ca23  1  0.58234829  0.82448818  0.82653488  1
  Ca2+  Ca24  1  0.33252602  0.42059428  0.16366459  1
  Ca2+  Ca25  1  0.32400888  0.41653214  0.50995721  1
  Ca2+  Ca26  1  0.32613595  0.41409770  0.84090376  1
  Ca2+  Ca27  1  0.32508073  0.91794266  0.17509346  1
  Ca2+  Ca28  1  0.32256247  0.91875655  0.51120175  1
  Ca2+  Ca29  1  0.33418839  0.91546802  0.82962340  1
  Ca2+  Ca30  1  0.82694985  0.42303147  0.18103832  1
  Ca2+  Ca31  1  0.83753751  0.41697139  0.50163111  1
  Ca2+  Ca32  1  0.83314629  0.41795023  0.83497470  1
  Ca2+  Ca33  1  0.83799829  0.92042582  0.16921173  1
  Ca2+  Ca34  1  0.84214551  0.92319758  0.49950170  1
  Ca2+  Ca35  1  0.82763333  0.92212700  0.84598750  1
  Ca2+  Ca36  1  0.41839237  0.17544749  0.15943612  1
  Ca2+  Ca37  1  0.41664877  0.16541350  0.50349126  1
  Ca2+  Ca38  1  0.41831115  0.17298879  0.82270654  1
  Ca2+  Ca39  1  0.42272638  0.66462596  0.15756266  1
  Ca2+  Ca40  1  0.41727608  0.67113403  0.50144116  1
  Ca2+  Ca41  1  0.42537551  0.66631081  0.82784200  1
  Ca2+  Ca42  1  0.91707922  0.16266421  0.16897986  1
  Ca2+  Ca43  1  0.91983346  0.17606269  0.48986615  1
  Ca2+  Ca44  1  0.91517924  0.17263838  0.82872463  1
  Ca2+  Ca45  1  0.91489517  0.67472909  0.16614025  1
  Ca2+  Ca46  1  0.92975404  0.67061178  0.49013036  1
  Ca2+  Ca47  1  0.92162948  0.67474245  0.82773149  1
  Al0+  Al48  1  0.00061884  0.00127276  -0.00299681  1
  Al0+  Al49  1  0.00047659  -0.00075151  0.33599608  1
  Al0+  Al50  1  -0.00071150  0.00116848  0.67468344  1
  Al0+  Al51  1  0.00046048  0.49897432  0.00422806  1
  Al0+  Al52  1  0.00088552  0.50045040  0.32771949  1
  Al0+  Al53  1  -0.00137387  0.50220294  0.66550204  1
  Al0+  Al54  1  0.50013158  -0.00105533  0.00607803  1
  Al0+  Al55  1  0.50026719  0.00148237  0.33113546  1
  Al0+  Al56  1  0.50145521  -0.00038548  0.66287778  1
  Al0+  Al57  1  0.49834771  0.49992094  -0.00543777  1
  Al0+  Al58  1  0.49938768  0.50018005  0.33852689  1
  Al0+  Al59  1  0.50181041  0.49887116  0.65809465  1
  Al0+  Al60  1  0.24774311  0.24938003  0.00104669  1
  Al0+  Al61  1  0.25188149  0.25157321  0.32933353  1
  Al0+  Al62  1  0.24842431  0.24815378  0.67023837  1
  Al0+  Al63  1  0.25013104  0.74916568  0.00394727  1
  Al0+  Al64  1  0.25125899  0.75017197  0.33179940  1
  Al0+  Al65  1  0.25013061  0.74823570  0.66598268  1
  Al0+  Al66  1  0.75146232  0.24948691  0.00358379  1
  Al0+  Al67  1  0.74719379  0.24877582  0.33650568  1
  Al0+  Al68  1  0.74922245  0.25259931  0.66214179  1
  Al0+  Al69  1  0.75032626  0.75034131  -0.00552167  1
  Al0+  Al70  1  0.74881663  0.74917973  0.33590964  1
  Al0+  Al71  1  0.75147676  0.75065038  0.66249090  1
  Al0+  Al72  1  0.32250078  0.06965355  0.68174532  1
  Al0+  Al73  1  0.92668379  0.32063533  0.31651031  1
  Al0+  Al74  1  0.06978648  0.68100967  0.65607628  1
  Al0+  Al75  1  0.92791578  0.82088349  0.31939064  1
  Al0+  Al76  1  0.32174135  0.57057424  0.01402946  1
  Al0+  Al77  1  0.18068986  0.93023304  0.34622739  1
  Al0+  Al78  1  0.82019079  0.06830934  0.34919285  1
  Al0+  Al79  1  0.93000492  0.32131924  0.65447165  1
  Al0+  Al80  1  0.67727569  0.42830682  0.35023564  1
  Al0+  Al81  1  0.67876873  0.92708198  0.01437551  1
  Al0+  Al82  1  0.57454675  0.67722734  0.64786867  1
  Al0+  Al83  1  0.82299748  0.57160651  0.34912180  1
  Al0+  Al84  1  0.57017269  0.68012486  0.98779462  1
  Al0+  Al85  1  0.42923618  0.82026361  0.65223406  1
  Al0+  Al86  1  0.93086983  0.82122497  0.98492759  1
  Al0+  Al87  1  0.07434416  0.67762682  0.31550972  1
  Al0+  Al88  1  0.07152980  0.17953092  0.31954858  1
  Al0+  Al89  1  0.17782401  0.92566693  0.68393708  1
  Al0+  Al90  1  0.57107730  0.17857526  0.65207862  1
  Al0+  Al91  1  0.42902611  0.31925545  0.98630182  1
  Al0+  Al92  1  0.82251305  0.07221771  0.01577238  1
  Al0+  Al93  1  0.42481137  0.32017065  0.65040089  1
  Al0+  Al94  1  0.17749230  0.42985675  0.67821741  1
  Al0+  Al95  1  0.17731757  0.42702164  0.01800318  1
  Si0+  Si96  1  0.17925186  0.92886872  0.01552825  1
  Si0+  Si97  1  0.42982068  0.32256798  0.31682432  1
  Si0+  Si98  1  0.67900117  0.42978455  0.01126921  1
  Si0+  Si99  1  0.18041920  0.42880168  0.34779046  1
  Si0+  Si100  1  0.81995206  0.57161476  0.68291191  1
  Si0+  Si101  1  0.67493334  0.92700403  0.35218643  1
  Si0+  Si102  1  0.32461319  0.57058470  0.68209636  1
  Si0+  Si103  1  0.57077046  0.17799236  0.31547163  1
  Si0+  Si104  1  0.56852135  0.67914999  0.31855656  1
  Si0+  Si105  1  0.82133117  0.57121885  0.01289065  1
  Si0+  Si106  1  0.07281397  0.67673058  0.98266258  1
  Si0+  Si107  1  0.32099406  0.07125541  0.01592314  1
  Si0+  Si108  1  0.07094031  0.17618000  0.65198760  1
  Si0+  Si109  1  0.81959123  0.07371051  0.68205647  1
  Si0+  Si110  1  0.42958989  0.82191575  0.31743450  1
  Si0+  Si111  1  0.68050904  0.92822097  0.68070443  1
  Si0+  Si112  1  0.42528566  0.82423379  0.98543147  1
  Si0+  Si113  1  0.07081974  0.17897428  0.98280067  1
  Si0+  Si114  1  0.92824401  0.32213453  0.98562224  1
  Si0+  Si115  1  0.57288486  0.17734987  0.98605068  1
  Si0+  Si116  1  0.92883777  0.82484428  0.65107520  1
  Si0+  Si117  1  0.32145707  0.57109463  0.34965525  1
  Si0+  Si118  1  0.67898368  0.42901954  0.68341485  1
  Si0+  Si119  1  0.32382995  0.07447898  0.34889808  1
  O2-  O120  1  0.25337651  -0.00292382  0.05770329  1
  O2-  O121  1  0.25429773  0.00669565  0.39167045  1
  O2-  O122  1  0.25164993  -0.00316742  0.73341904  1
  O2-  O123  1  0.24887867  0.50063630  0.06645173  1
  O2-  O124  1  0.24655092  0.50399609  0.39073323  1
  O2-  O125  1  0.25790018  0.49905142  0.72486601  1
  O2-  O126  1  0.75087081  -0.00118046  0.06431062  1
  O2-  O127  1  0.74591220  -0.00696955  0.39681331  1
  O2-  O128  1  0.75063434  0.00027225  0.72329639  1
  O2-  O129  1  0.75039183  0.49966058  0.05418704  1
  O2-  O130  1  0.75460204  0.49557898  0.39935084  1
  O2-  O131  1  0.74641908  0.50330375  0.72671664  1
  O2-  O132  1  -0.00099072  0.24919938  0.26574204  1
  O2-  O133  1  0.00426466  0.24656505  0.60836514  1
  O2-  O134  1  -0.00013067  0.25180331  0.94307159  1
  O2-  O135  1  -0.00175681  0.74721550  0.26824595  1
  O2-  O136  1  0.00170403  0.76088061  0.60814912  1
  O2-  O137  1  0.00528469  0.74630087  0.93815183  1
  O2-  O138  1  0.50078906  0.25106734  0.27466677  1
  O2-  O139  1  0.49672975  0.24778076  0.60061730  1
  O2-  O140  1  0.50276090  0.24324921  0.94066467  1
  O2-  O141  1  0.50176821  0.75293363  0.27435896  1
  O2-  O142  1  0.49958350  0.74735052  0.60001606  1
  O2-  O143  1  0.49578430  0.75644527  0.94320404  1
  O2-  O144  1  0.07211930  0.17695598  0.08771376  1
  O2-  O145  1  0.07242779  0.18222743  0.43310149  1
  O2-  O146  1  0.06790027  0.17537323  0.75806741  1
  O2-  O147  1  0.07183521  0.67743437  0.08793397  1
  O2-  O148  1  0.07630193  0.67965879  0.42926599  1
  O2-  O149  1  0.06532984  0.67914669  0.76939094  1
  O2-  O150  1  0.57177667  0.18023093  0.09183186  1
  O2-  O151  1  0.56860736  0.17482830  0.42019070  1
  O2-  O152  1  0.57325920  0.18165548  0.76618141  1
  O2-  O153  1  0.56973065  0.67899074  0.10136702  1
  O2-  O154  1  0.56562706  0.67917136  0.42319891  1
  O2-  O155  1  0.57525538  0.67984011  0.76176760  1
  O2-  O156  1  0.18495696  0.42647281  0.24282581  1
  O2-  O157  1  0.17607395  0.43276492  0.56478154  1
  O2-  O158  1  0.17624307  0.42817095  0.90419658  1
  O2-  O159  1  0.18342977  0.93146930  0.23231579  1
  O2-  O160  1  0.17653339  0.92789014  0.57045256  1
  O2-  O161  1  0.17977122  0.92959371  0.91062194  1
  O2-  O162  1  0.67322700  0.43349546  0.23552935  1
  O2-  O163  1  0.68137433  0.42721753  0.57885131  1
  O2-  O164  1  0.68090094  0.42896530  0.90601152  1
  O2-  O165  1  0.67133996  0.92903900  0.24672336  1
  O2-  O166  1  0.68243234  0.92772920  0.57562945  1
  O2-  O167  1  0.67902088  0.92900100  0.90035733  1
  O2-  O168  1  0.43288558  0.31924678  0.10006707  1
  O2-  O169  1  0.42762168  0.32196905  0.42140504  1
  O2-  O170  1  0.42739727  0.32032249  0.76426761  1
  O2-  O171  1  0.42471897  0.82390050  0.09140477  1
  O2-  O172  1  0.42944074  0.82114917  0.42214574  1
  O2-  O173  1  0.43265383  0.81934666  0.76619623  1
  O2-  O174  1  0.92653372  0.32259162  0.09008532  1
  O2-  O175  1  0.93038336  0.31986507  0.43025018  1
  O2-  O176  1  0.92889146  0.32022326  0.76843041  1
  O2-  O177  1  0.93166697  0.82045378  0.09762327  1
  O2-  O178  1  0.93136455  0.82093796  0.43307613  1
  O2-  O179  1  0.92622466  0.82198796  0.75692582  1
  O2-  O180  1  0.32563195  0.07268562  0.24266683  1
  O2-  O181  1  0.31971469  0.06857918  0.56807049  1
  O2-  O182  1  0.32109672  0.07233944  0.91122850  1
  O2-  O183  1  0.32607510  0.56866295  0.24458830  1
  O2-  O184  1  0.32225873  0.57095887  0.57605155  1
  O2-  O185  1  0.32210112  0.56964025  0.90069326  1
  O2-  O186  1  0.81796846  0.06747918  0.23630496  1
  O2-  O187  1  0.82060713  0.07277645  0.57711382  1
  O2-  O188  1  0.81953192  0.07444791  0.90158883  1
  O2-  O189  1  0.81637489  0.57325443  0.23466935  1
  O2-  O190  1  0.82074043  0.57015973  0.57838166  1
  O2-  O191  1  0.82248874  0.56922684  0.90738007  1
  O2-  O192  1  0.04325058  0.08085143  0.26750157  1
  O2-  O193  1  0.04222346  0.08288056  0.60693670  1
  O2-  O194  1  0.04275558  0.08868148  0.93288653  1
  O2-  O195  1  0.05035654  0.57876298  0.26239353  1
  O2-  O196  1  0.03265620  0.58804879  0.59958228  1
  O2-  O197  1  0.04517273  0.58249192  0.93865516  1
  O2-  O198  1  0.54146136  0.08717302  0.26568917  1
  O2-  O199  1  0.54826968  0.08003693  0.59740720  1
  O2-  O200  1  0.54898585  0.08186031  0.94320148  1
  O2-  O201  1  0.53663514  0.58781284  0.27208132  1
  O2-  O202  1  0.55042830  0.57863723  0.59477090  1
  O2-  O203  1  0.53907245  0.58501598  0.93087534  1
  O2-  O204  1  0.17039278  0.20772292  0.26495171  1
  O2-  O205  1  0.16546962  0.19707717  0.60801688  1
  O2-  O206  1  0.16232266  0.20682423  0.93501665  1
  O2-  O207  1  0.17230847  0.70905290  0.26223634  1
  O2-  O208  1  0.16804490  0.70252146  0.60223467  1
  O2-  O209  1  0.16743377  0.70242332  0.93870745  1
  O2-  O210  1  0.66218717  0.20491992  0.26805363  1
  O2-  O211  1  0.66690298  0.21196198  0.59670916  1
  O2-  O212  1  0.66670227  0.20367653  0.94082529  1
  O2-  O213  1  0.66166746  0.70325071  0.27253867  1
  O2-  O214  1  0.67170542  0.70959892  0.59463781  1
  O2-  O215  1  0.66582774  0.70843029  0.93059134  1
  O2-  O216  1  0.07875636  0.45445600  0.07143479  1
  O2-  O217  1  0.08628488  0.45179380  0.39154398  1
  O2-  O218  1  0.08268331  0.46575302  0.73390451  1
  O2-  O219  1  0.08885282  0.96191388  0.06158205  1
  O2-  O220  1  0.08497700  0.95834582  0.40164533  1
  O2-  O221  1  0.08036209  0.95666094  0.73941542  1
  O2-  O222  1  0.58742999  0.45822710  0.05795928  1
  O2-  O223  1  0.58104671  0.46186356  0.40518543  1
  O2-  O224  1  0.58510218  0.45455309  0.72831307  1
  O2-  O225  1  0.58004879  0.95202057  0.07006123  1
  O2-  O226  1  0.58200733  0.95755547  0.39805488  1
  O2-  O227  1  0.58840249  0.95429039  0.72739438  1
  O2-  O228  1  0.20694417  0.32866122  0.07061121  1
  O2-  O229  1  0.21331023  0.33841464  0.39531771  1
  O2-  O230  1  0.20119989  0.33152835  0.73209813  1
  O2-  O231  1  0.20319699  0.83650801  0.06348253  1
  O2-  O232  1  0.21502128  0.83396013  0.39882880  1
  O2-  O233  1  0.20633919  0.82687091  0.73664993  1
  O2-  O234  1  0.70506586  0.33829442  0.06042114  1
  O2-  O235  1  0.69718758  0.32763325  0.40069710  1
  O2-  O236  1  0.71057803  0.33860780  0.73194729  1
  O2-  O237  1  0.70854420  0.82823615  0.06596785  1
  O2-  O238  1  0.69528943  0.83204402  0.39659873  1
  O2-  O239  1  0.70975454  0.83638719  0.72820154  1
  O2-  O240  1  0.45966799  0.41470167  0.27069384  1
  O2-  O241  1  0.45412084  0.41734037  0.59617001  1
  O2-  O242  1  0.46037644  0.41404990  0.93043700  1
  O2-  O243  1  0.45430956  0.91510464  0.27029778  1
  O2-  O244  1  0.45937700  0.91681835  0.59695790  1
  O2-  O245  1  0.44912967  0.91917075  0.94116312  1
  O2-  O246  1  0.95373063  0.41914768  0.26372854  1
  O2-  O247  1  0.96023952  0.41733636  0.60046641  1
  O2-  O248  1  0.95505890  0.41465443  0.93815911  1
  O2-  O249  1  0.95982917  0.91805135  0.26633586  1
  O2-  O250  1  0.94996193  0.92123789  0.60957052  1
  O2-  O251  1  0.96092838  0.91806247  0.93059342  1
  O2-  O252  1  0.33940133  0.29483701  0.26648285  1
  O2-  O253  1  0.32580416  0.29183394  0.59856955  1
  O2-  O254  1  0.33122612  0.28867985  0.93550163  1
  O2-  O255  1  0.33954104  0.79220897  0.26821145  1
  O2-  O256  1  0.33102300  0.79221422  0.59897744  1
  O2-  O257  1  0.33179273  0.79829648  0.93944835  1
  O2-  O258  1  0.82611517  0.29321332  0.26747159  1
  O2-  O259  1  0.83438425  0.29195285  0.59954779  1
  O2-  O260  1  0.83621074  0.29362678  0.93751540  1
  O2-  O261  1  0.82719061  0.79505032  0.26819383  1
  O2-  O262  1  0.83726619  0.79711612  0.60329295  1
  O2-  O263  1  0.83518878  0.78993951  0.92929320  1
  O2-  O264  1  0.41348785  0.04826587  0.06518224  1
  O2-  O265  1  0.41737511  0.04767755  0.39422723  1
  O2-  O266  1  0.42254642  0.04283135  0.73341083  1
  O2-  O267  1  0.41969672  0.53833160  0.06780527  1
  O2-  O268  1  0.41051831  0.54000155  0.39999389  1
  O2-  O269  1  0.42075863  0.54767036  0.72434922  1
  O2-  O270  1  0.92188718  0.04364611  0.06611766  1
  O2-  O271  1  0.91651049  0.03925793  0.40429104  1
  O2-  O272  1  0.91108346  0.04920566  0.73196063  1
  O2-  O273  1  0.91218101  0.54456980  0.06186108  1
  O2-  O274  1  0.92408880  0.54653236  0.39833950  1
  O2-  O275  1  0.90950832  0.54027673  0.73261493  1
  O2-  O276  1  0.28947014  0.16115196  0.06474941  1
  O2-  O277  1  0.30095017  0.16947598  0.39269908  1
  O2-  O278  1  0.29210159  0.16676381  0.73721870  1
  O2-  O279  1  0.29663108  0.66963468  0.06926540  1
  O2-  O280  1  0.29803432  0.66475025  0.39473490  1
  O2-  O281  1  0.29806716  0.66311125  0.72900618  1
  O2-  O282  1  0.79386216  0.17005890  0.07069297  1
  O2-  O283  1  0.78717044  0.16444230  0.40256343  1
  O2-  O284  1  0.78927299  0.16538660  0.72869193  1
  O2-  O285  1  0.79216777  0.66268922  0.05872384  1
  O2-  O286  1  0.79040791  0.66834056  0.40369247  1
  O2-  O287  1  0.79400450  0.66507915  0.72917020  1
