# generated using pymatgen
data_Ca2Al2SiO7
_symmetry_space_group_name_H-M   'P 1'
_cell_length_a   15.45690211
_cell_length_b   15.45716120
_cell_length_c   15.28312774
_cell_angle_alpha   89.99999708
_cell_angle_beta   89.99621384
_cell_angle_gamma   89.97782809
_symmetry_Int_Tables_number   1
_chemical_formula_structural   Ca2Al2SiO7
_chemical_formula_sum   'Ca48 Al48 Si24 O168'
_cell_volume   3651.44196251
_cell_formula_units_Z   24
loop_
 _symmetry_equiv_pos_site_id
 _symmetry_equiv_pos_as_xyz
  1  'x, y, z'
loop_
 _atom_type_symbol
 _atom_type_oxidation_number
  Ca2+  2.0
  Al0+  0.0
  Si0+  0.0
  O2-  -2.0
loop_
 _atom_site_type_symbol
 _atom_site_label
 _atom_site_symmetry_multiplicity
 _atom_site_fract_x
 _atom_site_fract_y
 _atom_site_fract_z
 _atom_site_occupancy
  Ca2+  Ca0  1  0.17822311  0.08951434  0.17049445  1
  Ca2+  Ca1  1  0.17245515  0.08472512  0.50221270  1
  Ca2+  Ca2  1  0.16856241  0.08904262  0.84119031  1
  Ca2+  Ca3  1  0.16418615  0.58315936  0.16321012  1
  Ca2+  Ca4  1  0.17398501  0.58600907  0.50937397  1
  Ca2+  Ca5  1  0.17000635  0.58664231  0.84175356  1
  Ca2+  Ca6  1  0.67597594  0.08350266  0.17703304  1
  Ca2+  Ca7  1  0.66815024  0.08198790  0.50420212  1
  Ca2+  Ca8  1  0.66513206  0.07840929  0.83334837  1
  Ca2+  Ca9  1  0.66145226  0.57290784  0.17160859  1
  Ca2+  Ca10  1  0.66048907  0.57829338  0.50108700  1
  Ca2+  Ca11  1  0.67296664  0.57299734  0.84268516  1
  Ca2+  Ca12  1  0.07792776  0.32878337  0.15395193  1
  Ca2+  Ca13  1  0.07871552  0.33052331  0.50154197  1
  Ca2+  Ca14  1  0.08232245  0.32926897  0.83065752  1
  Ca2+  Ca15  1  0.07268994  0.83164672  0.15817069  1
  Ca2+  Ca16  1  0.07530994  0.83073716  0.49834256  1
  Ca2+  Ca17  1  0.07467952  0.82495991  0.82937637  1
  Ca2+  Ca18  1  0.58249158  0.33391106  0.16811308  1
  Ca2+  Ca19  1  0.57941286  0.32430110  0.48968842  1
  Ca2+  Ca20  1  0.58516769  0.32685192  0.82929757  1
  Ca2+  Ca21  1  0.57367350  0.83004916  0.16593695  1
  Ca2+  Ca22  1  0.58167816  0.82817056  0.49163037  1
  Ca2+  Ca23  1  0.57724260  0.83605000  0.83067344  1
  Ca2+  Ca24  1  0.32805539  0.41751810  0.16919285  1
  Ca2+  Ca25  1  0.33689743  0.42208155  0.50462595  1
  Ca2+  Ca26  1  0.32468639  0.43063070  0.84402245  1
  Ca2+  Ca27  1  0.33900509  0.92375545  0.17000630  1
  Ca2+  Ca28  1  0.34088821  0.92135736  0.50100606  1
  Ca2+  Ca29  1  0.33038236  0.92356562  0.84451232  1
  Ca2+  Ca30  1  0.82201640  0.40975635  0.17010457  1
  Ca2+  Ca31  1  0.82721847  0.41299899  0.50221115  1
  Ca2+  Ca32  1  0.83218184  0.40791038  0.84095036  1
  Ca2+  Ca33  1  0.84038220  0.92148082  0.17571610  1
  Ca2+  Ca34  1  0.83164672  0.91722809  0.50535070  1
  Ca2+  Ca35  1  0.83004534  0.90771032  0.83425137  1
  Ca2+  Ca36  1  0.41788413  0.16554198  0.16673925  1
  Ca2+  Ca37  1  0.42855813  0.16808663  0.48958003  1
  Ca2+  Ca38  1  0.42029713  0.16696595  0.82915493  1
  Ca2+  Ca39  1  0.41677702  0.67427580  0.16299404  1
  Ca2+  Ca40  1  0.42125710  0.67116433  0.49065303  1
  Ca2+  Ca41  1  0.40640645  0.66975230  0.83307282  1
  Ca2+  Ca42  1  0.92214214  0.16804139  0.15798372  1
  Ca2+  Ca43  1  0.91859682  0.16541905  0.49960950  1
  Ca2+  Ca44  1  0.92869965  0.17806363  0.82929600  1
  Ca2+  Ca45  1  0.91839151  0.67970664  0.15794626  1
  Ca2+  Ca46  1  0.91750534  0.67744583  0.49690163  1
  Ca2+  Ca47  1  0.92929720  0.66913563  0.82813467  1
  Al0+  Al48  1  -0.00088392  0.00082583  -0.00952263  1
  Al0+  Al49  1  0.00196757  0.00000941  0.33566149  1
  Al0+  Al50  1  0.00059670  0.00166067  0.66143065  1
  Al0+  Al51  1  -0.00215727  0.50197630  -0.00157699  1
  Al0+  Al52  1  -0.00057935  0.49888739  0.33556175  1
  Al0+  Al53  1  0.00007149  0.49963326  0.65739649  1
  Al0+  Al54  1  0.50086459  -0.00124655  0.00063615  1
  Al0+  Al55  1  0.50209651  0.00033069  0.33069492  1
  Al0+  Al56  1  0.50173453  0.00029528  0.66769974  1
  Al0+  Al57  1  0.50042654  0.49943059  0.00737699  1
  Al0+  Al58  1  0.49863019  0.49818343  0.33140203  1
  Al0+  Al59  1  0.49946757  0.50120318  0.67485338  1
  Al0+  Al60  1  0.25298576  0.25167090  0.00427882  1
  Al0+  Al61  1  0.25048827  0.24978919  0.33788716  1
  Al0+  Al62  1  0.25031984  0.25257498  0.66427934  1
  Al0+  Al63  1  0.25031170  0.75324401  -0.00167580  1
  Al0+  Al64  1  0.24821487  0.74935469  0.33062923  1
  Al0+  Al65  1  0.24984242  0.75329525  0.66668572  1
  Al0+  Al66  1  0.74956840  0.24666667  0.00086353  1
  Al0+  Al67  1  0.75067455  0.24954115  0.34030865  1
  Al0+  Al68  1  0.74983629  0.24737562  0.66088837  1
  Al0+  Al69  1  0.74521708  0.74857985  -0.00182771  1
  Al0+  Al70  1  0.75154109  0.74863179  0.32406140  1
  Al0+  Al71  1  0.74795298  0.74869632  0.66956532  1
  Al0+  Al72  1  0.42740263  0.82160014  0.31892918  1
  Al0+  Al73  1  0.92791049  0.32127124  0.64888097  1
  Al0+  Al74  1  0.67814701  0.43077300  0.34954271  1
  Al0+  Al75  1  0.32205920  0.07136308  0.01340172  1
  Al0+  Al76  1  0.68107860  0.42601071  0.01395217  1
  Al0+  Al77  1  0.07056354  0.67969574  0.98568842  1
  Al0+  Al78  1  0.92665289  0.32047864  0.98838977  1
  Al0+  Al79  1  0.42711135  0.32013139  0.31769071  1
  Al0+  Al80  1  0.07444089  0.17894772  0.64882835  1
  Al0+  Al81  1  0.32014052  0.57457499  0.01867333  1
  Al0+  Al82  1  0.57178273  0.67676841  0.31826449  1
  Al0+  Al83  1  0.32055663  0.57278847  0.68007945  1
  Al0+  Al84  1  0.07514638  0.18077719  0.98698120  1
  Al0+  Al85  1  0.17671701  0.43024549  0.01509309  1
  Al0+  Al86  1  0.82346790  0.07031257  0.34796784  1
  Al0+  Al87  1  0.57373686  0.17940785  0.31679734  1
  Al0+  Al88  1  0.56859107  0.17798323  0.65335567  1
  Al0+  Al89  1  0.92595266  0.81953011  0.65069937  1
  Al0+  Al90  1  0.32257977  0.06975633  0.34898495  1
  Al0+  Al91  1  0.07355398  0.67977804  0.64975627  1
  Al0+  Al92  1  0.67977371  0.92838873  0.68052636  1
  Al0+  Al93  1  0.43106475  0.82113114  0.98481667  1
  Al0+  Al94  1  0.93134133  0.82129272  0.31989713  1
  Al0+  Al95  1  0.92488295  0.82323899  0.98330438  1
  Si0+  Si96  1  0.68015106  0.42747114  0.68159234  1
  Si0+  Si97  1  0.57065677  0.17883339  0.98532866  1
  Si0+  Si98  1  0.07111779  0.17984597  0.31912421  1
  Si0+  Si99  1  0.68019877  0.92634259  0.34768307  1
  Si0+  Si100  1  0.56983109  0.67719853  0.65499099  1
  Si0+  Si101  1  0.56926999  0.67488895  0.98079678  1
  Si0+  Si102  1  0.17875233  0.92707246  0.35072514  1
  Si0+  Si103  1  0.17824302  0.93083653  0.68192440  1
  Si0+  Si104  1  0.31863037  0.57111953  0.34820277  1
  Si0+  Si105  1  0.82089247  0.57374138  0.01661199  1
  Si0+  Si106  1  0.17675169  0.42796343  0.35093242  1
  Si0+  Si107  1  0.82337153  0.07242927  0.68554096  1
  Si0+  Si108  1  0.07189195  0.67531158  0.31623390  1
  Si0+  Si109  1  0.42993164  0.32268022  0.98511798  1
  Si0+  Si110  1  0.67789526  0.92736953  0.01634175  1
  Si0+  Si111  1  0.17601625  0.93052555  0.01499433  1
  Si0+  Si112  1  0.17690551  0.42882460  0.68250740  1
  Si0+  Si113  1  0.43001414  0.82143540  0.65329980  1
  Si0+  Si114  1  0.92956047  0.32105857  0.31858962  1
  Si0+  Si115  1  0.32129017  0.07128546  0.68073379  1
  Si0+  Si116  1  0.81990302  0.06751722  0.01224435  1
  Si0+  Si117  1  0.82278945  0.57252700  0.35021203  1
  Si0+  Si118  1  0.43019774  0.32444586  0.65324538  1
  Si0+  Si119  1  0.82104186  0.57041959  0.68035989  1
  O2-  O120  1  0.24283981  0.00094590  0.05964123  1
  O2-  O121  1  0.25167813  -0.00866558  0.39599828  1
  O2-  O122  1  0.24660235  0.00510108  0.72382747  1
  O2-  O123  1  0.24705876  0.50289154  0.06778728  1
  O2-  O124  1  0.24755940  0.50043995  0.39158785  1
  O2-  O125  1  0.24294573  0.50053345  0.72551465  1
  O2-  O126  1  0.75584313  -0.00887750  0.05658832  1
  O2-  O127  1  0.74836359  -0.00524772  0.39299149  1
  O2-  O128  1  0.75722138  0.00024695  0.72900408  1
  O2-  O129  1  0.75612002  0.50080994  0.06023982  1
  O2-  O130  1  0.75158712  0.50707824  0.39627971  1
  O2-  O131  1  0.75476552  0.49470005  0.72349369  1
  O2-  O132  1  0.00008552  0.25014210  0.27624691  1
  O2-  O133  1  -0.00001010  0.24875955  0.59918470  1
  O2-  O134  1  0.00548612  0.25605485  0.93863416  1
  O2-  O135  1  0.00361677  0.74465447  0.27339495  1
  O2-  O136  1  -0.00068839  0.74942715  0.59989398  1
  O2-  O137  1  -0.00348733  0.74990000  0.93587389  1
  O2-  O138  1  0.49939947  0.24868224  0.26641403  1
  O2-  O139  1  0.49571155  0.25420644  0.60758487  1
  O2-  O140  1  0.50013577  0.25048254  0.94300026  1
  O2-  O141  1  0.49935208  0.74913542  0.26969931  1
  O2-  O142  1  0.49866027  0.74779345  0.61246554  1
  O2-  O143  1  0.50028753  0.74258204  0.93537987  1
  O2-  O144  1  0.07178681  0.17891610  0.10106664  1
  O2-  O145  1  0.07090682  0.18141050  0.42407436  1
  O2-  O146  1  0.07708299  0.18220003  0.76216918  1
  O2-  O147  1  0.06788279  0.68268060  0.09966568  1
  O2-  O148  1  0.07265887  0.67555844  0.42177099  1
  O2-  O149  1  0.07373943  0.68159611  0.76286853  1
  O2-  O150  1  0.57251336  0.17843603  0.08986791  1
  O2-  O151  1  0.57197423  0.18045971  0.43063816  1
  O2-  O152  1  0.56663137  0.17854881  0.76723875  1
  O2-  O153  1  0.57046193  0.67688538  0.08606292  1
  O2-  O154  1  0.56963127  0.67805633  0.43306438  1
  O2-  O155  1  0.56962118  0.67582819  0.75970792  1
  O2-  O156  1  0.17393891  0.42734681  0.24632009  1
  O2-  O157  1  0.18083788  0.42746879  0.57651238  1
  O2-  O158  1  0.18093143  0.42871283  0.90135912  1
  O2-  O159  1  0.17578646  0.93019210  0.24540021  1
  O2-  O160  1  0.18192310  0.92869262  0.57679782  1
  O2-  O161  1  0.17897447  0.93147846  0.90900872  1
  O2-  O162  1  0.68162104  0.42950380  0.23653866  1
  O2-  O163  1  0.67674486  0.43098569  0.57681073  1
  O2-  O164  1  0.68174818  0.42577373  0.90000650  1
  O2-  O165  1  0.68216211  0.92788145  0.24183263  1
  O2-  O166  1  0.67694733  0.92829178  0.56766352  1
  O2-  O167  1  0.67465120  0.93074244  0.91104370  1
  O2-  O168  1  0.43002834  0.32219916  0.08980147  1
  O2-  O169  1  0.42860365  0.32038521  0.43204594  1
  O2-  O170  1  0.43244412  0.32391613  0.75905913  1
  O2-  O171  1  0.43536630  0.82362535  0.09726707  1
  O2-  O172  1  0.42875821  0.81899029  0.43349898  1
  O2-  O173  1  0.43101571  0.82343515  0.75825016  1
  O2-  O174  1  0.92334746  0.31367588  0.10222116  1
  O2-  O175  1  0.93187834  0.32215386  0.42344355  1
  O2-  O176  1  0.92709668  0.32009552  0.76233962  1
  O2-  O177  1  0.92757015  0.82460139  0.09719605  1
  O2-  O178  1  0.93149296  0.82019581  0.43277362  1
  O2-  O179  1  0.92627795  0.81471968  0.76376802  1
  O2-  O180  1  0.31905918  0.07115173  0.23607939  1
  O2-  O181  1  0.32319282  0.06785979  0.57580661  1
  O2-  O182  1  0.32493744  0.06938823  0.89957252  1
  O2-  O183  1  0.31637652  0.57212759  0.24375058  1
  O2-  O184  1  0.32384211  0.57040230  0.56643874  1
  O2-  O185  1  0.31992307  0.57152257  0.90461506  1
  O2-  O186  1  0.82515429  0.06967361  0.23409131  1
  O2-  O187  1  0.82048545  0.07217866  0.57984446  1
  O2-  O188  1  0.81524203  0.07054467  0.90757927  1
  O2-  O189  1  0.82593159  0.56917090  0.24500038  1
  O2-  O190  1  0.81571294  0.57279504  0.57536345  1
  O2-  O191  1  0.81698556  0.57526073  0.91066282  1
  O2-  O192  1  0.04490685  0.08761361  0.27295048  1
  O2-  O193  1  0.04879220  0.08024235  0.59545913  1
  O2-  O194  1  0.04480396  0.08476738  0.93081072  1
  O2-  O195  1  0.04567920  0.58116163  0.27165532  1
  O2-  O196  1  0.04965879  0.58086116  0.59656799  1
  O2-  O197  1  0.04451554  0.58118032  0.93159920  1
  O2-  O198  1  0.54969452  0.07988705  0.26524059  1
  O2-  O199  1  0.53601345  0.08264969  0.59840577  1
  O2-  O200  1  0.54131069  0.08774880  0.93746811  1
  O2-  O201  1  0.54192454  0.57951764  0.26571966  1
  O2-  O202  1  0.54146972  0.58524547  0.60756841  1
  O2-  O203  1  0.54623491  0.57967678  0.93672501  1
  O2-  O204  1  0.16292490  0.20892481  0.27372064  1
  O2-  O205  1  0.17268162  0.20933704  0.59489333  1
  O2-  O206  1  0.17488896  0.20657439  0.93528547  1
  O2-  O207  1  0.16516560  0.69960941  0.26991106  1
  O2-  O208  1  0.17094384  0.71307226  0.59614970  1
  O2-  O209  1  0.16838388  0.70978327  0.93322377  1
  O2-  O210  1  0.67284583  0.21036852  0.26676648  1
  O2-  O211  1  0.66519284  0.20496866  0.59957915  1
  O2-  O212  1  0.66124888  0.20727195  0.93599637  1
  O2-  O213  1  0.66952568  0.70160886  0.26265909  1
  O2-  O214  1  0.66074200  0.70445743  0.60659231  1
  O2-  O215  1  0.66220841  0.70172304  0.93375980  1
  O2-  O216  1  0.07636113  0.45534379  0.06721973  1
  O2-  O217  1  0.08501997  0.45548213  0.39973790  1
  O2-  O218  1  0.08069148  0.45018397  0.72408033  1
  O2-  O219  1  0.08046452  0.95393235  0.05834368  1
  O2-  O220  1  0.08845881  0.95865385  0.40035508  1
  O2-  O221  1  0.08482696  0.95534290  0.72751002  1
  O2-  O222  1  0.58547373  0.45677422  0.06907361  1
  O2-  O223  1  0.58038693  0.46004404  0.40318677  1
  O2-  O224  1  0.59039978  0.45804502  0.73214952  1
  O2-  O225  1  0.58995720  0.96285829  0.06554961  1
  O2-  O226  1  0.58622946  0.95060656  0.39351228  1
  O2-  O227  1  0.58472217  0.96431324  0.73691295  1
  O2-  O228  1  0.20839688  0.33314629  0.06976697  1
  O2-  O229  1  0.20586908  0.33756062  0.40038623  1
  O2-  O230  1  0.20560501  0.33610309  0.72940201  1
  O2-  O231  1  0.20302226  0.83830111  0.06202242  1
  O2-  O232  1  0.19927986  0.83118699  0.39533077  1
  O2-  O233  1  0.20975420  0.84109609  0.73106928  1
  O2-  O234  1  0.71169140  0.32951135  0.06880131  1
  O2-  O235  1  0.71168542  0.33567686  0.40503435  1
  O2-  O236  1  0.70515169  0.33354814  0.72628871  1
  O2-  O237  1  0.69622329  0.83230225  0.06095045  1
  O2-  O238  1  0.70554542  0.83130810  0.39147414  1
  O2-  O239  1  0.70568687  0.83084095  0.73677624  1
  O2-  O240  1  0.45415727  0.41806768  0.26481780  1
  O2-  O241  1  0.45892106  0.41760361  0.60766560  1
  O2-  O242  1  0.45963230  0.41421055  0.93826997  1
  O2-  O243  1  0.45654423  0.91919974  0.26612592  1
  O2-  O244  1  0.46133374  0.91170476  0.60539736  1
  O2-  O245  1  0.46743257  0.91606778  0.92942185  1
  O2-  O246  1  0.95663120  0.41331164  0.27182145  1
  O2-  O247  1  0.95382485  0.41892960  0.59276011  1
  O2-  O248  1  0.94336596  0.42219149  0.93907740  1
  O2-  O249  1  0.96531246  0.91751791  0.26667098  1
  O2-  O250  1  0.95208293  0.91954306  0.60103366  1
  O2-  O251  1  0.95201150  0.92015916  0.92734583  1
  O2-  O252  1  0.32780200  0.29149173  0.26688767  1
  O2-  O253  1  0.33566463  0.30380565  0.60798371  1
  O2-  O254  1  0.33891177  0.29503333  0.93695562  1
  O2-  O255  1  0.32852946  0.79454743  0.26656898  1
  O2-  O256  1  0.33801397  0.79758267  0.60549358  1
  O2-  O257  1  0.33282384  0.79698448  0.93140519  1
  O2-  O258  1  0.83715704  0.29262725  0.27467025  1
  O2-  O259  1  0.82997303  0.29183987  0.59528786  1
  O2-  O260  1  0.83173032  0.28335281  0.93271043  1
  O2-  O261  1  0.83553246  0.79402967  0.26314804  1
  O2-  O262  1  0.82715182  0.78860077  0.59912125  1
  O2-  O263  1  0.82434078  0.79585009  0.93451303  1
  O2-  O264  1  0.41717491  0.03543280  0.06747797  1
  O2-  O265  1  0.42096491  0.04092836  0.40155961  1
  O2-  O266  1  0.41134955  0.03973116  0.72941766  1
  O2-  O267  1  0.41856673  0.54481810  0.07021297  1
  O2-  O268  1  0.41052414  0.54275406  0.39522607  1
  O2-  O269  1  0.41530371  0.54124703  0.73841532  1
  O2-  O270  1  0.91448362  0.04549540  0.05730652  1
  O2-  O271  1  0.91949657  0.03930371  0.40320326  1
  O2-  O272  1  0.91960030  0.05198902  0.72800871  1
  O2-  O273  1  0.91596574  0.55585912  0.06136044  1
  O2-  O274  1  0.91506682  0.54404923  0.39889467  1
  O2-  O275  1  0.91578825  0.54638823  0.72331487  1
  O2-  O276  1  0.29704466  0.16841935  0.06861875  1
  O2-  O277  1  0.28854605  0.16512708  0.40454615  1
  O2-  O278  1  0.29842708  0.16604220  0.72530250  1
  O2-  O279  1  0.29387368  0.67481428  0.06872107  1
  O2-  O280  1  0.29136019  0.66342584  0.39642623  1
  O2-  O281  1  0.29227594  0.67110322  0.73221008  1
  O2-  O282  1  0.78651837  0.15601838  0.06297730  1
  O2-  O283  1  0.79303068  0.16546841  0.40445171  1
  O2-  O284  1  0.79210014  0.16499928  0.73090747  1
  O2-  O285  1  0.78929493  0.66560694  0.06423392  1
  O2-  O286  1  0.79882683  0.66800531  0.39335863  1
  O2-  O287  1  0.78859779  0.65877767  0.73137769  1
