# generated using pymatgen
data_Ca2Al2SiO7
_symmetry_space_group_name_H-M   'P 1'
_cell_length_a   15.45552883
_cell_length_b   15.45520542
_cell_length_c   15.28083623
_cell_angle_alpha   90.01064463
_cell_angle_beta   90.01381624
_cell_angle_gamma   90.00429817
_symmetry_Int_Tables_number   1
_chemical_formula_structural   Ca2Al2SiO7
_chemical_formula_sum   'Ca48 Al48 Si24 O168'
_cell_volume   3650.10830560
_cell_formula_units_Z   24
loop_
 _symmetry_equiv_pos_site_id
 _symmetry_equiv_pos_as_xyz
  1  'x, y, z'
loop_
 _atom_type_symbol
 _atom_type_oxidation_number
  Ca2+  2.0
  Al0+  0.0
  Si0+  0.0
  O2-  -2.0
loop_
 _atom_site_type_symbol
 _atom_site_label
 _atom_site_symmetry_multiplicity
 _atom_site_fract_x
 _atom_site_fract_y
 _atom_site_fract_z
 _atom_site_occupancy
  Ca2+  Ca0  1  0.17026703  0.07859724  0.16889094  1
  Ca2+  Ca1  1  0.18165458  0.08811443  0.50651668  1
  Ca2+  Ca2  1  0.16957178  0.08168103  0.83799006  1
  Ca2+  Ca3  1  0.16413240  0.57483674  0.17050549  1
  Ca2+  Ca4  1  0.16786313  0.57046824  0.50491762  1
  Ca2+  Ca5  1  0.16246428  0.57415522  0.84035708  1
  Ca2+  Ca6  1  0.66811198  0.07455629  0.17668485  1
  Ca2+  Ca7  1  0.65857449  0.07629102  0.50224991  1
  Ca2+  Ca8  1  0.66147383  0.07282415  0.83506659  1
  Ca2+  Ca9  1  0.65488264  0.57380652  0.16666906  1
  Ca2+  Ca10  1  0.66720645  0.57628586  0.50464476  1
  Ca2+  Ca11  1  0.67119940  0.58477104  0.84037941  1
  Ca2+  Ca12  1  0.08601646  0.32945114  0.15990174  1
  Ca2+  Ca13  1  0.08808778  0.33198003  0.49888051  1
  Ca2+  Ca14  1  0.09138504  0.32544234  0.82910121  1
  Ca2+  Ca15  1  0.08412878  0.82846935  0.15460188  1
  Ca2+  Ca16  1  0.07263751  0.83654220  0.49776854  1
  Ca2+  Ca17  1  0.08006356  0.83053051  0.82925268  1
  Ca2+  Ca18  1  0.58460056  0.33160695  0.16306467  1
  Ca2+  Ca19  1  0.58004674  0.32148575  0.48760170  1
  Ca2+  Ca20  1  0.58401121  0.32698566  0.82764327  1
  Ca2+  Ca21  1  0.57573919  0.83809900  0.16095768  1
  Ca2+  Ca22  1  0.57694161  0.84081322  0.49599731  1
  Ca2+  Ca23  1  0.57678147  0.83963345  0.82894518  1
  Ca2+  Ca24  1  0.32422705  0.41291318  0.17398885  1
  Ca2+  Ca25  1  0.32465179  0.40545693  0.50148343  1
  Ca2+  Ca26  1  0.32248569  0.41600196  0.83808155  1
  Ca2+  Ca27  1  0.33333945  0.91657225  0.17030249  1
  Ca2+  Ca28  1  0.34504535  0.92694193  0.50300979  1
  Ca2+  Ca29  1  0.33601437  0.92062695  0.83726784  1
  Ca2+  Ca30  1  0.81994230  0.41665037  0.16995129  1
  Ca2+  Ca31  1  0.82756959  0.42143016  0.50299763  1
  Ca2+  Ca32  1  0.82862622  0.42247797  0.83667037  1
  Ca2+  Ca33  1  0.82189036  0.92144881  0.17323446  1
  Ca2+  Ca34  1  0.82194424  0.91960440  0.50477712  1
  Ca2+  Ca35  1  0.82246467  0.91005399  0.83555515  1
  Ca2+  Ca36  1  0.41781295  0.16735222  0.17351625  1
  Ca2+  Ca37  1  0.42460594  0.16320608  0.49333870  1
  Ca2+  Ca38  1  0.42069907  0.16479170  0.82500576  1
  Ca2+  Ca39  1  0.42108985  0.67943037  0.15719792  1
  Ca2+  Ca40  1  0.41291358  0.68148999  0.49492096  1
  Ca2+  Ca41  1  0.42135901  0.67930144  0.83218608  1
  Ca2+  Ca42  1  0.91990374  0.16531561  0.16167000  1
  Ca2+  Ca43  1  0.92505843  0.15960985  0.49578825  1
  Ca2+  Ca44  1  0.93163973  0.16413849  0.82871250  1
  Ca2+  Ca45  1  0.92421329  0.66670403  0.16110509  1
  Ca2+  Ca46  1  0.90991028  0.66948374  0.50344165  1
  Ca2+  Ca47  1  0.91869251  0.66881141  0.82751633  1
  Al0+  Al48  1  0.00217654  0.00123337  -0.00093990  1
  Al0+  Al49  1  -0.00109933  -0.00153259  0.33339171  1
  Al0+  Al50  1  0.00062617  -0.00042330  0.65637117  1
  Al0+  Al51  1  -0.00143753  0.49948978  0.00061771  1
  Al0+  Al52  1  0.00044378  0.49848787  0.33731104  1
  Al0+  Al53  1  -0.00096204  0.49844871  0.67477618  1
  Al0+  Al54  1  0.50050570  0.00289192  0.00195407  1
  Al0+  Al55  1  0.49899502  0.00028788  0.32978999  1
  Al0+  Al56  1  0.49982662  0.00108354  0.66832864  1
  Al0+  Al57  1  0.49928533  0.50154914  -0.00243815  1
  Al0+  Al58  1  0.49714441  0.50101091  0.33660112  1
  Al0+  Al59  1  0.49750342  0.50050403  0.66721213  1
  Al0+  Al60  1  0.25075341  0.25041661  0.00069779  1
  Al0+  Al61  1  0.25032280  0.24782733  0.33637730  1
  Al0+  Al62  1  0.25064404  0.24877665  0.67228507  1
  Al0+  Al63  1  0.24972168  0.75092239  -0.00637679  1
  Al0+  Al64  1  0.24809350  0.74823826  0.32980495  1
  Al0+  Al65  1  0.24974228  0.74909697  0.66028428  1
  Al0+  Al66  1  0.75088941  0.25205107  0.00101390  1
  Al0+  Al67  1  0.75356607  0.25032691  0.33668082  1
  Al0+  Al68  1  0.75232930  0.24838471  0.66292975  1
  Al0+  Al69  1  0.75017481  0.75021660  0.00456426  1
  Al0+  Al70  1  0.75064334  0.75005823  0.33418226  1
  Al0+  Al71  1  0.75022137  0.74891462  0.67039323  1
  Al0+  Al72  1  0.32034112  0.06828012  0.68136032  1
  Al0+  Al73  1  0.42777849  0.32159078  0.31860476  1
  Al0+  Al74  1  0.07060397  0.67756833  0.98613143  1
  Al0+  Al75  1  0.67867070  0.92962985  0.01473745  1
  Al0+  Al76  1  0.67792665  0.42950852  0.01211328  1
  Al0+  Al77  1  0.57211778  0.67818183  0.98467312  1
  Al0+  Al78  1  0.67864975  0.92976506  0.34908039  1
  Al0+  Al79  1  0.43015944  0.82438471  0.98312576  1
  Al0+  Al80  1  0.42973979  0.82058898  0.65176891  1
  Al0+  Al81  1  0.92787373  0.81940857  0.65257958  1
  Al0+  Al82  1  0.07165566  0.17998372  0.98731183  1
  Al0+  Al83  1  0.18161556  0.43034291  0.68278983  1
  Al0+  Al84  1  0.17918595  0.42921639  0.01531820  1
  Al0+  Al85  1  0.42933926  0.82114976  0.31818306  1
  Al0+  Al86  1  0.67630865  0.42950131  0.34720856  1
  Al0+  Al87  1  0.81799576  0.56965156  0.68132053  1
  Al0+  Al88  1  0.68038942  0.93173128  0.68125686  1
  Al0+  Al89  1  0.18011320  0.42905675  0.34765783  1
  Al0+  Al90  1  0.17952460  0.92883890  0.01083456  1
  Al0+  Al91  1  0.57351851  0.18002792  0.31634227  1
  Al0+  Al92  1  0.07234673  0.18002135  0.65106228  1
  Al0+  Al93  1  0.82373788  0.07209567  0.34899794  1
  Al0+  Al94  1  0.57142048  0.18019545  0.65398357  1
  Al0+  Al95  1  0.31798309  0.06754012  0.34626888  1
  Si0+  Si96  1  0.17527692  0.92667326  0.68026044  1
  Si0+  Si97  1  0.57274368  0.18136015  0.98544101  1
  Si0+  Si98  1  0.32096259  0.57451315  0.35021964  1
  Si0+  Si99  1  0.93061195  0.32337598  0.31810257  1
  Si0+  Si100  1  0.57258363  0.67682024  0.64995497  1
  Si0+  Si101  1  0.32115723  0.57248305  0.01583759  1
  Si0+  Si102  1  0.67625229  0.42527281  0.68183422  1
  Si0+  Si103  1  0.82193775  0.57260436  0.01849105  1
  Si0+  Si104  1  0.57384089  0.67737622  0.31811258  1
  Si0+  Si105  1  0.42863256  0.32173119  0.98488587  1
  Si0+  Si106  1  0.92924494  0.32318940  0.64919863  1
  Si0+  Si107  1  0.32262542  0.57666064  0.68469107  1
  Si0+  Si108  1  0.17651922  0.92385516  0.34974400  1
  Si0+  Si109  1  0.07078606  0.67484151  0.64899451  1
  Si0+  Si110  1  0.06884177  0.67745885  0.31918782  1
  Si0+  Si111  1  0.32279951  0.07308777  0.01837572  1
  Si0+  Si112  1  0.82310745  0.07224836  0.01395692  1
  Si0+  Si113  1  0.82613429  0.07280591  0.68368959  1
  Si0+  Si114  1  0.92632524  0.32163245  0.98277815  1
  Si0+  Si115  1  0.42804595  0.32288283  0.65220973  1
  Si0+  Si116  1  0.07111100  0.17905615  0.31826824  1
  Si0+  Si117  1  0.92842270  0.82081900  0.31646063  1
  Si0+  Si118  1  0.92865808  0.82256523  0.98483728  1
  Si0+  Si119  1  0.82314164  0.57081841  0.34955598  1
  O2-  O120  1  0.25518848  0.00142094  0.05935520  1
  O2-  O121  1  0.24601889  -0.00941268  0.39432048  1
  O2-  O122  1  0.24530374  -0.00722465  0.72585891  1
  O2-  O123  1  0.25200383  0.50519310  0.06252442  1
  O2-  O124  1  0.25716224  0.50102039  0.39456148  1
  O2-  O125  1  0.25481900  0.50697272  0.72883172  1
  O2-  O126  1  0.75428953  0.00461645  0.05896823  1
  O2-  O127  1  0.74833310  0.00417953  0.39944076  1
  O2-  O128  1  0.75656893  0.00569459  0.72869957  1
  O2-  O129  1  0.74950480  0.50671931  0.06064610  1
  O2-  O130  1  0.74987787  0.50635249  0.39255080  1
  O2-  O131  1  0.74171298  0.49616102  0.72729420  1
  O2-  O132  1  -0.00157231  0.24871207  0.27638037  1
  O2-  O133  1  -0.00376896  0.25337107  0.60390352  1
  O2-  O134  1  -0.00230803  0.25525947  0.93962705  1
  O2-  O135  1  0.00076685  0.75058370  0.27543493  1
  O2-  O136  1  0.00440305  0.74585269  0.60448844  1
  O2-  O137  1  -0.00347167  0.75319816  0.94023530  1
  O2-  O138  1  0.50480852  0.25613913  0.26613368  1
  O2-  O139  1  0.50253247  0.26090136  0.60877854  1
  O2-  O140  1  0.50139718  0.25218766  0.94332985  1
  O2-  O141  1  0.50619406  0.74717835  0.27417576  1
  O2-  O142  1  0.50263695  0.74352073  0.60507567  1
  O2-  O143  1  0.50541893  0.75468210  0.93413456  1
  O2-  O144  1  0.06972089  0.18067777  0.10085177  1
  O2-  O145  1  0.07133343  0.18103043  0.42332957  1
  O2-  O146  1  0.07198473  0.18069509  0.76435445  1
  O2-  O147  1  0.06795425  0.67741544  0.09996272  1
  O2-  O148  1  0.06705866  0.67671747  0.42411874  1
  O2-  O149  1  0.06956306  0.67497845  0.75459389  1
  O2-  O150  1  0.57442381  0.18231965  0.09009173  1
  O2-  O151  1  0.56986096  0.17908495  0.42996833  1
  O2-  O152  1  0.56908904  0.18112290  0.76806692  1
  O2-  O153  1  0.56683702  0.67559185  0.09824193  1
  O2-  O154  1  0.57440893  0.67726381  0.42386727  1
  O2-  O155  1  0.57204957  0.67669277  0.75532981  1
  O2-  O156  1  0.17784676  0.43126691  0.23460599  1
  O2-  O157  1  0.18234311  0.43051866  0.56941653  1
  O2-  O158  1  0.18169007  0.42835076  0.90236686  1
  O2-  O159  1  0.17506670  0.92418158  0.24382971  1
  O2-  O160  1  0.17430230  0.92850656  0.57457846  1
  O2-  O161  1  0.17692027  0.93152633  0.89789871  1
  O2-  O162  1  0.67851702  0.43096856  0.23379483  1
  O2-  O163  1  0.67786388  0.42654987  0.57632955  1
  O2-  O164  1  0.68178241  0.42681875  0.89909842  1
  O2-  O165  1  0.68177792  0.92911643  0.23526836  1
  O2-  O166  1  0.67955469  0.93216440  0.56863409  1
  O2-  O167  1  0.67882294  0.93157139  0.90142412  1
  O2-  O168  1  0.42700865  0.32149234  0.08964968  1
  O2-  O169  1  0.42690566  0.31725307  0.43219853  1
  O2-  O170  1  0.42824445  0.32207054  0.75840319  1
  O2-  O171  1  0.42981291  0.82299234  0.09688467  1
  O2-  O172  1  0.42903582  0.81981254  0.43143743  1
  O2-  O173  1  0.43038405  0.82098101  0.76451121  1
  O2-  O174  1  0.92414012  0.32000414  0.08860956  1
  O2-  O175  1  0.93375266  0.32844234  0.42294055  1
  O2-  O176  1  0.92912639  0.32281121  0.75485782  1
  O2-  O177  1  0.93081897  0.82165642  0.09083722  1
  O2-  O178  1  0.92842591  0.81974400  0.42151970  1
  O2-  O179  1  0.92908145  0.81765111  0.76581129  1
  O2-  O180  1  0.31371866  0.06871377  0.23311292  1
  O2-  O181  1  0.32087400  0.06892221  0.56831911  1
  O2-  O182  1  0.32323561  0.07477924  0.91264430  1
  O2-  O183  1  0.31633687  0.57784591  0.24479267  1
  O2-  O184  1  0.32127255  0.57778885  0.57908136  1
  O2-  O185  1  0.32020641  0.56872856  0.91015483  1
  O2-  O186  1  0.82787409  0.06724200  0.23497219  1
  O2-  O187  1  0.82658093  0.07099639  0.57847952  1
  O2-  O188  1  0.82315838  0.07227592  0.90837812  1
  O2-  O189  1  0.82853291  0.56823086  0.24427040  1
  O2-  O190  1  0.81679173  0.56757971  0.56782707  1
  O2-  O191  1  0.82346422  0.57094417  0.91293820  1
  O2-  O192  1  0.04450108  0.08576875  0.27220262  1
  O2-  O193  1  0.04440263  0.08422012  0.59420521  1
  O2-  O194  1  0.04056352  0.08422576  0.93122090  1
  O2-  O195  1  0.03739801  0.58641886  0.27140798  1
  O2-  O196  1  0.04013773  0.58180813  0.60438416  1
  O2-  O197  1  0.03754856  0.58135087  0.93218073  1
  O2-  O198  1  0.53945805  0.08377374  0.26244361  1
  O2-  O199  1  0.53408999  0.08637526  0.60027480  1
  O2-  O200  1  0.54331237  0.09023045  0.93823421  1
  O2-  O201  1  0.54600122  0.58392370  0.27296463  1
  O2-  O202  1  0.54869440  0.58157740  0.60459623  1
  O2-  O203  1  0.54184642  0.58091095  0.92881356  1
  O2-  O204  1  0.16155290  0.20871199  0.27051511  1
  O2-  O205  1  0.16897934  0.21456895  0.59941115  1
  O2-  O206  1  0.16838099  0.21090239  0.93342399  1
  O2-  O207  1  0.16065917  0.70139955  0.27023358  1
  O2-  O208  1  0.16499705  0.69590024  0.60229249  1
  O2-  O209  1  0.16621968  0.70546363  0.92996382  1
  O2-  O210  1  0.67519254  0.20433769  0.26754120  1
  O2-  O211  1  0.67033142  0.20309194  0.60053947  1
  O2-  O212  1  0.66436163  0.20935098  0.93727150  1
  O2-  O213  1  0.66885878  0.69876450  0.27221545  1
  O2-  O214  1  0.66619766  0.70207762  0.60482105  1
  O2-  O215  1  0.67444965  0.70038387  0.93737573  1
  O2-  O216  1  0.08049171  0.45676202  0.06694708  1
  O2-  O217  1  0.08511954  0.46298782  0.40329273  1
  O2-  O218  1  0.08471313  0.45837348  0.73717858  1
  O2-  O219  1  0.08374873  0.96074609  0.06755133  1
  O2-  O220  1  0.08298722  0.95077349  0.39459739  1
  O2-  O221  1  0.08164079  0.95391193  0.72534590  1
  O2-  O222  1  0.58008994  0.45778685  0.06517479  1
  O2-  O223  1  0.57949744  0.45746536  0.40259642  1
  O2-  O224  1  0.58040187  0.44648502  0.72558503  1
  O2-  O225  1  0.58319967  0.96356081  0.06858137  1
  O2-  O226  1  0.57927305  0.95752685  0.39898413  1
  O2-  O227  1  0.58566412  0.96632440  0.73613461  1
  O2-  O228  1  0.21227747  0.33300157  0.06888101  1
  O2-  O229  1  0.20927735  0.33235611  0.40155791  1
  O2-  O230  1  0.21516734  0.33529522  0.73786904  1
  O2-  O231  1  0.20668086  0.83061797  0.06410319  1
  O2-  O232  1  0.19756573  0.82876594  0.39435746  1
  O2-  O233  1  0.19720585  0.83031018  0.72222843  1
  O2-  O234  1  0.71214814  0.33452191  0.06827796  1
  O2-  O235  1  0.71108585  0.33471747  0.40122098  1
  O2-  O236  1  0.70549502  0.33226671  0.72768604  1
  O2-  O237  1  0.70804315  0.83305763  0.06956669  1
  O2-  O238  1  0.70916783  0.83083358  0.40063485  1
  O2-  O239  1  0.71067136  0.83466412  0.73435183  1
  O2-  O240  1  0.44606084  0.42444818  0.27023197  1
  O2-  O241  1  0.44358840  0.41940933  0.60735629  1
  O2-  O242  1  0.45392694  0.41338339  0.93623126  1
  O2-  O243  1  0.45774996  0.91693053  0.26260851  1
  O2-  O244  1  0.46482724  0.91622210  0.59954429  1
  O2-  O245  1  0.45769165  0.92457588  0.93266906  1
  O2-  O246  1  0.96232416  0.41339413  0.26864929  1
  O2-  O247  1  0.95754507  0.41654824  0.60385951  1
  O2-  O248  1  0.94948541  0.41613933  0.93824345  1
  O2-  O249  1  0.95625833  0.91224586  0.26833751  1
  O2-  O250  1  0.95744853  0.91430997  0.59442716  1
  O2-  O251  1  0.95426605  0.91559750  0.93840789  1
  O2-  O252  1  0.33066030  0.28637166  0.26520545  1
  O2-  O253  1  0.33645611  0.29060251  0.60708770  1
  O2-  O254  1  0.33826197  0.29104074  0.93606159  1
  O2-  O255  1  0.33142613  0.78931121  0.26558798  1
  O2-  O256  1  0.33238505  0.79266435  0.59614577  1
  O2-  O257  1  0.33263960  0.79445157  0.92940460  1
  O2-  O258  1  0.83829929  0.29869778  0.27039503  1
  O2-  O259  1  0.83507331  0.30073148  0.60252592  1
  O2-  O260  1  0.83417651  0.29459185  0.93368927  1
  O2-  O261  1  0.83735457  0.79161744  0.26817315  1
  O2-  O262  1  0.83250569  0.78442552  0.59822146  1
  O2-  O263  1  0.83468226  0.79642035  0.94051488  1
  O2-  O264  1  0.41642522  0.04996773  0.06491046  1
  O2-  O265  1  0.41539917  0.03853372  0.39849799  1
  O2-  O266  1  0.41539733  0.03715744  0.73753110  1
  O2-  O267  1  0.41442620  0.54644422  0.06169568  1
  O2-  O268  1  0.41558732  0.55657811  0.39656133  1
  O2-  O269  1  0.41707302  0.55228968  0.73038366  1
  O2-  O270  1  0.91641541  0.04703042  0.06085900  1
  O2-  O271  1  0.92082680  0.03837951  0.40301670  1
  O2-  O272  1  0.92051628  0.04514509  0.72738919  1
  O2-  O273  1  0.91344142  0.54204202  0.06650965  1
  O2-  O274  1  0.91356741  0.54027620  0.39966144  1
  O2-  O275  1  0.91331191  0.53825219  0.73772322  1
  O2-  O276  1  0.29363088  0.16524275  0.06492167  1
  O2-  O277  1  0.28528156  0.16229264  0.40248888  1
  O2-  O278  1  0.28975327  0.16387719  0.73744032  1
  O2-  O279  1  0.29624036  0.66700820  0.05955627  1
  O2-  O280  1  0.28784260  0.66523269  0.39904416  1
  O2-  O281  1  0.29586334  0.67000813  0.73060402  1
  O2-  O282  1  0.79869170  0.16640143  0.05982200  1
  O2-  O283  1  0.80732514  0.17340960  0.39980927  1
  O2-  O284  1  0.80399863  0.16824676  0.72800193  1
  O2-  O285  1  0.80248402  0.66686334  0.06558919  1
  O2-  O286  1  0.80168255  0.66597881  0.39394800  1
  O2-  O287  1  0.78979061  0.66529742  0.73789391  1
