# generated using pymatgen
data_Ca2Al2SiO7
_symmetry_space_group_name_H-M   'P 1'
_cell_length_a   15.46123511
_cell_length_b   15.46070665
_cell_length_c   15.28515272
_cell_angle_alpha   90.00501635
_cell_angle_beta   89.98436478
_cell_angle_gamma   90.00325735
_symmetry_Int_Tables_number   1
_chemical_formula_structural   Ca2Al2SiO7
_chemical_formula_sum   'Ca48 Al48 Si24 O168'
_cell_volume   3653.78751883
_cell_formula_units_Z   24
loop_
 _symmetry_equiv_pos_site_id
 _symmetry_equiv_pos_as_xyz
  1  'x, y, z'
loop_
 _atom_type_symbol
 _atom_type_oxidation_number
  Ca2+  2.0
  Al0+  0.0
  Si0+  0.0
  O2-  -2.0
loop_
 _atom_site_type_symbol
 _atom_site_label
 _atom_site_symmetry_multiplicity
 _atom_site_fract_x
 _atom_site_fract_y
 _atom_site_fract_z
 _atom_site_occupancy
  Ca2+  Ca0  1  0.16272603  0.07799662  0.17353113  1
  Ca2+  Ca1  1  0.17167620  0.08518920  0.49923557  1
  Ca2+  Ca2  1  0.16509714  0.08523512  0.83552111  1
  Ca2+  Ca3  1  0.16593566  0.57447882  0.16454379  1
  Ca2+  Ca4  1  0.17415634  0.57898899  0.50676740  1
  Ca2+  Ca5  1  0.17874683  0.57745330  0.84366376  1
  Ca2+  Ca6  1  0.67301243  0.08428345  0.17341124  1
  Ca2+  Ca7  1  0.67093978  0.08811878  0.49777538  1
  Ca2+  Ca8  1  0.66981934  0.07450233  0.84150992  1
  Ca2+  Ca9  1  0.67166961  0.57677908  0.16162393  1
  Ca2+  Ca10  1  0.67099250  0.58227030  0.50557581  1
  Ca2+  Ca11  1  0.67736150  0.57827100  0.84170004  1
  Ca2+  Ca12  1  0.08332323  0.32024218  0.15613824  1
  Ca2+  Ca13  1  0.08674295  0.31950714  0.49622249  1
  Ca2+  Ca14  1  0.09102714  0.32516093  0.83435606  1
  Ca2+  Ca15  1  0.07542674  0.84273148  0.16057876  1
  Ca2+  Ca16  1  0.07512518  0.83682673  0.49341596  1
  Ca2+  Ca17  1  0.07393616  0.83566666  0.83270931  1
  Ca2+  Ca18  1  0.57633054  0.32945970  0.16194364  1
  Ca2+  Ca19  1  0.57021451  0.32849410  0.49201376  1
  Ca2+  Ca20  1  0.57410638  0.34387618  0.83421136  1
  Ca2+  Ca21  1  0.57636119  0.83891978  0.16293238  1
  Ca2+  Ca22  1  0.57426423  0.83017702  0.49266038  1
  Ca2+  Ca23  1  0.58535725  0.83221218  0.83189135  1
  Ca2+  Ca24  1  0.33581980  0.41436853  0.16444144  1
  Ca2+  Ca25  1  0.33710345  0.41515962  0.50602809  1
  Ca2+  Ca26  1  0.33407780  0.42172988  0.84146567  1
  Ca2+  Ca27  1  0.31959796  0.92202347  0.17765756  1
  Ca2+  Ca28  1  0.33397861  0.92897952  0.50148053  1
  Ca2+  Ca29  1  0.32448136  0.92733431  0.84165562  1
  Ca2+  Ca30  1  0.83263094  0.41143367  0.16766060  1
  Ca2+  Ca31  1  0.83033610  0.42374294  0.50845977  1
  Ca2+  Ca32  1  0.83307172  0.42602149  0.84744837  1
  Ca2+  Ca33  1  0.83211687  0.91771516  0.17102840  1
  Ca2+  Ca34  1  0.84082862  0.91939790  0.49863273  1
  Ca2+  Ca35  1  0.83234278  0.91288371  0.84113348  1
  Ca2+  Ca36  1  0.41363322  0.17417975  0.16479626  1
  Ca2+  Ca37  1  0.41489412  0.17197842  0.49072517  1
  Ca2+  Ca38  1  0.41168469  0.17964534  0.82752149  1
  Ca2+  Ca39  1  0.41177670  0.67271671  0.16206285  1
  Ca2+  Ca40  1  0.41403275  0.67145026  0.49406100  1
  Ca2+  Ca41  1  0.41402741  0.66214265  0.83052015  1
  Ca2+  Ca42  1  0.92657552  0.16428049  0.16010102  1
  Ca2+  Ca43  1  0.92852073  0.15956398  0.49272710  1
  Ca2+  Ca44  1  0.92931655  0.17174287  0.83322162  1
  Ca2+  Ca45  1  0.91414531  0.67793913  0.15957988  1
  Ca2+  Ca46  1  0.91326738  0.67665815  0.49706533  1
  Ca2+  Ca47  1  0.90691283  0.67401763  0.83039064  1
  Al0+  Al48  1  -0.00001258  -0.00051448  -0.00738742  1
  Al0+  Al49  1  -0.00203860  -0.00137306  0.33330623  1
  Al0+  Al50  1  -0.00106224  -0.00011760  0.65978150  1
  Al0+  Al51  1  0.00303036  0.50261890  0.00580868  1
  Al0+  Al52  1  0.00061369  0.50108342  0.33791868  1
  Al0+  Al53  1  0.00022098  0.50098120  0.67113126  1
  Al0+  Al54  1  0.50004216  0.00013657  0.00209226  1
  Al0+  Al55  1  0.50020898  -0.00118629  0.32942305  1
  Al0+  Al56  1  0.49984657  0.00059129  0.67153273  1
  Al0+  Al57  1  0.50338102  0.50222191  0.00437636  1
  Al0+  Al58  1  0.50111458  0.49975614  0.33067880  1
  Al0+  Al59  1  0.50041748  0.50047614  0.66446326  1
  Al0+  Al60  1  0.25280754  0.25150464  -0.00603477  1
  Al0+  Al61  1  0.24852671  0.25022889  0.32850808  1
  Al0+  Al62  1  0.25069471  0.24887664  0.66142947  1
  Al0+  Al63  1  0.24889295  0.75312388  0.00559201  1
  Al0+  Al64  1  0.24814240  0.74756763  0.33357770  1
  Al0+  Al65  1  0.24818161  0.75041126  0.67047857  1
  Al0+  Al66  1  0.75082065  0.24935439  -0.00162066  1
  Al0+  Al67  1  0.74835084  0.25067673  0.33851341  1
  Al0+  Al68  1  0.74931429  0.24852525  0.66925547  1
  Al0+  Al69  1  0.74735524  0.75022601  0.00496157  1
  Al0+  Al70  1  0.74988920  0.74902053  0.33042356  1
  Al0+  Al71  1  0.74851913  0.74962905  0.66350754  1
  Al0+  Al72  1  0.17785781  0.93251127  0.01223491  1
  Al0+  Al73  1  0.81944570  0.07071555  0.34648774  1
  Al0+  Al74  1  0.67792082  0.92884865  0.01416040  1
  Al0+  Al75  1  0.07197251  0.17872987  0.98347400  1
  Al0+  Al76  1  0.17675843  0.92720843  0.34984793  1
  Al0+  Al77  1  0.43307300  0.32147483  0.98453252  1
  Al0+  Al78  1  0.43214442  0.32049071  0.65275653  1
  Al0+  Al79  1  0.32282007  0.57195907  0.01697082  1
  Al0+  Al80  1  0.82357361  0.57193483  0.01668973  1
  Al0+  Al81  1  0.18032891  0.42698006  0.01548624  1
  Al0+  Al82  1  0.92820708  0.81797703  0.98606814  1
  Al0+  Al83  1  0.06839217  0.17958873  0.31937160  1
  Al0+  Al84  1  0.68094177  0.42694313  0.01613850  1
  Al0+  Al85  1  0.92832026  0.81807050  0.65154253  1
  Al0+  Al86  1  0.92811693  0.32384852  0.98686095  1
  Al0+  Al87  1  0.32133571  0.57185051  0.67904902  1
  Al0+  Al88  1  0.06935653  0.18074351  0.64982321  1
  Al0+  Al89  1  0.32089553  0.07165188  0.34700440  1
  Al0+  Al90  1  0.93056490  0.81882865  0.31790512  1
  Al0+  Al91  1  0.42834144  0.32135551  0.31598731  1
  Al0+  Al92  1  0.32126620  0.07138007  0.68110141  1
  Al0+  Al93  1  0.57327829  0.17812502  0.31848709  1
  Al0+  Al94  1  0.42740800  0.82006828  0.32026884  1
  Al0+  Al95  1  0.82026090  0.57132831  0.67975975  1
  Si0+  Si96  1  0.56910258  0.68169087  0.98439593  1
  Si0+  Si97  1  0.82293297  0.07047990  0.68237430  1
  Si0+  Si98  1  0.82180169  0.07034721  0.01401171  1
  Si0+  Si99  1  0.67815191  0.42981363  0.35098766  1
  Si0+  Si100  1  0.42668938  0.82251406  0.98387970  1
  Si0+  Si101  1  0.56908329  0.68063166  0.65214381  1
  Si0+  Si102  1  0.17915813  0.42689967  0.68192822  1
  Si0+  Si103  1  0.67911445  0.92928460  0.67989031  1
  Si0+  Si104  1  0.42694968  0.82280020  0.65462207  1
  Si0+  Si105  1  0.82092195  0.57154528  0.35014578  1
  Si0+  Si106  1  0.07255340  0.67454693  0.31633820  1
  Si0+  Si107  1  0.07481887  0.67877813  0.98356278  1
  Si0+  Si108  1  0.92583028  0.32412868  0.65132703  1
  Si0+  Si109  1  0.32242721  0.07342295  0.01578162  1
  Si0+  Si110  1  0.57324844  0.17554417  0.98181583  1
  Si0+  Si111  1  0.57228475  0.67766190  0.31473054  1
  Si0+  Si112  1  0.57367748  0.17386582  0.65067861  1
  Si0+  Si113  1  0.67763750  0.92551952  0.35106006  1
  Si0+  Si114  1  0.17844011  0.42879946  0.34966716  1
  Si0+  Si115  1  0.32226702  0.56948213  0.34857583  1
  Si0+  Si116  1  0.17605914  0.92889811  0.68349405  1
  Si0+  Si117  1  0.92768046  0.32487466  0.32161627  1
  Si0+  Si118  1  0.07414108  0.67658571  0.65093428  1
  Si0+  Si119  1  0.67852510  0.42748845  0.68228136  1
  O2-  O120  1  0.25160703  0.00730339  0.05908315  1
  O2-  O121  1  0.25084001  -0.00203629  0.39902845  1
  O2-  O122  1  0.24597808  -0.00326349  0.72699332  1
  O2-  O123  1  0.25241993  0.49873642  0.06693481  1
  O2-  O124  1  0.25252390  0.49756733  0.39132708  1
  O2-  O125  1  0.24632935  0.49789594  0.72484112  1
  O2-  O126  1  0.75101720  0.00459324  0.05929233  1
  O2-  O127  1  0.74416349  -0.00385114  0.39549270  1
  O2-  O128  1  0.74979363  0.00039644  0.72250788  1
  O2-  O129  1  0.75952375  0.49221116  0.06664370  1
  O2-  O130  1  0.75101567  0.49958187  0.39290974  1
  O2-  O131  1  0.75284574  0.49010078  0.72566597  1
  O2-  O132  1  -0.00708793  0.25481147  0.27611979  1
  O2-  O133  1  -0.00683721  0.25594781  0.60483453  1
  O2-  O134  1  0.00251458  0.25522105  0.93527114  1
  O2-  O135  1  0.00718299  0.74608242  0.27234418  1
  O2-  O136  1  0.00393353  0.74330082  0.60591765  1
  O2-  O137  1  0.00081149  0.74150141  0.93838237  1
  O2-  O138  1  0.49840931  0.24634367  0.26797752  1
  O2-  O139  1  0.50600116  0.24399763  0.60798459  1
  O2-  O140  1  0.50724940  0.24619144  0.93667963  1
  O2-  O141  1  0.50301353  0.74634943  0.27215512  1
  O2-  O142  1  0.49465968  0.74863979  0.61130435  1
  O2-  O143  1  0.49682032  0.75099458  0.94042921  1
  O2-  O144  1  0.06904453  0.17582701  0.09685346  1
  O2-  O145  1  0.06859062  0.18196816  0.43281776  1
  O2-  O146  1  0.06837315  0.18031655  0.76247082  1
  O2-  O147  1  0.07659068  0.68262128  0.08909050  1
  O2-  O148  1  0.06996279  0.67072836  0.42226028  1
  O2-  O149  1  0.07685429  0.67812737  0.75596812  1
  O2-  O150  1  0.57174656  0.17366832  0.08697172  1
  O2-  O151  1  0.57449382  0.18332644  0.43261960  1
  O2-  O152  1  0.57474764  0.17060354  0.75595464  1
  O2-  O153  1  0.56895760  0.68355707  0.08936328  1
  O2-  O154  1  0.57244824  0.67759079  0.42121120  1
  O2-  O155  1  0.57154681  0.68199660  0.75703341  1
  O2-  O156  1  0.17457782  0.43117875  0.24536519  1
  O2-  O157  1  0.17989677  0.42845402  0.57573131  1
  O2-  O158  1  0.18378120  0.42814108  0.90137600  1
  O2-  O159  1  0.17671257  0.92963710  0.23626765  1
  O2-  O160  1  0.17739167  0.92740225  0.57819450  1
  O2-  O161  1  0.17993290  0.93157225  0.89862178  1
  O2-  O162  1  0.67841582  0.43047328  0.24644707  1
  O2-  O163  1  0.67780163  0.43045531  0.57627580  1
  O2-  O164  1  0.67804318  0.43357709  0.90220922  1
  O2-  O165  1  0.68047732  0.92291018  0.24583252  1
  O2-  O166  1  0.67674404  0.92846150  0.57510599  1
  O2-  O167  1  0.67856423  0.92863133  0.90002079  1
  O2-  O168  1  0.43370597  0.31954986  0.09703429  1
  O2-  O169  1  0.43105654  0.32477625  0.43004673  1
  O2-  O170  1  0.43438853  0.32321834  0.76560482  1
  O2-  O171  1  0.42827036  0.82191832  0.08876717  1
  O2-  O172  1  0.42985134  0.81677170  0.43447192  1
  O2-  O173  1  0.43019150  0.82323890  0.75968915  1
  O2-  O174  1  0.92735088  0.31723408  0.10076997  1
  O2-  O175  1  0.93072121  0.32769451  0.42753680  1
  O2-  O176  1  0.92511723  0.32302105  0.75633708  1
  O2-  O177  1  0.92881903  0.81945396  0.09884814  1
  O2-  O178  1  0.92877249  0.81524785  0.43143699  1
  O2-  O179  1  0.92588582  0.81762082  0.76445906  1
  O2-  O180  1  0.31857738  0.07116372  0.23363047  1
  O2-  O181  1  0.32425174  0.06965456  0.56845689  1
  O2-  O182  1  0.32423852  0.07006460  0.90968815  1
  O2-  O183  1  0.32244342  0.57020169  0.24407716  1
  O2-  O184  1  0.32097121  0.57219618  0.56554719  1
  O2-  O185  1  0.32214241  0.57130568  0.90281878  1
  O2-  O186  1  0.81921030  0.06966631  0.23365837  1
  O2-  O187  1  0.82253702  0.07040971  0.57729235  1
  O2-  O188  1  0.82030949  0.06755764  0.90774678  1
  O2-  O189  1  0.82116604  0.57130984  0.24575902  1
  O2-  O190  1  0.81525440  0.57197134  0.56604473  1
  O2-  O191  1  0.81630600  0.57514261  0.90287206  1
  O2-  O192  1  0.03607659  0.08345412  0.26729375  1
  O2-  O193  1  0.03718315  0.08486201  0.59549667  1
  O2-  O194  1  0.03854528  0.08351152  0.92646188  1
  O2-  O195  1  0.04261330  0.58214517  0.26974374  1
  O2-  O196  1  0.05099582  0.58153446  0.60550419  1
  O2-  O197  1  0.05775490  0.58243222  0.94053920  1
  O2-  O198  1  0.55439900  0.07701470  0.26839658  1
  O2-  O199  1  0.54775653  0.08037522  0.60415206  1
  O2-  O200  1  0.54540154  0.08194185  0.93499577  1
  O2-  O201  1  0.54701965  0.58458426  0.26899915  1
  O2-  O202  1  0.54422880  0.58911574  0.60248682  1
  O2-  O203  1  0.54362262  0.58987085  0.93623269  1
  O2-  O204  1  0.16342082  0.21070350  0.26459997  1
  O2-  O205  1  0.16532157  0.21217937  0.59507074  1
  O2-  O206  1  0.17070257  0.20569635  0.92988299  1
  O2-  O207  1  0.16755719  0.69370140  0.27185480  1
  O2-  O208  1  0.16728012  0.70369204  0.60285206  1
  O2-  O209  1  0.16637563  0.71107093  0.93591839  1
  O2-  O210  1  0.67103258  0.21114749  0.26621368  1
  O2-  O211  1  0.66865397  0.19832959  0.60557036  1
  O2-  O212  1  0.66809766  0.19664882  0.93631330  1
  O2-  O213  1  0.66542733  0.70278831  0.26865004  1
  O2-  O214  1  0.65770601  0.71244418  0.60046785  1
  O2-  O215  1  0.65938809  0.71304088  0.93583444  1
  O2-  O216  1  0.08301790  0.45448685  0.07109512  1
  O2-  O217  1  0.08836340  0.45924601  0.40089339  1
  O2-  O218  1  0.08463362  0.44853307  0.72768658  1
  O2-  O219  1  0.08024335  0.96218104  0.06400210  1
  O2-  O220  1  0.07902172  0.95734117  0.40248868  1
  O2-  O221  1  0.08213352  0.95715741  0.72739316  1
  O2-  O222  1  0.58713879  0.46470905  0.07174619  1
  O2-  O223  1  0.58751728  0.46224831  0.39916059  1
  O2-  O224  1  0.58782779  0.46162924  0.72838950  1
  O2-  O225  1  0.58072913  0.95746789  0.06814453  1
  O2-  O226  1  0.58278921  0.94767361  0.39583740  1
  O2-  O227  1  0.58831429  0.95520030  0.73084032  1
  O2-  O228  1  0.21038856  0.32825114  0.06643055  1
  O2-  O229  1  0.20550049  0.33682568  0.39628321  1
  O2-  O230  1  0.20765141  0.33429347  0.72652288  1
  O2-  O231  1  0.20825982  0.83754762  0.06832702  1
  O2-  O232  1  0.20131915  0.82597878  0.40024739  1
  O2-  O233  1  0.19981123  0.83511547  0.73025958  1
  O2-  O234  1  0.70174265  0.32568783  0.06660626  1
  O2-  O235  1  0.70342774  0.33904039  0.40138262  1
  O2-  O236  1  0.69483862  0.33119694  0.72655669  1
  O2-  O237  1  0.70669843  0.83389404  0.07029835  1
  O2-  O238  1  0.70530013  0.83178917  0.39765707  1
  O2-  O239  1  0.70752093  0.83741009  0.72684363  1
  O2-  O240  1  0.46067333  0.41930274  0.26447532  1
  O2-  O241  1  0.46397027  0.41688426  0.59710349  1
  O2-  O242  1  0.46603573  0.41978854  0.93379804  1
  O2-  O243  1  0.45711812  0.91526812  0.26431062  1
  O2-  O244  1  0.46007031  0.91274134  0.60668622  1
  O2-  O245  1  0.45661020  0.91409670  0.93646545  1
  O2-  O246  1  0.95368019  0.41840397  0.27565975  1
  O2-  O247  1  0.94984139  0.41929123  0.60643598  1
  O2-  O248  1  0.95178511  0.42595091  0.93924068  1
  O2-  O249  1  0.95758262  0.91600447  0.26512832  1
  O2-  O250  1  0.95821934  0.91441795  0.59704349  1
  O2-  O251  1  0.95960677  0.91299262  0.92926052  1
  O2-  O252  1  0.32925663  0.29700469  0.26424844  1
  O2-  O253  1  0.33556672  0.29164870  0.59854968  1
  O2-  O254  1  0.33732101  0.29236545  0.92825645  1
  O2-  O255  1  0.33128789  0.78720168  0.26681173  1
  O2-  O256  1  0.33416005  0.79757791  0.60844963  1
  O2-  O257  1  0.33471602  0.79539369  0.93685328  1
  O2-  O258  1  0.83195365  0.30304617  0.28010977  1
  O2-  O259  1  0.83052339  0.29975418  0.60652448  1
  O2-  O260  1  0.83001363  0.29529871  0.93155064  1
  O2-  O261  1  0.83355156  0.78664348  0.26541762  1
  O2-  O262  1  0.83203488  0.78630817  0.59620664  1
  O2-  O263  1  0.82951001  0.78802182  0.93447266  1
  O2-  O264  1  0.41509917  0.04589683  0.06195012  1
  O2-  O265  1  0.42115321  0.04360633  0.39827678  1
  O2-  O266  1  0.41723527  0.04059125  0.73721399  1
  O2-  O267  1  0.42183378  0.54764170  0.06900243  1
  O2-  O268  1  0.41561656  0.54420720  0.39532493  1
  O2-  O269  1  0.41929211  0.54272097  0.73118610  1
  O2-  O270  1  0.91423467  0.04079114  0.05835499  1
  O2-  O271  1  0.91359207  0.03594570  0.40279327  1
  O2-  O272  1  0.91354183  0.03940704  0.72910853  1
  O2-  O273  1  0.92510434  0.55832057  0.06715452  1
  O2-  O274  1  0.91290319  0.54588148  0.39928667  1
  O2-  O275  1  0.91943374  0.55055191  0.73267653  1
  O2-  O276  1  0.30074567  0.16847126  0.05792319  1
  O2-  O277  1  0.29052238  0.17079055  0.39876853  1
  O2-  O278  1  0.28915354  0.16836044  0.73298848  1
  O2-  O279  1  0.29291931  0.67038368  0.06865798  1
  O2-  O280  1  0.29324723  0.66035506  0.39747338  1
  O2-  O281  1  0.29341127  0.66890150  0.73441212  1
  O2-  O282  1  0.79976898  0.16452978  0.05925946  1
  O2-  O283  1  0.79084668  0.16726173  0.40413411  1
  O2-  O284  1  0.79702291  0.16293501  0.73021184  1
  O2-  O285  1  0.78266108  0.66535572  0.07155692  1
  O2-  O286  1  0.78899102  0.66250625  0.39761795  1
  O2-  O287  1  0.78101022  0.66577523  0.73244067  1
