# generated using pymatgen
data_Ca2Al2SiO7
_symmetry_space_group_name_H-M   'P 1'
_cell_length_a   15.45727258
_cell_length_b   15.45784510
_cell_length_c   15.28317941
_cell_angle_alpha   89.99134191
_cell_angle_beta   89.99557853
_cell_angle_gamma   89.99423424
_symmetry_Int_Tables_number   1
_chemical_formula_structural   Ca2Al2SiO7
_chemical_formula_sum   'Ca48 Al48 Si24 O168'
_cell_volume   3651.70359971
_cell_formula_units_Z   24
loop_
 _symmetry_equiv_pos_site_id
 _symmetry_equiv_pos_as_xyz
  1  'x, y, z'
loop_
 _atom_type_symbol
 _atom_type_oxidation_number
  Ca2+  2.0
  Al0+  0.0
  Si0+  0.0
  O2-  -2.0
loop_
 _atom_site_type_symbol
 _atom_site_label
 _atom_site_symmetry_multiplicity
 _atom_site_fract_x
 _atom_site_fract_y
 _atom_site_fract_z
 _atom_site_occupancy
  Ca2+  Ca0  1  0.17046172  0.07711336  0.17699040  1
  Ca2+  Ca1  1  0.17714067  0.08582161  0.50675105  1
  Ca2+  Ca2  1  0.16870543  0.09200169  0.83569933  1
  Ca2+  Ca3  1  0.17397623  0.58519244  0.16910816  1
  Ca2+  Ca4  1  0.17722424  0.58292659  0.50514877  1
  Ca2+  Ca5  1  0.17016223  0.58867531  0.83811898  1
  Ca2+  Ca6  1  0.66114511  0.08315288  0.17250423  1
  Ca2+  Ca7  1  0.66501127  0.08541681  0.50437693  1
  Ca2+  Ca8  1  0.67130216  0.09366620  0.83285539  1
  Ca2+  Ca9  1  0.67478204  0.57595650  0.17362900  1
  Ca2+  Ca10  1  0.66382787  0.56526094  0.50509803  1
  Ca2+  Ca11  1  0.67461913  0.57249523  0.83970167  1
  Ca2+  Ca12  1  0.07382463  0.33037510  0.15948118  1
  Ca2+  Ca13  1  0.07284256  0.32981706  0.49711986  1
  Ca2+  Ca14  1  0.07177435  0.32877953  0.82695712  1
  Ca2+  Ca15  1  0.08776095  0.82925056  0.16274518  1
  Ca2+  Ca16  1  0.09125888  0.82943004  0.49850461  1
  Ca2+  Ca17  1  0.08595681  0.82039125  0.82940240  1
  Ca2+  Ca18  1  0.58114263  0.32693331  0.17009947  1
  Ca2+  Ca19  1  0.58415763  0.32490610  0.49212475  1
  Ca2+  Ca20  1  0.58722697  0.32491465  0.82748255  1
  Ca2+  Ca21  1  0.57019671  0.83956648  0.16440716  1
  Ca2+  Ca22  1  0.57775371  0.83202408  0.48991950  1
  Ca2+  Ca23  1  0.57608101  0.83025604  0.83221966  1
  Ca2+  Ca24  1  0.33949832  0.42765360  0.17460949  1
  Ca2+  Ca25  1  0.34359793  0.42679909  0.50427976  1
  Ca2+  Ca26  1  0.33209790  0.43014064  0.83931453  1
  Ca2+  Ca27  1  0.33136899  0.91919261  0.17744741  1
  Ca2+  Ca28  1  0.33485877  0.92840888  0.49662704  1
  Ca2+  Ca29  1  0.33491073  0.92242160  0.83521099  1
  Ca2+  Ca30  1  0.83474123  0.41510831  0.17003509  1
  Ca2+  Ca31  1  0.82368676  0.40206328  0.50220568  1
  Ca2+  Ca32  1  0.83236797  0.40989076  0.83595977  1
  Ca2+  Ca33  1  0.82373623  0.92074780  0.17609443  1
  Ca2+  Ca34  1  0.82469371  0.92454768  0.50576636  1
  Ca2+  Ca35  1  0.83579155  0.92548654  0.83441427  1
  Ca2+  Ca36  1  0.42603185  0.16220392  0.16616095  1
  Ca2+  Ca37  1  0.42338869  0.16663502  0.49081019  1
  Ca2+  Ca38  1  0.42723397  0.16468885  0.82567787  1
  Ca2+  Ca39  1  0.40744354  0.67676483  0.16375696  1
  Ca2+  Ca40  1  0.41114854  0.67057208  0.49209223  1
  Ca2+  Ca41  1  0.40492260  0.67202280  0.83158841  1
  Ca2+  Ca42  1  0.92089967  0.17803124  0.15942865  1
  Ca2+  Ca43  1  0.91308883  0.17380511  0.50012733  1
  Ca2+  Ca44  1  0.92479862  0.17317376  0.82435079  1
  Ca2+  Ca45  1  0.92231273  0.66648258  0.15673306  1
  Ca2+  Ca46  1  0.92620232  0.66336832  0.49775393  1
  Ca2+  Ca47  1  0.92743663  0.65822909  0.83129871  1
  Al0+  Al48  1  -0.00051939  0.00011202  -0.00042262  1
  Al0+  Al49  1  -0.00081109  -0.00301045  0.33764617  1
  Al0+  Al50  1  -0.00040997  -0.00176692  0.66788606  1
  Al0+  Al51  1  -0.00019724  0.50035597  -0.00327011  1
  Al0+  Al52  1  0.00256886  0.50068323  0.32895096  1
  Al0+  Al53  1  -0.00010437  0.50076900  0.65508915  1
  Al0+  Al54  1  0.49924704  -0.00071533  -0.00982778  1
  Al0+  Al55  1  0.49977332  -0.00256234  0.33325639  1
  Al0+  Al56  1  0.49801948  -0.00190138  0.66753608  1
  Al0+  Al57  1  0.50136688  0.50138337  0.00618300  1
  Al0+  Al58  1  0.50384937  0.49974195  0.33731084  1
  Al0+  Al59  1  0.50161078  0.50165074  0.67969368  1
  Al0+  Al60  1  0.25229546  0.25150888  -0.00035505  1
  Al0+  Al61  1  0.24961060  0.25267278  0.33270322  1
  Al0+  Al62  1  0.25012804  0.25265267  0.66928307  1
  Al0+  Al63  1  0.24948683  0.75254513  -0.00446103  1
  Al0+  Al64  1  0.25040704  0.74962345  0.33703670  1
  Al0+  Al65  1  0.24907647  0.75137370  0.66511142  1
  Al0+  Al66  1  0.74885242  0.24897467  -0.00413255  1
  Al0+  Al67  1  0.75144269  0.25059939  0.32652081  1
  Al0+  Al68  1  0.74845008  0.24718090  0.66836131  1
  Al0+  Al69  1  0.74789513  0.75002503  0.00391881  1
  Al0+  Al70  1  0.75262832  0.74995455  0.33842004  1
  Al0+  Al71  1  0.74837763  0.74899132  0.66700332  1
  Al0+  Al72  1  0.32076906  0.07243304  0.68181002  1
  Al0+  Al73  1  0.07431419  0.17692685  0.65012298  1
  Al0+  Al74  1  0.07355390  0.17641587  0.98668123  1
  Al0+  Al75  1  0.68285357  0.42915270  0.34627076  1
  Al0+  Al76  1  0.06922288  0.68175364  0.98774844  1
  Al0+  Al77  1  0.56801836  0.17925458  0.65192230  1
  Al0+  Al78  1  0.42948415  0.81878298  0.98461204  1
  Al0+  Al79  1  0.92962607  0.32064542  0.98355685  1
  Al0+  Al80  1  0.07082657  0.68040109  0.64989307  1
  Al0+  Al81  1  0.92815655  0.31937224  0.64953839  1
  Al0+  Al82  1  0.67830416  0.92845020  0.34605263  1
  Al0+  Al83  1  0.31973375  0.57287027  0.01570930  1
  Al0+  Al84  1  0.56754438  0.17998635  0.98419457  1
  Al0+  Al85  1  0.32061536  0.07356721  0.34589547  1
  Al0+  Al86  1  0.82178514  0.57022840  0.01315582  1
  Al0+  Al87  1  0.43029759  0.81756798  0.32076021  1
  Al0+  Al88  1  0.56938295  0.17827453  0.31870610  1
  Al0+  Al89  1  0.17741986  0.92809680  0.34880724  1
  Al0+  Al90  1  0.42705499  0.32478538  0.32000461  1
  Al0+  Al91  1  0.81971047  0.06883526  0.68078238  1
  Al0+  Al92  1  0.68120693  0.42796074  0.68195764  1
  Al0+  Al93  1  0.93075810  0.31986761  0.31757912  1
  Al0+  Al94  1  0.31921837  0.57182506  0.68201478  1
  Al0+  Al95  1  0.32040442  0.56856956  0.34666812  1
  Si0+  Si96  1  0.07293960  0.17498441  0.31853446  1
  Si0+  Si97  1  0.92520259  0.82227722  0.64933667  1
  Si0+  Si98  1  0.57208568  0.67779240  0.65282340  1
  Si0+  Si99  1  0.57572382  0.67679262  0.31780705  1
  Si0+  Si100  1  0.67887161  0.42510787  0.01961649  1
  Si0+  Si101  1  0.17851042  0.42770553  0.01665138  1
  Si0+  Si102  1  0.82058228  0.07063147  0.01555719  1
  Si0+  Si103  1  0.57402244  0.67666950  0.98397587  1
  Si0+  Si104  1  0.82597605  0.57245966  0.35082659  1
  Si0+  Si105  1  0.17499400  0.42952631  0.68305029  1
  Si0+  Si106  1  0.82139073  0.07207034  0.34841034  1
  Si0+  Si107  1  0.82317584  0.57355937  0.68140033  1
  Si0+  Si108  1  0.07064029  0.68149770  0.31696257  1
  Si0+  Si109  1  0.17905923  0.93058669  0.01295566  1
  Si0+  Si110  1  0.92693981  0.82161166  0.31849051  1
  Si0+  Si111  1  0.67715888  0.92976369  0.01404710  1
  Si0+  Si112  1  0.42954217  0.81904075  0.64948761  1
  Si0+  Si113  1  0.92338358  0.82297819  0.98466508  1
  Si0+  Si114  1  0.67600488  0.92496073  0.68561629  1
  Si0+  Si115  1  0.42815273  0.32676254  0.98316038  1
  Si0+  Si116  1  0.42895223  0.32582153  0.65398236  1
  Si0+  Si117  1  0.32288217  0.07130115  0.01335544  1
  Si0+  Si118  1  0.17509982  0.42827212  0.34994583  1
  Si0+  Si119  1  0.17848367  0.92849829  0.68552138  1
  O2-  O120  1  0.24533833  0.00651740  0.05403939  1
  O2-  O121  1  0.24412217  0.00599140  0.39648413  1
  O2-  O122  1  0.24176139  0.00212042  0.73018632  1
  O2-  O123  1  0.24893149  0.49456423  0.06209167  1
  O2-  O124  1  0.25074859  0.48958037  0.39416563  1
  O2-  O125  1  0.24424854  0.49752828  0.72849551  1
  O2-  O126  1  0.74945568  -0.00078609  0.05710413  1
  O2-  O127  1  0.75095711  0.00474441  0.39234409  1
  O2-  O128  1  0.74502744  -0.00631574  0.72911799  1
  O2-  O129  1  0.74838630  0.49506188  0.06117163  1
  O2-  O130  1  0.75791339  0.50351272  0.39443277  1
  O2-  O131  1  0.75833976  0.50193212  0.72632421  1
  O2-  O132  1  0.00632348  0.24498530  0.27284771  1
  O2-  O133  1  0.00100879  0.24741476  0.60016019  1
  O2-  O134  1  0.00203401  0.24802748  0.93594466  1
  O2-  O135  1  -0.00167640  0.75163055  0.27513955  1
  O2-  O136  1  -0.00604807  0.75391319  0.60427997  1
  O2-  O137  1  -0.00926961  0.75291309  0.94079099  1
  O2-  O138  1  0.49411739  0.24800570  0.26943295  1
  O2-  O139  1  0.49187167  0.25312926  0.60772038  1
  O2-  O140  1  0.49486227  0.25688789  0.93809443  1
  O2-  O141  1  0.50654557  0.74462562  0.27270250  1
  O2-  O142  1  0.50119479  0.74782598  0.60897634  1
  O2-  O143  1  0.50117034  0.74046064  0.93838354  1
  O2-  O144  1  0.07026930  0.17425357  0.10059148  1
  O2-  O145  1  0.07102288  0.17539130  0.42373961  1
  O2-  O146  1  0.07202835  0.17992176  0.76376744  1
  O2-  O147  1  0.07056629  0.68540178  0.10103373  1
  O2-  O148  1  0.06965464  0.68171647  0.42200014  1
  O2-  O149  1  0.07112338  0.68174396  0.76320978  1
  O2-  O150  1  0.56657875  0.17584414  0.09685461  1
  O2-  O151  1  0.57081670  0.17917623  0.43218502  1
  O2-  O152  1  0.56811874  0.18121158  0.76530828  1
  O2-  O153  1  0.57698112  0.68009585  0.08922994  1
  O2-  O154  1  0.57472788  0.67833139  0.42377521  1
  O2-  O155  1  0.57394618  0.68068088  0.75790225  1
  O2-  O156  1  0.17001645  0.43432887  0.24448225  1
  O2-  O157  1  0.17598781  0.43144074  0.57742379  1
  O2-  O158  1  0.17926781  0.42879689  0.91108581  1
  O2-  O159  1  0.17839018  0.92682645  0.23437311  1
  O2-  O160  1  0.18280513  0.92554856  0.58027483  1
  O2-  O161  1  0.18027004  0.92775431  0.90808766  1
  O2-  O162  1  0.68449537  0.43086557  0.23313637  1
  O2-  O163  1  0.67931848  0.42870832  0.56890144  1
  O2-  O164  1  0.67865706  0.42583561  0.91383531  1
  O2-  O165  1  0.68044909  0.92818752  0.23240033  1
  O2-  O166  1  0.67669334  0.92271786  0.58010840  1
  O2-  O167  1  0.67842338  0.92885559  0.90903019  1
  O2-  O168  1  0.42903226  0.32693153  0.08850786  1
  O2-  O169  1  0.43251768  0.32746461  0.43357755  1
  O2-  O170  1  0.43223637  0.32616579  0.75989896  1
  O2-  O171  1  0.42935849  0.82111230  0.09756498  1
  O2-  O172  1  0.43086352  0.81641594  0.43397197  1
  O2-  O173  1  0.42969742  0.81854005  0.75500414  1
  O2-  O174  1  0.93070473  0.31930780  0.09747346  1
  O2-  O175  1  0.92954365  0.31818628  0.43016740  1
  O2-  O176  1  0.92960638  0.31956170  0.76296692  1
  O2-  O177  1  0.92410606  0.82367212  0.09051980  1
  O2-  O178  1  0.92450656  0.81984919  0.42316607  1
  O2-  O179  1  0.92501945  0.82094765  0.75514604  1
  O2-  O180  1  0.32093407  0.06841294  0.23152196  1
  O2-  O181  1  0.32419938  0.06865200  0.56924609  1
  O2-  O182  1  0.32433696  0.06807421  0.90820536  1
  O2-  O183  1  0.31597889  0.57240323  0.23355461  1
  O2-  O184  1  0.32050581  0.57210160  0.56890956  1
  O2-  O185  1  0.31597999  0.57293263  0.90254009  1
  O2-  O186  1  0.82319984  0.06854553  0.24234035  1
  O2-  O187  1  0.81688570  0.06738424  0.56755407  1
  O2-  O188  1  0.82123332  0.06877958  0.91062300  1
  O2-  O189  1  0.82556460  0.57410596  0.24500825  1
  O2-  O190  1  0.81876191  0.57801380  0.57605647  1
  O2-  O191  1  0.81966883  0.57168441  0.90008575  1
  O2-  O192  1  0.04606357  0.08033802  0.27407982  1
  O2-  O193  1  0.04928173  0.07550435  0.60225410  1
  O2-  O194  1  0.04558900  0.07771201  0.93337233  1
  O2-  O195  1  0.04446973  0.59003005  0.26831399  1
  O2-  O196  1  0.04271277  0.58561033  0.59162534  1
  O2-  O197  1  0.04189316  0.58524878  0.93270440  1
  O2-  O198  1  0.54237815  0.07915079  0.26589220  1
  O2-  O199  1  0.54026584  0.07990324  0.60188838  1
  O2-  O200  1  0.53643942  0.08522062  0.92702822  1
  O2-  O201  1  0.55217405  0.58329089  0.27228245  1
  O2-  O202  1  0.54345650  0.58482293  0.60904599  1
  O2-  O203  1  0.55339227  0.58079338  0.94081690  1
  O2-  O204  1  0.16728956  0.19742747  0.27275582  1
  O2-  O205  1  0.17337065  0.20723324  0.59912276  1
  O2-  O206  1  0.17386045  0.20228232  0.93633413  1
  O2-  O207  1  0.16161971  0.71210356  0.27033058  1
  O2-  O208  1  0.16628947  0.71542621  0.59574063  1
  O2-  O209  1  0.16256165  0.71739892  0.93083660  1
  O2-  O210  1  0.66669287  0.20820756  0.26384179  1
  O2-  O211  1  0.66479630  0.20913252  0.59977787  1
  O2-  O212  1  0.66486515  0.20912366  0.93122385  1
  O2-  O213  1  0.67060022  0.70234473  0.27369524  1
  O2-  O214  1  0.66345834  0.70427713  0.60347886  1
  O2-  O215  1  0.66535583  0.70759872  0.93532598  1
  O2-  O216  1  0.08554551  0.45650098  0.06208423  1
  O2-  O217  1  0.08520061  0.46265210  0.39897736  1
  O2-  O218  1  0.08088448  0.45844877  0.72639266  1
  O2-  O219  1  0.08511937  0.95163059  0.06083514  1
  O2-  O220  1  0.07640715  0.94609628  0.40133137  1
  O2-  O221  1  0.08193778  0.94381927  0.72922708  1
  O2-  O222  1  0.58575052  0.45150957  0.06606402  1
  O2-  O223  1  0.58821323  0.46051712  0.40354791  1
  O2-  O224  1  0.58828553  0.46224241  0.74162320  1
  O2-  O225  1  0.58517672  0.96126397  0.05901708  1
  O2-  O226  1  0.58212125  0.95525971  0.40118627  1
  O2-  O227  1  0.58227786  0.94989808  0.73096597  1
  O2-  O228  1  0.20145705  0.33328847  0.06338470  1
  O2-  O229  1  0.19046343  0.33176436  0.39263517  1
  O2-  O230  1  0.19820500  0.33628903  0.73058475  1
  O2-  O231  1  0.21182540  0.84101890  0.06154886  1
  O2-  O232  1  0.21162613  0.83259225  0.40356720  1
  O2-  O233  1  0.21174879  0.83729571  0.73292098  1
  O2-  O234  1  0.70538881  0.33135049  0.06445518  1
  O2-  O235  1  0.71469285  0.33178377  0.39814471  1
  O2-  O236  1  0.71126763  0.33199259  0.73656019  1
  O2-  O237  1  0.70126587  0.83785740  0.06318564  1
  O2-  O238  1  0.71085977  0.83299522  0.40270353  1
  O2-  O239  1  0.70208217  0.83126631  0.73254840  1
  O2-  O240  1  0.46298168  0.42117969  0.26578806  1
  O2-  O241  1  0.45960244  0.41950270  0.61066356  1
  O2-  O242  1  0.45478846  0.42099963  0.93815680  1
  O2-  O243  1  0.46060680  0.91323640  0.26516883  1
  O2-  O244  1  0.45827857  0.91039954  0.60286659  1
  O2-  O245  1  0.46441683  0.91179612  0.92625472  1
  O2-  O246  1  0.96143782  0.41759457  0.26441966  1
  O2-  O247  1  0.95219198  0.41814121  0.59495293  1
  O2-  O248  1  0.95653193  0.41910445  0.93083339  1
  O2-  O249  1  0.95246793  0.91395847  0.27022991  1
  O2-  O250  1  0.94996338  0.91551747  0.60317550  1
  O2-  O251  1  0.95118865  0.91565147  0.93822889  1
  O2-  O252  1  0.32524316  0.30739863  0.26841231  1
  O2-  O253  1  0.33269385  0.30864909  0.61130100  1
  O2-  O254  1  0.33353059  0.30441919  0.93808401  1
  O2-  O255  1  0.33351244  0.78531558  0.26709121  1
  O2-  O256  1  0.33829629  0.79036762  0.60296819  1
  O2-  O257  1  0.33366205  0.79016728  0.92822232  1
  O2-  O258  1  0.83628405  0.28868880  0.26035797  1
  O2-  O259  1  0.83066573  0.28502919  0.59879237  1
  O2-  O260  1  0.83115420  0.29163526  0.93251684  1
  O2-  O261  1  0.83566667  0.79313689  0.26929619  1
  O2-  O262  1  0.83075047  0.79716074  0.60381500  1
  O2-  O263  1  0.82908450  0.80030250  0.93924404  1
  O2-  O264  1  0.41255948  0.03479214  0.05909012  1
  O2-  O265  1  0.41645094  0.03781044  0.39930594  1
  O2-  O266  1  0.41511657  0.03398998  0.73715585  1
  O2-  O267  1  0.41906600  0.54885166  0.06800137  1
  O2-  O268  1  0.41924426  0.54480904  0.39967204  1
  O2-  O269  1  0.41514417  0.54471584  0.73960490  1
  O2-  O270  1  0.91221098  0.04265579  0.06404393  1
  O2-  O271  1  0.91315501  0.04412618  0.39654173  1
  O2-  O272  1  0.91622244  0.03715933  0.73608946  1
  O2-  O273  1  0.91944332  0.54248113  0.06711529  1
  O2-  O274  1  0.92054871  0.54726698  0.39460211  1
  O2-  O275  1  0.91956519  0.55080072  0.72212380  1
  O2-  O276  1  0.30466637  0.16622443  0.05863810  1
  O2-  O277  1  0.29969915  0.17444286  0.39754639  1
  O2-  O278  1  0.29666969  0.17134294  0.73540702  1
  O2-  O279  1  0.28444088  0.66998371  0.06641812  1
  O2-  O280  1  0.28454654  0.66262591  0.40216075  1
  O2-  O281  1  0.28554163  0.66878381  0.73406835  1
  O2-  O282  1  0.79109773  0.16222512  0.06194800  1
  O2-  O283  1  0.79594562  0.16588711  0.39201194  1
  O2-  O284  1  0.78693843  0.16316023  0.73715430  1
  O2-  O285  1  0.79166166  0.66761634  0.06837236  1
  O2-  O286  1  0.80281758  0.66601611  0.39790750  1
  O2-  O287  1  0.79547940  0.66591389  0.72988659  1
