# generated using pymatgen
data_Ca2Al2SiO7
_symmetry_space_group_name_H-M   'P 1'
_cell_length_a   15.45632346
_cell_length_b   15.45724609
_cell_length_c   15.28240711
_cell_angle_alpha   90.00573370
_cell_angle_beta   89.98680033
_cell_angle_gamma   90.00174309
_symmetry_Int_Tables_number   1
_chemical_formula_structural   Ca2Al2SiO7
_chemical_formula_sum   'Ca48 Al48 Si24 O168'
_cell_volume   3651.15331437
_cell_formula_units_Z   24
loop_
 _symmetry_equiv_pos_site_id
 _symmetry_equiv_pos_as_xyz
  1  'x, y, z'
loop_
 _atom_type_symbol
 _atom_type_oxidation_number
  Ca2+  2.0
  Al0+  0.0
  Si0+  0.0
  O2-  -2.0
loop_
 _atom_site_type_symbol
 _atom_site_label
 _atom_site_symmetry_multiplicity
 _atom_site_fract_x
 _atom_site_fract_y
 _atom_site_fract_z
 _atom_site_occupancy
  Ca2+  Ca0  1  0.16938635  0.08183897  0.17427342  1
  Ca2+  Ca1  1  0.17728769  0.08104779  0.50076106  1
  Ca2+  Ca2  1  0.17081604  0.09431587  0.83328366  1
  Ca2+  Ca3  1  0.16274994  0.56823573  0.17099724  1
  Ca2+  Ca4  1  0.17149602  0.57467572  0.50409338  1
  Ca2+  Ca5  1  0.17503419  0.57445785  0.83830683  1
  Ca2+  Ca6  1  0.67782631  0.07993210  0.16948856  1
  Ca2+  Ca7  1  0.67765887  0.09246287  0.50577307  1
  Ca2+  Ca8  1  0.67573589  0.08418240  0.83925893  1
  Ca2+  Ca9  1  0.66686415  0.58162425  0.16560807  1
  Ca2+  Ca10  1  0.66114278  0.58442811  0.49925717  1
  Ca2+  Ca11  1  0.67014438  0.57590003  0.84380323  1
  Ca2+  Ca12  1  0.08280621  0.33012322  0.16053734  1
  Ca2+  Ca13  1  0.08081593  0.32719924  0.49363507  1
  Ca2+  Ca14  1  0.08535470  0.32366343  0.83228019  1
  Ca2+  Ca15  1  0.07253872  0.84338991  0.16473659  1
  Ca2+  Ca16  1  0.08136426  0.83503733  0.49168398  1
  Ca2+  Ca17  1  0.07507381  0.83469346  0.83206133  1
  Ca2+  Ca18  1  0.57114880  0.33475465  0.16133920  1
  Ca2+  Ca19  1  0.57193933  0.32729170  0.49745664  1
  Ca2+  Ca20  1  0.57751094  0.33218209  0.82794065  1
  Ca2+  Ca21  1  0.58421564  0.83296834  0.16552493  1
  Ca2+  Ca22  1  0.57063783  0.82862240  0.49223984  1
  Ca2+  Ca23  1  0.58186735  0.83507157  0.82963415  1
  Ca2+  Ca24  1  0.32388638  0.40684241  0.17188826  1
  Ca2+  Ca25  1  0.33473675  0.41624853  0.50283008  1
  Ca2+  Ca26  1  0.33614796  0.41595717  0.83814554  1
  Ca2+  Ca27  1  0.32619928  0.92419244  0.18035767  1
  Ca2+  Ca28  1  0.33681460  0.92170392  0.50445514  1
  Ca2+  Ca29  1  0.33926077  0.92530126  0.83307609  1
  Ca2+  Ca30  1  0.82997505  0.41709221  0.17255489  1
  Ca2+  Ca31  1  0.83294326  0.41381645  0.50187102  1
  Ca2+  Ca32  1  0.82414489  0.42246267  0.84521010  1
  Ca2+  Ca33  1  0.83798256  0.92416944  0.17022262  1
  Ca2+  Ca34  1  0.83558501  0.92693027  0.50159747  1
  Ca2+  Ca35  1  0.82730021  0.92510535  0.84319466  1
  Ca2+  Ca36  1  0.40832894  0.17510283  0.16357430  1
  Ca2+  Ca37  1  0.41350374  0.16987322  0.49697115  1
  Ca2+  Ca38  1  0.42288886  0.17764199  0.82271677  1
  Ca2+  Ca39  1  0.42008259  0.67154585  0.16812377  1
  Ca2+  Ca40  1  0.41423742  0.67570804  0.49421482  1
  Ca2+  Ca41  1  0.41498778  0.67239098  0.82415083  1
  Ca2+  Ca42  1  0.92082627  0.16456193  0.16256990  1
  Ca2+  Ca43  1  0.92043364  0.16461857  0.49467608  1
  Ca2+  Ca44  1  0.92634922  0.15578388  0.82997850  1
  Ca2+  Ca45  1  0.91206242  0.67839308  0.16055948  1
  Ca2+  Ca46  1  0.91993834  0.67555252  0.48981997  1
  Ca2+  Ca47  1  0.90974635  0.67083907  0.83587525  1
  Al0+  Al48  1  0.00125639  -0.00046956  -0.00742470  1
  Al0+  Al49  1  0.00104607  -0.00002374  0.33823255  1
  Al0+  Al50  1  -0.00024024  -0.00023468  0.66546350  1
  Al0+  Al51  1  0.00189687  0.50112772  0.00539456  1
  Al0+  Al52  1  -0.00144927  0.49876712  0.33590961  1
  Al0+  Al53  1  -0.00001921  0.50105906  0.66899497  1
  Al0+  Al54  1  0.50080033  0.00192612  0.00447328  1
  Al0+  Al55  1  0.50234801  -0.00003685  0.33254959  1
  Al0+  Al56  1  0.50067888  -0.00059529  0.66324991  1
  Al0+  Al57  1  0.49945762  0.50312909  -0.00013867  1
  Al0+  Al58  1  0.50014622  0.49839215  0.32527112  1
  Al0+  Al59  1  0.49977755  0.50045688  0.66758773  1
  Al0+  Al60  1  0.25033605  0.25166388  -0.00575326  1
  Al0+  Al61  1  0.24910367  0.24870916  0.33921168  1
  Al0+  Al62  1  0.24716062  0.24817829  0.66191698  1
  Al0+  Al63  1  0.24947227  0.75062340  -0.00091838  1
  Al0+  Al64  1  0.24936020  0.74710825  0.33043918  1
  Al0+  Al65  1  0.24803632  0.74776098  0.66787948  1
  Al0+  Al66  1  0.74947257  0.25032161  0.00899378  1
  Al0+  Al67  1  0.74992936  0.25141723  0.33394054  1
  Al0+  Al68  1  0.75085356  0.25149461  0.67052031  1
  Al0+  Al69  1  0.74812441  0.75041479  0.00033066  1
  Al0+  Al70  1  0.75097321  0.74980194  0.32718163  1
  Al0+  Al71  1  0.75020523  0.75071539  0.66573409  1
  Al0+  Al72  1  0.32078275  0.57006914  0.67933662  1
  Al0+  Al73  1  0.81951517  0.07128480  0.34845537  1
  Al0+  Al74  1  0.17909053  0.92664677  0.34720841  1
  Al0+  Al75  1  0.82481825  0.07009685  0.01585994  1
  Al0+  Al76  1  0.42829553  0.31695622  0.31900122  1
  Al0+  Al77  1  0.42862012  0.32206440  0.65081534  1
  Al0+  Al78  1  0.32354215  0.07043361  0.34827883  1
  Al0+  Al79  1  0.92806484  0.32141144  0.32011395  1
  Al0+  Al80  1  0.57080276  0.67882725  0.31613739  1
  Al0+  Al81  1  0.18278088  0.42863076  0.01254958  1
  Al0+  Al82  1  0.82143267  0.07155071  0.68142927  1
  Al0+  Al83  1  0.93246508  0.82171330  0.32018604  1
  Al0+  Al84  1  0.17728747  0.42824812  0.34872091  1
  Al0+  Al85  1  0.32144384  0.07059255  0.68160598  1
  Al0+  Al86  1  0.67656576  0.42831527  0.01730230  1
  Al0+  Al87  1  0.82137424  0.57107371  0.01646336  1
  Al0+  Al88  1  0.43018506  0.32099234  0.98557506  1
  Al0+  Al89  1  0.42795302  0.82045645  0.65461263  1
  Al0+  Al90  1  0.06945251  0.17793075  0.64971928  1
  Al0+  Al91  1  0.92883069  0.81958577  0.98433259  1
  Al0+  Al92  1  0.67699102  0.92960583  0.01575655  1
  Al0+  Al93  1  0.42685090  0.82336324  0.31660398  1
  Al0+  Al94  1  0.06938193  0.18019112  0.98669182  1
  Al0+  Al95  1  0.57378853  0.17870064  0.65282163  1
  Si0+  Si96  1  0.92868584  0.32477569  0.65270475  1
  Si0+  Si97  1  0.81978536  0.57181556  0.34953408  1
  Si0+  Si98  1  0.07020201  0.17947121  0.31767241  1
  Si0+  Si99  1  0.67744004  0.43005169  0.35001538  1
  Si0+  Si100  1  0.57307509  0.17719824  0.98519157  1
  Si0+  Si101  1  0.32221122  0.57561010  0.01823240  1
  Si0+  Si102  1  0.06993964  0.67758795  0.65196931  1
  Si0+  Si103  1  0.42706400  0.82324594  0.98489908  1
  Si0+  Si104  1  0.92866645  0.81950100  0.65106390  1
  Si0+  Si105  1  0.67953542  0.43082465  0.68054678  1
  Si0+  Si106  1  0.17995700  0.92784783  0.01213015  1
  Si0+  Si107  1  0.57329822  0.67815808  0.65183245  1
  Si0+  Si108  1  0.57500229  0.17772259  0.31563389  1
  Si0+  Si109  1  0.31994243  0.07132691  0.01211190  1
  Si0+  Si110  1  0.17787499  0.92662546  0.68512155  1
  Si0+  Si111  1  0.32341185  0.56930761  0.34821456  1
  Si0+  Si112  1  0.56914343  0.68107729  0.98273382  1
  Si0+  Si113  1  0.92622528  0.32415824  0.98557381  1
  Si0+  Si114  1  0.07343505  0.67592769  0.98191416  1
  Si0+  Si115  1  0.17652441  0.42749210  0.68390129  1
  Si0+  Si116  1  0.67945846  0.92532620  0.35149293  1
  Si0+  Si117  1  0.67897541  0.92656893  0.68132087  1
  Si0+  Si118  1  0.07212917  0.67502765  0.31656099  1
  Si0+  Si119  1  0.82201429  0.57338691  0.68053889  1
  O2-  O120  1  0.25193669  -0.00257134  0.05365496  1
  O2-  O121  1  0.25748970  -0.00845349  0.39682822  1
  O2-  O122  1  0.24695380  -0.00494800  0.72972200  1
  O2-  O123  1  0.25566898  0.50457537  0.06095071  1
  O2-  O124  1  0.25341700  0.50257385  0.39358533  1
  O2-  O125  1  0.25043850  0.49155530  0.72689681  1
  O2-  O126  1  0.75201358  -0.00149409  0.06531088  1
  O2-  O127  1  0.74387699  -0.00243161  0.39647597  1
  O2-  O128  1  0.74431652  -0.00184148  0.72581915  1
  O2-  O129  1  0.75333852  0.49581402  0.06738580  1
  O2-  O130  1  0.74850823  0.50153827  0.39308463  1
  O2-  O131  1  0.75102646  0.50246932  0.72172952  1
  O2-  O132  1  0.00251776  0.24811999  0.27223586  1
  O2-  O133  1  -0.00540540  0.25467199  0.60712209  1
  O2-  O134  1  -0.00886698  0.25272182  0.94004087  1
  O2-  O135  1  0.00874042  0.74861349  0.27274794  1
  O2-  O136  1  -0.00046895  0.74846322  0.60911360  1
  O2-  O137  1  0.00253373  0.74280568  0.93743245  1
  O2-  O138  1  0.49982583  0.23941738  0.27160384  1
  O2-  O139  1  0.49778158  0.24641743  0.60203610  1
  O2-  O140  1  0.50862883  0.24961780  0.94037154  1
  O2-  O141  1  0.50060529  0.75304281  0.26622978  1
  O2-  O142  1  0.50306014  0.74523277  0.60907077  1
  O2-  O143  1  0.49797434  0.75250928  0.94147424  1
  O2-  O144  1  0.07201687  0.18045310  0.09961141  1
  O2-  O145  1  0.06802919  0.18046392  0.42328952  1
  O2-  O146  1  0.06881622  0.17963279  0.76314502  1
  O2-  O147  1  0.07636955  0.67728368  0.08706861  1
  O2-  O148  1  0.06810069  0.67323179  0.42277664  1
  O2-  O149  1  0.06802438  0.67622394  0.75695431  1
  O2-  O150  1  0.56867725  0.17460712  0.09057260  1
  O2-  O151  1  0.57868981  0.18329642  0.42114021  1
  O2-  O152  1  0.57541635  0.18310692  0.76671277  1
  O2-  O153  1  0.56798956  0.67995733  0.08734597  1
  O2-  O154  1  0.56955393  0.67891345  0.43052370  1
  O2-  O155  1  0.57623803  0.67926909  0.75741388  1
  O2-  O156  1  0.17768920  0.42820893  0.23545026  1
  O2-  O157  1  0.17131528  0.43281869  0.57865295  1
  O2-  O158  1  0.18492960  0.42930696  0.89925473  1
  O2-  O159  1  0.17618004  0.93276451  0.23300277  1
  O2-  O160  1  0.17782276  0.92515104  0.57981017  1
  O2-  O161  1  0.18176083  0.92482467  0.90705719  1
  O2-  O162  1  0.67828959  0.43077618  0.24537929  1
  O2-  O163  1  0.68005600  0.43196697  0.57528656  1
  O2-  O164  1  0.67643395  0.43213952  0.90274453  1
  O2-  O165  1  0.68256466  0.92510187  0.24602937  1
  O2-  O166  1  0.68435625  0.91978016  0.57638018  1
  O2-  O167  1  0.67572670  0.93136039  0.90150948  1
  O2-  O168  1  0.42671627  0.31670036  0.09858396  1
  O2-  O169  1  0.43124922  0.32002863  0.43177399  1
  O2-  O170  1  0.43311166  0.32383667  0.76465552  1
  O2-  O171  1  0.42500089  0.82156531  0.08936623  1
  O2-  O172  1  0.42712313  0.81958200  0.43044922  1
  O2-  O173  1  0.43005576  0.81892633  0.76845561  1
  O2-  O174  1  0.93000191  0.32492279  0.09098099  1
  O2-  O175  1  0.92853833  0.32129379  0.43365709  1
  O2-  O176  1  0.93022862  0.32998637  0.75800735  1
  O2-  O177  1  0.93276577  0.82112037  0.09714799  1
  O2-  O178  1  0.93230663  0.81849979  0.43396405  1
  O2-  O179  1  0.92732107  0.81705444  0.75611978  1
  O2-  O180  1  0.31702525  0.07370727  0.23383537  1
  O2-  O181  1  0.32051479  0.06884780  0.56918351  1
  O2-  O182  1  0.32083313  0.07021022  0.90690099  1
  O2-  O183  1  0.32263481  0.56836719  0.24258897  1
  O2-  O184  1  0.31738994  0.57191695  0.56642653  1
  O2-  O185  1  0.32060614  0.57830108  0.91228734  1
  O2-  O186  1  0.82097035  0.06985786  0.23577538  1
  O2-  O187  1  0.82175647  0.06970499  0.56825154  1
  O2-  O188  1  0.82393811  0.06749745  0.90194592  1
  O2-  O189  1  0.82057165  0.57095894  0.24504539  1
  O2-  O190  1  0.82305092  0.57495613  0.57548131  1
  O2-  O191  1  0.81740622  0.57026923  0.90161269  1
  O2-  O192  1  0.04366140  0.08582164  0.27295525  1
  O2-  O193  1  0.03790388  0.08118625  0.59660685  1
  O2-  O194  1  0.04335341  0.08397659  0.92869957  1
  O2-  O195  1  0.03960772  0.58396034  0.26999817  1
  O2-  O196  1  0.04091051  0.58635686  0.60332552  1
  O2-  O197  1  0.04996621  0.58164561  0.93563598  1
  O2-  O198  1  0.55927411  0.08084047  0.27347358  1
  O2-  O199  1  0.55338662  0.07837705  0.60145637  1
  O2-  O200  1  0.54393973  0.08493740  0.93748650  1
  O2-  O201  1  0.54146540  0.58185467  0.26095473  1
  O2-  O202  1  0.54945070  0.58443653  0.60612767  1
  O2-  O203  1  0.54098181  0.58998284  0.93353295  1
  O2-  O204  1  0.16401292  0.20515662  0.27322098  1
  O2-  O205  1  0.16498514  0.20739873  0.59414170  1
  O2-  O206  1  0.16361433  0.21544610  0.92965105  1
  O2-  O207  1  0.16761618  0.69093402  0.27143270  1
  O2-  O208  1  0.16099968  0.70455823  0.60362203  1
  O2-  O209  1  0.16609080  0.70535607  0.93403588  1
  O2-  O210  1  0.66495173  0.21120973  0.26731498  1
  O2-  O211  1  0.67109348  0.21332004  0.59988716  1
  O2-  O212  1  0.66940376  0.19921681  0.94278689  1
  O2-  O213  1  0.66960555  0.70495833  0.26309108  1
  O2-  O214  1  0.66657822  0.70399918  0.60373539  1
  O2-  O215  1  0.66073554  0.70750365  0.93400300  1
  O2-  O216  1  0.08615917  0.45752508  0.06742704  1
  O2-  O217  1  0.08158231  0.46125877  0.40425172  1
  O2-  O218  1  0.08539849  0.45981198  0.73277405  1
  O2-  O219  1  0.08863135  0.95791981  0.05745351  1
  O2-  O220  1  0.08411643  0.95958740  0.40443684  1
  O2-  O221  1  0.08386992  0.95338801  0.72997179  1
  O2-  O222  1  0.57970209  0.46389079  0.06938009  1
  O2-  O223  1  0.58583610  0.46014807  0.39662469  1
  O2-  O224  1  0.58890794  0.45949141  0.72954387  1
  O2-  O225  1  0.57977288  0.95903103  0.07185247  1
  O2-  O226  1  0.58363016  0.94582365  0.39468389  1
  O2-  O227  1  0.58384841  0.94701861  0.72553956  1
  O2-  O228  1  0.21548989  0.33267825  0.06665873  1
  O2-  O229  1  0.20715051  0.33286282  0.40398358  1
  O2-  O230  1  0.19658851  0.33159979  0.72569384  1
  O2-  O231  1  0.20489599  0.83591569  0.06103682  1
  O2-  O232  1  0.19727367  0.82353500  0.39553005  1
  O2-  O233  1  0.20042452  0.83214139  0.73126458  1
  O2-  O234  1  0.69719180  0.32910167  0.07098847  1
  O2-  O235  1  0.70696963  0.33953269  0.39846980  1
  O2-  O236  1  0.70774808  0.34100072  0.73091005  1
  O2-  O237  1  0.70071734  0.82949725  0.06529720  1
  O2-  O238  1  0.70890885  0.83224241  0.39691565  1
  O2-  O239  1  0.70821512  0.83414183  0.73082537  1
  O2-  O240  1  0.46062436  0.41202010  0.26338719  1
  O2-  O241  1  0.46061957  0.42026412  0.59842791  1
  O2-  O242  1  0.45647850  0.42075102  0.93487550  1
  O2-  O243  1  0.45344399  0.92293454  0.26472612  1
  O2-  O244  1  0.45807499  0.91547968  0.59878154  1
  O2-  O245  1  0.45580142  0.91603674  0.93945463  1
  O2-  O246  1  0.95682595  0.41900309  0.26748897  1
  O2-  O247  1  0.95474670  0.41840040  0.60467824  1
  O2-  O248  1  0.95394829  0.41793258  0.93982720  1
  O2-  O249  1  0.96398072  0.91838237  0.26681422  1
  O2-  O250  1  0.95723402  0.91061280  0.60427006  1
  O2-  O251  1  0.96345899  0.91320962  0.92683344  1
  O2-  O252  1  0.32994167  0.28684587  0.26762271  1
  O2-  O253  1  0.32834486  0.29851340  0.60122021  1
  O2-  O254  1  0.33640339  0.28711631  0.92862670  1
  O2-  O255  1  0.32842937  0.79316577  0.26323751  1
  O2-  O256  1  0.33099816  0.78816130  0.60233502  1
  O2-  O257  1  0.33545443  0.79539632  0.93616462  1
  O2-  O258  1  0.83097627  0.29311651  0.26661409  1
  O2-  O259  1  0.83392781  0.30200155  0.60841056  1
  O2-  O260  1  0.82949350  0.30373579  0.94335231  1
  O2-  O261  1  0.83737172  0.78931370  0.26553570  1
  O2-  O262  1  0.83752263  0.79042805  0.60273377  1
  O2-  O263  1  0.83162512  0.78856242  0.93056093  1
  O2-  O264  1  0.41148148  0.04723598  0.06102473  1
  O2-  O265  1  0.42535586  0.05030021  0.39813028  1
  O2-  O266  1  0.41924058  0.03975549  0.73466873  1
  O2-  O267  1  0.41677327  0.55368309  0.06194720  1
  O2-  O268  1  0.41683963  0.54162472  0.39330369  1
  O2-  O269  1  0.41911590  0.54528127  0.73412949  1
  O2-  O270  1  0.92374366  0.03829401  0.06598803  1
  O2-  O271  1  0.91528018  0.03869225  0.40284860  1
  O2-  O272  1  0.91705563  0.03586677  0.73427428  1
  O2-  O273  1  0.92223039  0.55179548  0.06711488  1
  O2-  O274  1  0.91065457  0.54370746  0.39906116  1
  O2-  O275  1  0.91347060  0.54704949  0.72952870  1
  O2-  O276  1  0.28765245  0.16174095  0.05821868  1
  O2-  O277  1  0.28831743  0.16494641  0.40454579  1
  O2-  O278  1  0.28815649  0.16795121  0.73386319  1
  O2-  O279  1  0.29425363  0.66865896  0.06475595  1
  O2-  O280  1  0.29903336  0.66373799  0.39333252  1
  O2-  O281  1  0.28550070  0.66441491  0.73635377  1
  O2-  O282  1  0.80048124  0.16926078  0.06843580  1
  O2-  O283  1  0.78907812  0.16881366  0.40192995  1
  O2-  O284  1  0.79529907  0.16960281  0.73542802  1
  O2-  O285  1  0.78839332  0.66828110  0.06773309  1
  O2-  O286  1  0.79183932  0.66398317  0.39698425  1
  O2-  O287  1  0.79351527  0.66477160  0.72906045  1
