# generated using pymatgen
data_Ca2Al2SiO7
_symmetry_space_group_name_H-M   'P 1'
_cell_length_a   15.46931435
_cell_length_b   15.46976092
_cell_length_c   15.29309640
_cell_angle_alpha   89.99268943
_cell_angle_beta   90.00797450
_cell_angle_gamma   90.02021317
_symmetry_Int_Tables_number   1
_chemical_formula_structural   Ca2Al2SiO7
_chemical_formula_sum   'Ca48 Al48 Si24 O168'
_cell_volume   3659.73852581
_cell_formula_units_Z   24
loop_
 _symmetry_equiv_pos_site_id
 _symmetry_equiv_pos_as_xyz
  1  'x, y, z'
loop_
 _atom_type_symbol
 _atom_type_oxidation_number
  Ca2+  2.0
  Al0+  0.0
  Si0+  0.0
  O2-  -2.0
loop_
 _atom_site_type_symbol
 _atom_site_label
 _atom_site_symmetry_multiplicity
 _atom_site_fract_x
 _atom_site_fract_y
 _atom_site_fract_z
 _atom_site_occupancy
  Ca2+  Ca0  1  0.16858707  0.08485607  0.16075380  1
  Ca2+  Ca1  1  0.16632477  0.08624604  0.50756022  1
  Ca2+  Ca2  1  0.16987350  0.08653224  0.84488946  1
  Ca2+  Ca3  1  0.16920159  0.58500972  0.16186853  1
  Ca2+  Ca4  1  0.17086878  0.57369947  0.50991514  1
  Ca2+  Ca5  1  0.17037395  0.57157478  0.84364707  1
  Ca2+  Ca6  1  0.67913719  0.07927888  0.16638953  1
  Ca2+  Ca7  1  0.67659183  0.08268041  0.51188390  1
  Ca2+  Ca8  1  0.67345210  0.08335718  0.84026222  1
  Ca2+  Ca9  1  0.66169150  0.57593578  0.17055376  1
  Ca2+  Ca10  1  0.66702555  0.57674196  0.50102196  1
  Ca2+  Ca11  1  0.66358399  0.57063151  0.84019361  1
  Ca2+  Ca12  1  0.07178253  0.32973715  0.15091819  1
  Ca2+  Ca13  1  0.07821957  0.33133795  0.50478080  1
  Ca2+  Ca14  1  0.07623356  0.32847412  0.82755357  1
  Ca2+  Ca15  1  0.08263770  0.82790161  0.15356498  1
  Ca2+  Ca16  1  0.07864928  0.83169261  0.49625887  1
  Ca2+  Ca17  1  0.09189848  0.82790662  0.83586191  1
  Ca2+  Ca18  1  0.58792089  0.33672604  0.16027237  1
  Ca2+  Ca19  1  0.58916243  0.33501447  0.50276377  1
  Ca2+  Ca20  1  0.58074765  0.33082429  0.82477834  1
  Ca2+  Ca21  1  0.58321572  0.82180304  0.15317467  1
  Ca2+  Ca22  1  0.58885423  0.82871750  0.49522671  1
  Ca2+  Ca23  1  0.58765896  0.83444910  0.83347718  1
  Ca2+  Ca24  1  0.32641578  0.42018151  0.16183334  1
  Ca2+  Ca25  1  0.32958285  0.41404355  0.51016529  1
  Ca2+  Ca26  1  0.32264863  0.41296585  0.84053459  1
  Ca2+  Ca27  1  0.33226446  0.91347896  0.15659852  1
  Ca2+  Ca28  1  0.33060179  0.91792414  0.50416282  1
  Ca2+  Ca29  1  0.33047824  0.92436062  0.84721893  1
  Ca2+  Ca30  1  0.82422150  0.41955712  0.16871547  1
  Ca2+  Ca31  1  0.82517906  0.41942030  0.50450408  1
  Ca2+  Ca32  1  0.82568247  0.40417092  0.83698154  1
  Ca2+  Ca33  1  0.83801476  0.92903023  0.16665958  1
  Ca2+  Ca34  1  0.82826723  0.92828646  0.50900258  1
  Ca2+  Ca35  1  0.82354014  0.92995889  0.83775268  1
  Ca2+  Ca36  1  0.41902219  0.16712046  0.15945052  1
  Ca2+  Ca37  1  0.42478124  0.17370149  0.50433066  1
  Ca2+  Ca38  1  0.42187959  0.16882048  0.82545940  1
  Ca2+  Ca39  1  0.42618349  0.66823109  0.15349493  1
  Ca2+  Ca40  1  0.42639344  0.66842507  0.49298272  1
  Ca2+  Ca41  1  0.41710658  0.66845127  0.83909792  1
  Ca2+  Ca42  1  0.91572581  0.17079782  0.15508336  1
  Ca2+  Ca43  1  0.91156746  0.16858931  0.50227036  1
  Ca2+  Ca44  1  0.92087257  0.17084525  0.82981722  1
  Ca2+  Ca45  1  0.92086040  0.66296926  0.15782372  1
  Ca2+  Ca46  1  0.91324897  0.66575749  0.49452192  1
  Ca2+  Ca47  1  0.92255773  0.66559378  0.83334546  1
  Al0+  Al48  1  0.00063435  0.00008877  0.00314505  1
  Al0+  Al49  1  0.00153404  -0.00064791  0.33752640  1
  Al0+  Al50  1  -0.00002978  -0.00297886  0.66655362  1
  Al0+  Al51  1  -0.00240787  0.49936411  -0.00632577  1
  Al0+  Al52  1  -0.00006041  0.49852269  0.33581571  1
  Al0+  Al53  1  0.00253629  0.49954584  0.66519955  1
  Al0+  Al54  1  0.50027278  -0.00082706  0.00576057  1
  Al0+  Al55  1  0.49702293  0.00198157  0.33286241  1
  Al0+  Al56  1  0.49813309  -0.00207457  0.66267961  1
  Al0+  Al57  1  0.49889306  0.50020234  0.00278210  1
  Al0+  Al58  1  0.49683714  0.50017035  0.33324575  1
  Al0+  Al59  1  0.50060848  0.50392421  0.66573376  1
  Al0+  Al60  1  0.24931567  0.25048723  0.00766323  1
  Al0+  Al61  1  0.25071454  0.24861434  0.33373983  1
  Al0+  Al62  1  0.24990155  0.24983750  0.66268014  1
  Al0+  Al63  1  0.25156085  0.75025888  -0.00126969  1
  Al0+  Al64  1  0.24937661  0.75025202  0.33516068  1
  Al0+  Al65  1  0.25186209  0.74954755  0.66332315  1
  Al0+  Al66  1  0.74873004  0.25044084  0.00542781  1
  Al0+  Al67  1  0.75001053  0.24963878  0.33946389  1
  Al0+  Al68  1  0.75196778  0.25134488  0.66593871  1
  Al0+  Al69  1  0.75024775  0.74800077  -0.00448943  1
  Al0+  Al70  1  0.75078046  0.75041576  0.32947331  1
  Al0+  Al71  1  0.75164233  0.75073835  0.66888258  1
  Al0+  Al72  1  0.67654579  0.43024341  0.34979771  1
  Al0+  Al73  1  0.82288561  0.57229854  0.34662128  1
  Al0+  Al74  1  0.82189638  0.06964915  0.34945541  1
  Al0+  Al75  1  0.82071024  0.07091432  0.01478264  1
  Al0+  Al76  1  0.67682655  0.92802644  0.68086597  1
  Al0+  Al77  1  0.07045023  0.17652211  0.65157608  1
  Al0+  Al78  1  0.82206226  0.07229156  0.68347103  1
  Al0+  Al79  1  0.57288346  0.67642074  0.98168806  1
  Al0+  Al80  1  0.17516486  0.42838618  0.01518315  1
  Al0+  Al81  1  0.42978036  0.32318300  0.65383368  1
  Al0+  Al82  1  0.92854526  0.32262274  0.64870192  1
  Al0+  Al83  1  0.92571852  0.32073486  0.98529572  1
  Al0+  Al84  1  0.18090782  0.42809267  0.68066289  1
  Al0+  Al85  1  0.57193074  0.17785976  0.65327683  1
  Al0+  Al86  1  0.43132958  0.82169633  0.98356238  1
  Al0+  Al87  1  0.07181479  0.17870955  0.98694813  1
  Al0+  Al88  1  0.67858912  0.42991703  0.01234000  1
  Al0+  Al89  1  0.31970754  0.57056521  0.01450918  1
  Al0+  Al90  1  0.67826677  0.92656933  0.01565146  1
  Al0+  Al91  1  0.67964436  0.43136839  0.68111604  1
  Al0+  Al92  1  0.57039531  0.68014309  0.31904394  1
  Al0+  Al93  1  0.32276547  0.07332197  0.01486073  1
  Al0+  Al94  1  0.07109788  0.67940258  0.98569258  1
  Al0+  Al95  1  0.17891321  0.92878022  0.01365235  1
  Si0+  Si96  1  0.17923509  0.92618551  0.68023591  1
  Si0+  Si97  1  0.42753544  0.82051055  0.64915326  1
  Si0+  Si98  1  0.67672880  0.92882709  0.34769316  1
  Si0+  Si99  1  0.92931043  0.31976865  0.31846738  1
  Si0+  Si100  1  0.32120811  0.07345180  0.35258472  1
  Si0+  Si101  1  0.82378966  0.57284680  0.68388618  1
  Si0+  Si102  1  0.07193262  0.17790907  0.31791295  1
  Si0+  Si103  1  0.42682595  0.32045631  0.31673750  1
  Si0+  Si104  1  0.32255379  0.57429814  0.68294673  1
  Si0+  Si105  1  0.17929874  0.42760012  0.34913853  1
  Si0+  Si106  1  0.82227821  0.57258643  0.01337986  1
  Si0+  Si107  1  0.57298872  0.68089090  0.65039829  1
  Si0+  Si108  1  0.31837745  0.57153172  0.34939431  1
  Si0+  Si109  1  0.07097269  0.67826106  0.31952139  1
  Si0+  Si110  1  0.42859072  0.32116741  0.98818273  1
  Si0+  Si111  1  0.56984121  0.17957674  0.98901763  1
  Si0+  Si112  1  0.92937019  0.81851607  0.65051246  1
  Si0+  Si113  1  0.18092691  0.92885046  0.34992561  1
  Si0+  Si114  1  0.07271393  0.67972220  0.64984150  1
  Si0+  Si115  1  0.93111617  0.82204625  0.31882086  1
  Si0+  Si116  1  0.57143285  0.18025857  0.31801452  1
  Si0+  Si117  1  0.31898756  0.06935478  0.67911570  1
  Si0+  Si118  1  0.92739503  0.82357788  0.98173202  1
  Si0+  Si119  1  0.42544769  0.82319341  0.31556572  1
  O2-  O120  1  0.24914608  0.00203213  0.06476478  1
  O2-  O121  1  0.25111642  0.00020089  0.39304699  1
  O2-  O122  1  0.24522487  0.00146889  0.72059065  1
  O2-  O123  1  0.24534496  0.50176529  0.06635832  1
  O2-  O124  1  0.24909834  0.49964647  0.39239568  1
  O2-  O125  1  0.25862145  0.50075132  0.72474791  1
  O2-  O126  1  0.75270297  -0.00458213  0.06605376  1
  O2-  O127  1  0.74384246  -0.00274127  0.39416670  1
  O2-  O128  1  0.74231972  0.00627097  0.72950507  1
  O2-  O129  1  0.75113990  0.50704957  0.05776362  1
  O2-  O130  1  0.74859382  0.50373616  0.39770448  1
  O2-  O131  1  0.75780735  0.50227172  0.72797439  1
  O2-  O132  1  -0.00037196  0.24750041  0.27681014  1
  O2-  O133  1  -0.00225597  0.24656163  0.59902635  1
  O2-  O134  1  0.00041941  0.25050049  0.93723934  1
  O2-  O135  1  -0.00269942  0.74604985  0.27734104  1
  O2-  O136  1  0.00013963  0.74778127  0.60594359  1
  O2-  O137  1  -0.00237275  0.75529535  0.93821137  1
  O2-  O138  1  0.50232205  0.25362754  0.27559249  1
  O2-  O139  1  0.50464777  0.25482969  0.60186334  1
  O2-  O140  1  0.49633289  0.24750716  0.94682899  1
  O2-  O141  1  0.49799894  0.75816137  0.27398997  1
  O2-  O142  1  0.50214673  0.75284588  0.60806541  1
  O2-  O143  1  0.50481532  0.75253098  0.93166846  1
  O2-  O144  1  0.06994170  0.18074440  0.10156951  1
  O2-  O145  1  0.07418049  0.17862358  0.42284943  1
  O2-  O146  1  0.07365911  0.17589325  0.76405929  1
  O2-  O147  1  0.06829676  0.68035489  0.09975332  1
  O2-  O148  1  0.07364516  0.68144555  0.42488180  1
  O2-  O149  1  0.07517728  0.68216710  0.75424354  1
  O2-  O150  1  0.57000692  0.18242386  0.09478031  1
  O2-  O151  1  0.56883732  0.17821860  0.42281372  1
  O2-  O152  1  0.56672967  0.17552048  0.76685047  1
  O2-  O153  1  0.56946873  0.67519931  0.09559813  1
  O2-  O154  1  0.56735163  0.68202449  0.43296772  1
  O2-  O155  1  0.57261261  0.67991598  0.75458421  1
  O2-  O156  1  0.17940175  0.42837422  0.24469823  1
  O2-  O157  1  0.18223845  0.43210042  0.56634432  1
  O2-  O158  1  0.17891773  0.42804132  0.90187281  1
  O2-  O159  1  0.18023720  0.92633927  0.24587062  1
  O2-  O160  1  0.18257546  0.92289080  0.57435880  1
  O2-  O161  1  0.18214512  0.92854596  0.89982038  1
  O2-  O162  1  0.67784212  0.43012679  0.23636272  1
  O2-  O163  1  0.67834604  0.43703730  0.56806740  1
  O2-  O164  1  0.67757229  0.42807567  0.89953580  1
  O2-  O165  1  0.67822992  0.93045634  0.24278258  1
  O2-  O166  1  0.68129392  0.92475008  0.56649285  1
  O2-  O167  1  0.67874771  0.93191963  0.90227060  1
  O2-  O168  1  0.43046845  0.32108229  0.09397844  1
  O2-  O169  1  0.42210983  0.31816129  0.42148299  1
  O2-  O170  1  0.42790174  0.31942917  0.76723603  1
  O2-  O171  1  0.43151236  0.81850526  0.09765375  1
  O2-  O172  1  0.42210606  0.82114135  0.42175075  1
  O2-  O173  1  0.42024512  0.81974086  0.75286879  1
  O2-  O174  1  0.92512791  0.31984562  0.10002867  1
  O2-  O175  1  0.93170795  0.32112937  0.42320458  1
  O2-  O176  1  0.93136785  0.32456151  0.76132891  1
  O2-  O177  1  0.92883096  0.82163131  0.08803060  1
  O2-  O178  1  0.93536523  0.82287029  0.42417731  1
  O2-  O179  1  0.93076854  0.81652287  0.75485613  1
  O2-  O180  1  0.32138944  0.07726330  0.24841892  1
  O2-  O181  1  0.31868872  0.06606652  0.57329484  1
  O2-  O182  1  0.32367211  0.07372593  0.90099543  1
  O2-  O183  1  0.31637244  0.57374568  0.24513138  1
  O2-  O184  1  0.31876925  0.57794733  0.57646281  1
  O2-  O185  1  0.31955377  0.56714099  0.90096507  1
  O2-  O186  1  0.82410206  0.06880460  0.23689847  1
  O2-  O187  1  0.82257951  0.06625798  0.56916977  1
  O2-  O188  1  0.81845435  0.07258567  0.90195567  1
  O2-  O189  1  0.82924649  0.56872031  0.23386146  1
  O2-  O190  1  0.82110829  0.57560390  0.57800150  1
  O2-  O191  1  0.82292233  0.57279825  0.90791188  1
  O2-  O192  1  0.04685621  0.08383573  0.27418262  1
  O2-  O193  1  0.04633610  0.07549595  0.59881038  1
  O2-  O194  1  0.04788922  0.07843472  0.93673131  1
  O2-  O195  1  0.04721884  0.58486208  0.27397256  1
  O2-  O196  1  0.04745579  0.58792641  0.60160190  1
  O2-  O197  1  0.03922324  0.58474052  0.92926697  1
  O2-  O198  1  0.53979825  0.08909565  0.27084458  1
  O2-  O199  1  0.53753991  0.08155076  0.59667280  1
  O2-  O200  1  0.54481591  0.08704112  0.94360286  1
  O2-  O201  1  0.53512974  0.58381996  0.26731364  1
  O2-  O202  1  0.54277165  0.59106131  0.60028782  1
  O2-  O203  1  0.53665320  0.57945473  0.92997876  1
  O2-  O204  1  0.16449413  0.20589247  0.27204923  1
  O2-  O205  1  0.16799453  0.20715986  0.59587075  1
  O2-  O206  1  0.17223295  0.20613155  0.93804422  1
  O2-  O207  1  0.16203143  0.71002943  0.27285289  1
  O2-  O208  1  0.16326565  0.71072147  0.59980163  1
  O2-  O209  1  0.16689533  0.71032802  0.93120314  1
  O2-  O210  1  0.66441002  0.20613803  0.27221809  1
  O2-  O211  1  0.67089085  0.20285521  0.60098524  1
  O2-  O212  1  0.65978453  0.21079590  0.94175506  1
  O2-  O213  1  0.66862467  0.70542330  0.26552776  1
  O2-  O214  1  0.66513804  0.70911332  0.60302951  1
  O2-  O215  1  0.67279358  0.69839272  0.92924704  1
  O2-  O216  1  0.07596815  0.45760035  0.06559408  1
  O2-  O217  1  0.08802381  0.45518460  0.39722904  1
  O2-  O218  1  0.08553469  0.46290901  0.73263091  1
  O2-  O219  1  0.08064674  0.95228259  0.06898508  1
  O2-  O220  1  0.08989449  0.95601222  0.39953219  1
  O2-  O221  1  0.08550401  0.94522725  0.72502650  1
  O2-  O222  1  0.58268051  0.45924400  0.06821558  1
  O2-  O223  1  0.57632031  0.45700563  0.40078276  1
  O2-  O224  1  0.58259366  0.46458802  0.73318859  1
  O2-  O225  1  0.58198438  0.95560563  0.07124822  1
  O2-  O226  1  0.58096875  0.95181881  0.39196044  1
  O2-  O227  1  0.57388270  0.94636021  0.72732412  1
  O2-  O228  1  0.20675496  0.33347173  0.07286924  1
  O2-  O229  1  0.20999295  0.33614422  0.39578902  1
  O2-  O230  1  0.21044788  0.33067279  0.73193906  1
  O2-  O231  1  0.20991221  0.83168272  0.06831093  1
  O2-  O232  1  0.20920098  0.83741025  0.39995597  1
  O2-  O233  1  0.21223079  0.83572121  0.72665351  1
  O2-  O234  1  0.70988277  0.33573217  0.07052453  1
  O2-  O235  1  0.70598998  0.33225070  0.40228358  1
  O2-  O236  1  0.70463207  0.33245547  0.73163456  1
  O2-  O237  1  0.70369167  0.82525615  0.06339109  1
  O2-  O238  1  0.70266223  0.83466064  0.39219416  1
  O2-  O239  1  0.71186004  0.83214861  0.73445143  1
  O2-  O240  1  0.44841414  0.41441933  0.27152879  1
  O2-  O241  1  0.45297867  0.42381410  0.60094358  1
  O2-  O242  1  0.45753816  0.41125720  0.94012856  1
  O2-  O243  1  0.44436717  0.91972778  0.27334159  1
  O2-  O244  1  0.45078247  0.91199145  0.59844898  1
  O2-  O245  1  0.45626791  0.92251144  0.93377755  1
  O2-  O246  1  0.95933473  0.41147628  0.27179747  1
  O2-  O247  1  0.96243274  0.42036109  0.59459596  1
  O2-  O248  1  0.94914530  0.41902754  0.93143443  1
  O2-  O249  1  0.96607027  0.91156532  0.27105480  1
  O2-  O250  1  0.95930887  0.90865496  0.60068904  1
  O2-  O251  1  0.95296345  0.91707061  0.93714283  1
  O2-  O252  1  0.33691015  0.28710188  0.26813407  1
  O2-  O253  1  0.33425138  0.28983336  0.59672216  1
  O2-  O254  1  0.33529769  0.29578991  0.94388741  1
  O2-  O255  1  0.33234354  0.79347409  0.27071211  1
  O2-  O256  1  0.33799818  0.78824292  0.59685296  1
  O2-  O257  1  0.33335031  0.79200661  0.93066940  1
  O2-  O258  1  0.83611064  0.29271086  0.27385496  1
  O2-  O259  1  0.82950093  0.29802378  0.59533378  1
  O2-  O260  1  0.82787596  0.28804720  0.93412871  1
  O2-  O261  1  0.83790509  0.80196869  0.27204939  1
  O2-  O262  1  0.83824702  0.79010842  0.60115772  1
  O2-  O263  1  0.83550651  0.79642592  0.93399839  1
  O2-  O264  1  0.41853008  0.04314007  0.07225013  1
  O2-  O265  1  0.41309303  0.04558235  0.40038517  1
  O2-  O266  1  0.40970242  0.03872650  0.72538727  1
  O2-  O267  1  0.41526927  0.53788684  0.07038566  1
  O2-  O268  1  0.40968418  0.54399041  0.39750720  1
  O2-  O269  1  0.41815675  0.55688483  0.72554451  1
  O2-  O270  1  0.91902525  0.04407640  0.06889492  1
  O2-  O271  1  0.91798409  0.03591722  0.40351578  1
  O2-  O272  1  0.91842737  0.03457278  0.73420030  1
  O2-  O273  1  0.91471739  0.54508003  0.06033604  1
  O2-  O274  1  0.92098098  0.54335841  0.40253309  1
  O2-  O275  1  0.91987490  0.55175275  0.72558239  1
  O2-  O276  1  0.29506816  0.16949539  0.07326468  1
  O2-  O277  1  0.29050838  0.16378555  0.40165208  1
  O2-  O278  1  0.29505680  0.16215126  0.72434558  1
  O2-  O279  1  0.29257293  0.66866981  0.06778375  1
  O2-  O280  1  0.28983684  0.66305960  0.39866351  1
  O2-  O281  1  0.29030772  0.66577637  0.72900296  1
  O2-  O282  1  0.78604243  0.16573469  0.07143650  1
  O2-  O283  1  0.79205633  0.16598302  0.40302682  1
  O2-  O284  1  0.80175635  0.17320390  0.73159095  1
  O2-  O285  1  0.80231190  0.66734338  0.05906483  1
  O2-  O286  1  0.79850751  0.67340509  0.39774261  1
  O2-  O287  1  0.79765270  0.66576976  0.73008850  1
