# generated using pymatgen
data_Ca2Al2SiO7
_symmetry_space_group_name_H-M   'P 1'
_cell_length_a   15.46398008
_cell_length_b   15.46453856
_cell_length_c   15.28631072
_cell_angle_alpha   90.02484412
_cell_angle_beta   89.98342024
_cell_angle_gamma   89.97712378
_symmetry_Int_Tables_number   1
_chemical_formula_structural   Ca2Al2SiO7
_chemical_formula_sum   'Ca48 Al48 Si24 O168'
_cell_volume   3655.61824937
_cell_formula_units_Z   24
loop_
 _symmetry_equiv_pos_site_id
 _symmetry_equiv_pos_as_xyz
  1  'x, y, z'
loop_
 _atom_type_symbol
 _atom_type_oxidation_number
  Ca2+  2.0
  Al0+  0.0
  Si0+  0.0
  O2-  -2.0
loop_
 _atom_site_type_symbol
 _atom_site_label
 _atom_site_symmetry_multiplicity
 _atom_site_fract_x
 _atom_site_fract_y
 _atom_site_fract_z
 _atom_site_occupancy
  Ca2+  Ca0  1  0.17105815  0.08351727  0.16692085  1
  Ca2+  Ca1  1  0.16669590  0.08590574  0.50108280  1
  Ca2+  Ca2  1  0.17530047  0.07393515  0.84499584  1
  Ca2+  Ca3  1  0.16710950  0.57954946  0.17664181  1
  Ca2+  Ca4  1  0.16299049  0.58032858  0.49657290  1
  Ca2+  Ca5  1  0.17026658  0.58175977  0.83843021  1
  Ca2+  Ca6  1  0.66804620  0.07639928  0.17037147  1
  Ca2+  Ca7  1  0.66223655  0.07982381  0.49508120  1
  Ca2+  Ca8  1  0.67268626  0.07365110  0.84426537  1
  Ca2+  Ca9  1  0.67377335  0.57705154  0.17108793  1
  Ca2+  Ca10  1  0.66758323  0.57999702  0.50442074  1
  Ca2+  Ca11  1  0.67482390  0.59069266  0.83526843  1
  Ca2+  Ca12  1  0.07679847  0.33113426  0.16844731  1
  Ca2+  Ca13  1  0.07860617  0.32971943  0.48657700  1
  Ca2+  Ca14  1  0.07682394  0.33207631  0.83572999  1
  Ca2+  Ca15  1  0.07518043  0.83137763  0.16232407  1
  Ca2+  Ca16  1  0.06924016  0.82696316  0.48994238  1
  Ca2+  Ca17  1  0.07183079  0.84219226  0.83418025  1
  Ca2+  Ca18  1  0.57949844  0.33262036  0.16383031  1
  Ca2+  Ca19  1  0.57604190  0.33126965  0.48757030  1
  Ca2+  Ca20  1  0.57183442  0.33267337  0.82943759  1
  Ca2+  Ca21  1  0.57665818  0.84505119  0.16398924  1
  Ca2+  Ca22  1  0.57804383  0.82979096  0.49443663  1
  Ca2+  Ca23  1  0.57690393  0.83507768  0.82929250  1
  Ca2+  Ca24  1  0.33084973  0.41304785  0.17576829  1
  Ca2+  Ca25  1  0.32886750  0.40718353  0.50104357  1
  Ca2+  Ca26  1  0.33615239  0.41385155  0.83875739  1
  Ca2+  Ca27  1  0.33317483  0.91666444  0.17019641  1
  Ca2+  Ca28  1  0.33540820  0.91327851  0.50257435  1
  Ca2+  Ca29  1  0.33111780  0.91747197  0.84765129  1
  Ca2+  Ca30  1  0.83687316  0.41931730  0.17438625  1
  Ca2+  Ca31  1  0.82953382  0.41996282  0.50294660  1
  Ca2+  Ca32  1  0.83484400  0.43055586  0.84270345  1
  Ca2+  Ca33  1  0.82499809  0.91247695  0.17075242  1
  Ca2+  Ca34  1  0.83011686  0.90850471  0.50153772  1
  Ca2+  Ca35  1  0.82882245  0.91677144  0.84710997  1
  Ca2+  Ca36  1  0.42037442  0.17343211  0.16420869  1
  Ca2+  Ca37  1  0.42339444  0.17590983  0.49104547  1
  Ca2+  Ca38  1  0.41127194  0.17218750  0.83426265  1
  Ca2+  Ca39  1  0.41871293  0.67797680  0.16327170  1
  Ca2+  Ca40  1  0.42101282  0.67589871  0.49730363  1
  Ca2+  Ca41  1  0.42530594  0.67911729  0.82735021  1
  Ca2+  Ca42  1  0.91215698  0.17669196  0.16200432  1
  Ca2+  Ca43  1  0.92524526  0.17314820  0.48625846  1
  Ca2+  Ca44  1  0.91081596  0.16892344  0.83549978  1
  Ca2+  Ca45  1  0.91793404  0.67235707  0.16414230  1
  Ca2+  Ca46  1  0.91569260  0.67259920  0.49596099  1
  Ca2+  Ca47  1  0.90753628  0.67648389  0.83144879  1
  Al0+  Al48  1  0.00144306  0.00066126  0.00365939  1
  Al0+  Al49  1  0.00144926  -0.00028134  0.32719341  1
  Al0+  Al50  1  0.00041507  0.00030379  0.66322961  1
  Al0+  Al51  1  0.00112101  0.49930251  -0.00061175  1
  Al0+  Al52  1  0.00305814  0.50064193  0.33374730  1
  Al0+  Al53  1  -0.00065183  0.49937139  0.67320825  1
  Al0+  Al54  1  0.49960920  0.00265122  0.00199428  1
  Al0+  Al55  1  0.50069129  0.00162154  0.33301059  1
  Al0+  Al56  1  0.49935841  0.00289415  0.66547117  1
  Al0+  Al57  1  0.50009772  0.50060134  -0.00516056  1
  Al0+  Al58  1  0.50061638  0.50315108  0.33499768  1
  Al0+  Al59  1  0.49712966  0.49979012  0.66021095  1
  Al0+  Al60  1  0.24912429  0.24931594  -0.00086992  1
  Al0+  Al61  1  0.25019936  0.25036026  0.33231050  1
  Al0+  Al62  1  0.24861385  0.24848266  0.66640621  1
  Al0+  Al63  1  0.25081068  0.74790357  -0.00012177  1
  Al0+  Al64  1  0.25030122  0.75042358  0.32930940  1
  Al0+  Al65  1  0.24766864  0.74808487  0.66585764  1
  Al0+  Al66  1  0.74829516  0.25070079  -0.00484008  1
  Al0+  Al67  1  0.74949385  0.24939742  0.33206199  1
  Al0+  Al68  1  0.74874588  0.24991835  0.66826172  1
  Al0+  Al69  1  0.75139275  0.74740912  0.00702216  1
  Al0+  Al70  1  0.74869319  0.74980801  0.33602339  1
  Al0+  Al71  1  0.74894659  0.74929545  0.66348075  1
  Al0+  Al72  1  0.82231665  0.56961717  0.01569306  1
  Al0+  Al73  1  0.43027150  0.32321013  0.31848765  1
  Al0+  Al74  1  0.43015731  0.82205085  0.98764458  1
  Al0+  Al75  1  0.07100919  0.67932652  0.31887335  1
  Al0+  Al76  1  0.92594827  0.82062240  0.31681614  1
  Al0+  Al77  1  0.92868787  0.32090853  0.32067644  1
  Al0+  Al78  1  0.42678022  0.82372187  0.65265771  1
  Al0+  Al79  1  0.57136190  0.68010911  0.65109885  1
  Al0+  Al80  1  0.42841847  0.32104736  0.98596235  1
  Al0+  Al81  1  0.82225182  0.07401279  0.01488074  1
  Al0+  Al82  1  0.32112488  0.07228473  0.01691452  1
  Al0+  Al83  1  0.67986223  0.92807779  0.01471892  1
  Al0+  Al84  1  0.67903153  0.92974550  0.35001064  1
  Al0+  Al85  1  0.17943421  0.92575276  0.01683187  1
  Al0+  Al86  1  0.93002939  0.82113763  0.65438255  1
  Al0+  Al87  1  0.92768947  0.32159714  0.98486476  1
  Al0+  Al88  1  0.67860505  0.42776160  0.34625595  1
  Al0+  Al89  1  0.57195412  0.17895727  0.31689152  1
  Al0+  Al90  1  0.81925998  0.56988186  0.68109344  1
  Al0+  Al91  1  0.18155110  0.42940103  0.34723629  1
  Al0+  Al92  1  0.42784640  0.31895296  0.65200473  1
  Al0+  Al93  1  0.43077322  0.82097924  0.31956951  1
  Al0+  Al94  1  0.92987425  0.81991865  0.98750746  1
  Al0+  Al95  1  0.07366951  0.17743856  0.31707741  1
  Si0+  Si96  1  0.82381162  0.07174721  0.68017854  1
  Si0+  Si97  1  0.06885599  0.18008671  0.65308734  1
  Si0+  Si98  1  0.57291966  0.67770531  0.31543239  1
  Si0+  Si99  1  0.57172986  0.17819814  0.98060389  1
  Si0+  Si100  1  0.07284163  0.67658169  0.98188983  1
  Si0+  Si101  1  0.67648118  0.42923234  0.01368539  1
  Si0+  Si102  1  0.82402256  0.07144818  0.35019187  1
  Si0+  Si103  1  0.17852155  0.92727174  0.34993549  1
  Si0+  Si104  1  0.67961857  0.93072363  0.68021469  1
  Si0+  Si105  1  0.17786926  0.92825614  0.67950742  1
  Si0+  Si106  1  0.32281375  0.56987020  0.01383072  1
  Si0+  Si107  1  0.07182380  0.17868981  0.98158392  1
  Si0+  Si108  1  0.32095613  0.57147309  0.68263332  1
  Si0+  Si109  1  0.17989137  0.42715605  0.68398228  1
  Si0+  Si110  1  0.31968067  0.07011035  0.35025153  1
  Si0+  Si111  1  0.82263583  0.57052337  0.35128552  1
  Si0+  Si112  1  0.32258815  0.57495789  0.35158943  1
  Si0+  Si113  1  0.92881197  0.32210600  0.65377502  1
  Si0+  Si114  1  0.31968753  0.07068404  0.68085332  1
  Si0+  Si115  1  0.18020044  0.42926539  0.01476960  1
  Si0+  Si116  1  0.67495669  0.42667104  0.68379492  1
  Si0+  Si117  1  0.57423655  0.17849929  0.64934624  1
  Si0+  Si118  1  0.07204995  0.67440105  0.65126602  1
  Si0+  Si119  1  0.57213110  0.67738418  0.98440170  1
  O2-  O120  1  0.25318707  -0.00366353  0.06655908  1
  O2-  O121  1  0.24798061  -0.00041437  0.39369384  1
  O2-  O122  1  0.25508129  -0.00700858  0.72168750  1
  O2-  O123  1  0.25271350  0.49855996  0.05618491  1
  O2-  O124  1  0.25744784  0.50233715  0.39609161  1
  O2-  O125  1  0.25107767  0.49857803  0.72546416  1
  O2-  O126  1  0.75388766  -0.00133769  0.06415116  1
  O2-  O127  1  0.75772653  0.00121142  0.39702204  1
  O2-  O128  1  0.75235591  0.00067608  0.72153855  1
  O2-  O129  1  0.74980761  0.49164584  0.05932788  1
  O2-  O130  1  0.75465620  0.50048811  0.39478057  1
  O2-  O131  1  0.74362907  0.49522851  0.72827803  1
  O2-  O132  1  -0.00278975  0.24594004  0.26989222  1
  O2-  O133  1  -0.00350871  0.24904138  0.61083994  1
  O2-  O134  1  -0.00102725  0.24342248  0.93682071  1
  O2-  O135  1  -0.00082629  0.74970720  0.26789445  1
  O2-  O136  1  0.00401527  0.74470799  0.60954994  1
  O2-  O137  1  0.00571438  0.74692274  0.93786746  1
  O2-  O138  1  0.50455210  0.25524895  0.26744357  1
  O2-  O139  1  0.50740488  0.24967268  0.60676435  1
  O2-  O140  1  0.50186453  0.24654607  0.93703330  1
  O2-  O141  1  0.50664356  0.74854627  0.27168269  1
  O2-  O142  1  0.49956247  0.75315683  0.60221861  1
  O2-  O143  1  0.50765499  0.75065661  0.94077161  1
  O2-  O144  1  0.07611962  0.18358371  0.08629504  1
  O2-  O145  1  0.07257151  0.18000792  0.43221764  1
  O2-  O146  1  0.06972205  0.18015432  0.75788144  1
  O2-  O147  1  0.07271194  0.67408209  0.08698815  1
  O2-  O148  1  0.07009564  0.68086947  0.43321114  1
  O2-  O149  1  0.07448600  0.67299195  0.75666159  1
  O2-  O150  1  0.57315288  0.17984481  0.08551989  1
  O2-  O151  1  0.56749668  0.17851928  0.43130602  1
  O2-  O152  1  0.57477724  0.17697469  0.75473913  1
  O2-  O153  1  0.56725777  0.67125466  0.08945808  1
  O2-  O154  1  0.57149745  0.67786767  0.42119650  1
  O2-  O155  1  0.57115930  0.68338277  0.76504663  1
  O2-  O156  1  0.18229974  0.43071140  0.23411219  1
  O2-  O157  1  0.17899868  0.42534594  0.57929299  1
  O2-  O158  1  0.18058914  0.43040898  0.90876656  1
  O2-  O159  1  0.18148360  0.92550840  0.24543746  1
  O2-  O160  1  0.17531744  0.93206820  0.57456806  1
  O2-  O161  1  0.18034638  0.92816790  0.90168103  1
  O2-  O162  1  0.67793907  0.43201010  0.23315876  1
  O2-  O163  1  0.67832421  0.42450933  0.57839680  1
  O2-  O164  1  0.67485664  0.43302902  0.90776444  1
  O2-  O165  1  0.67774793  0.93174508  0.23767845  1
  O2-  O166  1  0.67899454  0.93250824  0.57528247  1
  O2-  O167  1  0.67994757  0.92862576  0.89976514  1
  O2-  O168  1  0.42989168  0.32339271  0.09804078  1
  O2-  O169  1  0.42928443  0.31819400  0.43246815  1
  O2-  O170  1  0.42598134  0.31582567  0.76532354  1
  O2-  O171  1  0.42944850  0.81839511  0.10036204  1
  O2-  O172  1  0.43041452  0.81893860  0.43292803  1
  O2-  O173  1  0.42756196  0.82368683  0.76629321  1
  O2-  O174  1  0.93133602  0.32368529  0.09714209  1
  O2-  O175  1  0.93082554  0.32031980  0.43551945  1
  O2-  O176  1  0.93130852  0.32135952  0.75879198  1
  O2-  O177  1  0.92936619  0.81618853  0.09955454  1
  O2-  O178  1  0.92764868  0.81823491  0.43135556  1
  O2-  O179  1  0.93082985  0.82409423  0.76742637  1
  O2-  O180  1  0.31917277  0.06973742  0.24562550  1
  O2-  O181  1  0.31666193  0.07415769  0.57593443  1
  O2-  O182  1  0.31758151  0.07267350  0.90207848  1
  O2-  O183  1  0.32090916  0.57579156  0.24578361  1
  O2-  O184  1  0.31869984  0.57334304  0.57797142  1
  O2-  O185  1  0.32141509  0.56909982  0.90827681  1
  O2-  O186  1  0.82237265  0.07234600  0.24523789  1
  O2-  O187  1  0.82626428  0.07354130  0.57556301  1
  O2-  O188  1  0.81860037  0.07179171  0.89981273  1
  O2-  O189  1  0.82190888  0.56987074  0.24571887  1
  O2-  O190  1  0.82225750  0.56587403  0.56837903  1
  O2-  O191  1  0.82004002  0.57088247  0.90206080  1
  O2-  O192  1  0.05379731  0.07770147  0.26576634  1
  O2-  O193  1  0.04367380  0.08874167  0.60349267  1
  O2-  O194  1  0.05117429  0.08359002  0.93655444  1
  O2-  O195  1  0.04601884  0.58059516  0.26631938  1
  O2-  O196  1  0.04478693  0.58053331  0.60626915  1
  O2-  O197  1  0.04689359  0.58350044  0.93444675  1
  O2-  O198  1  0.53787331  0.08327244  0.26408526  1
  O2-  O199  1  0.54510126  0.08657240  0.60215776  1
  O2-  O200  1  0.54489750  0.08542544  0.93323563  1
  O2-  O201  1  0.54504656  0.58586264  0.26795074  1
  O2-  O202  1  0.54263697  0.58189219  0.59814773  1
  O2-  O203  1  0.54202454  0.58745536  0.93257680  1
  O2-  O204  1  0.16937385  0.21057341  0.26414777  1
  O2-  O205  1  0.15968223  0.20963239  0.60498032  1
  O2-  O206  1  0.16250446  0.21057757  0.93162115  1
  O2-  O207  1  0.16893903  0.70644409  0.26536548  1
  O2-  O208  1  0.16540300  0.69777269  0.60418022  1
  O2-  O209  1  0.16742924  0.69952333  0.93583139  1
  O2-  O210  1  0.67148605  0.20117296  0.26585948  1
  O2-  O211  1  0.66889398  0.20071135  0.60325756  1
  O2-  O212  1  0.66372765  0.20419904  0.93072355  1
  O2-  O213  1  0.66741198  0.69998341  0.27165811  1
  O2-  O214  1  0.66852551  0.70702219  0.59595938  1
  O2-  O215  1  0.66757969  0.69990913  0.94196588  1
  O2-  O216  1  0.08936340  0.45837761  0.06174167  1
  O2-  O217  1  0.08579170  0.46162837  0.40418285  1
  O2-  O218  1  0.08881275  0.45519299  0.73337524  1
  O2-  O219  1  0.08209524  0.95547584  0.06919795  1
  O2-  O220  1  0.08550997  0.95398822  0.39649995  1
  O2-  O221  1  0.08861648  0.96345366  0.72870732  1
  O2-  O222  1  0.58462789  0.46011460  0.06057469  1
  O2-  O223  1  0.58277280  0.46134810  0.40209196  1
  O2-  O224  1  0.57952016  0.45159699  0.72657828  1
  O2-  O225  1  0.58220658  0.95983679  0.06604214  1
  O2-  O226  1  0.58326495  0.96488744  0.40483281  1
  O2-  O227  1  0.58765710  0.96059960  0.72765954  1
  O2-  O228  1  0.20626458  0.33720093  0.06035216  1
  O2-  O229  1  0.21129169  0.33249751  0.40327498  1
  O2-  O230  1  0.20847984  0.33545013  0.73214917  1
  O2-  O231  1  0.20571306  0.82596698  0.06731292  1
  O2-  O232  1  0.20880657  0.83618904  0.39811408  1
  O2-  O233  1  0.19698329  0.83367649  0.72508009  1
  O2-  O234  1  0.69548191  0.33314266  0.05507181  1
  O2-  O235  1  0.70574190  0.33018625  0.40124136  1
  O2-  O236  1  0.69946501  0.33253506  0.73057804  1
  O2-  O237  1  0.70416117  0.82966974  0.06834949  1
  O2-  O238  1  0.70666215  0.83155391  0.40413727  1
  O2-  O239  1  0.70550324  0.83825767  0.72607603  1
  O2-  O240  1  0.45239619  0.42453500  0.26998818  1
  O2-  O241  1  0.44949061  0.41740339  0.59924448  1
  O2-  O242  1  0.45966480  0.41708918  0.92927917  1
  O2-  O243  1  0.45984845  0.91790806  0.26780467  1
  O2-  O244  1  0.45254450  0.92350614  0.60137674  1
  O2-  O245  1  0.45618542  0.92053444  0.93491357  1
  O2-  O246  1  0.96075741  0.41797357  0.26916648  1
  O2-  O247  1  0.96001867  0.41288999  0.60751428  1
  O2-  O248  1  0.96542414  0.41598054  0.92915159  1
  O2-  O249  1  0.95239995  0.91932825  0.26635494  1
  O2-  O250  1  0.96193776  0.91668650  0.59833049  1
  O2-  O251  1  0.95923761  0.91835042  0.93450714  1
  O2-  O252  1  0.33301091  0.29150309  0.26729547  1
  O2-  O253  1  0.33173397  0.28377430  0.59938759  1
  O2-  O254  1  0.33136372  0.29042688  0.93139090  1
  O2-  O255  1  0.33518836  0.78956441  0.26563851  1
  O2-  O256  1  0.32770031  0.79386904  0.60143403  1
  O2-  O257  1  0.33440971  0.78722321  0.93332576  1
  O2-  O258  1  0.83013206  0.29679973  0.26802672  1
  O2-  O259  1  0.83473350  0.29828408  0.60943549  1
  O2-  O260  1  0.83039387  0.29557167  0.92884732  1
  O2-  O261  1  0.82725890  0.79113874  0.26689625  1
  O2-  O262  1  0.83404637  0.79086357  0.60057013  1
  O2-  O263  1  0.83261339  0.78631378  0.93492777  1
  O2-  O264  1  0.42085515  0.05086379  0.06755192  1
  O2-  O265  1  0.41071743  0.04140064  0.39869271  1
  O2-  O266  1  0.41415122  0.05152345  0.72712074  1
  O2-  O267  1  0.41487593  0.54284249  0.06025803  1
  O2-  O268  1  0.41735928  0.55468405  0.39699728  1
  O2-  O269  1  0.41328700  0.54421275  0.72931901  1
  O2-  O270  1  0.92314390  0.05505027  0.06385843  1
  O2-  O271  1  0.91981022  0.04842850  0.39462639  1
  O2-  O272  1  0.91596394  0.04504030  0.72798466  1
  O2-  O273  1  0.91983607  0.53915816  0.06712941  1
  O2-  O274  1  0.91664224  0.54636009  0.39696801  1
  O2-  O275  1  0.91539956  0.53898887  0.73759016  1
  O2-  O276  1  0.28774594  0.16966028  0.06892632  1
  O2-  O277  1  0.29052649  0.16150518  0.39848928  1
  O2-  O278  1  0.28421066  0.15942067  0.73066689  1
  O2-  O279  1  0.29473240  0.66050655  0.06251105  1
  O2-  O280  1  0.29112202  0.66663504  0.39934292  1
  O2-  O281  1  0.29105914  0.66240396  0.73229858  1
  O2-  O282  1  0.79101027  0.17298643  0.06474441  1
  O2-  O283  1  0.79700172  0.16453011  0.39790356  1
  O2-  O284  1  0.79616071  0.16396856  0.72839205  1
  O2-  O285  1  0.79018916  0.66294430  0.07323293  1
  O2-  O286  1  0.79422621  0.66319245  0.39801121  1
  O2-  O287  1  0.78741144  0.66748250  0.73399466  1
