# generated using pymatgen
data_Ca2Al2SiO7
_symmetry_space_group_name_H-M   'P 1'
_cell_length_a   15.47312190
_cell_length_b   15.47202990
_cell_length_c   15.29533612
_cell_angle_alpha   90.00487473
_cell_angle_beta   89.99450002
_cell_angle_gamma   90.01929928
_symmetry_Int_Tables_number   1
_chemical_formula_structural   Ca2Al2SiO7
_chemical_formula_sum   'Ca48 Al48 Si24 O168'
_cell_volume   3661.71247765
_cell_formula_units_Z   24
loop_
 _symmetry_equiv_pos_site_id
 _symmetry_equiv_pos_as_xyz
  1  'x, y, z'
loop_
 _atom_type_symbol
 _atom_type_oxidation_number
  Ca2+  2.0
  Al0+  0.0
  Si0+  0.0
  O2-  -2.0
loop_
 _atom_site_type_symbol
 _atom_site_label
 _atom_site_symmetry_multiplicity
 _atom_site_fract_x
 _atom_site_fract_y
 _atom_site_fract_z
 _atom_site_occupancy
  Ca2+  Ca0  1  0.16466236  0.08324872  0.16047098  1
  Ca2+  Ca1  1  0.16941422  0.08380039  0.50393716  1
  Ca2+  Ca2  1  0.16957035  0.07992103  0.85083276  1
  Ca2+  Ca3  1  0.16837105  0.58126135  0.16482311  1
  Ca2+  Ca4  1  0.16185453  0.58799110  0.50336934  1
  Ca2+  Ca5  1  0.16960207  0.57964143  0.84310974  1
  Ca2+  Ca6  1  0.67791431  0.08506980  0.16775951  1
  Ca2+  Ca7  1  0.67738636  0.07630839  0.50192479  1
  Ca2+  Ca8  1  0.67638172  0.08249057  0.83664863  1
  Ca2+  Ca9  1  0.68066599  0.57387798  0.16756131  1
  Ca2+  Ca10  1  0.67477008  0.57315898  0.50203856  1
  Ca2+  Ca11  1  0.67184931  0.57044104  0.84321467  1
  Ca2+  Ca12  1  0.07046555  0.32920835  0.15647623  1
  Ca2+  Ca13  1  0.06535518  0.33274813  0.49425992  1
  Ca2+  Ca14  1  0.07101714  0.33659595  0.83460597  1
  Ca2+  Ca15  1  0.07830224  0.82836204  0.15795549  1
  Ca2+  Ca16  1  0.08022337  0.82141823  0.49585728  1
  Ca2+  Ca17  1  0.07685151  0.83247619  0.83577873  1
  Ca2+  Ca18  1  0.58382410  0.33183992  0.15394250  1
  Ca2+  Ca19  1  0.58815925  0.33815397  0.49636791  1
  Ca2+  Ca20  1  0.58984648  0.33091511  0.83637063  1
  Ca2+  Ca21  1  0.57968632  0.83649415  0.15674077  1
  Ca2+  Ca22  1  0.58589186  0.84222817  0.49449999  1
  Ca2+  Ca23  1  0.57835168  0.83761929  0.83185783  1
  Ca2+  Ca24  1  0.32715968  0.40933121  0.15943864  1
  Ca2+  Ca25  1  0.32827691  0.42038136  0.50431397  1
  Ca2+  Ca26  1  0.32523560  0.42013656  0.84998359  1
  Ca2+  Ca27  1  0.33095555  0.91808444  0.15952600  1
  Ca2+  Ca28  1  0.33150782  0.91862279  0.50310750  1
  Ca2+  Ca29  1  0.32579512  0.92053864  0.84664633  1
  Ca2+  Ca30  1  0.82841137  0.41448200  0.17165103  1
  Ca2+  Ca31  1  0.82937462  0.41321432  0.50124668  1
  Ca2+  Ca32  1  0.82898664  0.41590554  0.84222926  1
  Ca2+  Ca33  1  0.83740502  0.92884720  0.16968377  1
  Ca2+  Ca34  1  0.82814544  0.92795682  0.50699916  1
  Ca2+  Ca35  1  0.83598533  0.92599574  0.84256693  1
  Ca2+  Ca36  1  0.42836177  0.16900782  0.15074458  1
  Ca2+  Ca37  1  0.42216349  0.16963909  0.49410075  1
  Ca2+  Ca38  1  0.42093396  0.16714558  0.83959380  1
  Ca2+  Ca39  1  0.41930848  0.67053702  0.15552597  1
  Ca2+  Ca40  1  0.42363838  0.66925328  0.49475401  1
  Ca2+  Ca41  1  0.41248653  0.66906881  0.83610973  1
  Ca2+  Ca42  1  0.91259092  0.17332600  0.15688353  1
  Ca2+  Ca43  1  0.90095535  0.17470829  0.49941715  1
  Ca2+  Ca44  1  0.91031015  0.17477607  0.83547888  1
  Ca2+  Ca45  1  0.91368478  0.66794128  0.15996088  1
  Ca2+  Ca46  1  0.92580532  0.66023298  0.49220057  1
  Ca2+  Ca47  1  0.91688861  0.66933460  0.83320637  1
  Al0+  Al48  1  -0.00017414  -0.00236956  0.00159443  1
  Al0+  Al49  1  0.00335444  -0.00070736  0.34136318  1
  Al0+  Al50  1  0.00219776  -0.00023336  0.66831558  1
  Al0+  Al51  1  0.00145162  0.50077151  0.00260187  1
  Al0+  Al52  1  0.00207823  0.49762536  0.32734363  1
  Al0+  Al53  1  0.00024148  0.49905392  0.65823460  1
  Al0+  Al54  1  0.49863733  -0.00094101  -0.00776130  1
  Al0+  Al55  1  0.49748507  0.00255191  0.33492779  1
  Al0+  Al56  1  0.49925203  0.00142441  0.66710058  1
  Al0+  Al57  1  0.50034300  0.50036724  0.00328694  1
  Al0+  Al58  1  0.49700034  0.50296795  0.33515934  1
  Al0+  Al59  1  0.49927828  0.50184260  0.66856261  1
  Al0+  Al60  1  0.25207333  0.24892786  0.00262087  1
  Al0+  Al61  1  0.24958426  0.25074900  0.33594731  1
  Al0+  Al62  1  0.25052151  0.25245290  0.66554810  1
  Al0+  Al63  1  0.25087215  0.75013478  0.00330850  1
  Al0+  Al64  1  0.25092919  0.75012176  0.33064034  1
  Al0+  Al65  1  0.25180289  0.75213201  0.66088961  1
  Al0+  Al66  1  0.74941323  0.24745689  -0.00163181  1
  Al0+  Al67  1  0.74711449  0.24853106  0.33625782  1
  Al0+  Al68  1  0.74762713  0.24871032  0.66867615  1
  Al0+  Al69  1  0.74925060  0.74857235  -0.00315487  1
  Al0+  Al70  1  0.74987614  0.74820487  0.33957863  1
  Al0+  Al71  1  0.74805281  0.74951342  0.66783949  1
  Al0+  Al72  1  0.42862787  0.81958700  0.98546208  1
  Al0+  Al73  1  0.42993209  0.32280258  0.98523514  1
  Al0+  Al74  1  0.32144662  0.57137012  0.01516637  1
  Al0+  Al75  1  0.67704803  0.92716453  0.68364527  1
  Al0+  Al76  1  0.92738819  0.82004562  0.98833839  1
  Al0+  Al77  1  0.67715864  0.42968693  0.34777389  1
  Al0+  Al78  1  0.67638343  0.92922395  0.34460800  1
  Al0+  Al79  1  0.92795739  0.31786749  0.65211139  1
  Al0+  Al80  1  0.82213235  0.06964646  0.68507762  1
  Al0+  Al81  1  0.82277095  0.57301191  0.01269737  1
  Al0+  Al82  1  0.17757042  0.92835829  0.01554947  1
  Al0+  Al83  1  0.82491669  0.56949902  0.34907482  1
  Al0+  Al84  1  0.32293766  0.07115531  0.01469354  1
  Al0+  Al85  1  0.92763120  0.31596745  0.31907565  1
  Al0+  Al86  1  0.57287403  0.17739072  0.98283884  1
  Al0+  Al87  1  0.82338485  0.07075547  0.34862927  1
  Al0+  Al88  1  0.07029398  0.17760439  0.98758001  1
  Al0+  Al89  1  0.82085675  0.06906329  0.01315902  1
  Al0+  Al90  1  0.06971148  0.68162041  0.65449647  1
  Al0+  Al91  1  0.67850506  0.43061257  0.68181720  1
  Al0+  Al92  1  0.07144083  0.67918287  0.31664251  1
  Al0+  Al93  1  0.68144517  0.42708519  0.01455370  1
  Al0+  Al94  1  0.92860823  0.32251767  0.98577389  1
  Al0+  Al95  1  0.17760515  0.42675674  0.01543609  1
  Si0+  Si96  1  0.32010660  0.07339158  0.68068492  1
  Si0+  Si97  1  0.18223397  0.92866306  0.67992437  1
  Si0+  Si98  1  0.92792030  0.82290095  0.31949264  1
  Si0+  Si99  1  0.31993112  0.57282645  0.67986191  1
  Si0+  Si100  1  0.07571636  0.17752454  0.65055413  1
  Si0+  Si101  1  0.57102398  0.67643078  0.65045652  1
  Si0+  Si102  1  0.56707045  0.18057012  0.31964396  1
  Si0+  Si103  1  0.57164806  0.67832140  0.31875667  1
  Si0+  Si104  1  0.18108244  0.92628869  0.35103088  1
  Si0+  Si105  1  0.31955650  0.07134774  0.34930725  1
  Si0+  Si106  1  0.56773499  0.18008301  0.64883664  1
  Si0+  Si107  1  0.67755773  0.92705953  0.01318627  1
  Si0+  Si108  1  0.82524176  0.57108604  0.68212454  1
  Si0+  Si109  1  0.07597950  0.17622401  0.31804880  1
  Si0+  Si110  1  0.57203115  0.67806341  0.98216095  1
  Si0+  Si111  1  0.07259258  0.67829204  0.98451833  1
  Si0+  Si112  1  0.43165902  0.82067574  0.64931977  1
  Si0+  Si113  1  0.43108882  0.82247124  0.31806305  1
  Si0+  Si114  1  0.42724928  0.32371269  0.65023481  1
  Si0+  Si115  1  0.42680092  0.32368903  0.31972054  1
  Si0+  Si116  1  0.17854637  0.43073193  0.67949293  1
  Si0+  Si117  1  0.31883106  0.57373267  0.35083352  1
  Si0+  Si118  1  0.18071001  0.42834319  0.35033071  1
  Si0+  Si119  1  0.92610583  0.82382934  0.64962469  1
  O2-  O120  1  0.24834783  0.00222399  0.06528069  1
  O2-  O121  1  0.24801727  0.00177379  0.39330451  1
  O2-  O122  1  0.24423517  0.00756416  0.72082682  1
  O2-  O123  1  0.25081082  0.49851614  0.06548462  1
  O2-  O124  1  0.24858566  0.50256273  0.39395052  1
  O2-  O125  1  0.24882882  0.50250195  0.72084322  1
  O2-  O126  1  0.74602639  -0.00606752  0.05890000  1
  O2-  O127  1  0.75368327  -0.00559160  0.39588048  1
  O2-  O128  1  0.75473345  -0.00789360  0.73328724  1
  O2-  O129  1  0.75742819  0.49535709  0.06292838  1
  O2-  O130  1  0.75246452  0.49762560  0.39924034  1
  O2-  O131  1  0.75511850  0.50419347  0.72582502  1
  O2-  O132  1  0.00012769  0.23699941  0.27648765  1
  O2-  O133  1  0.00229514  0.24069762  0.60602269  1
  O2-  O134  1  0.00196571  0.25139391  0.93545114  1
  O2-  O135  1  -0.00715418  0.75122402  0.27391550  1
  O2-  O136  1  -0.00815412  0.75199335  0.60531233  1
  O2-  O137  1  0.00066625  0.74373306  0.94115446  1
  O2-  O138  1  0.50206448  0.25765939  0.27946105  1
  O2-  O139  1  0.49832004  0.25365202  0.60628969  1
  O2-  O140  1  0.50212992  0.25223779  0.93371325  1
  O2-  O141  1  0.50736202  0.75673239  0.27817276  1
  O2-  O142  1  0.50604024  0.75361893  0.60664026  1
  O2-  O143  1  0.50250971  0.74567655  0.93663298  1
  O2-  O144  1  0.06623673  0.17785778  0.10158864  1
  O2-  O145  1  0.08470892  0.18172274  0.42365381  1
  O2-  O146  1  0.08382954  0.18099262  0.75471861  1
  O2-  O147  1  0.07435015  0.68123422  0.09001535  1
  O2-  O148  1  0.07432864  0.68340548  0.43044035  1
  O2-  O149  1  0.07362878  0.68378803  0.76667735  1
  O2-  O150  1  0.57168797  0.17591771  0.09707269  1
  O2-  O151  1  0.56247412  0.17820864  0.42526453  1
  O2-  O152  1  0.56514799  0.17846019  0.75299779  1
  O2-  O153  1  0.57195192  0.68161966  0.08790566  1
  O2-  O154  1  0.56535740  0.67540803  0.42421508  1
  O2-  O155  1  0.56480823  0.67269968  0.75455696  1
  O2-  O156  1  0.18513849  0.42495672  0.24640743  1
  O2-  O157  1  0.18157991  0.43055873  0.57389816  1
  O2-  O158  1  0.17731353  0.43102566  0.90088288  1
  O2-  O159  1  0.18226403  0.92381278  0.24709573  1
  O2-  O160  1  0.18685573  0.92710779  0.57419380  1
  O2-  O161  1  0.18010108  0.92728660  0.90119389  1
  O2-  O162  1  0.67399774  0.43115437  0.23534503  1
  O2-  O163  1  0.67622821  0.43352997  0.56865069  1
  O2-  O164  1  0.68127616  0.43031922  0.90064273  1
  O2-  O165  1  0.66956696  0.93407930  0.23187396  1
  O2-  O166  1  0.67476788  0.93233610  0.56989843  1
  O2-  O167  1  0.67946025  0.92750709  0.90766910  1
  O2-  O168  1  0.43249389  0.32033417  0.09956139  1
  O2-  O169  1  0.42404233  0.32111672  0.42568699  1
  O2-  O170  1  0.42256222  0.32362351  0.75392938  1
  O2-  O171  1  0.43167576  0.81961920  0.09911552  1
  O2-  O172  1  0.42889130  0.82170137  0.42396671  1
  O2-  O173  1  0.42726340  0.81873041  0.75343136  1
  O2-  O174  1  0.92753297  0.31985698  0.09928347  1
  O2-  O175  1  0.92949596  0.31588337  0.43284485  1
  O2-  O176  1  0.93094935  0.32187620  0.76413476  1
  O2-  O177  1  0.92819184  0.82006371  0.10157069  1
  O2-  O178  1  0.93268943  0.82376392  0.42539845  1
  O2-  O179  1  0.92930687  0.82459537  0.75483317  1
  O2-  O180  1  0.32202106  0.07098708  0.24560304  1
  O2-  O181  1  0.32090544  0.07158058  0.57455042  1
  O2-  O182  1  0.32208848  0.06730172  0.90042120  1
  O2-  O183  1  0.32003871  0.57660710  0.24703274  1
  O2-  O184  1  0.32057069  0.57232563  0.57419310  1
  O2-  O185  1  0.31726680  0.57306274  0.90061805  1
  O2-  O186  1  0.82263775  0.07067589  0.23549326  1
  O2-  O187  1  0.81827655  0.06962335  0.57112147  1
  O2-  O188  1  0.82047032  0.06806763  0.90048311  1
  O2-  O189  1  0.82208427  0.57048080  0.23631696  1
  O2-  O190  1  0.82545098  0.56959608  0.57641488  1
  O2-  O191  1  0.81872412  0.57483370  0.89871102  1
  O2-  O192  1  0.06019094  0.07773882  0.27985769  1
  O2-  O193  1  0.05712682  0.08077753  0.60663316  1
  O2-  O194  1  0.04316448  0.07908274  0.93476270  1
  O2-  O195  1  0.04919826  0.58038055  0.26515745  1
  O2-  O196  1  0.04403922  0.58474028  0.59724771  1
  O2-  O197  1  0.05169549  0.58408760  0.93850977  1
  O2-  O198  1  0.53120733  0.09195908  0.27174466  1
  O2-  O199  1  0.53439956  0.08984453  0.60011340  1
  O2-  O200  1  0.53982358  0.08190745  0.92664337  1
  O2-  O201  1  0.53396239  0.59071155  0.27014486  1
  O2-  O202  1  0.53496931  0.58845356  0.59927818  1
  O2-  O203  1  0.54524618  0.58487557  0.93683923  1
  O2-  O204  1  0.16725377  0.20814699  0.27042271  1
  O2-  O205  1  0.16776305  0.20734854  0.60023312  1
  O2-  O206  1  0.17194812  0.19949635  0.93908688  1
  O2-  O207  1  0.16782035  0.71374970  0.26467190  1
  O2-  O208  1  0.16549501  0.71625421  0.59736460  1
  O2-  O209  1  0.16488942  0.70774414  0.93822923  1
  O2-  O210  1  0.66035297  0.20189090  0.27437639  1
  O2-  O211  1  0.65947933  0.20697848  0.60173241  1
  O2-  O212  1  0.66956304  0.20560413  0.92766417  1
  O2-  O213  1  0.66630911  0.69741922  0.27468853  1
  O2-  O214  1  0.66543040  0.69661230  0.60456573  1
  O2-  O215  1  0.66357128  0.70412916  0.93279258  1
  O2-  O216  1  0.08119136  0.45628000  0.07037097  1
  O2-  O217  1  0.08847011  0.45487752  0.39636828  1
  O2-  O218  1  0.08657188  0.45864447  0.72455455  1
  O2-  O219  1  0.08070503  0.95502188  0.07105040  1
  O2-  O220  1  0.08991851  0.94944003  0.40214168  1
  O2-  O221  1  0.08756504  0.94577737  0.72428134  1
  O2-  O222  1  0.58376156  0.45786766  0.06650163  1
  O2-  O223  1  0.57828918  0.46159329  0.40117644  1
  O2-  O224  1  0.58136962  0.46280684  0.73402855  1
  O2-  O225  1  0.58289164  0.95216494  0.05560182  1
  O2-  O226  1  0.57944701  0.96359189  0.40078081  1
  O2-  O227  1  0.57873477  0.96057678  0.73424093  1
  O2-  O228  1  0.20793592  0.33014875  0.07012435  1
  O2-  O229  1  0.21277882  0.33886592  0.40138591  1
  O2-  O230  1  0.20781126  0.33937802  0.72584812  1
  O2-  O231  1  0.21094668  0.83280855  0.07009156  1
  O2-  O232  1  0.21676262  0.83728149  0.40012383  1
  O2-  O233  1  0.21992125  0.84042250  0.72664264  1
  O2-  O234  1  0.70444831  0.32744646  0.06547552  1
  O2-  O235  1  0.70103573  0.33011691  0.40059465  1
  O2-  O236  1  0.70504064  0.33241844  0.73205627  1
  O2-  O237  1  0.69979457  0.83267067  0.05801736  1
  O2-  O238  1  0.69411684  0.82805655  0.39663501  1
  O2-  O239  1  0.69276308  0.82393379  0.73119233  1
  O2-  O240  1  0.44734946  0.41807351  0.27579902  1
  O2-  O241  1  0.45441055  0.41641415  0.60276634  1
  O2-  O242  1  0.45387270  0.42302465  0.93375813  1
  O2-  O243  1  0.45289726  0.91636179  0.27268355  1
  O2-  O244  1  0.45557083  0.91430121  0.60197926  1
  O2-  O245  1  0.45753902  0.91403497  0.92720205  1
  O2-  O246  1  0.96246531  0.41098869  0.26613276  1
  O2-  O247  1  0.96198076  0.41268793  0.59507878  1
  O2-  O248  1  0.95710426  0.42179897  0.93342214  1
  O2-  O249  1  0.95895602  0.91623786  0.27543782  1
  O2-  O250  1  0.95669428  0.91604889  0.60236531  1
  O2-  O251  1  0.96285414  0.91348512  0.93181222  1
  O2-  O252  1  0.33638683  0.29095718  0.27355053  1
  O2-  O253  1  0.33610666  0.29501884  0.59941735  1
  O2-  O254  1  0.33131471  0.29406936  0.93299935  1
  O2-  O255  1  0.34133186  0.78939421  0.27153542  1
  O2-  O256  1  0.34237151  0.78914334  0.59743780  1
  O2-  O257  1  0.33225195  0.78756270  0.93122336  1
  O2-  O258  1  0.82886270  0.28857783  0.26853829  1
  O2-  O259  1  0.83036216  0.28697103  0.59899880  1
  O2-  O260  1  0.83187284  0.29094920  0.93247945  1
  O2-  O261  1  0.83151900  0.80265031  0.27783347  1
  O2-  O262  1  0.83014759  0.80286426  0.60623380  1
  O2-  O263  1  0.83180691  0.79109369  0.93104703  1
  O2-  O264  1  0.42009811  0.03601736  0.06653682  1
  O2-  O265  1  0.40903590  0.04103417  0.40080528  1
  O2-  O266  1  0.40974520  0.04092087  0.72697216  1
  O2-  O267  1  0.42007260  0.54730984  0.06866788  1
  O2-  O268  1  0.40968249  0.54497297  0.40057970  1
  O2-  O269  1  0.41097582  0.54615637  0.72718283  1
  O2-  O270  1  0.91540550  0.03653991  0.06836945  1
  O2-  O271  1  0.92325919  0.04850924  0.40342509  1
  O2-  O272  1  0.92446129  0.04809018  0.73277840  1
  O2-  O273  1  0.92375014  0.55605545  0.06232979  1
  O2-  O274  1  0.92472967  0.54029728  0.39946744  1
  O2-  O275  1  0.91926075  0.54458604  0.72603559  1
  O2-  O276  1  0.30115481  0.16952853  0.06891651  1
  O2-  O277  1  0.29275022  0.16314813  0.39919184  1
  O2-  O278  1  0.29851902  0.16754717  0.72498175  1
  O2-  O279  1  0.29267383  0.66845959  0.06997574  1
  O2-  O280  1  0.29131009  0.66544009  0.40007162  1
  O2-  O281  1  0.29237968  0.66568753  0.72459981  1
  O2-  O282  1  0.78814129  0.16425075  0.06703607  1
  O2-  O283  1  0.78553536  0.16520384  0.40345034  1
  O2-  O284  1  0.78675826  0.16620904  0.73549873  1
  O2-  O285  1  0.78732090  0.66895410  0.06751038  1
  O2-  O286  1  0.79798423  0.66809847  0.40381020  1
  O2-  O287  1  0.80255890  0.66663466  0.72478199  1
