# generated using pymatgen
data_Ca2Al2SiO7
_symmetry_space_group_name_H-M   'P 1'
_cell_length_a   15.45888836
_cell_length_b   15.45935566
_cell_length_c   15.28368219
_cell_angle_alpha   89.97599618
_cell_angle_beta   89.99018625
_cell_angle_gamma   90.00045750
_symmetry_Int_Tables_number   1
_chemical_formula_structural   Ca2Al2SiO7
_chemical_formula_sum   'Ca48 Al48 Si24 O168'
_cell_volume   3652.56205493
_cell_formula_units_Z   24
loop_
 _symmetry_equiv_pos_site_id
 _symmetry_equiv_pos_as_xyz
  1  'x, y, z'
loop_
 _atom_type_symbol
 _atom_type_oxidation_number
  Ca2+  2.0
  Al0+  0.0
  Si0+  0.0
  O2-  -2.0
loop_
 _atom_site_type_symbol
 _atom_site_label
 _atom_site_symmetry_multiplicity
 _atom_site_fract_x
 _atom_site_fract_y
 _atom_site_fract_z
 _atom_site_occupancy
  Ca2+  Ca0  1  0.17527316  0.08396177  0.16868989  1
  Ca2+  Ca1  1  0.16794702  0.07436027  0.50696312  1
  Ca2+  Ca2  1  0.17370621  0.07466453  0.83923828  1
  Ca2+  Ca3  1  0.17430726  0.58560720  0.17180286  1
  Ca2+  Ca4  1  0.17826977  0.58201668  0.50019235  1
  Ca2+  Ca5  1  0.17836307  0.58912258  0.84075676  1
  Ca2+  Ca6  1  0.67200855  0.08738382  0.17132057  1
  Ca2+  Ca7  1  0.67508249  0.08995015  0.50313320  1
  Ca2+  Ca8  1  0.67156169  0.09112399  0.83885217  1
  Ca2+  Ca9  1  0.66696058  0.58482813  0.17446170  1
  Ca2+  Ca10  1  0.67268952  0.58546709  0.50857842  1
  Ca2+  Ca11  1  0.66222820  0.58084772  0.83480367  1
  Ca2+  Ca12  1  0.07195249  0.34386105  0.16501015  1
  Ca2+  Ca13  1  0.07731824  0.33520174  0.49051635  1
  Ca2+  Ca14  1  0.07587208  0.33274115  0.83247906  1
  Ca2+  Ca15  1  0.07602656  0.82795457  0.16411434  1
  Ca2+  Ca16  1  0.07716366  0.83465804  0.49553311  1
  Ca2+  Ca17  1  0.08718782  0.83002146  0.83234893  1
  Ca2+  Ca18  1  0.58816876  0.32176572  0.16405190  1
  Ca2+  Ca19  1  0.59483322  0.32561782  0.50064183  1
  Ca2+  Ca20  1  0.58779400  0.32495339  0.82771073  1
  Ca2+  Ca21  1  0.57510203  0.81921815  0.16301896  1
  Ca2+  Ca22  1  0.57928441  0.82052736  0.49060456  1
  Ca2+  Ca23  1  0.57762285  0.82335608  0.83171451  1
  Ca2+  Ca24  1  0.32740399  0.42960145  0.17556442  1
  Ca2+  Ca25  1  0.33387110  0.42678703  0.50199715  1
  Ca2+  Ca26  1  0.33818600  0.42884152  0.83832310  1
  Ca2+  Ca27  1  0.34222221  0.91450144  0.16620928  1
  Ca2+  Ca28  1  0.32904506  0.90994867  0.50161716  1
  Ca2+  Ca29  1  0.33149660  0.91542922  0.84009857  1
  Ca2+  Ca30  1  0.83648422  0.42028070  0.17361340  1
  Ca2+  Ca31  1  0.83030976  0.42796442  0.50251153  1
  Ca2+  Ca32  1  0.82720127  0.41786624  0.83318392  1
  Ca2+  Ca33  1  0.83415196  0.92706462  0.17479857  1
  Ca2+  Ca34  1  0.83530502  0.92657403  0.50439323  1
  Ca2+  Ca35  1  0.82879366  0.92952956  0.83883174  1
  Ca2+  Ca36  1  0.42792237  0.16350968  0.15839846  1
  Ca2+  Ca37  1  0.43131988  0.16727467  0.49234291  1
  Ca2+  Ca38  1  0.42726826  0.16136585  0.82984473  1
  Ca2+  Ca39  1  0.41661766  0.67111826  0.16007679  1
  Ca2+  Ca40  1  0.42439834  0.66362744  0.49377095  1
  Ca2+  Ca41  1  0.42250656  0.66216037  0.82958178  1
  Ca2+  Ca42  1  0.90939622  0.17747403  0.16237527  1
  Ca2+  Ca43  1  0.91174139  0.17188345  0.49162555  1
  Ca2+  Ca44  1  0.90653213  0.17061341  0.83187230  1
  Ca2+  Ca45  1  0.91894143  0.66901041  0.16319523  1
  Ca2+  Ca46  1  0.91068404  0.67116121  0.49041617  1
  Ca2+  Ca47  1  0.92415493  0.66324526  0.82819715  1
  Al0+  Al48  1  0.00007791  0.00203466  0.00521500  1
  Al0+  Al49  1  0.00125923  0.00141305  0.33224819  1
  Al0+  Al50  1  0.00097967  0.00008043  0.67674077  1
  Al0+  Al51  1  -0.00187187  0.50005424  -0.01118491  1
  Al0+  Al52  1  -0.00056385  0.49982768  0.33782819  1
  Al0+  Al53  1  0.00132023  0.49991622  0.66732022  1
  Al0+  Al54  1  0.50085453  -0.00240463  -0.00471783  1
  Al0+  Al55  1  0.50169302  -0.00194517  0.32741497  1
  Al0+  Al56  1  0.50071398  -0.00043205  0.65903581  1
  Al0+  Al57  1  0.50025113  0.49817570  0.00461703  1
  Al0+  Al58  1  0.50082352  0.49570097  0.33503014  1
  Al0+  Al59  1  0.50022865  0.49872690  0.66982011  1
  Al0+  Al60  1  0.24757191  0.24951877  0.00424476  1
  Al0+  Al61  1  0.25057019  0.24850633  0.33852125  1
  Al0+  Al62  1  0.24938445  0.24950117  0.66558079  1
  Al0+  Al63  1  0.24755919  0.75048896  -0.00117974  1
  Al0+  Al64  1  0.24972178  0.75085059  0.33459040  1
  Al0+  Al65  1  0.24816686  0.74937904  0.67330163  1
  Al0+  Al66  1  0.75009966  0.25190331  -0.00351097  1
  Al0+  Al67  1  0.75247988  0.25051920  0.32917143  1
  Al0+  Al68  1  0.75103561  0.25248757  0.66842630  1
  Al0+  Al69  1  0.74961000  0.75110877  -0.00416276  1
  Al0+  Al70  1  0.74924623  0.75291443  0.32766462  1
  Al0+  Al71  1  0.75172488  0.75273731  0.66808782  1
  Al0+  Al72  1  0.92814532  0.82412037  0.32091703  1
  Al0+  Al73  1  0.57187408  0.67516558  0.98366484  1
  Al0+  Al74  1  0.82291440  0.57501109  0.68247433  1
  Al0+  Al75  1  0.57177014  0.17958812  0.65123917  1
  Al0+  Al76  1  0.81864576  0.57362236  0.34334832  1
  Al0+  Al77  1  0.68052272  0.43095811  0.68212572  1
  Al0+  Al78  1  0.56934409  0.18016453  0.98570454  1
  Al0+  Al79  1  0.93211212  0.32081981  0.32098462  1
  Al0+  Al80  1  0.81880459  0.07208586  0.01620638  1
  Al0+  Al81  1  0.31946426  0.56841498  0.68176248  1
  Al0+  Al82  1  0.92960191  0.31995663  0.98348349  1
  Al0+  Al83  1  0.17999002  0.92970878  0.68111907  1
  Al0+  Al84  1  0.57157842  0.67460758  0.31960230  1
  Al0+  Al85  1  0.06798403  0.68075975  0.98653662  1
  Al0+  Al86  1  0.32248970  0.57247289  0.34902243  1
  Al0+  Al87  1  0.57119178  0.18083707  0.31879946  1
  Al0+  Al88  1  0.32247800  0.07011247  0.01275011  1
  Al0+  Al89  1  0.17778141  0.42810768  0.34825202  1
  Al0+  Al90  1  0.32056198  0.57046468  0.01502568  1
  Al0+  Al91  1  0.81882814  0.07082632  0.68065981  1
  Al0+  Al92  1  0.82037348  0.07124157  0.34679825  1
  Al0+  Al93  1  0.57128606  0.67889563  0.65272949  1
  Al0+  Al94  1  0.42856036  0.81933769  0.98283603  1
  Al0+  Al95  1  0.42679257  0.81861690  0.31847913  1
  Si0+  Si96  1  0.42625346  0.32194416  0.64984743  1
  Si0+  Si97  1  0.42572238  0.82065306  0.64980445  1
  Si0+  Si98  1  0.92753236  0.82589580  0.98226563  1
  Si0+  Si99  1  0.93117905  0.82273538  0.65374360  1
  Si0+  Si100  1  0.17778173  0.92785038  0.02056882  1
  Si0+  Si101  1  0.07382249  0.17641258  0.98274726  1
  Si0+  Si102  1  0.17686967  0.42481795  0.68516526  1
  Si0+  Si103  1  0.06997848  0.67905883  0.31960499  1
  Si0+  Si104  1  0.07181520  0.67894374  0.65032125  1
  Si0+  Si105  1  0.17904539  0.93055840  0.34756874  1
  Si0+  Si106  1  0.32393528  0.07256206  0.68052208  1
  Si0+  Si107  1  0.42442165  0.32045161  0.31631902  1
  Si0+  Si108  1  0.93075493  0.32037018  0.64953387  1
  Si0+  Si109  1  0.07493583  0.17651788  0.31707549  1
  Si0+  Si110  1  0.67919303  0.42632666  0.34820376  1
  Si0+  Si111  1  0.07137877  0.17730372  0.65299749  1
  Si0+  Si112  1  0.17464906  0.42864372  0.01485284  1
  Si0+  Si113  1  0.42485220  0.32108042  0.98589033  1
  Si0+  Si114  1  0.67743562  0.92922437  0.34995456  1
  Si0+  Si115  1  0.32452012  0.07014881  0.34854673  1
  Si0+  Si116  1  0.82209718  0.57156780  0.01283760  1
  Si0+  Si117  1  0.68024538  0.42961439  0.01630289  1
  Si0+  Si118  1  0.67811011  0.92598259  0.01781547  1
  Si0+  Si119  1  0.67590077  0.92759662  0.68268283  1
  O2-  O120  1  0.24814259  -0.00392624  0.06271587  1
  O2-  O121  1  0.25234814  -0.00036152  0.38991625  1
  O2-  O122  1  0.25756383  0.00237543  0.72551125  1
  O2-  O123  1  0.24554327  0.49448015  0.05931670  1
  O2-  O124  1  0.25189364  0.49784087  0.39815585  1
  O2-  O125  1  0.24602328  0.49238971  0.72938098  1
  O2-  O126  1  0.74694962  -0.00511992  0.06258994  1
  O2-  O127  1  0.74676015  -0.00302379  0.39569557  1
  O2-  O128  1  0.74037613  0.00035097  0.72744419  1
  O2-  O129  1  0.74718214  0.50559204  0.05628891  1
  O2-  O130  1  0.73979158  0.50330674  0.39035499  1
  O2-  O131  1  0.74855144  0.50624011  0.73361660  1
  O2-  O132  1  0.00913773  0.24837622  0.27388656  1
  O2-  O133  1  0.00306573  0.24964689  0.60875366  1
  O2-  O134  1  0.00323963  0.24299180  0.93797713  1
  O2-  O135  1  -0.00110940  0.74522179  0.27523965  1
  O2-  O136  1  -0.00309163  0.74695861  0.60964760  1
  O2-  O137  1  -0.00568693  0.75584826  0.93752793  1
  O2-  O138  1  0.49412290  0.25288391  0.27187432  1
  O2-  O139  1  0.49416581  0.25211957  0.60545282  1
  O2-  O140  1  0.49010951  0.25031525  0.93944191  1
  O2-  O141  1  0.49412721  0.74133832  0.27049693  1
  O2-  O142  1  0.49587489  0.75336278  0.60625777  1
  O2-  O143  1  0.49730912  0.74433844  0.93305169  1
  O2-  O144  1  0.07568412  0.17660241  0.08818125  1
  O2-  O145  1  0.07314444  0.17354859  0.42318770  1
  O2-  O146  1  0.07207059  0.17879762  0.75784794  1
  O2-  O147  1  0.06530497  0.68066412  0.09994334  1
  O2-  O148  1  0.07092991  0.68213903  0.42555055  1
  O2-  O149  1  0.07249618  0.68076633  0.75538771  1
  O2-  O150  1  0.57108178  0.18300629  0.09883829  1
  O2-  O151  1  0.57193702  0.18296960  0.43209595  1
  O2-  O152  1  0.57041505  0.18070469  0.76426825  1
  O2-  O153  1  0.57310360  0.67574148  0.09688746  1
  O2-  O154  1  0.57302446  0.67840097  0.43354942  1
  O2-  O155  1  0.56883647  0.68021734  0.76551485  1
  O2-  O156  1  0.17737101  0.43088380  0.23450710  1
  O2-  O157  1  0.17606750  0.42503268  0.57973701  1
  O2-  O158  1  0.17549846  0.42904274  0.90909253  1
  O2-  O159  1  0.17661916  0.93216677  0.24299249  1
  O2-  O160  1  0.17782222  0.93139327  0.56752755  1
  O2-  O161  1  0.17635165  0.92958959  0.91474215  1
  O2-  O162  1  0.68300274  0.42287003  0.24242150  1
  O2-  O163  1  0.68548594  0.42841225  0.56848018  1
  O2-  O164  1  0.68129634  0.42704259  0.91145085  1
  O2-  O165  1  0.67849955  0.93147462  0.24452979  1
  O2-  O166  1  0.67941332  0.92603681  0.57714087  1
  O2-  O167  1  0.68056994  0.92611096  0.91186716  1
  O2-  O168  1  0.42706373  0.31991735  0.09146747  1
  O2-  O169  1  0.42260548  0.31734440  0.42203803  1
  O2-  O170  1  0.42410568  0.31967453  0.75547910  1
  O2-  O171  1  0.43043715  0.81800287  0.09620022  1
  O2-  O172  1  0.42749728  0.82009010  0.43246809  1
  O2-  O173  1  0.42565614  0.82137610  0.75504515  1
  O2-  O174  1  0.93070485  0.32223193  0.09662171  1
  O2-  O175  1  0.93148261  0.31877498  0.43426307  1
  O2-  O176  1  0.93111329  0.31906458  0.75471388  1
  O2-  O177  1  0.92919987  0.82545545  0.08803556  1
  O2-  O178  1  0.93233244  0.82631193  0.43446578  1
  O2-  O179  1  0.93480501  0.82448795  0.75865754  1
  O2-  O180  1  0.32347120  0.07131724  0.24362008  1
  O2-  O181  1  0.32129935  0.07295857  0.57465638  1
  O2-  O182  1  0.31937040  0.06928559  0.89935679  1
  O2-  O183  1  0.31802805  0.57348045  0.23552481  1
  O2-  O184  1  0.31778592  0.56911890  0.56891056  1
  O2-  O185  1  0.32000253  0.56828150  0.90168474  1
  O2-  O186  1  0.81877206  0.07179920  0.23396970  1
  O2-  O187  1  0.82138458  0.06997974  0.56746391  1
  O2-  O188  1  0.81655992  0.07137540  0.90272315  1
  O2-  O189  1  0.82158843  0.57031648  0.22983687  1
  O2-  O190  1  0.82386239  0.57366378  0.56859494  1
  O2-  O191  1  0.82341516  0.56848074  0.90803294  1
  O2-  O192  1  0.04810445  0.08497442  0.26857416  1
  O2-  O193  1  0.04171881  0.08499700  0.60750691  1
  O2-  O194  1  0.04979709  0.08161086  0.93832539  1
  O2-  O195  1  0.04628575  0.58513039  0.27477405  1
  O2-  O196  1  0.04922091  0.58505454  0.60468723  1
  O2-  O197  1  0.03797352  0.58661528  0.92736724  1
  O2-  O198  1  0.54241657  0.08395566  0.26550150  1
  O2-  O199  1  0.54507072  0.08241965  0.59530331  1
  O2-  O200  1  0.54368033  0.08264326  0.93185401  1
  O2-  O201  1  0.55285150  0.57225279  0.27105693  1
  O2-  O202  1  0.54212777  0.58043108  0.60184007  1
  O2-  O203  1  0.54516092  0.57449586  0.93423958  1
  O2-  O204  1  0.17045156  0.19811684  0.27334889  1
  O2-  O205  1  0.16422683  0.20065188  0.60429101  1
  O2-  O206  1  0.16649912  0.20373133  0.93481152  1
  O2-  O207  1  0.16171194  0.70888688  0.27268074  1
  O2-  O208  1  0.16210399  0.71190368  0.60309320  1
  O2-  O209  1  0.16328122  0.71286173  0.93111000  1
  O2-  O210  1  0.66613375  0.21469419  0.26387905  1
  O2-  O211  1  0.66823930  0.21503351  0.59878316  1
  O2-  O212  1  0.66348531  0.21704993  0.93131752  1
  O2-  O213  1  0.66687562  0.70903032  0.26372882  1
  O2-  O214  1  0.66962498  0.71061360  0.60166145  1
  O2-  O215  1  0.67051284  0.70496641  0.93059849  1
  O2-  O216  1  0.08099816  0.45921244  0.05820694  1
  O2-  O217  1  0.08142732  0.45832093  0.40455059  1
  O2-  O218  1  0.08354309  0.45115952  0.73078343  1
  O2-  O219  1  0.08484277  0.95511446  0.06743833  1
  O2-  O220  1  0.08927031  0.96164191  0.39778296  1
  O2-  O221  1  0.08725278  0.96339557  0.74058402  1
  O2-  O222  1  0.58772992  0.45067707  0.06535605  1
  O2-  O223  1  0.58264266  0.43814955  0.39262183  1
  O2-  O224  1  0.58050623  0.45133287  0.73496706  1
  O2-  O225  1  0.58425927  0.95172493  0.06155036  1
  O2-  O226  1  0.58385912  0.95488047  0.39622251  1
  O2-  O227  1  0.57996219  0.94948673  0.72514511  1
  O2-  O228  1  0.19360753  0.33376921  0.06086880  1
  O2-  O229  1  0.20175103  0.32786251  0.40160402  1
  O2-  O230  1  0.19969167  0.32979299  0.73029020  1
  O2-  O231  1  0.20154733  0.83412973  0.06617321  1
  O2-  O232  1  0.20417721  0.83880407  0.39669931  1
  O2-  O233  1  0.20763760  0.83386579  0.73745207  1
  O2-  O234  1  0.71451431  0.34014989  0.06427059  1
  O2-  O235  1  0.71545928  0.33704174  0.39643821  1
  O2-  O236  1  0.71477007  0.33490051  0.73726199  1
  O2-  O237  1  0.70437120  0.83216223  0.06388318  1
  O2-  O238  1  0.70338441  0.83554799  0.39521101  1
  O2-  O239  1  0.70629980  0.83730925  0.73237927  1
  O2-  O240  1  0.44848846  0.41457077  0.27150462  1
  O2-  O241  1  0.45332614  0.41481979  0.60390701  1
  O2-  O242  1  0.45494233  0.41335774  0.94013525  1
  O2-  O243  1  0.45814198  0.91570597  0.26439214  1
  O2-  O244  1  0.44712788  0.91510317  0.60282219  1
  O2-  O245  1  0.45870488  0.91644042  0.92774810  1
  O2-  O246  1  0.96192554  0.41810170  0.26670498  1
  O2-  O247  1  0.95874558  0.41293957  0.60334694  1
  O2-  O248  1  0.96100337  0.41373523  0.92469295  1
  O2-  O249  1  0.96482789  0.91782569  0.26461392  1
  O2-  O250  1  0.96555642  0.91343813  0.60707107  1
  O2-  O251  1  0.95603718  0.91953349  0.93756343  1
  O2-  O252  1  0.33093375  0.29433386  0.27049470  1
  O2-  O253  1  0.33191525  0.29808808  0.60305063  1
  O2-  O254  1  0.32938432  0.30069462  0.94135538  1
  O2-  O255  1  0.32626590  0.79710968  0.26615295  1
  O2-  O256  1  0.33114428  0.79334118  0.60613117  1
  O2-  O257  1  0.32731293  0.79723597  0.93357074  1
  O2-  O258  1  0.83801755  0.28810036  0.26395165  1
  O2-  O259  1  0.83975977  0.29095243  0.60271543  1
  O2-  O260  1  0.83434457  0.28780531  0.92823786  1
  O2-  O261  1  0.83218777  0.79913017  0.26432980  1
  O2-  O262  1  0.83783309  0.80220718  0.60641090  1
  O2-  O263  1  0.83352037  0.80341481  0.93662282  1
  O2-  O264  1  0.41967999  0.03935822  0.06544276  1
  O2-  O265  1  0.41600752  0.04063814  0.39553070  1
  O2-  O266  1  0.41910248  0.04889646  0.72375076  1
  O2-  O267  1  0.41660918  0.53932573  0.06964882  1
  O2-  O268  1  0.42117392  0.54211238  0.40130865  1
  O2-  O269  1  0.41539201  0.53728680  0.73607278  1
  O2-  O270  1  0.91776088  0.04645514  0.06836103  1
  O2-  O271  1  0.91866720  0.04213461  0.39896044  1
  O2-  O272  1  0.91342118  0.03832595  0.73736807  1
  O2-  O273  1  0.91294488  0.53840745  0.05884900  1
  O2-  O274  1  0.91341756  0.54102041  0.39996052  1
  O2-  O275  1  0.92141805  0.54245231  0.73374242  1
  O2-  O276  1  0.29134268  0.16648075  0.06852175  1
  O2-  O277  1  0.29810199  0.16108636  0.39840881  1
  O2-  O278  1  0.29670137  0.16547099  0.72712570  1
  O2-  O279  1  0.28562755  0.66680570  0.06624223  1
  O2-  O280  1  0.29030847  0.66983566  0.40272902  1
  O2-  O281  1  0.28607141  0.66357201  0.73646004  1
  O2-  O282  1  0.78558350  0.16947570  0.06705085  1
  O2-  O283  1  0.78836373  0.16800869  0.39990600  1
  O2-  O284  1  0.79015952  0.16789167  0.73363814  1
  O2-  O285  1  0.80146309  0.66681897  0.05658547  1
  O2-  O286  1  0.79355220  0.67258830  0.39577037  1
  O2-  O287  1  0.80252219  0.67579764  0.73362262  1
