# generated using pymatgen
data_Ca2Al2SiO7
_symmetry_space_group_name_H-M   'P 1'
_cell_length_a   15.45423615
_cell_length_b   15.45407881
_cell_length_c   15.28088753
_cell_angle_alpha   89.99300963
_cell_angle_beta   89.99362190
_cell_angle_gamma   90.00031006
_symmetry_Int_Tables_number   1
_chemical_formula_structural   Ca2Al2SiO7
_chemical_formula_sum   'Ca48 Al48 Si24 O168'
_cell_volume   3649.54934616
_cell_formula_units_Z   24
loop_
 _symmetry_equiv_pos_site_id
 _symmetry_equiv_pos_as_xyz
  1  'x, y, z'
loop_
 _atom_type_symbol
 _atom_type_oxidation_number
  Ca2+  2.0
  Al0+  0.0
  Si0+  0.0
  O2-  -2.0
loop_
 _atom_site_type_symbol
 _atom_site_label
 _atom_site_symmetry_multiplicity
 _atom_site_fract_x
 _atom_site_fract_y
 _atom_site_fract_z
 _atom_site_occupancy
  Ca2+  Ca0  1  0.17668142  0.08623552  0.17599408  1
  Ca2+  Ca1  1  0.17602397  0.07808619  0.50430172  1
  Ca2+  Ca2  1  0.17694200  0.07789409  0.83648395  1
  Ca2+  Ca3  1  0.16434664  0.57177976  0.17158711  1
  Ca2+  Ca4  1  0.15689927  0.58127305  0.50164134  1
  Ca2+  Ca5  1  0.16848182  0.58001649  0.83997249  1
  Ca2+  Ca6  1  0.67226149  0.08749372  0.16546776  1
  Ca2+  Ca7  1  0.66996543  0.07680026  0.51284951  1
  Ca2+  Ca8  1  0.67100258  0.08330032  0.83458608  1
  Ca2+  Ca9  1  0.67577682  0.59334949  0.17360318  1
  Ca2+  Ca10  1  0.66994627  0.58943063  0.49799651  1
  Ca2+  Ca11  1  0.67363110  0.57980752  0.84170127  1
  Ca2+  Ca12  1  0.09279326  0.33067098  0.16785890  1
  Ca2+  Ca13  1  0.08126255  0.32737772  0.49384049  1
  Ca2+  Ca14  1  0.07807402  0.33503240  0.82916205  1
  Ca2+  Ca15  1  0.07150826  0.83021849  0.16390737  1
  Ca2+  Ca16  1  0.08441612  0.82465669  0.49342441  1
  Ca2+  Ca17  1  0.08230969  0.82935229  0.82661181  1
  Ca2+  Ca18  1  0.57518058  0.32898743  0.16230394  1
  Ca2+  Ca19  1  0.57532330  0.32434009  0.49561100  1
  Ca2+  Ca20  1  0.58584875  0.31840718  0.82804747  1
  Ca2+  Ca21  1  0.57939935  0.82990042  0.17069776  1
  Ca2+  Ca22  1  0.57446137  0.83828018  0.49621535  1
  Ca2+  Ca23  1  0.57752555  0.83675735  0.82661631  1
  Ca2+  Ca24  1  0.32489535  0.41594834  0.17343025  1
  Ca2+  Ca25  1  0.32968395  0.41380635  0.49730913  1
  Ca2+  Ca26  1  0.32489900  0.42519059  0.84438856  1
  Ca2+  Ca27  1  0.33905442  0.92828581  0.17219088  1
  Ca2+  Ca28  1  0.33498255  0.92179266  0.50853477  1
  Ca2+  Ca29  1  0.33196004  0.92112517  0.83088876  1
  Ca2+  Ca30  1  0.83320180  0.43182527  0.17276182  1
  Ca2+  Ca31  1  0.83949669  0.42283697  0.50233263  1
  Ca2+  Ca32  1  0.83577542  0.42079530  0.83857121  1
  Ca2+  Ca33  1  0.83716963  0.91442301  0.16980661  1
  Ca2+  Ca34  1  0.82907285  0.91994879  0.50705119  1
  Ca2+  Ca35  1  0.83116277  0.92560109  0.83815025  1
  Ca2+  Ca36  1  0.41429136  0.16932079  0.16213565  1
  Ca2+  Ca37  1  0.41749979  0.16228795  0.49454716  1
  Ca2+  Ca38  1  0.42541673  0.15368581  0.83068477  1
  Ca2+  Ca39  1  0.41583321  0.66883505  0.16439636  1
  Ca2+  Ca40  1  0.42103332  0.68351015  0.49078052  1
  Ca2+  Ca41  1  0.41210617  0.67206647  0.82543990  1
  Ca2+  Ca42  1  0.92692570  0.16189184  0.16114841  1
  Ca2+  Ca43  1  0.91992640  0.16908657  0.49678409  1
  Ca2+  Ca44  1  0.91008982  0.17196530  0.82566946  1
  Ca2+  Ca45  1  0.91320516  0.67319173  0.16509728  1
  Ca2+  Ca46  1  0.92561766  0.67258973  0.49008419  1
  Ca2+  Ca47  1  0.92098799  0.67034703  0.83024075  1
  Al0+  Al48  1  -0.00111916  -0.00027134  -0.00319695  1
  Al0+  Al49  1  0.00199970  0.00122593  0.32687599  1
  Al0+  Al50  1  0.00100768  0.00065907  0.67412215  1
  Al0+  Al51  1  -0.00065345  0.49977130  0.00849085  1
  Al0+  Al52  1  -0.00087095  0.49975623  0.33941917  1
  Al0+  Al53  1  -0.00034247  0.49960582  0.66012070  1
  Al0+  Al54  1  0.50040755  -0.00149442  0.00066200  1
  Al0+  Al55  1  0.50295779  0.00070892  0.33210671  1
  Al0+  Al56  1  0.50197856  -0.00093793  0.66550393  1
  Al0+  Al57  1  0.49928322  0.49985718  0.00102308  1
  Al0+  Al58  1  0.50012996  0.49828326  0.32675084  1
  Al0+  Al59  1  0.50096468  0.49856560  0.66763919  1
  Al0+  Al60  1  0.24989686  0.24916313  0.00299356  1
  Al0+  Al61  1  0.25064297  0.25031133  0.33603320  1
  Al0+  Al62  1  0.24983167  0.25149937  0.67317704  1
  Al0+  Al63  1  0.24882316  0.74987246  0.00329242  1
  Al0+  Al64  1  0.24933376  0.75009845  0.32182166  1
  Al0+  Al65  1  0.25030821  0.74932628  0.66088056  1
  Al0+  Al66  1  0.74965404  0.24848477  0.00136409  1
  Al0+  Al67  1  0.75029375  0.25197698  0.33382421  1
  Al0+  Al68  1  0.74890087  0.25252382  0.65856043  1
  Al0+  Al69  1  0.74893035  0.75147122  -0.00289456  1
  Al0+  Al70  1  0.74924647  0.75168966  0.33376182  1
  Al0+  Al71  1  0.75093806  0.74910299  0.67260218  1
  Al0+  Al72  1  0.32110602  0.06712299  0.01471147  1
  Al0+  Al73  1  0.43135374  0.81928605  0.65414151  1
  Al0+  Al74  1  0.92953202  0.32022738  0.65270367  1
  Al0+  Al75  1  0.32152513  0.06936292  0.34731743  1
  Al0+  Al76  1  0.56994466  0.67955951  0.31926991  1
  Al0+  Al77  1  0.32161774  0.07204131  0.68175224  1
  Al0+  Al78  1  0.92775854  0.82146346  0.98232715  1
  Al0+  Al79  1  0.32274416  0.57362149  0.01541140  1
  Al0+  Al80  1  0.81834733  0.57186509  0.34981408  1
  Al0+  Al81  1  0.17893128  0.92519866  0.68020875  1
  Al0+  Al82  1  0.56850878  0.17952423  0.65219290  1
  Al0+  Al83  1  0.06985304  0.18124317  0.32106032  1
  Al0+  Al84  1  0.92900449  0.82152788  0.32007026  1
  Al0+  Al85  1  0.57021834  0.17965427  0.98573926  1
  Al0+  Al86  1  0.07119427  0.67524426  0.31525492  1
  Al0+  Al87  1  0.81844573  0.57160156  0.01310721  1
  Al0+  Al88  1  0.67961476  0.92748778  0.68254458  1
  Al0+  Al89  1  0.18069304  0.43062575  0.35103402  1
  Al0+  Al90  1  0.82089567  0.07148599  0.01480071  1
  Al0+  Al91  1  0.42905237  0.31855424  0.31986432  1
  Al0+  Al92  1  0.42784810  0.82427854  0.31633507  1
  Al0+  Al93  1  0.17876926  0.42912509  0.01563468  1
  Al0+  Al94  1  0.82128519  0.07393589  0.68001499  1
  Al0+  Al95  1  0.06990717  0.68035784  0.65378772  1
  Si0+  Si96  1  0.67772729  0.42973169  0.68116202  1
  Si0+  Si97  1  0.42612665  0.32474985  0.65179879  1
  Si0+  Si98  1  0.07019410  0.67721697  0.98402324  1
  Si0+  Si99  1  0.57455930  0.67429601  0.65240610  1
  Si0+  Si100  1  0.32401943  0.57371313  0.35018835  1
  Si0+  Si101  1  0.93018093  0.32077410  0.98798871  1
  Si0+  Si102  1  0.57461519  0.17746459  0.31572430  1
  Si0+  Si103  1  0.17699629  0.92736539  0.34692079  1
  Si0+  Si104  1  0.07294398  0.17861980  0.98347910  1
  Si0+  Si105  1  0.42610857  0.32190792  0.98176969  1
  Si0+  Si106  1  0.67804159  0.92828651  0.01897889  1
  Si0+  Si107  1  0.68127496  0.93135409  0.34820209  1
  Si0+  Si108  1  0.67586609  0.42648023  0.35156181  1
  Si0+  Si109  1  0.17742920  0.43024489  0.68116133  1
  Si0+  Si110  1  0.82239728  0.56901710  0.68181561  1
  Si0+  Si111  1  0.32176741  0.57002953  0.67748149  1
  Si0+  Si112  1  0.42833893  0.81986470  0.98423011  1
  Si0+  Si113  1  0.82408131  0.07287798  0.34697657  1
  Si0+  Si114  1  0.67795910  0.42633721  0.01629061  1
  Si0+  Si115  1  0.57091553  0.67828958  0.98399790  1
  Si0+  Si116  1  0.17580845  0.92745618  0.01799744  1
  Si0+  Si117  1  0.07451061  0.17717376  0.65265415  1
  Si0+  Si118  1  0.92688130  0.82368181  0.65230943  1
  Si0+  Si119  1  0.92637962  0.32223840  0.31512695  1
  O2-  O120  1  0.24494460  -0.00483781  0.06281540  1
  O2-  O121  1  0.25123188  -0.01038473  0.39203232  1
  O2-  O122  1  0.24818063  0.00026934  0.73044449  1
  O2-  O123  1  0.25289340  0.49951714  0.06458089  1
  O2-  O124  1  0.25196194  0.50974667  0.39736831  1
  O2-  O125  1  0.25142872  0.49885996  0.72131496  1
  O2-  O126  1  0.74822380  -0.00426393  0.06301380  1
  O2-  O127  1  0.75205024  0.00349584  0.38912293  1
  O2-  O128  1  0.75254840  -0.00062299  0.73142941  1
  O2-  O129  1  0.74181130  0.49907564  0.06064637  1
  O2-  O130  1  0.74396332  0.49581591  0.39633086  1
  O2-  O131  1  0.74795709  0.50143212  0.72405270  1
  O2-  O132  1  -0.00605340  0.25330716  0.27044481  1
  O2-  O133  1  0.00206473  0.24228489  0.60854719  1
  O2-  O134  1  0.00050457  0.24992060  0.94356133  1
  O2-  O135  1  -0.00075260  0.74870071  0.26798386  1
  O2-  O136  1  -0.00199528  0.75822489  0.60792543  1
  O2-  O137  1  0.00369003  0.74676576  0.93752957  1
  O2-  O138  1  0.50475829  0.24510150  0.27262176  1
  O2-  O139  1  0.48904444  0.25061369  0.60805019  1
  O2-  O140  1  0.49524750  0.25398042  0.93728017  1
  O2-  O141  1  0.49442738  0.74640996  0.26700084  1
  O2-  O142  1  0.50835163  0.74539157  0.60967934  1
  O2-  O143  1  0.49479734  0.74377958  0.94205565  1
  O2-  O144  1  0.07333241  0.17873178  0.08865519  1
  O2-  O145  1  0.06720119  0.18092564  0.43429333  1
  O2-  O146  1  0.07631716  0.18201745  0.75845405  1
  O2-  O147  1  0.06812143  0.67725923  0.08892671  1
  O2-  O148  1  0.06850083  0.67737728  0.42939734  1
  O2-  O149  1  0.06758399  0.67585358  0.76717091  1
  O2-  O150  1  0.57055203  0.18278051  0.09881687  1
  O2-  O151  1  0.57596116  0.17779420  0.42129789  1
  O2-  O152  1  0.57040226  0.18188340  0.76546170  1
  O2-  O153  1  0.57372513  0.68118272  0.08854999  1
  O2-  O154  1  0.57024539  0.68329155  0.43324560  1
  O2-  O155  1  0.57190067  0.67010071  0.75827330  1
  O2-  O156  1  0.18323357  0.42862326  0.23836115  1
  O2-  O157  1  0.17690591  0.42920769  0.57648579  1
  O2-  O158  1  0.17678986  0.43166695  0.90102271  1
  O2-  O159  1  0.17401586  0.93369425  0.24141707  1
  O2-  O160  1  0.18072088  0.92423030  0.56655688  1
  O2-  O161  1  0.17779519  0.92724057  0.91219653  1
  O2-  O162  1  0.67901686  0.42320891  0.24601673  1
  O2-  O163  1  0.67506099  0.43150328  0.57654333  1
  O2-  O164  1  0.68089951  0.42642789  0.91005868  1
  O2-  O165  1  0.68063356  0.93164393  0.24299137  1
  O2-  O166  1  0.68071888  0.92810175  0.56851720  1
  O2-  O167  1  0.67703400  0.92882804  0.91346625  1
  O2-  O168  1  0.42697628  0.32054325  0.08732383  1
  O2-  O169  1  0.43063757  0.31696603  0.43341786  1
  O2-  O170  1  0.42991414  0.33173235  0.75693601  1
  O2-  O171  1  0.43176943  0.82163940  0.08888827  1
  O2-  O172  1  0.43160579  0.82634428  0.43000044  1
  O2-  O173  1  0.43036241  0.81562566  0.76786588  1
  O2-  O174  1  0.92986243  0.31973279  0.09269127  1
  O2-  O175  1  0.92601354  0.31934395  0.42096915  1
  O2-  O176  1  0.93172045  0.32469005  0.76655515  1
  O2-  O177  1  0.92771408  0.81974850  0.09517646  1
  O2-  O178  1  0.92909288  0.82259281  0.43396644  1
  O2-  O179  1  0.92618506  0.81894290  0.75791939  1
  O2-  O180  1  0.32039475  0.07031445  0.23392115  1
  O2-  O181  1  0.31996143  0.07216702  0.56813358  1
  O2-  O182  1  0.32155542  0.06429744  0.90182317  1
  O2-  O183  1  0.32469274  0.56848216  0.24484493  1
  O2-  O184  1  0.32387225  0.56839877  0.57296231  1
  O2-  O185  1  0.32063389  0.57329457  0.90052713  1
  O2-  O186  1  0.82250037  0.07338581  0.24180564  1
  O2-  O187  1  0.81978043  0.07281473  0.56581770  1
  O2-  O188  1  0.81836404  0.07453253  0.90212159  1
  O2-  O189  1  0.81605046  0.57126736  0.23651904  1
  O2-  O190  1  0.82186208  0.56873025  0.57707293  1
  O2-  O191  1  0.81904885  0.56744617  0.89928625  1
  O2-  O192  1  0.04089890  0.08655805  0.26242214  1
  O2-  O193  1  0.05348449  0.08152512  0.60927536  1
  O2-  O194  1  0.04599566  0.08700294  0.93613922  1
  O2-  O195  1  0.03981418  0.57619125  0.26634726  1
  O2-  O196  1  0.03525757  0.58619046  0.59763499  1
  O2-  O197  1  0.04213395  0.58300457  0.93948100  1
  O2-  O198  1  0.55175200  0.08415114  0.26926821  1
  O2-  O199  1  0.54248996  0.08244769  0.59783856  1
  O2-  O200  1  0.53952498  0.08186261  0.93367714  1
  O2-  O201  1  0.55069109  0.57933643  0.26628084  1
  O2-  O202  1  0.54812328  0.58154858  0.60485057  1
  O2-  O203  1  0.55017615  0.58334135  0.93811466  1
  O2-  O204  1  0.16529410  0.21499347  0.26730816  1
  O2-  O205  1  0.16683314  0.20785177  0.60628833  1
  O2-  O206  1  0.16416258  0.20788164  0.93545983  1
  O2-  O207  1  0.16978777  0.69803550  0.26118637  1
  O2-  O208  1  0.16650892  0.70577297  0.59755030  1
  O2-  O209  1  0.16524988  0.70163916  0.93904121  1
  O2-  O210  1  0.66801186  0.20569897  0.26953368  1
  O2-  O211  1  0.66185753  0.21529077  0.59505500  1
  O2-  O212  1  0.66697068  0.21231401  0.93171393  1
  O2-  O213  1  0.66565715  0.71528387  0.26536148  1
  O2-  O214  1  0.67016245  0.69735324  0.60947025  1
  O2-  O215  1  0.66017500  0.70979191  0.93340502  1
  O2-  O216  1  0.08185172  0.45659987  0.07166077  1
  O2-  O217  1  0.08239917  0.45621037  0.40483171  1
  O2-  O218  1  0.08646380  0.46224887  0.72812571  1
  O2-  O219  1  0.08210392  0.95443314  0.06196042  1
  O2-  O220  1  0.08555169  0.95901060  0.39464783  1
  O2-  O221  1  0.08066548  0.94970364  0.73582354  1
  O2-  O222  1  0.58222805  0.44686152  0.05933213  1
  O2-  O223  1  0.58138572  0.45089373  0.39614028  1
  O2-  O224  1  0.58679244  0.45573589  0.73252116  1
  O2-  O225  1  0.58561410  0.95551086  0.06597412  1
  O2-  O226  1  0.59032868  0.96040823  0.39664512  1
  O2-  O227  1  0.58217495  0.95741647  0.73560210  1
  O2-  O228  1  0.20617147  0.33023716  0.06765994  1
  O2-  O229  1  0.21592495  0.33570287  0.40590523  1
  O2-  O230  1  0.20110720  0.33896802  0.73170697  1
  O2-  O231  1  0.19863351  0.83323184  0.06314864  1
  O2-  O232  1  0.19599814  0.82977585  0.38690689  1
  O2-  O233  1  0.21089996  0.82739295  0.73416830  1
  O2-  O234  1  0.70689198  0.33519155  0.06424821  1
  O2-  O235  1  0.70282465  0.33317138  0.39931273  1
  O2-  O236  1  0.70847183  0.33874976  0.72774650  1
  O2-  O237  1  0.70388886  0.83444744  0.06370422  1
  O2-  O238  1  0.70842737  0.84067117  0.39720034  1
  O2-  O239  1  0.70385639  0.82808586  0.73745253  1
  O2-  O240  1  0.45827435  0.41402708  0.26294508  1
  O2-  O241  1  0.45780898  0.41539437  0.60194706  1
  O2-  O242  1  0.45019588  0.41717052  0.93716206  1
  O2-  O243  1  0.46620520  0.91943061  0.26213574  1
  O2-  O244  1  0.46241189  0.91471097  0.59918127  1
  O2-  O245  1  0.46164986  0.90940501  0.93598962  1
  O2-  O246  1  0.95258145  0.41646881  0.27277882  1
  O2-  O247  1  0.96405813  0.41384124  0.59526004  1
  O2-  O248  1  0.95843356  0.41314457  0.94075224  1
  O2-  O249  1  0.95757953  0.91872754  0.26393524  1
  O2-  O250  1  0.94722732  0.92002538  0.61033764  1
  O2-  O251  1  0.95779713  0.91863423  0.92866728  1
  O2-  O252  1  0.33397023  0.28588660  0.26541792  1
  O2-  O253  1  0.32959621  0.30476994  0.60962279  1
  O2-  O254  1  0.33198722  0.29677631  0.93647524  1
  O2-  O255  1  0.32893416  0.80378089  0.26192880  1
  O2-  O256  1  0.33713882  0.78672532  0.59740684  1
  O2-  O257  1  0.33420652  0.79628349  0.93883063  1
  O2-  O258  1  0.83175507  0.29976737  0.26955967  1
  O2-  O259  1  0.83323560  0.29578260  0.59530567  1
  O2-  O260  1  0.83810624  0.29373841  0.93998018  1
  O2-  O261  1  0.83075315  0.79362372  0.26697119  1
  O2-  O262  1  0.83344195  0.79469766  0.60710709  1
  O2-  O263  1  0.83100295  0.78991633  0.92859620  1
  O2-  O264  1  0.41734301  0.03541361  0.06883428  1
  O2-  O265  1  0.42111485  0.04301391  0.39795160  1
  O2-  O266  1  0.41924489  0.03952720  0.73283254  1
  O2-  O267  1  0.42323013  0.54947440  0.06628430  1
  O2-  O268  1  0.41726498  0.54394807  0.39524761  1
  O2-  O269  1  0.41354047  0.54366906  0.72745536  1
  O2-  O270  1  0.91914360  0.04227853  0.06612418  1
  O2-  O271  1  0.91592938  0.04450036  0.39329358  1
  O2-  O272  1  0.92075430  0.05286352  0.73407572  1
  O2-  O273  1  0.91267384  0.53970473  0.06947229  1
  O2-  O274  1  0.91377289  0.53950835  0.40501840  1
  O2-  O275  1  0.91247765  0.53512811  0.72896784  1
  O2-  O276  1  0.29246370  0.16532496  0.06577398  1
  O2-  O277  1  0.28701031  0.16383857  0.40195160  1
  O2-  O278  1  0.29650600  0.17116541  0.73675223  1
  O2-  O279  1  0.29585472  0.67188562  0.06866871  1
  O2-  O280  1  0.30278593  0.67127637  0.38984674  1
  O2-  O281  1  0.29270869  0.66086136  0.72531993  1
  O2-  O282  1  0.78895207  0.16711603  0.07055592  1
  O2-  O283  1  0.79829700  0.16613441  0.39307350  1
  O2-  O284  1  0.78936203  0.17349540  0.72958480  1
  O2-  O285  1  0.78610059  0.66837457  0.06502111  1
  O2-  O286  1  0.78578413  0.66809049  0.40399538  1
  O2-  O287  1  0.79897814  0.66113666  0.73073573  1
