# generated using pymatgen
data_Ca2Al2SiO7
_symmetry_space_group_name_H-M   'P 1'
_cell_length_a   15.45718597
_cell_length_b   15.45806744
_cell_length_c   15.28306204
_cell_angle_alpha   90.00607036
_cell_angle_beta   89.98759070
_cell_angle_gamma   90.01466450
_symmetry_Int_Tables_number   1
_chemical_formula_structural   Ca2Al2SiO7
_chemical_formula_sum   'Ca48 Al48 Si24 O168'
_cell_volume   3651.70745991
_cell_formula_units_Z   24
loop_
 _symmetry_equiv_pos_site_id
 _symmetry_equiv_pos_as_xyz
  1  'x, y, z'
loop_
 _atom_type_symbol
 _atom_type_oxidation_number
  Ca2+  2.0
  Al0+  0.0
  Si0+  0.0
  O2-  -2.0
loop_
 _atom_site_type_symbol
 _atom_site_label
 _atom_site_symmetry_multiplicity
 _atom_site_fract_x
 _atom_site_fract_y
 _atom_site_fract_z
 _atom_site_occupancy
  Ca2+  Ca0  1  0.17578787  0.07204656  0.16975476  1
  Ca2+  Ca1  1  0.17182000  0.07893052  0.50106909  1
  Ca2+  Ca2  1  0.17508483  0.07811415  0.84011264  1
  Ca2+  Ca3  1  0.17370892  0.58274387  0.16935960  1
  Ca2+  Ca4  1  0.16572070  0.58032073  0.50690023  1
  Ca2+  Ca5  1  0.17597457  0.59118413  0.83396171  1
  Ca2+  Ca6  1  0.66416793  0.06592079  0.16975077  1
  Ca2+  Ca7  1  0.67264887  0.07393888  0.50390945  1
  Ca2+  Ca8  1  0.67472572  0.07784973  0.83666237  1
  Ca2+  Ca9  1  0.66811298  0.58984038  0.16427078  1
  Ca2+  Ca10  1  0.67333618  0.58515585  0.50479594  1
  Ca2+  Ca11  1  0.67763678  0.58148137  0.84289999  1
  Ca2+  Ca12  1  0.08281528  0.33661761  0.16826129  1
  Ca2+  Ca13  1  0.07275216  0.33713872  0.49312330  1
  Ca2+  Ca14  1  0.07762049  0.33065823  0.82554233  1
  Ca2+  Ca15  1  0.07463606  0.84686985  0.16188282  1
  Ca2+  Ca16  1  0.07481734  0.83303998  0.49672023  1
  Ca2+  Ca17  1  0.07550418  0.83104214  0.82768297  1
  Ca2+  Ca18  1  0.58467312  0.32989336  0.15885901  1
  Ca2+  Ca19  1  0.57468511  0.33198080  0.49841424  1
  Ca2+  Ca20  1  0.58014537  0.33566044  0.82924554  1
  Ca2+  Ca21  1  0.58354419  0.82646548  0.15733406  1
  Ca2+  Ca22  1  0.58468023  0.82713922  0.49084782  1
  Ca2+  Ca23  1  0.58089932  0.83260781  0.83878342  1
  Ca2+  Ca24  1  0.32928170  0.42473232  0.17001131  1
  Ca2+  Ca25  1  0.32663406  0.42002228  0.50728055  1
  Ca2+  Ca26  1  0.33965801  0.42818846  0.83536685  1
  Ca2+  Ca27  1  0.32687100  0.91797856  0.17137814  1
  Ca2+  Ca28  1  0.32904291  0.92534021  0.50458290  1
  Ca2+  Ca29  1  0.32847759  0.92323231  0.84588473  1
  Ca2+  Ca30  1  0.83127821  0.42378756  0.16786497  1
  Ca2+  Ca31  1  0.83697281  0.42068517  0.50903740  1
  Ca2+  Ca32  1  0.83406139  0.42792461  0.83876416  1
  Ca2+  Ca33  1  0.82440362  0.90298214  0.16907655  1
  Ca2+  Ca34  1  0.83121687  0.91085960  0.50392114  1
  Ca2+  Ca35  1  0.83403209  0.91452945  0.83821951  1
  Ca2+  Ca36  1  0.41045119  0.16301576  0.16246615  1
  Ca2+  Ca37  1  0.40667532  0.16838339  0.49912335  1
  Ca2+  Ca38  1  0.41428096  0.16866445  0.82638886  1
  Ca2+  Ca39  1  0.42662562  0.67106630  0.15534026  1
  Ca2+  Ca40  1  0.42365904  0.66412348  0.49551509  1
  Ca2+  Ca41  1  0.41727827  0.66672245  0.83181002  1
  Ca2+  Ca42  1  0.91623582  0.17347937  0.16389057  1
  Ca2+  Ca43  1  0.90922630  0.17738827  0.49637657  1
  Ca2+  Ca44  1  0.91619204  0.17072406  0.82330631  1
  Ca2+  Ca45  1  0.91838886  0.67673703  0.15982882  1
  Ca2+  Ca46  1  0.91935293  0.67306641  0.49899353  1
  Ca2+  Ca47  1  0.91627775  0.67338773  0.82667097  1
  Al0+  Al48  1  0.00159125  0.00352998  -0.00248593  1
  Al0+  Al49  1  0.00039974  0.00349264  0.33244351  1
  Al0+  Al50  1  -0.00161657  -0.00019764  0.66596911  1
  Al0+  Al51  1  -0.00048172  0.50076057  0.00331644  1
  Al0+  Al52  1  -0.00012288  0.50150801  0.33084997  1
  Al0+  Al53  1  -0.00025235  0.49981569  0.66474544  1
  Al0+  Al54  1  0.50320728  0.00147589  0.00111296  1
  Al0+  Al55  1  0.50185827  0.00058293  0.34305966  1
  Al0+  Al56  1  0.49980982  -0.00117210  0.66971792  1
  Al0+  Al57  1  0.50072613  0.49873396  0.00398782  1
  Al0+  Al58  1  0.50222999  0.49849086  0.32852620  1
  Al0+  Al59  1  0.49848011  0.49812865  0.66382668  1
  Al0+  Al60  1  0.24929252  0.24982957  0.00149282  1
  Al0+  Al61  1  0.24816774  0.25310176  0.33923112  1
  Al0+  Al62  1  0.24968623  0.24952353  0.66605057  1
  Al0+  Al63  1  0.24913645  0.75038325  0.00654709  1
  Al0+  Al64  1  0.25085467  0.75083685  0.33882026  1
  Al0+  Al65  1  0.25031445  0.74877979  0.66500149  1
  Al0+  Al66  1  0.74945786  0.25168371  0.00104662  1
  Al0+  Al67  1  0.74737920  0.25154553  0.32741455  1
  Al0+  Al68  1  0.74762850  0.24618414  0.66525074  1
  Al0+  Al69  1  0.75139865  0.74972565  -0.00236447  1
  Al0+  Al70  1  0.75080485  0.74843572  0.33103622  1
  Al0+  Al71  1  0.74851711  0.74777198  0.66832355  1
  Al0+  Al72  1  0.82139555  0.56982182  0.67928599  1
  Al0+  Al73  1  0.32126698  0.07072099  0.35025910  1
  Al0+  Al74  1  0.42758488  0.82230660  0.98650992  1
  Al0+  Al75  1  0.57040525  0.67741823  0.98200357  1
  Al0+  Al76  1  0.92740758  0.32302378  0.31712456  1
  Al0+  Al77  1  0.17853694  0.43275147  0.34775519  1
  Al0+  Al78  1  0.92820000  0.31949917  0.65470962  1
  Al0+  Al79  1  0.32170895  0.57055320  0.67920965  1
  Al0+  Al80  1  0.67910593  0.42865632  0.01519917  1
  Al0+  Al81  1  0.68255283  0.93018897  0.01228909  1
  Al0+  Al82  1  0.17771395  0.92841780  0.01377658  1
  Al0+  Al83  1  0.93073005  0.82150289  0.98558817  1
  Al0+  Al84  1  0.82078606  0.07025506  0.67870829  1
  Al0+  Al85  1  0.32259020  0.07191950  0.01401392  1
  Al0+  Al86  1  0.92691225  0.82115048  0.65108229  1
  Al0+  Al87  1  0.68246887  0.92686928  0.34741263  1
  Al0+  Al88  1  0.32131228  0.57173556  0.01400458  1
  Al0+  Al89  1  0.32000342  0.07082559  0.68267172  1
  Al0+  Al90  1  0.17542416  0.92745960  0.35135543  1
  Al0+  Al91  1  0.93167923  0.82178298  0.31916366  1
  Al0+  Al92  1  0.07297121  0.67924907  0.65172812  1
  Al0+  Al93  1  0.57043284  0.67879770  0.31901348  1
  Al0+  Al94  1  0.82222051  0.57220768  0.01698692  1
  Al0+  Al95  1  0.42933700  0.32019718  0.65282818  1
  Si0+  Si96  1  0.56927596  0.67840538  0.65221026  1
  Si0+  Si97  1  0.82060661  0.07549988  0.34734316  1
  Si0+  Si98  1  0.07230195  0.17743745  0.64899770  1
  Si0+  Si99  1  0.17763119  0.42717583  0.01544314  1
  Si0+  Si100  1  0.56985002  0.17849979  0.31781860  1
  Si0+  Si101  1  0.67807114  0.42627474  0.34977954  1
  Si0+  Si102  1  0.82374167  0.07441354  0.01654343  1
  Si0+  Si103  1  0.07405792  0.67834089  0.31625847  1
  Si0+  Si104  1  0.92842784  0.32174528  0.98438340  1
  Si0+  Si105  1  0.07295166  0.18091332  0.31522771  1
  Si0+  Si106  1  0.07277045  0.67502046  0.98452812  1
  Si0+  Si107  1  0.32511908  0.57083266  0.34973630  1
  Si0+  Si108  1  0.42871587  0.82384230  0.31983713  1
  Si0+  Si109  1  0.17783391  0.92736553  0.68347686  1
  Si0+  Si110  1  0.42797091  0.31947711  0.98615526  1
  Si0+  Si111  1  0.57269737  0.17868378  0.98424206  1
  Si0+  Si112  1  0.57098449  0.17486156  0.64835401  1
  Si0+  Si113  1  0.17722865  0.42822801  0.68329731  1
  Si0+  Si114  1  0.42778146  0.31973824  0.31710561  1
  Si0+  Si115  1  0.42889484  0.82222140  0.65160612  1
  Si0+  Si116  1  0.07122641  0.18147504  0.98416763  1
  Si0+  Si117  1  0.81929600  0.56925821  0.34877996  1
  Si0+  Si118  1  0.67718427  0.42696306  0.68010908  1
  Si0+  Si119  1  0.67789738  0.92548260  0.68481844  1
  O2-  O120  1  0.25584918  -0.00504662  0.06269052  1
  O2-  O121  1  0.25043562  -0.00255350  0.40002571  1
  O2-  O122  1  0.24615863  -0.00401728  0.72868823  1
  O2-  O123  1  0.24493636  0.49751758  0.05882899  1
  O2-  O124  1  0.25211106  0.50782936  0.39511775  1
  O2-  O125  1  0.24601977  0.49694560  0.72697029  1
  O2-  O126  1  0.75920573  0.00242254  0.06085807  1
  O2-  O127  1  0.75894061  0.00084170  0.39233691  1
  O2-  O128  1  0.74956466  -0.00715236  0.72609950  1
  O2-  O129  1  0.74860762  0.50149455  0.06735097  1
  O2-  O130  1  0.75000669  0.49601196  0.39168645  1
  O2-  O131  1  0.74901643  0.49167577  0.72407119  1
  O2-  O132  1  0.00152773  0.24751881  0.27051964  1
  O2-  O133  1  0.00157785  0.24468088  0.60533147  1
  O2-  O134  1  -0.00075234  0.25140431  0.94155809  1
  O2-  O135  1  0.01195852  0.75279891  0.27195247  1
  O2-  O136  1  0.00048019  0.75063230  0.60139614  1
  O2-  O137  1  0.00597467  0.74603404  0.94125447  1
  O2-  O138  1  0.49541706  0.24577293  0.27477987  1
  O2-  O139  1  0.50062827  0.24253989  0.60458416  1
  O2-  O140  1  0.49943654  0.24864997  0.94376878  1
  O2-  O141  1  0.49371220  0.75231602  0.27488113  1
  O2-  O142  1  0.49999549  0.75088978  0.60948096  1
  O2-  O143  1  0.49586878  0.74788190  0.93297060  1
  O2-  O144  1  0.07106915  0.18345645  0.08910809  1
  O2-  O145  1  0.07291441  0.18304156  0.42074846  1
  O2-  O146  1  0.07238065  0.18028121  0.75508356  1
  O2-  O147  1  0.07028704  0.67067185  0.09012348  1
  O2-  O148  1  0.06957110  0.67421960  0.42150490  1
  O2-  O149  1  0.07477046  0.68175752  0.76532070  1
  O2-  O150  1  0.57459579  0.17958813  0.08947151  1
  O2-  O151  1  0.57305422  0.18205128  0.42265549  1
  O2-  O152  1  0.57223752  0.17570127  0.75406697  1
  O2-  O153  1  0.56933125  0.68016475  0.09580649  1
  O2-  O154  1  0.57003271  0.67821623  0.43310469  1
  O2-  O155  1  0.56858633  0.67707692  0.75665896  1
  O2-  O156  1  0.18193946  0.43304006  0.23431582  1
  O2-  O157  1  0.17805385  0.42881232  0.57760014  1
  O2-  O158  1  0.17746360  0.42363892  0.91005915  1
  O2-  O159  1  0.17597145  0.93044821  0.23807946  1
  O2-  O160  1  0.17953233  0.92900272  0.57794812  1
  O2-  O161  1  0.17553436  0.93284746  0.90003712  1
  O2-  O162  1  0.67756719  0.42406654  0.24529825  1
  O2-  O163  1  0.67582091  0.42946470  0.57398976  1
  O2-  O164  1  0.68243845  0.42520506  0.90133966  1
  O2-  O165  1  0.68104544  0.92795624  0.23452395  1
  O2-  O166  1  0.67653629  0.92542397  0.57891412  1
  O2-  O167  1  0.68218769  0.93416034  0.89919967  1
  O2-  O168  1  0.42677548  0.31751897  0.09155060  1
  O2-  O169  1  0.43060592  0.32176687  0.42218008  1
  O2-  O170  1  0.43298963  0.32182665  0.76608774  1
  O2-  O171  1  0.43032194  0.82191570  0.10031709  1
  O2-  O172  1  0.43179923  0.82231563  0.42606243  1
  O2-  O173  1  0.42915380  0.82346878  0.75635836  1
  O2-  O174  1  0.92898398  0.32020796  0.08957890  1
  O2-  O175  1  0.92645902  0.32166528  0.43036216  1
  O2-  O176  1  0.93043353  0.31844282  0.76809845  1
  O2-  O177  1  0.93163030  0.82114088  0.09892395  1
  O2-  O178  1  0.92863557  0.81709245  0.43197076  1
  O2-  O179  1  0.92760731  0.82023645  0.76459721  1
  O2-  O180  1  0.32114943  0.07042243  0.23688801  1
  O2-  O181  1  0.31848691  0.06932841  0.56983860  1
  O2-  O182  1  0.31807085  0.07546277  0.90046942  1
  O2-  O183  1  0.32570868  0.56706644  0.24417739  1
  O2-  O184  1  0.32451229  0.56713423  0.56615141  1
  O2-  O185  1  0.32144392  0.56874977  0.90071120  1
  O2-  O186  1  0.81585845  0.07932035  0.24181808  1
  O2-  O187  1  0.81609995  0.07422843  0.56578487  1
  O2-  O188  1  0.82114673  0.07725800  0.91082619  1
  O2-  O189  1  0.81808636  0.56884565  0.24402595  1
  O2-  O190  1  0.81798325  0.56989948  0.56557918  1
  O2-  O191  1  0.82381918  0.56851675  0.90328670  1
  O2-  O192  1  0.04942169  0.08735930  0.26835228  1
  O2-  O193  1  0.04879439  0.08333619  0.60409484  1
  O2-  O194  1  0.04448895  0.09118243  0.93370671  1
  O2-  O195  1  0.04313202  0.58749985  0.26733791  1
  O2-  O196  1  0.04454019  0.58048848  0.59913816  1
  O2-  O197  1  0.04671811  0.58160800  0.93712368  1
  O2-  O198  1  0.54440757  0.08457552  0.27334624  1
  O2-  O199  1  0.54661843  0.08046220  0.60304774  1
  O2-  O200  1  0.54809214  0.08771199  0.93450963  1
  O2-  O201  1  0.54314468  0.58120089  0.26458756  1
  O2-  O202  1  0.54052002  0.58758818  0.60271560  1
  O2-  O203  1  0.54415173  0.57644951  0.93294435  1
  O2-  O204  1  0.16501476  0.21281326  0.26913348  1
  O2-  O205  1  0.16489785  0.20462943  0.60220942  1
  O2-  O206  1  0.16222978  0.21146922  0.93536162  1
  O2-  O207  1  0.17185596  0.69595361  0.27531286  1
  O2-  O208  1  0.17173964  0.70471799  0.59655186  1
  O2-  O209  1  0.16793087  0.69850791  0.94161901  1
  O2-  O210  1  0.65855583  0.20980771  0.26643239  1
  O2-  O211  1  0.66289296  0.20200130  0.59962515  1
  O2-  O212  1  0.66368298  0.20944804  0.93545105  1
  O2-  O213  1  0.66607466  0.71082542  0.26527375  1
  O2-  O214  1  0.66097168  0.70569587  0.60408896  1
  O2-  O215  1  0.66852188  0.70810381  0.93027859  1
  O2-  O216  1  0.08428521  0.45105340  0.06270432  1
  O2-  O217  1  0.08071604  0.46190107  0.40063319  1
  O2-  O218  1  0.08381226  0.45244780  0.72968326  1
  O2-  O219  1  0.08249542  0.96752739  0.06747682  1
  O2-  O220  1  0.07768689  0.96063993  0.40386127  1
  O2-  O221  1  0.08348214  0.95259338  0.72768523  1
  O2-  O222  1  0.58016546  0.45104492  0.06926733  1
  O2-  O223  1  0.58597262  0.45548304  0.39655318  1
  O2-  O224  1  0.58508016  0.45595644  0.72662616  1
  O2-  O225  1  0.58775612  0.96377478  0.06796873  1
  O2-  O226  1  0.58816156  0.95942231  0.40500560  1
  O2-  O227  1  0.58562516  0.95448981  0.73138182  1
  O2-  O228  1  0.20574816  0.33549838  0.06418046  1
  O2-  O229  1  0.20876951  0.33763196  0.40397303  1
  O2-  O230  1  0.20251043  0.33432147  0.72856391  1
  O2-  O231  1  0.19635788  0.82923518  0.06837087  1
  O2-  O232  1  0.20055708  0.82777474  0.40418235  1
  O2-  O233  1  0.20424087  0.83369715  0.72763654  1
  O2-  O234  1  0.70916757  0.33070828  0.06986206  1
  O2-  O235  1  0.70375958  0.33382951  0.39700739  1
  O2-  O236  1  0.69647023  0.33112416  0.72342251  1
  O2-  O237  1  0.71123424  0.83330467  0.06537363  1
  O2-  O238  1  0.71318857  0.83040555  0.40202567  1
  O2-  O239  1  0.70085153  0.83178660  0.73080222  1
  O2-  O240  1  0.45945212  0.40963924  0.26803128  1
  O2-  O241  1  0.46288562  0.41442062  0.59464226  1
  O2-  O242  1  0.45683020  0.41100861  0.93937839  1
  O2-  O243  1  0.45700482  0.91772570  0.27682720  1
  O2-  O244  1  0.45820435  0.91360049  0.60352807  1
  O2-  O245  1  0.46028415  0.92041715  0.93340973  1
  O2-  O246  1  0.96073254  0.41861712  0.26271508  1
  O2-  O247  1  0.95903220  0.41515360  0.59936761  1
  O2-  O248  1  0.95703744  0.41399264  0.93858897  1
  O2-  O249  1  0.95374252  0.92213907  0.26766344  1
  O2-  O250  1  0.95201475  0.92112873  0.59906381  1
  O2-  O251  1  0.95913424  0.92030310  0.93324742  1
  O2-  O252  1  0.33427540  0.29554347  0.27171095  1
  O2-  O253  1  0.33161792  0.29200665  0.59908642  1
  O2-  O254  1  0.33609526  0.29265512  0.93804197  1
  O2-  O255  1  0.33268412  0.80267363  0.27690570  1
  O2-  O256  1  0.33790200  0.79460678  0.60319266  1
  O2-  O257  1  0.32665516  0.79718008  0.93675378  1
  O2-  O258  1  0.83071357  0.29252162  0.26251502  1
  O2-  O259  1  0.83058568  0.28982249  0.60084554  1
  O2-  O260  1  0.83655674  0.29382121  0.93758451  1
  O2-  O261  1  0.83714607  0.78368725  0.26569279  1
  O2-  O262  1  0.82782118  0.79022435  0.59980729  1
  O2-  O263  1  0.83486147  0.79106302  0.93095343  1
  O2-  O264  1  0.42380283  0.05269848  0.06344538  1
  O2-  O265  1  0.41996193  0.04670410  0.40559467  1
  O2-  O266  1  0.41849800  0.04275866  0.73418226  1
  O2-  O267  1  0.41552160  0.53710889  0.06943625  1
  O2-  O268  1  0.41746483  0.53857098  0.39508983  1
  O2-  O269  1  0.41710461  0.53561610  0.73346996  1
  O2-  O270  1  0.91922018  0.05524508  0.05995949  1
  O2-  O271  1  0.91716104  0.06001190  0.38950020  1
  O2-  O272  1  0.91889265  0.04621544  0.73330027  1
  O2-  O273  1  0.91924627  0.54058532  0.07165715  1
  O2-  O274  1  0.91185791  0.54254550  0.39435269  1
  O2-  O275  1  0.91812642  0.54036072  0.73302272  1
  O2-  O276  1  0.28842665  0.16852424  0.06831063  1
  O2-  O277  1  0.29076324  0.16956331  0.40178311  1
  O2-  O278  1  0.29058884  0.16891772  0.73466169  1
  O2-  O279  1  0.29292437  0.66665952  0.07164410  1
  O2-  O280  1  0.30757103  0.66673879  0.39357341  1
  O2-  O281  1  0.29372421  0.66805635  0.73284720  1
  O2-  O282  1  0.79460560  0.16662584  0.06323747  1
  O2-  O283  1  0.78655653  0.16676055  0.39441029  1
  O2-  O284  1  0.78630274  0.16532955  0.73552156  1
  O2-  O285  1  0.79392829  0.67045532  0.06868712  1
  O2-  O286  1  0.78780123  0.65925344  0.39692865  1
  O2-  O287  1  0.78702157  0.66436107  0.73447209  1
