# generated using pymatgen
data_Ca2Al2SiO7
_symmetry_space_group_name_H-M   'P 1'
_cell_length_a   15.45647008
_cell_length_b   15.45615073
_cell_length_c   15.28227253
_cell_angle_alpha   89.99042393
_cell_angle_beta   90.00884327
_cell_angle_gamma   90.01496151
_symmetry_Int_Tables_number   1
_chemical_formula_structural   Ca2Al2SiO7
_chemical_formula_sum   'Ca48 Al48 Si24 O168'
_cell_volume   3650.89696059
_cell_formula_units_Z   24
loop_
 _symmetry_equiv_pos_site_id
 _symmetry_equiv_pos_as_xyz
  1  'x, y, z'
loop_
 _atom_type_symbol
 _atom_type_oxidation_number
  Ca2+  2.0
  Al0+  0.0
  Si0+  0.0
  O2-  -2.0
loop_
 _atom_site_type_symbol
 _atom_site_label
 _atom_site_symmetry_multiplicity
 _atom_site_fract_x
 _atom_site_fract_y
 _atom_site_fract_z
 _atom_site_occupancy
  Ca2+  Ca0  1  0.17113790  0.08292640  0.17457424  1
  Ca2+  Ca1  1  0.17414274  0.08248503  0.50211612  1
  Ca2+  Ca2  1  0.17765682  0.08095257  0.84306252  1
  Ca2+  Ca3  1  0.16656780  0.58330383  0.16936654  1
  Ca2+  Ca4  1  0.17087974  0.57807208  0.51289938  1
  Ca2+  Ca5  1  0.16469414  0.58317777  0.83239046  1
  Ca2+  Ca6  1  0.66784487  0.07318596  0.17802026  1
  Ca2+  Ca7  1  0.67280918  0.08650232  0.50234838  1
  Ca2+  Ca8  1  0.67441947  0.07834070  0.83827584  1
  Ca2+  Ca9  1  0.66765026  0.57301653  0.17746233  1
  Ca2+  Ca10  1  0.66509894  0.58436401  0.49870738  1
  Ca2+  Ca11  1  0.66485846  0.57998311  0.83871613  1
  Ca2+  Ca12  1  0.08235784  0.31709350  0.16157185  1
  Ca2+  Ca13  1  0.07902475  0.33027824  0.49680290  1
  Ca2+  Ca14  1  0.07866761  0.32864012  0.82575123  1
  Ca2+  Ca15  1  0.08645992  0.83359126  0.16008612  1
  Ca2+  Ca16  1  0.08854423  0.82988830  0.49632757  1
  Ca2+  Ca17  1  0.09493991  0.82330113  0.83217748  1
  Ca2+  Ca18  1  0.58376558  0.32974798  0.16341903  1
  Ca2+  Ca19  1  0.58074217  0.32762603  0.49022491  1
  Ca2+  Ca20  1  0.57759412  0.33685042  0.83401557  1
  Ca2+  Ca21  1  0.59205180  0.83154043  0.16457312  1
  Ca2+  Ca22  1  0.58086934  0.82703792  0.49441640  1
  Ca2+  Ca23  1  0.57822635  0.83124852  0.82298045  1
  Ca2+  Ca24  1  0.33583618  0.41420716  0.16652527  1
  Ca2+  Ca25  1  0.32469455  0.42216158  0.50953203  1
  Ca2+  Ca26  1  0.33183638  0.42194901  0.83397442  1
  Ca2+  Ca27  1  0.32106858  0.92754096  0.17170894  1
  Ca2+  Ca28  1  0.33556729  0.92547424  0.50219539  1
  Ca2+  Ca29  1  0.33528721  0.92625602  0.83887201  1
  Ca2+  Ca30  1  0.82344341  0.42264952  0.17363473  1
  Ca2+  Ca31  1  0.82956210  0.41624345  0.50136230  1
  Ca2+  Ca32  1  0.82894337  0.41491172  0.83620304  1
  Ca2+  Ca33  1  0.82330408  0.91902463  0.17465882  1
  Ca2+  Ca34  1  0.82966519  0.92899579  0.49906990  1
  Ca2+  Ca35  1  0.82784649  0.91892023  0.83589418  1
  Ca2+  Ca36  1  0.41641781  0.16730523  0.16332993  1
  Ca2+  Ca37  1  0.41866446  0.16244623  0.49254037  1
  Ca2+  Ca38  1  0.41132196  0.16782004  0.83209414  1
  Ca2+  Ca39  1  0.42427530  0.66875575  0.16508905  1
  Ca2+  Ca40  1  0.42274537  0.66948780  0.49910936  1
  Ca2+  Ca41  1  0.42137045  0.67591420  0.81858676  1
  Ca2+  Ca42  1  0.92821592  0.15314786  0.16697358  1
  Ca2+  Ca43  1  0.91527253  0.16838203  0.49348888  1
  Ca2+  Ca44  1  0.92171169  0.16825719  0.82608277  1
  Ca2+  Ca45  1  0.91952754  0.66658216  0.16284343  1
  Ca2+  Ca46  1  0.92025831  0.66491160  0.49567640  1
  Ca2+  Ca47  1  0.92869674  0.66810839  0.82771791  1
  Al0+  Al48  1  0.00011638  -0.00238096  -0.00553727  1
  Al0+  Al49  1  -0.00047814  -0.00245435  0.33701878  1
  Al0+  Al50  1  0.00008629  -0.00036046  0.67203205  1
  Al0+  Al51  1  0.00110828  0.50009748  -0.00354429  1
  Al0+  Al52  1  -0.00068768  0.49957015  0.33360250  1
  Al0+  Al53  1  -0.00283662  0.49845608  0.66240900  1
  Al0+  Al54  1  0.50124800  0.00050313  0.00778522  1
  Al0+  Al55  1  0.49759581  -0.00061124  0.33426752  1
  Al0+  Al56  1  0.50004999  -0.00012162  0.66732036  1
  Al0+  Al57  1  0.50027122  0.49895182  -0.00013630  1
  Al0+  Al58  1  0.49905854  0.50165876  0.33249279  1
  Al0+  Al59  1  0.49912087  0.49876596  0.66602167  1
  Al0+  Al60  1  0.25082657  0.25305678  -0.00609971  1
  Al0+  Al61  1  0.24824186  0.25109689  0.33274858  1
  Al0+  Al62  1  0.24872227  0.24957549  0.67454260  1
  Al0+  Al63  1  0.25281433  0.75006306  -0.00037260  1
  Al0+  Al64  1  0.25077914  0.75021087  0.33455724  1
  Al0+  Al65  1  0.25201579  0.75026062  0.65954948  1
  Al0+  Al66  1  0.74980017  0.25050402  0.00461036  1
  Al0+  Al67  1  0.74799433  0.25226451  0.33325828  1
  Al0+  Al68  1  0.75108526  0.25004906  0.66902366  1
  Al0+  Al69  1  0.75282122  0.74938183  0.00125704  1
  Al0+  Al70  1  0.75115048  0.74868776  0.33629569  1
  Al0+  Al71  1  0.75133809  0.74866583  0.66335869  1
  Al0+  Al72  1  0.07249640  0.67922231  0.98659591  1
  Al0+  Al73  1  0.57098805  0.68077178  0.31730340  1
  Al0+  Al74  1  0.67781336  0.43022440  0.01381353  1
  Al0+  Al75  1  0.42942615  0.82410915  0.65000056  1
  Al0+  Al76  1  0.17578206  0.42974091  0.68297783  1
  Al0+  Al77  1  0.57097679  0.17816130  0.32047308  1
  Al0+  Al78  1  0.82237126  0.57030339  0.34940229  1
  Al0+  Al79  1  0.43083778  0.32126079  0.98464064  1
  Al0+  Al80  1  0.68020860  0.92839286  0.01236182  1
  Al0+  Al81  1  0.31904913  0.07354375  0.34872868  1
  Al0+  Al82  1  0.06981650  0.68041155  0.65153995  1
  Al0+  Al83  1  0.67672358  0.42961065  0.35028334  1
  Al0+  Al84  1  0.17963609  0.92720156  0.01351283  1
  Al0+  Al85  1  0.07069445  0.17717176  0.98467704  1
  Al0+  Al86  1  0.82077963  0.07140226  0.34684650  1
  Al0+  Al87  1  0.67671605  0.92742975  0.34990479  1
  Al0+  Al88  1  0.06909374  0.17911308  0.32192503  1
  Al0+  Al89  1  0.82115865  0.07242586  0.68177975  1
  Al0+  Al90  1  0.17783389  0.92753791  0.34989308  1
  Al0+  Al91  1  0.92774852  0.31890475  0.65214391  1
  Al0+  Al92  1  0.31990263  0.07490965  0.01694631  1
  Al0+  Al93  1  0.32226234  0.07014581  0.68203098  1
  Al0+  Al94  1  0.32146426  0.57151071  0.68155582  1
  Al0+  Al95  1  0.57266320  0.67651021  0.65120226  1
  Si0+  Si96  1  0.07266121  0.17728591  0.65049800  1
  Si0+  Si97  1  0.57321042  0.17633091  0.98339439  1
  Si0+  Si98  1  0.07229964  0.67772618  0.31835910  1
  Si0+  Si99  1  0.57203510  0.67923022  0.98654775  1
  Si0+  Si100  1  0.42697226  0.32253043  0.31794536  1
  Si0+  Si101  1  0.57045424  0.18083811  0.65483870  1
  Si0+  Si102  1  0.82397416  0.57068495  0.01496255  1
  Si0+  Si103  1  0.43162013  0.82125660  0.98702667  1
  Si0+  Si104  1  0.32038790  0.57156520  0.34708130  1
  Si0+  Si105  1  0.82050987  0.57196055  0.68264592  1
  Si0+  Si106  1  0.92716675  0.82377177  0.64829344  1
  Si0+  Si107  1  0.92624273  0.82077143  0.98174756  1
  Si0+  Si108  1  0.17780992  0.92722537  0.68345442  1
  Si0+  Si109  1  0.93017442  0.81977473  0.31884665  1
  Si0+  Si110  1  0.17767252  0.43075551  0.01510283  1
  Si0+  Si111  1  0.32155828  0.57091844  0.01499438  1
  Si0+  Si112  1  0.82284844  0.07252277  0.01601743  1
  Si0+  Si113  1  0.42711463  0.32013460  0.65230807  1
  Si0+  Si114  1  0.67896372  0.42847018  0.68202340  1
  Si0+  Si115  1  0.92734204  0.32377993  0.31457193  1
  Si0+  Si116  1  0.42641335  0.82209450  0.31297627  1
  Si0+  Si117  1  0.17889794  0.42957405  0.34575851  1
  Si0+  Si118  1  0.67985206  0.92754585  0.68187315  1
  Si0+  Si119  1  0.92767219  0.32156086  0.98421280  1
  O2-  O120  1  0.24368282  0.00569442  0.06443643  1
  O2-  O121  1  0.24869990  0.00045860  0.39918558  1
  O2-  O122  1  0.24642026  -0.00397987  0.72746087  1
  O2-  O123  1  0.24891206  0.50153914  0.05817465  1
  O2-  O124  1  0.24825569  0.50159194  0.38798475  1
  O2-  O125  1  0.24730622  0.50262437  0.73346359  1
  O2-  O126  1  0.75317262  0.00455534  0.05890095  1
  O2-  O127  1  0.74357352  0.00533756  0.39813604  1
  O2-  O128  1  0.74883251  -0.00489424  0.72760110  1
  O2-  O129  1  0.75357128  0.50421725  0.05889426  1
  O2-  O130  1  0.74969191  0.49998591  0.40107621  1
  O2-  O131  1  0.74597981  0.50392616  0.72406284  1
  O2-  O132  1  -0.00832508  0.25024420  0.27180473  1
  O2-  O133  1  0.00296494  0.24462317  0.60576061  1
  O2-  O134  1  -0.00688697  0.25023138  0.93944111  1
  O2-  O135  1  0.00232551  0.74921760  0.27609788  1
  O2-  O136  1  -0.00200883  0.75724942  0.60385774  1
  O2-  O137  1  -0.00043458  0.75554321  0.93948987  1
  O2-  O138  1  0.49551772  0.25323812  0.27477269  1
  O2-  O139  1  0.49604128  0.24753075  0.61099313  1
  O2-  O140  1  0.50372143  0.24402499  0.93796471  1
  O2-  O141  1  0.49974736  0.75779195  0.26809423  1
  O2-  O142  1  0.50119472  0.74984587  0.60272667  1
  O2-  O143  1  0.50583495  0.75366120  0.94394523  1
  O2-  O144  1  0.06968255  0.17883220  0.09817640  1
  O2-  O145  1  0.07104381  0.18404172  0.43471568  1
  O2-  O146  1  0.07077707  0.17946125  0.75633513  1
  O2-  O147  1  0.07009532  0.67708697  0.10001284  1
  O2-  O148  1  0.07222958  0.67622970  0.42309702  1
  O2-  O149  1  0.06794774  0.68105057  0.76499474  1
  O2-  O150  1  0.57372391  0.17785464  0.08864792  1
  O2-  O151  1  0.56964033  0.18134646  0.43433275  1
  O2-  O152  1  0.57152457  0.18313419  0.76018511  1
  O2-  O153  1  0.57021106  0.67855559  0.09157717  1
  O2-  O154  1  0.56642858  0.67893385  0.42978404  1
  O2-  O155  1  0.57315598  0.67837727  0.76598606  1
  O2-  O156  1  0.17954939  0.43056577  0.24019909  1
  O2-  O157  1  0.17875970  0.42935358  0.56862826  1
  O2-  O158  1  0.17600076  0.43327104  0.91052270  1
  O2-  O159  1  0.17859224  0.92590454  0.23627236  1
  O2-  O160  1  0.17588588  0.93039884  0.57811396  1
  O2-  O161  1  0.18678584  0.92371380  0.90017555  1
  O2-  O162  1  0.67736636  0.43191288  0.23641478  1
  O2-  O163  1  0.67980336  0.42572214  0.57758022  1
  O2-  O164  1  0.67803517  0.43319918  0.90006333  1
  O2-  O165  1  0.68254403  0.92690135  0.23589248  1
  O2-  O166  1  0.68026760  0.92919080  0.57690168  1
  O2-  O167  1  0.68152567  0.92776929  0.89887443  1
  O2-  O168  1  0.43272601  0.32430582  0.09761206  1
  O2-  O169  1  0.42552212  0.32372369  0.42372648  1
  O2-  O170  1  0.43026413  0.32219043  0.75747834  1
  O2-  O171  1  0.43039927  0.81699126  0.09182129  1
  O2-  O172  1  0.42407685  0.81772614  0.41817018  1
  O2-  O173  1  0.43323213  0.82467489  0.76480872  1
  O2-  O174  1  0.93060363  0.32506696  0.08944314  1
  O2-  O175  1  0.93125603  0.32684731  0.42007984  1
  O2-  O176  1  0.92579408  0.31716761  0.76569862  1
  O2-  O177  1  0.92217290  0.81790499  0.08722204  1
  O2-  O178  1  0.93159468  0.81889695  0.42380767  1
  O2-  O179  1  0.92407851  0.82032771  0.75404184  1
  O2-  O180  1  0.31592711  0.07583125  0.23539156  1
  O2-  O181  1  0.32205412  0.07239081  0.56940112  1
  O2-  O182  1  0.32135999  0.07109724  0.90311168  1
  O2-  O183  1  0.31934696  0.57179150  0.24125984  1
  O2-  O184  1  0.32093956  0.56646400  0.56759203  1
  O2-  O185  1  0.32285923  0.57082967  0.91045278  1
  O2-  O186  1  0.82332003  0.06500477  0.23313702  1
  O2-  O187  1  0.81777633  0.07436692  0.56923793  1
  O2-  O188  1  0.82036114  0.07283135  0.91004732  1
  O2-  O189  1  0.82475951  0.56784827  0.23522379  1
  O2-  O190  1  0.82196780  0.57136037  0.57810602  1
  O2-  O191  1  0.82391009  0.57058671  0.90916144  1
  O2-  O192  1  0.03995361  0.08100093  0.26913037  1
  O2-  O193  1  0.04894082  0.08188384  0.60817331  1
  O2-  O194  1  0.04374009  0.07999492  0.92931489  1
  O2-  O195  1  0.04392908  0.58595361  0.26994071  1
  O2-  O196  1  0.03654327  0.58442787  0.59818260  1
  O2-  O197  1  0.04003439  0.58360814  0.93082410  1
  O2-  O198  1  0.54190158  0.08074290  0.26679042  1
  O2-  O199  1  0.54701968  0.08791915  0.60869535  1
  O2-  O200  1  0.54906094  0.08155578  0.93855733  1
  O2-  O201  1  0.53507638  0.58495412  0.26271542  1
  O2-  O202  1  0.54319185  0.57787831  0.59905854  1
  O2-  O203  1  0.54034211  0.58911626  0.93878015  1
  O2-  O204  1  0.16345688  0.21543493  0.26558466  1
  O2-  O205  1  0.16651090  0.20531635  0.60648653  1
  O2-  O206  1  0.16539509  0.21237238  0.93040257  1
  O2-  O207  1  0.16483283  0.70396935  0.27094457  1
  O2-  O208  1  0.16704258  0.70626614  0.59675606  1
  O2-  O209  1  0.17027987  0.70821092  0.93305558  1
  O2-  O210  1  0.66717004  0.20902222  0.26470443  1
  O2-  O211  1  0.66041287  0.21318629  0.60726722  1
  O2-  O212  1  0.66734735  0.20382375  0.93799042  1
  O2-  O213  1  0.67020349  0.70685616  0.26550687  1
  O2-  O214  1  0.67190567  0.70251472  0.59914018  1
  O2-  O215  1  0.66645161  0.70150102  0.94133632  1
  O2-  O216  1  0.08637649  0.45897373  0.06360579  1
  O2-  O217  1  0.08731831  0.45623786  0.39326487  1
  O2-  O218  1  0.07628928  0.45783781  0.73379050  1
  O2-  O219  1  0.07603213  0.94547255  0.05947156  1
  O2-  O220  1  0.07958518  0.95218963  0.40321069  1
  O2-  O221  1  0.08383757  0.94878001  0.73139394  1
  O2-  O222  1  0.58273053  0.46330167  0.06864095  1
  O2-  O223  1  0.57765613  0.45881821  0.40158287  1
  O2-  O224  1  0.58587226  0.45290661  0.72870740  1
  O2-  O225  1  0.58470730  0.95519265  0.06942193  1
  O2-  O226  1  0.57564620  0.94806977  0.39836704  1
  O2-  O227  1  0.58717826  0.95470708  0.72876051  1
  O2-  O228  1  0.20757173  0.33947821  0.06143139  1
  O2-  O229  1  0.20761537  0.33983450  0.39534349  1
  O2-  O230  1  0.20494345  0.33260191  0.73750407  1
  O2-  O231  1  0.21286064  0.83037013  0.06819488  1
  O2-  O232  1  0.20772621  0.82863982  0.40184324  1
  O2-  O233  1  0.20423084  0.83244085  0.72553604  1
  O2-  O234  1  0.70605718  0.33305877  0.06785635  1
  O2-  O235  1  0.70326116  0.33095862  0.40247002  1
  O2-  O236  1  0.71151673  0.33964251  0.73241590  1
  O2-  O237  1  0.71256894  0.83172936  0.06650134  1
  O2-  O238  1  0.71031689  0.83124496  0.40252577  1
  O2-  O239  1  0.70586433  0.83322959  0.72747236  1
  O2-  O240  1  0.45220443  0.41595682  0.27072341  1
  O2-  O241  1  0.45606235  0.41062759  0.60339391  1
  O2-  O242  1  0.46561019  0.41693927  0.92899614  1
  O2-  O243  1  0.44552483  0.91759206  0.26924424  1
  O2-  O244  1  0.46026768  0.92162367  0.59638729  1
  O2-  O245  1  0.45778254  0.91464472  0.94190856  1
  O2-  O246  1  0.95930926  0.41515829  0.26628247  1
  O2-  O247  1  0.95592275  0.41509135  0.59659673  1
  O2-  O248  1  0.95576413  0.41388321  0.93584150  1
  O2-  O249  1  0.95704604  0.91081809  0.26970872  1
  O2-  O250  1  0.95107546  0.91919236  0.60538086  1
  O2-  O251  1  0.94576090  0.91500625  0.93476632  1
  O2-  O252  1  0.33359925  0.29775699  0.27017452  1
  O2-  O253  1  0.33355239  0.29455552  0.60785348  1
  O2-  O254  1  0.33377757  0.29684691  0.92861841  1
  O2-  O255  1  0.33489389  0.78857412  0.26561616  1
  O2-  O256  1  0.33199960  0.79778767  0.59513202  1
  O2-  O257  1  0.34219291  0.78972982  0.93757080  1
  O2-  O258  1  0.83153636  0.30479279  0.27144597  1
  O2-  O259  1  0.83154448  0.28689094  0.59782630  1
  O2-  O260  1  0.83202340  0.29911272  0.93998195  1
  O2-  O261  1  0.83940599  0.79002296  0.27020019  1
  O2-  O262  1  0.83519993  0.79580168  0.60075051  1
  O2-  O263  1  0.83526421  0.78957744  0.93154691  1
  O2-  O264  1  0.41805020  0.04525574  0.06903840  1
  O2-  O265  1  0.41762844  0.04548340  0.40024465  1
  O2-  O266  1  0.41940591  0.04031256  0.73676760  1
  O2-  O267  1  0.41179606  0.53968936  0.06382704  1
  O2-  O268  1  0.41091368  0.54287667  0.39477662  1
  O2-  O269  1  0.41916809  0.53978393  0.73539598  1
  O2-  O270  1  0.91686647  0.04459765  0.05893919  1
  O2-  O271  1  0.91597974  0.03793576  0.40277254  1
  O2-  O272  1  0.91788214  0.04343273  0.73685415  1
  O2-  O273  1  0.91685572  0.54301206  0.06170138  1
  O2-  O274  1  0.92106460  0.54103411  0.40243507  1
  O2-  O275  1  0.91043602  0.53974919  0.73069254  1
  O2-  O276  1  0.29476112  0.17621737  0.06481189  1
  O2-  O277  1  0.29042640  0.17240414  0.40160714  1
  O2-  O278  1  0.29234516  0.16630730  0.73752966  1
  O2-  O279  1  0.29521493  0.66213696  0.06391808  1
  O2-  O280  1  0.29320550  0.66238988  0.39515072  1
  O2-  O281  1  0.29667779  0.67244665  0.73049165  1
  O2-  O282  1  0.80140747  0.16651807  0.06244361  1
  O2-  O283  1  0.79866081  0.17257597  0.39578194  1
  O2-  O284  1  0.78627043  0.16664262  0.73834878  1
  O2-  O285  1  0.80121532  0.66468205  0.06094677  1
  O2-  O286  1  0.79689721  0.66844449  0.40233043  1
  O2-  O287  1  0.79629805  0.66474495  0.73082204  1
