# generated using pymatgen
data_Ca2Al2SiO7
_symmetry_space_group_name_H-M   'P 1'
_cell_length_a   15.46232934
_cell_length_b   15.46147587
_cell_length_c   15.28599876
_cell_angle_alpha   89.99734857
_cell_angle_beta   89.98826298
_cell_angle_gamma   89.98826490
_symmetry_Int_Tables_number   1
_chemical_formula_structural   Ca2Al2SiO7
_chemical_formula_sum   'Ca48 Al48 Si24 O168'
_cell_volume   3654.43017102
_cell_formula_units_Z   24
loop_
 _symmetry_equiv_pos_site_id
 _symmetry_equiv_pos_as_xyz
  1  'x, y, z'
loop_
 _atom_type_symbol
 _atom_type_oxidation_number
  Ca2+  2.0
  Al0+  0.0
  Si0+  0.0
  O2-  -2.0
loop_
 _atom_site_type_symbol
 _atom_site_label
 _atom_site_symmetry_multiplicity
 _atom_site_fract_x
 _atom_site_fract_y
 _atom_site_fract_z
 _atom_site_occupancy
  Ca2+  Ca0  1  0.16734461  0.07533097  0.18009020  1
  Ca2+  Ca1  1  0.16265611  0.07230530  0.50112634  1
  Ca2+  Ca2  1  0.16479376  0.06876835  0.83777853  1
  Ca2+  Ca3  1  0.16967173  0.58266760  0.17671591  1
  Ca2+  Ca4  1  0.17398467  0.59516863  0.50297067  1
  Ca2+  Ca5  1  0.17001987  0.58640484  0.82972000  1
  Ca2+  Ca6  1  0.67057660  0.08378323  0.17245327  1
  Ca2+  Ca7  1  0.67808400  0.08841555  0.50552788  1
  Ca2+  Ca8  1  0.66788156  0.09332985  0.83109335  1
  Ca2+  Ca9  1  0.67749215  0.58415718  0.17712720  1
  Ca2+  Ca10  1  0.67075350  0.58108297  0.50271153  1
  Ca2+  Ca11  1  0.67146831  0.57202739  0.83819585  1
  Ca2+  Ca12  1  0.07379360  0.32949659  0.16721119  1
  Ca2+  Ca13  1  0.07083686  0.32759119  0.49059263  1
  Ca2+  Ca14  1  0.07015257  0.33547766  0.82715100  1
  Ca2+  Ca15  1  0.08455619  0.83482126  0.17291615  1
  Ca2+  Ca16  1  0.08610452  0.82773639  0.49318171  1
  Ca2+  Ca17  1  0.08947544  0.82947061  0.82600018  1
  Ca2+  Ca18  1  0.58179354  0.32542495  0.16361637  1
  Ca2+  Ca19  1  0.58296197  0.33429226  0.50490082  1
  Ca2+  Ca20  1  0.58457872  0.32541082  0.82274913  1
  Ca2+  Ca21  1  0.58052389  0.82805875  0.16999686  1
  Ca2+  Ca22  1  0.56996306  0.82926389  0.49086377  1
  Ca2+  Ca23  1  0.57398287  0.82983677  0.82464501  1
  Ca2+  Ca24  1  0.33061483  0.42304365  0.17798562  1
  Ca2+  Ca25  1  0.33634180  0.42854896  0.50730303  1
  Ca2+  Ca26  1  0.34073480  0.42249413  0.83067359  1
  Ca2+  Ca27  1  0.32332392  0.92045454  0.17812767  1
  Ca2+  Ca28  1  0.32541444  0.91097339  0.50212692  1
  Ca2+  Ca29  1  0.32369821  0.91074866  0.83446768  1
  Ca2+  Ca30  1  0.84020378  0.42335962  0.17112543  1
  Ca2+  Ca31  1  0.83268637  0.41640231  0.50433515  1
  Ca2+  Ca32  1  0.83359258  0.41606726  0.83503124  1
  Ca2+  Ca33  1  0.83376680  0.92227889  0.18027650  1
  Ca2+  Ca34  1  0.84499126  0.92898595  0.50049505  1
  Ca2+  Ca35  1  0.83298177  0.92639862  0.83435564  1
  Ca2+  Ca36  1  0.42107055  0.15995111  0.16238149  1
  Ca2+  Ca37  1  0.41998212  0.16598226  0.49528836  1
  Ca2+  Ca38  1  0.42973236  0.17171142  0.82284014  1
  Ca2+  Ca39  1  0.41454770  0.67012679  0.17386325  1
  Ca2+  Ca40  1  0.41447499  0.67338201  0.49210238  1
  Ca2+  Ca41  1  0.41380237  0.67176647  0.82166090  1
  Ca2+  Ca42  1  0.91624538  0.17423269  0.16884270  1
  Ca2+  Ca43  1  0.91446207  0.17310931  0.49257595  1
  Ca2+  Ca44  1  0.91202842  0.17761475  0.82527293  1
  Ca2+  Ca45  1  0.91633836  0.66683268  0.16700902  1
  Ca2+  Ca46  1  0.92849202  0.67023320  0.48746473  1
  Ca2+  Ca47  1  0.92320583  0.66606680  0.82776091  1
  Al0+  Al48  1  -0.00116134  -0.00105678  0.00470747  1
  Al0+  Al49  1  0.00030841  0.00014857  0.33448640  1
  Al0+  Al50  1  -0.00021071  0.00045389  0.67974734  1
  Al0+  Al51  1  0.00156028  0.50090758  -0.00131772  1
  Al0+  Al52  1  -0.00103370  0.49999395  0.33019743  1
  Al0+  Al53  1  0.00251288  0.50063573  0.65822252  1
  Al0+  Al54  1  0.50027688  -0.00139131  -0.00610374  1
  Al0+  Al55  1  0.49921319  -0.00030926  0.33106209  1
  Al0+  Al56  1  0.50079422  -0.00029099  0.65849629  1
  Al0+  Al57  1  0.50154655  0.50051172  0.00266727  1
  Al0+  Al58  1  0.50026033  0.49869835  0.33239316  1
  Al0+  Al59  1  0.50229546  0.49942208  0.67426611  1
  Al0+  Al60  1  0.24974146  0.25012909  -0.00218955  1
  Al0+  Al61  1  0.24960162  0.24958836  0.33295045  1
  Al0+  Al62  1  0.24971995  0.25038823  0.66581738  1
  Al0+  Al63  1  0.24896787  0.75011825  0.00521371  1
  Al0+  Al64  1  0.25008884  0.74995353  0.33062973  1
  Al0+  Al65  1  0.25032492  0.74970352  0.66859193  1
  Al0+  Al66  1  0.74909187  0.25071657  -0.00619500  1
  Al0+  Al67  1  0.74805329  0.25047355  0.33206434  1
  Al0+  Al68  1  0.75031802  0.25172129  0.66692093  1
  Al0+  Al69  1  0.75035171  0.75021027  0.00058334  1
  Al0+  Al70  1  0.74909027  0.74876393  0.33260358  1
  Al0+  Al71  1  0.75139173  0.75286941  0.66829952  1
  Al0+  Al72  1  0.17853311  0.92874612  0.01734908  1
  Al0+  Al73  1  0.82179345  0.57132048  0.34800570  1
  Al0+  Al74  1  0.93206836  0.32075856  0.98456530  1
  Al0+  Al75  1  0.81902559  0.07063678  0.68196999  1
  Al0+  Al76  1  0.42794049  0.32328911  0.65159724  1
  Al0+  Al77  1  0.56887074  0.17918398  0.98586596  1
  Al0+  Al78  1  0.06956502  0.68139491  0.65386966  1
  Al0+  Al79  1  0.68200737  0.43179385  0.68097592  1
  Al0+  Al80  1  0.07152652  0.67916446  0.31616281  1
  Al0+  Al81  1  0.17973425  0.93000236  0.35054513  1
  Al0+  Al82  1  0.92855965  0.82162843  0.31985978  1
  Al0+  Al83  1  0.32362755  0.07359791  0.34860769  1
  Al0+  Al84  1  0.93029484  0.32015041  0.65194005  1
  Al0+  Al85  1  0.92589533  0.32068379  0.31729356  1
  Al0+  Al86  1  0.42827270  0.82170004  0.31604816  1
  Al0+  Al87  1  0.42930711  0.81920073  0.65344530  1
  Al0+  Al88  1  0.07187456  0.17818167  0.31977397  1
  Al0+  Al89  1  0.57103220  0.67598418  0.31898187  1
  Al0+  Al90  1  0.81889354  0.07076381  0.34551055  1
  Al0+  Al91  1  0.18197071  0.93034040  0.68173144  1
  Al0+  Al92  1  0.31992039  0.56858146  0.34680152  1
  Al0+  Al93  1  0.31932729  0.56928973  0.68026869  1
  Al0+  Al94  1  0.82137224  0.57031631  0.01307452  1
  Al0+  Al95  1  0.57109354  0.17997599  0.64781242  1
  Si0+  Si96  1  0.42828232  0.32132951  0.31902638  1
  Si0+  Si97  1  0.57024362  0.17905438  0.31814862  1
  Si0+  Si98  1  0.67743775  0.92821404  0.01431034  1
  Si0+  Si99  1  0.92654707  0.82272690  0.98407253  1
  Si0+  Si100  1  0.82593617  0.57425732  0.68152289  1
  Si0+  Si101  1  0.92706453  0.82489952  0.65328272  1
  Si0+  Si102  1  0.42920661  0.81656829  0.98474307  1
  Si0+  Si103  1  0.07253832  0.17532305  0.98260315  1
  Si0+  Si104  1  0.57366847  0.67824359  0.98409342  1
  Si0+  Si105  1  0.17578469  0.42585892  0.68274454  1
  Si0+  Si106  1  0.67839634  0.42697026  0.01826192  1
  Si0+  Si107  1  0.81821664  0.07197594  0.01540701  1
  Si0+  Si108  1  0.67683214  0.92667135  0.34959940  1
  Si0+  Si109  1  0.32505007  0.07431864  0.68361037  1
  Si0+  Si110  1  0.67499890  0.92707728  0.68330799  1
  Si0+  Si111  1  0.42608239  0.32500436  0.98414362  1
  Si0+  Si112  1  0.32186430  0.57030367  0.01584424  1
  Si0+  Si113  1  0.32251246  0.07118567  0.01309995  1
  Si0+  Si114  1  0.17649521  0.42702746  0.34978417  1
  Si0+  Si115  1  0.07187159  0.17464275  0.65340437  1
  Si0+  Si116  1  0.57473994  0.67718278  0.65342240  1
  Si0+  Si117  1  0.07105528  0.68110540  0.98413513  1
  Si0+  Si118  1  0.17901488  0.42847493  0.01369122  1
  Si0+  Si119  1  0.67760467  0.42736841  0.34989342  1
  O2-  O120  1  0.25010230  0.00846239  0.05934158  1
  O2-  O121  1  0.25233140  0.00207608  0.39962069  1
  O2-  O122  1  0.25597178  0.00630620  0.72918837  1
  O2-  O123  1  0.25576687  0.49376717  0.05553091  1
  O2-  O124  1  0.24347459  0.49681051  0.39447145  1
  O2-  O125  1  0.24768336  0.49152380  0.72812303  1
  O2-  O126  1  0.74853981  -0.00094510  0.05666526  1
  O2-  O127  1  0.74732096  -0.00652788  0.39338887  1
  O2-  O128  1  0.74327490  -0.00400811  0.72872965  1
  O2-  O129  1  0.74622758  0.49637297  0.06134193  1
  O2-  O130  1  0.74700441  0.49598853  0.39267410  1
  O2-  O131  1  0.75629389  0.50760218  0.72752946  1
  O2-  O132  1  -0.00057924  0.24934937  0.26848151  1
  O2-  O133  1  0.00670003  0.24600842  0.60884544  1
  O2-  O134  1  0.00511909  0.24441177  0.93708087  1
  O2-  O135  1  -0.00286830  0.74854643  0.26562896  1
  O2-  O136  1  -0.00907302  0.75247100  0.60985935  1
  O2-  O137  1  0.00001472  0.75319330  0.94273484  1
  O2-  O138  1  0.49478971  0.24592790  0.27629477  1
  O2-  O139  1  0.49481855  0.24818859  0.59892917  1
  O2-  O140  1  0.49342608  0.25451803  0.94173582  1
  O2-  O141  1  0.50085460  0.74910799  0.26690811  1
  O2-  O142  1  0.50757297  0.74688919  0.60979610  1
  O2-  O143  1  0.49896621  0.74481935  0.94087975  1
  O2-  O144  1  0.07241485  0.17653929  0.08762973  1
  O2-  O145  1  0.07022008  0.18020384  0.43347852  1
  O2-  O146  1  0.06871511  0.17484545  0.75967180  1
  O2-  O147  1  0.07221048  0.67937574  0.08840226  1
  O2-  O148  1  0.07224450  0.68133007  0.42957593  1
  O2-  O149  1  0.06936287  0.68209403  0.76823279  1
  O2-  O150  1  0.56809037  0.17911199  0.09941690  1
  O2-  O151  1  0.57337274  0.18100274  0.42238977  1
  O2-  O152  1  0.57053063  0.18231505  0.76196288  1
  O2-  O153  1  0.57467883  0.67953693  0.08847329  1
  O2-  O154  1  0.56893197  0.67610190  0.43262841  1
  O2-  O155  1  0.57364389  0.67928540  0.76001590  1
  O2-  O156  1  0.18069801  0.42737982  0.24312478  1
  O2-  O157  1  0.17399650  0.42672306  0.57793069  1
  O2-  O158  1  0.17746300  0.43095975  0.90872163  1
  O2-  O159  1  0.18135911  0.93169676  0.23651723  1
  O2-  O160  1  0.18017206  0.92941543  0.56989623  1
  O2-  O161  1  0.18198799  0.92539614  0.90392314  1
  O2-  O162  1  0.67617125  0.42586183  0.24389472  1
  O2-  O163  1  0.68185646  0.43328286  0.56810389  1
  O2-  O164  1  0.67704160  0.42845429  0.91278825  1
  O2-  O165  1  0.67646886  0.93041931  0.24299385  1
  O2-  O166  1  0.67519271  0.92429001  0.57855953  1
  O2-  O167  1  0.67774547  0.92645355  0.90933135  1
  O2-  O168  1  0.42596510  0.32662435  0.08988193  1
  O2-  O169  1  0.43104627  0.32472399  0.42334179  1
  O2-  O170  1  0.43211196  0.32246504  0.76592538  1
  O2-  O171  1  0.43082924  0.81637579  0.08907566  1
  O2-  O172  1  0.42904771  0.81983445  0.42943228  1
  O2-  O173  1  0.42934259  0.81622640  0.76787964  1
  O2-  O174  1  0.93289515  0.32019363  0.09699371  1
  O2-  O175  1  0.92458648  0.31823461  0.43067791  1
  O2-  O176  1  0.93123542  0.32057700  0.76579244  1
  O2-  O177  1  0.92318538  0.82321700  0.08835274  1
  O2-  O178  1  0.93059903  0.82142485  0.43353958  1
  O2-  O179  1  0.92716501  0.82394345  0.75977237  1
  O2-  O180  1  0.32425055  0.07181244  0.23394193  1
  O2-  O181  1  0.32389129  0.07399059  0.57870298  1
  O2-  O182  1  0.32340138  0.06828812  0.90764455  1
  O2-  O183  1  0.32004250  0.56444550  0.23268734  1
  O2-  O184  1  0.31856379  0.57098505  0.56794549  1
  O2-  O185  1  0.32169869  0.57285471  0.91073302  1
  O2-  O186  1  0.81394949  0.07222069  0.23165879  1
  O2-  O187  1  0.82059834  0.06930773  0.56924712  1
  O2-  O188  1  0.81751723  0.07121587  0.91025109  1
  O2-  O189  1  0.82017658  0.56941944  0.23427893  1
  O2-  O190  1  0.82420094  0.57418721  0.57649999  1
  O2-  O191  1  0.81982144  0.57009152  0.89964250  1
  O2-  O192  1  0.04279665  0.08101298  0.26595304  1
  O2-  O193  1  0.04174448  0.08151435  0.61017067  1
  O2-  O194  1  0.04504767  0.08099627  0.93834423  1
  O2-  O195  1  0.04592969  0.57964858  0.26400551  1
  O2-  O196  1  0.04611980  0.58492370  0.59780793  1
  O2-  O197  1  0.04333774  0.58982350  0.93547159  1
  O2-  O198  1  0.54712092  0.08668564  0.26935638  1
  O2-  O199  1  0.55019848  0.07993939  0.59631073  1
  O2-  O200  1  0.54070290  0.08244661  0.92960691  1
  O2-  O201  1  0.54144875  0.57855262  0.26324326  1
  O2-  O202  1  0.54932052  0.58346481  0.61055820  1
  O2-  O203  1  0.54873831  0.58400131  0.93929740  1
  O2-  O204  1  0.17016897  0.20661636  0.26438043  1
  O2-  O205  1  0.16737269  0.19381428  0.60996108  1
  O2-  O206  1  0.16750015  0.19837664  0.93696730  1
  O2-  O207  1  0.16876919  0.70827274  0.26152360  1
  O2-  O208  1  0.16482046  0.71591972  0.60189305  1
  O2-  O209  1  0.16359713  0.71020436  0.93750663  1
  O2-  O210  1  0.65880394  0.21193815  0.26711195  1
  O2-  O211  1  0.66795679  0.21442929  0.59712654  1
  O2-  O212  1  0.66417395  0.21089315  0.93027824  1
  O2-  O213  1  0.66846385  0.70535593  0.26433897  1
  O2-  O214  1  0.66955146  0.70060297  0.60888538  1
  O2-  O215  1  0.66363413  0.70919010  0.93479072  1
  O2-  O216  1  0.09048181  0.46235721  0.06294601  1
  O2-  O217  1  0.08185373  0.44984246  0.39304082  1
  O2-  O218  1  0.08407108  0.45857298  0.73042276  1
  O2-  O219  1  0.07976932  0.95470078  0.06901872  1
  O2-  O220  1  0.08129297  0.95780696  0.40291164  1
  O2-  O221  1  0.08647345  0.95920949  0.74109648  1
  O2-  O222  1  0.58392799  0.45099579  0.06459857  1
  O2-  O223  1  0.58464490  0.45367436  0.39627706  1
  O2-  O224  1  0.58729667  0.46093788  0.74081950  1
  O2-  O225  1  0.58536358  0.95704739  0.06084097  1
  O2-  O226  1  0.58386554  0.95449274  0.39441593  1
  O2-  O227  1  0.58094946  0.95247900  0.72955564  1
  O2-  O228  1  0.20077631  0.33416902  0.05998413  1
  O2-  O229  1  0.20221129  0.33394095  0.39525483  1
  O2-  O230  1  0.19550407  0.33100598  0.73008753  1
  O2-  O231  1  0.21279994  0.83340504  0.07116462  1
  O2-  O232  1  0.20968220  0.83084644  0.39984026  1
  O2-  O233  1  0.21614983  0.83515018  0.73775500  1
  O2-  O234  1  0.70430535  0.33267161  0.06234953  1
  O2-  O235  1  0.70316068  0.33439319  0.39645265  1
  O2-  O236  1  0.71432969  0.33630879  0.73624150  1
  O2-  O237  1  0.70459701  0.83662112  0.06208736  1
  O2-  O238  1  0.69712718  0.83207624  0.39409560  1
  O2-  O239  1  0.70095157  0.83396655  0.73306410  1
  O2-  O240  1  0.46092942  0.40970583  0.26719205  1
  O2-  O241  1  0.46225924  0.42140032  0.60168119  1
  O2-  O242  1  0.45357169  0.41897977  0.93887918  1
  O2-  O243  1  0.45825376  0.91961539  0.26154381  1
  O2-  O244  1  0.45510733  0.91565515  0.59873872  1
  O2-  O245  1  0.45756065  0.90773091  0.93628433  1
  O2-  O246  1  0.95608252  0.41804509  0.26402000  1
  O2-  O247  1  0.95917100  0.41622636  0.59726570  1
  O2-  O248  1  0.96565979  0.41699562  0.93046448  1
  O2-  O249  1  0.95738944  0.91933656  0.26545249  1
  O2-  O250  1  0.95749364  0.91829493  0.61113407  1
  O2-  O251  1  0.95289670  0.91587161  0.93777740  1
  O2-  O252  1  0.33540724  0.29959855  0.27100727  1
  O2-  O253  1  0.32604032  0.30426185  0.60265114  1
  O2-  O254  1  0.33146460  0.30377126  0.93767122  1
  O2-  O255  1  0.33236352  0.78986539  0.26106222  1
  O2-  O256  1  0.33499615  0.78365249  0.60073697  1
  O2-  O257  1  0.33677764  0.78699447  0.93889784  1
  O2-  O258  1  0.82816386  0.29070312  0.26288856  1
  O2-  O259  1  0.83461393  0.28843937  0.59953109  1
  O2-  O260  1  0.83456661  0.29132275  0.93156222  1
  O2-  O261  1  0.82858486  0.79750783  0.26747683  1
  O2-  O262  1  0.83133129  0.80772604  0.60863914  1
  O2-  O263  1  0.83551988  0.79382278  0.93469513  1
  O2-  O264  1  0.41545354  0.04088243  0.05873011  1
  O2-  O265  1  0.42364976  0.04762351  0.39905836  1
  O2-  O266  1  0.41966180  0.04710015  0.72739728  1
  O2-  O267  1  0.41551440  0.54754733  0.06253832  1
  O2-  O268  1  0.41636450  0.53576520  0.39910928  1
  O2-  O269  1  0.41591206  0.54156530  0.73772643  1
  O2-  O270  1  0.91053106  0.04592376  0.06188679  1
  O2-  O271  1  0.91543504  0.04271999  0.39949372  1
  O2-  O272  1  0.91274816  0.03955190  0.74257961  1
  O2-  O273  1  0.91868773  0.53970206  0.06532907  1
  O2-  O274  1  0.91911411  0.54158990  0.40031300  1
  O2-  O275  1  0.91947020  0.54569347  0.72659264  1
  O2-  O276  1  0.30482953  0.16839754  0.05605551  1
  O2-  O277  1  0.29937575  0.17370881  0.39960560  1
  O2-  O278  1  0.30212534  0.16898288  0.73012666  1
  O2-  O279  1  0.28882528  0.65953271  0.06421195  1
  O2-  O280  1  0.29176769  0.66648218  0.39736932  1
  O2-  O281  1  0.28408660  0.66320751  0.73796671  1
  O2-  O282  1  0.78746719  0.16363962  0.06086823  1
  O2-  O283  1  0.78401924  0.16622329  0.39902775  1
  O2-  O284  1  0.78603992  0.16647606  0.73636584  1
  O2-  O285  1  0.79081080  0.66781700  0.06565622  1
  O2-  O286  1  0.79110172  0.66793446  0.40167273  1
  O2-  O287  1  0.80423727  0.66960112  0.72748625  1
