# generated using pymatgen
data_Ca2Al2SiO7
_symmetry_space_group_name_H-M   'P 1'
_cell_length_a   15.46345132
_cell_length_b   15.46258053
_cell_length_c   15.28707002
_cell_angle_alpha   89.99161288
_cell_angle_beta   90.00428875
_cell_angle_gamma   89.99219054
_symmetry_Int_Tables_number   1
_chemical_formula_structural   Ca2Al2SiO7
_chemical_formula_sum   'Ca48 Al48 Si24 O168'
_cell_volume   3655.21267343
_cell_formula_units_Z   24
loop_
 _symmetry_equiv_pos_site_id
 _symmetry_equiv_pos_as_xyz
  1  'x, y, z'
loop_
 _atom_type_symbol
 _atom_type_oxidation_number
  Ca2+  2.0
  Al0+  0.0
  Si0+  0.0
  O2-  -2.0
loop_
 _atom_site_type_symbol
 _atom_site_label
 _atom_site_symmetry_multiplicity
 _atom_site_fract_x
 _atom_site_fract_y
 _atom_site_fract_z
 _atom_site_occupancy
  Ca2+  Ca0  1  0.17690434  0.07888988  0.16837672  1
  Ca2+  Ca1  1  0.17338676  0.08389086  0.50051893  1
  Ca2+  Ca2  1  0.16901662  0.07477629  0.84446323  1
  Ca2+  Ca3  1  0.15999757  0.57887199  0.17335090  1
  Ca2+  Ca4  1  0.16360104  0.57920316  0.50777751  1
  Ca2+  Ca5  1  0.16602774  0.58337421  0.83294825  1
  Ca2+  Ca6  1  0.67145567  0.07404924  0.17646490  1
  Ca2+  Ca7  1  0.66404782  0.07497399  0.50385280  1
  Ca2+  Ca8  1  0.66894855  0.07461948  0.83886136  1
  Ca2+  Ca9  1  0.67014371  0.59118945  0.16920721  1
  Ca2+  Ca10  1  0.66585172  0.58474371  0.50345926  1
  Ca2+  Ca11  1  0.67574710  0.58428080  0.84422557  1
  Ca2+  Ca12  1  0.08523474  0.33270532  0.16548849  1
  Ca2+  Ca13  1  0.08233196  0.34180637  0.49950664  1
  Ca2+  Ca14  1  0.07784802  0.33300845  0.82550456  1
  Ca2+  Ca15  1  0.08356803  0.82569873  0.15925912  1
  Ca2+  Ca16  1  0.07442197  0.82430325  0.49143997  1
  Ca2+  Ca17  1  0.08105072  0.82543258  0.82461680  1
  Ca2+  Ca18  1  0.57581073  0.32389301  0.15970882  1
  Ca2+  Ca19  1  0.57914356  0.31922479  0.49699851  1
  Ca2+  Ca20  1  0.57083366  0.32463268  0.82505927  1
  Ca2+  Ca21  1  0.59377311  0.82873734  0.16562226  1
  Ca2+  Ca22  1  0.58781520  0.83183463  0.49380985  1
  Ca2+  Ca23  1  0.59248176  0.83209481  0.83314710  1
  Ca2+  Ca24  1  0.32869860  0.41545617  0.17237128  1
  Ca2+  Ca25  1  0.32348707  0.42349737  0.50989050  1
  Ca2+  Ca26  1  0.33470477  0.41682816  0.83236142  1
  Ca2+  Ca27  1  0.33128470  0.92411333  0.16780257  1
  Ca2+  Ca28  1  0.33978527  0.92421351  0.50123879  1
  Ca2+  Ca29  1  0.32589452  0.92407274  0.84287852  1
  Ca2+  Ca30  1  0.83475048  0.42697837  0.16854078  1
  Ca2+  Ca31  1  0.83369160  0.41765186  0.50637540  1
  Ca2+  Ca32  1  0.83533636  0.42158678  0.83776265  1
  Ca2+  Ca33  1  0.82688619  0.92311148  0.17297697  1
  Ca2+  Ca34  1  0.82644747  0.91069240  0.50222411  1
  Ca2+  Ca35  1  0.82576269  0.91587752  0.83945002  1
  Ca2+  Ca36  1  0.41457646  0.16618949  0.16243171  1
  Ca2+  Ca37  1  0.42631257  0.16416876  0.49457833  1
  Ca2+  Ca38  1  0.41516341  0.17493532  0.82729139  1
  Ca2+  Ca39  1  0.43082568  0.66612671  0.16070690  1
  Ca2+  Ca40  1  0.41972855  0.66593946  0.49571654  1
  Ca2+  Ca41  1  0.42152039  0.66622451  0.82988926  1
  Ca2+  Ca42  1  0.91099837  0.16255289  0.16409507  1
  Ca2+  Ca43  1  0.91200595  0.17332145  0.49565319  1
  Ca2+  Ca44  1  0.91239777  0.17124378  0.82790327  1
  Ca2+  Ca45  1  0.92326412  0.67353213  0.16280330  1
  Ca2+  Ca46  1  0.92421854  0.67846489  0.49621470  1
  Ca2+  Ca47  1  0.92633812  0.66970049  0.82818311  1
  Al0+  Al48  1  -0.00043392  -0.00109964  0.00671156  1
  Al0+  Al49  1  -0.00015930  0.00344880  0.33332185  1
  Al0+  Al50  1  -0.00132493  0.00116073  0.66255429  1
  Al0+  Al51  1  -0.00025006  0.50062971  0.00055458  1
  Al0+  Al52  1  -0.00157005  0.50009401  0.33447362  1
  Al0+  Al53  1  0.00039840  0.49903145  0.66397358  1
  Al0+  Al54  1  0.50011559  -0.00088423  0.00698879  1
  Al0+  Al55  1  0.50087931  0.00001914  0.33600090  1
  Al0+  Al56  1  0.50176638  -0.00232016  0.67034769  1
  Al0+  Al57  1  0.49962292  0.49884427  -0.00851618  1
  Al0+  Al58  1  0.49919869  0.49955712  0.32979529  1
  Al0+  Al59  1  0.49941863  0.49868946  0.66680893  1
  Al0+  Al60  1  0.24764158  0.25099011  -0.00205657  1
  Al0+  Al61  1  0.24822867  0.25129154  0.34288599  1
  Al0+  Al62  1  0.24932774  0.25251304  0.66709945  1
  Al0+  Al63  1  0.25219289  0.74707327  -0.00047994  1
  Al0+  Al64  1  0.25075325  0.74944296  0.32887803  1
  Al0+  Al65  1  0.25294555  0.74948556  0.66564965  1
  Al0+  Al66  1  0.74809243  0.25176563  0.00085582  1
  Al0+  Al67  1  0.74862873  0.25110276  0.33018330  1
  Al0+  Al68  1  0.74980979  0.24934288  0.65963506  1
  Al0+  Al69  1  0.75296835  0.74865557  0.00355455  1
  Al0+  Al70  1  0.75191775  0.75032628  0.33032684  1
  Al0+  Al71  1  0.75079157  0.74994131  0.66827691  1
  Al0+  Al72  1  0.67946259  0.92795238  0.01664529  1
  Al0+  Al73  1  0.92961719  0.82406851  0.31545254  1
  Al0+  Al74  1  0.32033415  0.06958411  0.34854808  1
  Al0+  Al75  1  0.57285355  0.68119615  0.98498824  1
  Al0+  Al76  1  0.17829796  0.43157400  0.34738008  1
  Al0+  Al77  1  0.82252941  0.07442146  0.35141318  1
  Al0+  Al78  1  0.56984332  0.67829862  0.32091754  1
  Al0+  Al79  1  0.17877606  0.92475579  0.01392890  1
  Al0+  Al80  1  0.82045449  0.07440850  0.01379095  1
  Al0+  Al81  1  0.92717443  0.82255179  0.65241857  1
  Al0+  Al82  1  0.68023986  0.92820547  0.68263384  1
  Al0+  Al83  1  0.07308201  0.68029587  0.65130423  1
  Al0+  Al84  1  0.42691048  0.32256092  0.64843048  1
  Al0+  Al85  1  0.31953475  0.07353193  0.01329501  1
  Al0+  Al86  1  0.56901304  0.17661053  0.65225039  1
  Al0+  Al87  1  0.17770173  0.42984521  0.68514197  1
  Al0+  Al88  1  0.32299254  0.57271706  0.68352551  1
  Al0+  Al89  1  0.07265909  0.67782165  0.98453079  1
  Al0+  Al90  1  0.82198931  0.56876451  0.01408985  1
  Al0+  Al91  1  0.07098853  0.67843392  0.31709299  1
  Al0+  Al92  1  0.57062213  0.17818543  0.31727903  1
  Al0+  Al93  1  0.42646784  0.31928304  0.98578475  1
  Al0+  Al94  1  0.68188783  0.92849888  0.35092183  1
  Al0+  Al95  1  0.92983093  0.31999161  0.65366369  1
  Si0+  Si96  1  0.42686166  0.31971584  0.31759642  1
  Si0+  Si97  1  0.07313867  0.17665524  0.64997614  1
  Si0+  Si98  1  0.17887270  0.43082328  0.01465815  1
  Si0+  Si99  1  0.32412448  0.56955608  0.01529333  1
  Si0+  Si100  1  0.17802959  0.92631312  0.34996464  1
  Si0+  Si101  1  0.81953898  0.56964845  0.34997690  1
  Si0+  Si102  1  0.42830519  0.82261596  0.98326149  1
  Si0+  Si103  1  0.42972094  0.82084087  0.65330922  1
  Si0+  Si104  1  0.57207728  0.17655017  0.98400918  1
  Si0+  Si105  1  0.06920271  0.17867010  0.98749418  1
  Si0+  Si106  1  0.32114559  0.07006965  0.68082728  1
  Si0+  Si107  1  0.92815367  0.32143369  0.31661719  1
  Si0+  Si108  1  0.67686406  0.42941538  0.34766451  1
  Si0+  Si109  1  0.92832628  0.32129742  0.98719793  1
  Si0+  Si110  1  0.93044600  0.82259107  0.98335466  1
  Si0+  Si111  1  0.42755211  0.82348079  0.31604902  1
  Si0+  Si112  1  0.81911818  0.56947689  0.68071921  1
  Si0+  Si113  1  0.57196710  0.67884747  0.65424580  1
  Si0+  Si114  1  0.07306441  0.18118266  0.31841861  1
  Si0+  Si115  1  0.82222054  0.07389378  0.68219139  1
  Si0+  Si116  1  0.67563263  0.42936377  0.01615607  1
  Si0+  Si117  1  0.67896994  0.42649284  0.68069927  1
  Si0+  Si118  1  0.17793248  0.92985746  0.67801598  1
  Si0+  Si119  1  0.32399380  0.57247302  0.34741918  1
  O2-  O120  1  0.25076080  -0.00212752  0.06257236  1
  O2-  O121  1  0.24829643  -0.00747413  0.39632563  1
  O2-  O122  1  0.24570028  0.00338137  0.72205255  1
  O2-  O123  1  0.25048954  0.50094717  0.05721982  1
  O2-  O124  1  0.25041517  0.50951868  0.39136682  1
  O2-  O125  1  0.25064601  0.50117823  0.73477807  1
  O2-  O126  1  0.74786065  0.00418881  0.06451852  1
  O2-  O127  1  0.75326132  0.00057000  0.40225046  1
  O2-  O128  1  0.75624517  0.00295081  0.72645589  1
  O2-  O129  1  0.74389211  0.49759197  0.06190745  1
  O2-  O130  1  0.74609687  0.50104594  0.39235973  1
  O2-  O131  1  0.74835794  0.49850440  0.72402444  1
  O2-  O132  1  -0.00212740  0.24847532  0.27572412  1
  O2-  O133  1  0.00474469  0.24611099  0.60621585  1
  O2-  O134  1  -0.00710601  0.24430377  0.94574897  1
  O2-  O135  1  0.00503981  0.75494497  0.26585968  1
  O2-  O136  1  0.00303169  0.75455538  0.60296457  1
  O2-  O137  1  0.00244099  0.75714600  0.93890943  1
  O2-  O138  1  0.49374593  0.25112887  0.27091982  1
  O2-  O139  1  0.49604512  0.24713167  0.60043526  1
  O2-  O140  1  0.49971382  0.24198523  0.94058959  1
  O2-  O141  1  0.49570501  0.75317140  0.27368663  1
  O2-  O142  1  0.49945243  0.74787167  0.61217002  1
  O2-  O143  1  0.50051433  0.75785924  0.93766676  1
  O2-  O144  1  0.07300316  0.18357626  0.09244414  1
  O2-  O145  1  0.07533738  0.18386994  0.42333959  1
  O2-  O146  1  0.07139445  0.17459046  0.75598096  1
  O2-  O147  1  0.06901267  0.67446024  0.09724491  1
  O2-  O148  1  0.06834420  0.67736920  0.43042300  1
  O2-  O149  1  0.07088698  0.68124474  0.76516715  1
  O2-  O150  1  0.57352036  0.18108168  0.08945108  1
  O2-  O151  1  0.56951639  0.17975175  0.43024786  1
  O2-  O152  1  0.56769932  0.17759749  0.76613200  1
  O2-  O153  1  0.56999454  0.67896461  0.09793706  1
  O2-  O154  1  0.56760779  0.67575535  0.43454214  1
  O2-  O155  1  0.57386940  0.68044065  0.75911408  1
  O2-  O156  1  0.17989182  0.42926412  0.23346638  1
  O2-  O157  1  0.17695192  0.43316923  0.57160280  1
  O2-  O158  1  0.17647928  0.43019174  0.91032784  1
  O2-  O159  1  0.18043191  0.92826965  0.24466146  1
  O2-  O160  1  0.18039338  0.93132108  0.57306874  1
  O2-  O161  1  0.17905691  0.92816572  0.89933607  1
  O2-  O162  1  0.67828365  0.43031324  0.24259966  1
  O2-  O163  1  0.68059872  0.42870884  0.57531180  1
  O2-  O164  1  0.67889860  0.42930446  0.91027359  1
  O2-  O165  1  0.68233768  0.92874670  0.23776795  1
  O2-  O166  1  0.67852792  0.92548918  0.57027679  1
  O2-  O167  1  0.68244485  0.92823583  0.90255351  1
  O2-  O168  1  0.42664454  0.32007364  0.09927658  1
  O2-  O169  1  0.42978686  0.32026785  0.42253382  1
  O2-  O170  1  0.42935359  0.31990922  0.76241731  1
  O2-  O171  1  0.42528326  0.81854529  0.08849878  1
  O2-  O172  1  0.42677898  0.82209626  0.42225336  1
  O2-  O173  1  0.42890046  0.82273964  0.75810225  1
  O2-  O174  1  0.93145298  0.32451945  0.09229225  1
  O2-  O175  1  0.92832892  0.32349514  0.42158963  1
  O2-  O176  1  0.92872177  0.31871978  0.76735216  1
  O2-  O177  1  0.93117232  0.82064863  0.08852387  1
  O2-  O178  1  0.92930013  0.81887752  0.42923225  1
  O2-  O179  1  0.92771538  0.82033045  0.76621977  1
  O2-  O180  1  0.31692357  0.07141240  0.23577295  1
  O2-  O181  1  0.32209543  0.06657516  0.57568160  1
  O2-  O182  1  0.31501515  0.07383037  0.89910334  1
  O2-  O183  1  0.32787310  0.56794907  0.24169097  1
  O2-  O184  1  0.32482843  0.57306197  0.56975506  1
  O2-  O185  1  0.32523850  0.56863177  0.91065905  1
  O2-  O186  1  0.81826470  0.07582797  0.23799238  1
  O2-  O187  1  0.82087995  0.07642490  0.57722328  1
  O2-  O188  1  0.81968291  0.07674908  0.89989266  1
  O2-  O189  1  0.82067380  0.56636344  0.24485047  1
  O2-  O190  1  0.81576444  0.56914308  0.57546317  1
  O2-  O191  1  0.82254839  0.56521789  0.90051842  1
  O2-  O192  1  0.05106808  0.08843870  0.27078027  1
  O2-  O193  1  0.04952623  0.08405134  0.60118216  1
  O2-  O194  1  0.04715354  0.08458820  0.94187492  1
  O2-  O195  1  0.03627779  0.58071327  0.26541366  1
  O2-  O196  1  0.04108648  0.58269954  0.60031664  1
  O2-  O197  1  0.03580799  0.58243921  0.93103497  1
  O2-  O198  1  0.53996787  0.08103201  0.26569970  1
  O2-  O199  1  0.53964488  0.07778657  0.60048832  1
  O2-  O200  1  0.55079395  0.08048726  0.94185078  1
  O2-  O201  1  0.53981729  0.58216094  0.26403315  1
  O2-  O202  1  0.54737407  0.58619060  0.60727884  1
  O2-  O203  1  0.54150662  0.58498175  0.93016433  1
  O2-  O204  1  0.16292594  0.21543217  0.27055083  1
  O2-  O205  1  0.16675358  0.20201141  0.60448684  1
  O2-  O206  1  0.15724728  0.21161920  0.93597531  1
  O2-  O207  1  0.17253564  0.69864341  0.26605197  1
  O2-  O208  1  0.17259526  0.70600924  0.59961297  1
  O2-  O209  1  0.17197851  0.70204423  0.93294438  1
  O2-  O210  1  0.66541544  0.21368841  0.26272145  1
  O2-  O211  1  0.66580108  0.20733150  0.59784360  1
  O2-  O212  1  0.66400426  0.20703079  0.93633468  1
  O2-  O213  1  0.66693472  0.70687817  0.26769881  1
  O2-  O214  1  0.66265644  0.70759498  0.60555422  1
  O2-  O215  1  0.67151247  0.70851298  0.93267869  1
  O2-  O216  1  0.08791462  0.45895357  0.06379682  1
  O2-  O217  1  0.08033799  0.45933447  0.40067131  1
  O2-  O218  1  0.07778073  0.45748036  0.73675326  1
  O2-  O219  1  0.08196240  0.95319638  0.06853224  1
  O2-  O220  1  0.08560172  0.95570398  0.39555696  1
  O2-  O221  1  0.08515082  0.95516303  0.72527071  1
  O2-  O222  1  0.58158348  0.45476586  0.06045393  1
  O2-  O223  1  0.58475317  0.45649881  0.39489579  1
  O2-  O224  1  0.58698557  0.45235002  0.72782430  1
  O2-  O225  1  0.57913350  0.94835315  0.06867510  1
  O2-  O226  1  0.58179509  0.95476896  0.40165603  1
  O2-  O227  1  0.58362789  0.95782079  0.73814851  1
  O2-  O228  1  0.20605939  0.33878022  0.06200296  1
  O2-  O229  1  0.20855318  0.33717382  0.40480544  1
  O2-  O230  1  0.20300981  0.32924781  0.73678067  1
  O2-  O231  1  0.20870781  0.82680173  0.06679664  1
  O2-  O232  1  0.20161031  0.83107558  0.39407235  1
  O2-  O233  1  0.20886217  0.83921624  0.72522705  1
  O2-  O234  1  0.70113123  0.33626057  0.06290281  1
  O2-  O235  1  0.70722349  0.33882049  0.39517551  1
  O2-  O236  1  0.70921863  0.33533577  0.72765964  1
  O2-  O237  1  0.71087584  0.83046835  0.06875906  1
  O2-  O238  1  0.71025380  0.82833678  0.40199285  1
  O2-  O239  1  0.71205825  0.83144476  0.73692462  1
  O2-  O240  1  0.45300750  0.41292616  0.27035791  1
  O2-  O241  1  0.45855433  0.42035773  0.59656029  1
  O2-  O242  1  0.45930828  0.41366700  0.92892864  1
  O2-  O243  1  0.45374680  0.91653232  0.27062852  1
  O2-  O244  1  0.46011865  0.91113281  0.60457560  1
  O2-  O245  1  0.44893099  0.91889696  0.93985245  1
  O2-  O246  1  0.95905750  0.41202000  0.26848515  1
  O2-  O247  1  0.95856620  0.41595206  0.59752034  1
  O2-  O248  1  0.96261901  0.40979185  0.93764173  1
  O2-  O249  1  0.95275137  0.92546817  0.26674906  1
  O2-  O250  1  0.94938550  0.92239027  0.60014737  1
  O2-  O251  1  0.95137160  0.91831873  0.93907800  1
  O2-  O252  1  0.33178323  0.29388582  0.27462082  1
  O2-  O253  1  0.32614760  0.29917934  0.59917744  1
  O2-  O254  1  0.32962026  0.29034694  0.93059004  1
  O2-  O255  1  0.33393487  0.80072925  0.26875858  1
  O2-  O256  1  0.33915701  0.79573913  0.60229677  1
  O2-  O257  1  0.33676177  0.79306463  0.93466317  1
  O2-  O258  1  0.83610793  0.29776582  0.26785931  1
  O2-  O259  1  0.83425537  0.29167246  0.59613199  1
  O2-  O260  1  0.83432341  0.30101080  0.94006208  1
  O2-  O261  1  0.83356873  0.78941014  0.26237536  1
  O2-  O262  1  0.83136855  0.78613251  0.59869138  1
  O2-  O263  1  0.83833563  0.79137179  0.93790318  1
  O2-  O264  1  0.41844230  0.04971079  0.06620409  1
  O2-  O265  1  0.41613713  0.03851570  0.40358091  1
  O2-  O266  1  0.41017583  0.03749882  0.73004930  1
  O2-  O267  1  0.41517634  0.53787966  0.06223462  1
  O2-  O268  1  0.41553975  0.54228397  0.39588631  1
  O2-  O269  1  0.42214841  0.54333757  0.73642754  1
  O2-  O270  1  0.91902343  0.04833708  0.06747943  1
  O2-  O271  1  0.92478089  0.05487695  0.40064088  1
  O2-  O272  1  0.91801173  0.05298263  0.72660117  1
  O2-  O273  1  0.91555040  0.53193304  0.07040938  1
  O2-  O274  1  0.90895163  0.53693165  0.39845964  1
  O2-  O275  1  0.91066522  0.54034171  0.72679363  1
  O2-  O276  1  0.28500788  0.16993825  0.06729800  1
  O2-  O277  1  0.28657577  0.16407031  0.40486873  1
  O2-  O278  1  0.29755132  0.16402431  0.72487244  1
  O2-  O279  1  0.30104612  0.66211340  0.06231589  1
  O2-  O280  1  0.30549136  0.66892191  0.39027046  1
  O2-  O281  1  0.29756267  0.67262270  0.73623797  1
  O2-  O282  1  0.79689684  0.17503815  0.06572135  1
  O2-  O283  1  0.79315690  0.17495894  0.40052344  1
  O2-  O284  1  0.79401877  0.16741930  0.72809203  1
  O2-  O285  1  0.79381280  0.66453155  0.06913045  1
  O2-  O286  1  0.79274957  0.66156156  0.39617357  1
  O2-  O287  1  0.79023100  0.65979915  0.72990413  1
