# generated using pymatgen
data_Ca2Al2SiO7
_symmetry_space_group_name_H-M   'P 1'
_cell_length_a   15.46523272
_cell_length_b   15.46743348
_cell_length_c   15.29062742
_cell_angle_alpha   90.00557763
_cell_angle_beta   90.00956630
_cell_angle_gamma   90.00198816
_symmetry_Int_Tables_number   1
_chemical_formula_structural   Ca2Al2SiO7
_chemical_formula_sum   'Ca48 Al48 Si24 O168'
_cell_volume   3657.63205299
_cell_formula_units_Z   24
loop_
 _symmetry_equiv_pos_site_id
 _symmetry_equiv_pos_as_xyz
  1  'x, y, z'
loop_
 _atom_type_symbol
 _atom_type_oxidation_number
  Ca2+  2.0
  Al0+  0.0
  Si0+  0.0
  O2-  -2.0
loop_
 _atom_site_type_symbol
 _atom_site_label
 _atom_site_symmetry_multiplicity
 _atom_site_fract_x
 _atom_site_fract_y
 _atom_site_fract_z
 _atom_site_occupancy
  Ca2+  Ca0  1  0.16531075  0.07668816  0.17059468  1
  Ca2+  Ca1  1  0.16836721  0.07458349  0.49916789  1
  Ca2+  Ca2  1  0.16724142  0.08393590  0.83987229  1
  Ca2+  Ca3  1  0.17041033  0.57551461  0.18024533  1
  Ca2+  Ca4  1  0.17660643  0.58859421  0.50373580  1
  Ca2+  Ca5  1  0.17250289  0.57475830  0.83799366  1
  Ca2+  Ca6  1  0.66398678  0.07235782  0.16832076  1
  Ca2+  Ca7  1  0.66680197  0.07468147  0.50993337  1
  Ca2+  Ca8  1  0.65889853  0.07026026  0.83484251  1
  Ca2+  Ca9  1  0.67264440  0.59039585  0.17120774  1
  Ca2+  Ca10  1  0.66321268  0.58083235  0.50181811  1
  Ca2+  Ca11  1  0.66805978  0.58875036  0.83737481  1
  Ca2+  Ca12  1  0.09312890  0.32985459  0.15807334  1
  Ca2+  Ca13  1  0.09040499  0.33777756  0.49714988  1
  Ca2+  Ca14  1  0.09092910  0.33333343  0.83250712  1
  Ca2+  Ca15  1  0.07659804  0.82717286  0.16697424  1
  Ca2+  Ca16  1  0.07341703  0.82861457  0.48823062  1
  Ca2+  Ca17  1  0.06760553  0.83351145  0.82818610  1
  Ca2+  Ca18  1  0.57695638  0.33925633  0.16188235  1
  Ca2+  Ca19  1  0.59474050  0.33062898  0.49584109  1
  Ca2+  Ca20  1  0.57856938  0.33358706  0.82394665  1
  Ca2+  Ca21  1  0.57534261  0.82290169  0.16043609  1
  Ca2+  Ca22  1  0.58045308  0.81906865  0.49421270  1
  Ca2+  Ca23  1  0.58797605  0.82358151  0.83058756  1
  Ca2+  Ca24  1  0.32817451  0.42137959  0.17158597  1
  Ca2+  Ca25  1  0.32486771  0.43258580  0.50337129  1
  Ca2+  Ca26  1  0.33014926  0.42026745  0.83620850  1
  Ca2+  Ca27  1  0.33294927  0.91226267  0.17530035  1
  Ca2+  Ca28  1  0.32630778  0.90308190  0.49751011  1
  Ca2+  Ca29  1  0.33738735  0.91896548  0.84059063  1
  Ca2+  Ca30  1  0.82788676  0.43365777  0.17411842  1
  Ca2+  Ca31  1  0.82514051  0.42700269  0.50062495  1
  Ca2+  Ca32  1  0.82499222  0.42489617  0.83922231  1
  Ca2+  Ca33  1  0.83190692  0.90824879  0.16594828  1
  Ca2+  Ca34  1  0.82964827  0.90967782  0.50616624  1
  Ca2+  Ca35  1  0.82280123  0.90629975  0.83809513  1
  Ca2+  Ca36  1  0.41606472  0.17640787  0.15987890  1
  Ca2+  Ca37  1  0.42354267  0.16928023  0.49971532  1
  Ca2+  Ca38  1  0.42177383  0.17538991  0.83047641  1
  Ca2+  Ca39  1  0.42527734  0.66608129  0.16359288  1
  Ca2+  Ca40  1  0.42309813  0.66014422  0.49305732  1
  Ca2+  Ca41  1  0.42730760  0.66571974  0.82938226  1
  Ca2+  Ca42  1  0.92543140  0.17199302  0.16082236  1
  Ca2+  Ca43  1  0.91574917  0.17246106  0.49566572  1
  Ca2+  Ca44  1  0.92322990  0.16737109  0.83175348  1
  Ca2+  Ca45  1  0.91496304  0.66856331  0.16528705  1
  Ca2+  Ca46  1  0.91821902  0.67545643  0.49081038  1
  Ca2+  Ca47  1  0.90897195  0.67472452  0.83270322  1
  Al0+  Al48  1  0.00026367  0.00078652  -0.00819181  1
  Al0+  Al49  1  0.00109827  0.00263367  0.33359856  1
  Al0+  Al50  1  -0.00032019  0.00227571  0.66198117  1
  Al0+  Al51  1  -0.00066110  0.49843869  0.00726756  1
  Al0+  Al52  1  -0.00403385  0.49859775  0.33771280  1
  Al0+  Al53  1  0.00062134  0.50010650  0.67039989  1
  Al0+  Al54  1  0.49945853  0.00100677  0.00430985  1
  Al0+  Al55  1  0.50137560  0.00187021  0.33148430  1
  Al0+  Al56  1  0.49928351  0.00162394  0.66600078  1
  Al0+  Al57  1  0.49858472  0.49964221  -0.00923615  1
  Al0+  Al58  1  0.49903031  0.49607967  0.33553708  1
  Al0+  Al59  1  0.49819275  0.49995433  0.66918848  1
  Al0+  Al60  1  0.25184283  0.24864202  -0.00544578  1
  Al0+  Al61  1  0.25252050  0.24808860  0.33775259  1
  Al0+  Al62  1  0.25047425  0.24832330  0.66700885  1
  Al0+  Al63  1  0.24986851  0.74993092  -0.00318506  1
  Al0+  Al64  1  0.24738552  0.75083617  0.33577495  1
  Al0+  Al65  1  0.24883455  0.75075403  0.67610838  1
  Al0+  Al66  1  0.75186793  0.24813130  0.00013613  1
  Al0+  Al67  1  0.75223199  0.24708175  0.33251492  1
  Al0+  Al68  1  0.75214247  0.25005715  0.66736026  1
  Al0+  Al69  1  0.74956285  0.75055643  0.00232845  1
  Al0+  Al70  1  0.74856783  0.75146390  0.33097274  1
  Al0+  Al71  1  0.74784683  0.75082552  0.66107770  1
  Al0+  Al72  1  0.57065304  0.68070508  0.98371341  1
  Al0+  Al73  1  0.92838872  0.82361929  0.31698638  1
  Al0+  Al74  1  0.81896960  0.57086608  0.01329712  1
  Al0+  Al75  1  0.81934087  0.57511792  0.35053651  1
  Al0+  Al76  1  0.32195371  0.57376076  0.68544150  1
  Al0+  Al77  1  0.17749251  0.42630331  0.34711217  1
  Al0+  Al78  1  0.42831216  0.82232109  0.32053689  1
  Al0+  Al79  1  0.93134585  0.81860793  0.98585065  1
  Al0+  Al80  1  0.56833980  0.67848491  0.65115214  1
  Al0+  Al81  1  0.06999866  0.67600874  0.31999122  1
  Al0+  Al82  1  0.56907297  0.67526085  0.31800511  1
  Al0+  Al83  1  0.68021425  0.42766105  0.68042335  1
  Al0+  Al84  1  0.17911139  0.92966334  0.34542534  1
  Al0+  Al85  1  0.92919322  0.82040625  0.65227665  1
  Al0+  Al86  1  0.17859820  0.42844761  0.68368283  1
  Al0+  Al87  1  0.18211287  0.42884694  0.01414703  1
  Al0+  Al88  1  0.67892199  0.42728644  0.34598954  1
  Al0+  Al89  1  0.67985862  0.92952790  0.67925410  1
  Al0+  Al90  1  0.57161733  0.18006658  0.65308430  1
  Al0+  Al91  1  0.07027273  0.18089919  0.98619520  1
  Al0+  Al92  1  0.42674565  0.82340104  0.98494925  1
  Al0+  Al93  1  0.43081025  0.32008438  0.98569811  1
  Al0+  Al94  1  0.32015967  0.57236493  0.34629552  1
  Al0+  Al95  1  0.67921610  0.93051417  0.01536851  1
  Si0+  Si96  1  0.32297648  0.57287973  0.01704068  1
  Si0+  Si97  1  0.82183105  0.07061224  0.34803022  1
  Si0+  Si98  1  0.67842612  0.93100633  0.34874380  1
  Si0+  Si99  1  0.92708129  0.31963166  0.31861378  1
  Si0+  Si100  1  0.07265751  0.67825443  0.65282506  1
  Si0+  Si101  1  0.07247378  0.17965699  0.64840928  1
  Si0+  Si102  1  0.92977152  0.32203353  0.65159739  1
  Si0+  Si103  1  0.07254690  0.18203361  0.31936320  1
  Si0+  Si104  1  0.17647911  0.93080313  0.68293202  1
  Si0+  Si105  1  0.82388893  0.07298415  0.68405163  1
  Si0+  Si106  1  0.32003447  0.07021102  0.68270384  1
  Si0+  Si107  1  0.42744836  0.32107710  0.64730241  1
  Si0+  Si108  1  0.42928707  0.31727403  0.31952624  1
  Si0+  Si109  1  0.82529716  0.07243273  0.01689844  1
  Si0+  Si110  1  0.82062853  0.57272018  0.68286916  1
  Si0+  Si111  1  0.92722031  0.32371530  0.98332317  1
  Si0+  Si112  1  0.67573973  0.42586799  0.01361875  1
  Si0+  Si113  1  0.17706959  0.92897216  0.01295939  1
  Si0+  Si114  1  0.57438314  0.17728274  0.98461721  1
  Si0+  Si115  1  0.42569209  0.82389550  0.65144624  1
  Si0+  Si116  1  0.07288499  0.67393661  0.98379106  1
  Si0+  Si117  1  0.32430121  0.07185348  0.35108836  1
  Si0+  Si118  1  0.31992866  0.07009544  0.01490549  1
  Si0+  Si119  1  0.57414409  0.17835092  0.31678440  1
  O2-  O120  1  0.25343533  -0.00554286  0.05582847  1
  O2-  O121  1  0.25962833  -0.00142815  0.39354374  1
  O2-  O122  1  0.25048283  -0.00173188  0.72582935  1
  O2-  O123  1  0.25153244  0.50723540  0.06153324  1
  O2-  O124  1  0.24214141  0.50523193  0.39559636  1
  O2-  O125  1  0.24995750  0.50024057  0.73362754  1
  O2-  O126  1  0.75451762  0.00639452  0.06138573  1
  O2-  O127  1  0.75431874  -0.00272600  0.39052390  1
  O2-  O128  1  0.75581040  0.00358104  0.72703808  1
  O2-  O129  1  0.74379914  0.49454992  0.05745143  1
  O2-  O130  1  0.74460376  0.50397744  0.39769948  1
  O2-  O131  1  0.75182429  0.50442573  0.72785089  1
  O2-  O132  1  0.00716258  0.25780771  0.27719230  1
  O2-  O133  1  0.00339035  0.25311546  0.60824050  1
  O2-  O134  1  -0.00336843  0.25591160  0.93822520  1
  O2-  O135  1  -0.00259097  0.74753207  0.26904444  1
  O2-  O136  1  0.00472949  0.74668504  0.60735433  1
  O2-  O137  1  0.00508771  0.74327649  0.93837449  1
  O2-  O138  1  0.50409734  0.25032113  0.27584253  1
  O2-  O139  1  0.50208491  0.25813575  0.60315030  1
  O2-  O140  1  0.51209450  0.25124723  0.94040331  1
  O2-  O141  1  0.49559204  0.74711894  0.26964641  1
  O2-  O142  1  0.49051668  0.75203676  0.60750410  1
  O2-  O143  1  0.49785478  0.75231386  0.93348886  1
  O2-  O144  1  0.07003517  0.18005836  0.09961169  1
  O2-  O145  1  0.07078523  0.17996460  0.42460893  1
  O2-  O146  1  0.07208636  0.17666971  0.75338879  1
  O2-  O147  1  0.07335024  0.67551707  0.08903380  1
  O2-  O148  1  0.07019782  0.68096306  0.43397083  1
  O2-  O149  1  0.07115011  0.68035672  0.75862289  1
  O2-  O150  1  0.57162842  0.17654036  0.09054043  1
  O2-  O151  1  0.57441398  0.17678368  0.42185177  1
  O2-  O152  1  0.56705066  0.17888265  0.76604116  1
  O2-  O153  1  0.56980473  0.67971177  0.09697064  1
  O2-  O154  1  0.56879514  0.67722342  0.43173195  1
  O2-  O155  1  0.57218031  0.68197237  0.76385082  1
  O2-  O156  1  0.18492011  0.42071558  0.23370490  1
  O2-  O157  1  0.18007584  0.42800829  0.57049555  1
  O2-  O158  1  0.18460329  0.42822643  0.90136218  1
  O2-  O159  1  0.17570442  0.93589980  0.23234896  1
  O2-  O160  1  0.17608774  0.93321279  0.57794387  1
  O2-  O161  1  0.17591400  0.93414104  0.90758489  1
  O2-  O162  1  0.68244924  0.42165112  0.23245064  1
  O2-  O163  1  0.68540393  0.42502423  0.56791166  1
  O2-  O164  1  0.67882280  0.42389018  0.90799432  1
  O2-  O165  1  0.67641728  0.93522428  0.24378361  1
  O2-  O166  1  0.68139358  0.93221371  0.56603458  1
  O2-  O167  1  0.68003434  0.93197699  0.90204209  1
  O2-  O168  1  0.42977663  0.31730718  0.09934218  1
  O2-  O169  1  0.42725958  0.31219749  0.42412892  1
  O2-  O170  1  0.42623669  0.31560289  0.75304052  1
  O2-  O171  1  0.42696800  0.82344311  0.09813115  1
  O2-  O172  1  0.43408442  0.82635630  0.43411523  1
  O2-  O173  1  0.42812793  0.82670316  0.75684461  1
  O2-  O174  1  0.92641913  0.32049828  0.08880839  1
  O2-  O175  1  0.92256824  0.31292851  0.42361479  1
  O2-  O176  1  0.92895028  0.31906339  0.75661157  1
  O2-  O177  1  0.93418507  0.82111684  0.09822753  1
  O2-  O178  1  0.93107088  0.82625042  0.43074846  1
  O2-  O179  1  0.92954277  0.82034484  0.76552821  1
  O2-  O180  1  0.32193625  0.07695159  0.24553888  1
  O2-  O181  1  0.31814227  0.07247960  0.57776367  1
  O2-  O182  1  0.31863514  0.07127702  0.90955665  1
  O2-  O183  1  0.32236369  0.56753414  0.23257735  1
  O2-  O184  1  0.31987223  0.57459711  0.57187135  1
  O2-  O185  1  0.32222621  0.57072220  0.91165621  1
  O2-  O186  1  0.82074658  0.07441440  0.24316841  1
  O2-  O187  1  0.82463927  0.07406401  0.57812439  1
  O2-  O188  1  0.82669359  0.07360750  0.91157764  1
  O2-  O189  1  0.81942473  0.57202922  0.23684683  1
  O2-  O190  1  0.82172179  0.57100743  0.57774576  1
  O2-  O191  1  0.81855123  0.56956039  0.89972496  1
  O2-  O192  1  0.03936462  0.09299397  0.27014066  1
  O2-  O193  1  0.04198795  0.08968146  0.59856509  1
  O2-  O194  1  0.03873317  0.08674586  0.92743908  1
  O2-  O195  1  0.04361068  0.57571903  0.26913276  1
  O2-  O196  1  0.04923708  0.58358993  0.60860802  1
  O2-  O197  1  0.04571982  0.57996675  0.93943787  1
  O2-  O198  1  0.54344126  0.08865202  0.26722365  1
  O2-  O199  1  0.53545916  0.08557830  0.59698544  1
  O2-  O200  1  0.54086056  0.08654316  0.93827435  1
  O2-  O201  1  0.54367096  0.57506869  0.26673976  1
  O2-  O202  1  0.54010478  0.57998242  0.59960734  1
  O2-  O203  1  0.54490376  0.58206884  0.92973611  1
  O2-  O204  1  0.16664171  0.20390215  0.27338803  1
  O2-  O205  1  0.16519120  0.20429438  0.60128132  1
  O2-  O206  1  0.16598996  0.20986795  0.92981189  1
  O2-  O207  1  0.16804845  0.70543898  0.26712022  1
  O2-  O208  1  0.16698320  0.70568296  0.60951739  1
  O2-  O209  1  0.16644728  0.69829298  0.93728905  1
  O2-  O210  1  0.66639129  0.20282309  0.26884371  1
  O2-  O211  1  0.67089822  0.20514932  0.60082940  1
  O2-  O212  1  0.67090957  0.19303616  0.94091869  1
  O2-  O213  1  0.66650155  0.70792407  0.26645656  1
  O2-  O214  1  0.66315835  0.71240509  0.59575710  1
  O2-  O215  1  0.66838913  0.71249264  0.93163826  1
  O2-  O216  1  0.08288471  0.45045467  0.06679980  1
  O2-  O217  1  0.07479170  0.44113004  0.39486386  1
  O2-  O218  1  0.07897432  0.45347053  0.73692843  1
  O2-  O219  1  0.08775632  0.96479683  0.05958715  1
  O2-  O220  1  0.08619548  0.97004224  0.40199151  1
  O2-  O221  1  0.08599681  0.96500046  0.72955437  1
  O2-  O222  1  0.58056925  0.45026627  0.05619123  1
  O2-  O223  1  0.57870972  0.44527662  0.39864312  1
  O2-  O224  1  0.58101659  0.45177226  0.73072662  1
  O2-  O225  1  0.58385881  0.96426692  0.07106635  1
  O2-  O226  1  0.58925900  0.96574541  0.39688710  1
  O2-  O227  1  0.58360517  0.96388518  0.73215299  1
  O2-  O228  1  0.21675280  0.33120816  0.06454521  1
  O2-  O229  1  0.21233971  0.33008116  0.40231679  1
  O2-  O230  1  0.20743653  0.32781364  0.73326865  1
  O2-  O231  1  0.19762517  0.83449456  0.05759787  1
  O2-  O232  1  0.20317811  0.83396097  0.40374808  1
  O2-  O233  1  0.19745612  0.83878193  0.73189419  1
  O2-  O234  1  0.69923194  0.33083710  0.05875339  1
  O2-  O235  1  0.71429434  0.32937404  0.39842380  1
  O2-  O236  1  0.71316577  0.33181244  0.73562087  1
  O2-  O237  1  0.71194840  0.83576290  0.06980580  1
  O2-  O238  1  0.70220257  0.83823473  0.39450445  1
  O2-  O239  1  0.71237924  0.83328059  0.73259533  1
  O2-  O240  1  0.45340717  0.40884688  0.27118451  1
  O2-  O241  1  0.44604944  0.41694465  0.60572855  1
  O2-  O242  1  0.45512860  0.41559056  0.92771658  1
  O2-  O243  1  0.45812211  0.92140401  0.26725317  1
  O2-  O244  1  0.45084163  0.91718211  0.60496463  1
  O2-  O245  1  0.45369930  0.92442336  0.93565197  1
  O2-  O246  1  0.94351730  0.41446220  0.27464908  1
  O2-  O247  1  0.95545042  0.41469742  0.60505008  1
  O2-  O248  1  0.95200789  0.41736068  0.93803241  1
  O2-  O249  1  0.96005289  0.92255389  0.26570620  1
  O2-  O250  1  0.95847253  0.91856209  0.59971529  1
  O2-  O251  1  0.96182260  0.91448154  0.92952793  1
  O2-  O252  1  0.33972623  0.28303800  0.27052579  1
  O2-  O253  1  0.33677668  0.28571423  0.60102618  1
  O2-  O254  1  0.33923343  0.27997376  0.92875045  1
  O2-  O255  1  0.32587533  0.80417482  0.27317556  1
  O2-  O256  1  0.32858803  0.80148593  0.61079578  1
  O2-  O257  1  0.32641839  0.80095511  0.93198435  1
  O2-  O258  1  0.84134947  0.28022129  0.26702975  1
  O2-  O259  1  0.84044510  0.28988965  0.60208608  1
  O2-  O260  1  0.83410912  0.29621768  0.93592588  1
  O2-  O261  1  0.82847599  0.79978661  0.26654460  1
  O2-  O262  1  0.83377837  0.78992774  0.59733155  1
  O2-  O263  1  0.83448708  0.78720722  0.93348360  1
  O2-  O264  1  0.41249910  0.05004670  0.06425371  1
  O2-  O265  1  0.41975682  0.05179594  0.39570356  1
  O2-  O266  1  0.41180403  0.04451485  0.73084489  1
  O2-  O267  1  0.41632936  0.54203390  0.06035831  1
  O2-  O268  1  0.41514852  0.53563938  0.40114203  1
  O2-  O269  1  0.41927450  0.54300704  0.73833226  1
  O2-  O270  1  0.91869516  0.04420128  0.06223066  1
  O2-  O271  1  0.91473287  0.04874900  0.39616713  1
  O2-  O272  1  0.91880901  0.04887577  0.72853738  1
  O2-  O273  1  0.91447479  0.53995214  0.06952069  1
  O2-  O274  1  0.91584236  0.54294979  0.40539661  1
  O2-  O275  1  0.91411909  0.54751255  0.72952157  1
  O2-  O276  1  0.28636664  0.15961542  0.06303886  1
  O2-  O277  1  0.29236881  0.16117527  0.40199442  1
  O2-  O278  1  0.28966154  0.16051419  0.73168108  1
  O2-  O279  1  0.30132917  0.66867759  0.05998180  1
  O2-  O280  1  0.29747791  0.67146887  0.40036439  1
  O2-  O281  1  0.29433545  0.67149542  0.74137199  1
  O2-  O282  1  0.80326651  0.16724113  0.06364548  1
  O2-  O283  1  0.79052288  0.15995851  0.39861530  1
  O2-  O284  1  0.79962724  0.16604314  0.73095226  1
  O2-  O285  1  0.78828442  0.66608939  0.06847082  1
  O2-  O286  1  0.79365200  0.67479387  0.40178807  1
  O2-  O287  1  0.79242724  0.66622885  0.72715555  1
