# generated using pymatgen
data_Ca2Al2SiO7
_symmetry_space_group_name_H-M   'P 1'
_cell_length_a   15.46802429
_cell_length_b   15.46433887
_cell_length_c   15.28890075
_cell_angle_alpha   89.99996393
_cell_angle_beta   89.98729369
_cell_angle_gamma   90.00900301
_symmetry_Int_Tables_number   1
_chemical_formula_structural   Ca2Al2SiO7
_chemical_formula_sum   'Ca48 Al48 Si24 O168'
_cell_volume   3657.14726478
_cell_formula_units_Z   24
loop_
 _symmetry_equiv_pos_site_id
 _symmetry_equiv_pos_as_xyz
  1  'x, y, z'
loop_
 _atom_type_symbol
 _atom_type_oxidation_number
  Ca2+  2.0
  Al0+  0.0
  Si0+  0.0
  O2-  -2.0
loop_
 _atom_site_type_symbol
 _atom_site_label
 _atom_site_symmetry_multiplicity
 _atom_site_fract_x
 _atom_site_fract_y
 _atom_site_fract_z
 _atom_site_occupancy
  Ca2+  Ca0  1  0.17756606  0.08809416  0.17064607  1
  Ca2+  Ca1  1  0.17471468  0.08252713  0.51102697  1
  Ca2+  Ca2  1  0.16981379  0.08644339  0.83130005  1
  Ca2+  Ca3  1  0.15250230  0.57235022  0.16913608  1
  Ca2+  Ca4  1  0.15595762  0.57541265  0.50300923  1
  Ca2+  Ca5  1  0.15273269  0.57443232  0.83612425  1
  Ca2+  Ca6  1  0.67869888  0.08174495  0.16652412  1
  Ca2+  Ca7  1  0.68170875  0.08602050  0.50470892  1
  Ca2+  Ca8  1  0.68095218  0.07877456  0.83938734  1
  Ca2+  Ca9  1  0.67278501  0.58516537  0.17196071  1
  Ca2+  Ca10  1  0.67554976  0.57785617  0.50431358  1
  Ca2+  Ca11  1  0.66745767  0.57871834  0.83669577  1
  Ca2+  Ca12  1  0.08057869  0.33549058  0.15932882  1
  Ca2+  Ca13  1  0.08664974  0.33131854  0.50262791  1
  Ca2+  Ca14  1  0.07485933  0.33186935  0.82715491  1
  Ca2+  Ca15  1  0.08030820  0.82095822  0.16329692  1
  Ca2+  Ca16  1  0.07874194  0.82910009  0.49580082  1
  Ca2+  Ca17  1  0.08526593  0.82538589  0.82139196  1
  Ca2+  Ca18  1  0.56600795  0.33440467  0.16029251  1
  Ca2+  Ca19  1  0.57673569  0.33468056  0.49542224  1
  Ca2+  Ca20  1  0.57629206  0.33457875  0.82800019  1
  Ca2+  Ca21  1  0.58727312  0.82998711  0.15767236  1
  Ca2+  Ca22  1  0.58100412  0.83481601  0.49654025  1
  Ca2+  Ca23  1  0.58891659  0.83322509  0.83510251  1
  Ca2+  Ca24  1  0.32208132  0.41015705  0.17103732  1
  Ca2+  Ca25  1  0.32089490  0.41355544  0.50227694  1
  Ca2+  Ca26  1  0.31797092  0.41360908  0.83941288  1
  Ca2+  Ca27  1  0.33395556  0.92837212  0.16982571  1
  Ca2+  Ca28  1  0.32634972  0.92728643  0.50928927  1
  Ca2+  Ca29  1  0.32653564  0.92680928  0.83563564  1
  Ca2+  Ca30  1  0.83740484  0.42404275  0.17281764  1
  Ca2+  Ca31  1  0.83317947  0.42200502  0.50844796  1
  Ca2+  Ca32  1  0.83138429  0.40821834  0.83664477  1
  Ca2+  Ca33  1  0.83350461  0.92179017  0.17101927  1
  Ca2+  Ca34  1  0.84607122  0.92380897  0.50321264  1
  Ca2+  Ca35  1  0.83937860  0.92721247  0.83705195  1
  Ca2+  Ca36  1  0.40834726  0.17382502  0.16142100  1
  Ca2+  Ca37  1  0.41334734  0.16832593  0.49249721  1
  Ca2+  Ca38  1  0.40975667  0.16712202  0.83189211  1
  Ca2+  Ca39  1  0.42578598  0.66798953  0.15812165  1
  Ca2+  Ca40  1  0.41737727  0.66753562  0.49733723  1
  Ca2+  Ca41  1  0.42431723  0.66439492  0.83258102  1
  Ca2+  Ca42  1  0.91249519  0.17191473  0.16006434  1
  Ca2+  Ca43  1  0.91954237  0.16646196  0.50015892  1
  Ca2+  Ca44  1  0.91640648  0.17195059  0.82351539  1
  Ca2+  Ca45  1  0.92205537  0.66716598  0.16546627  1
  Ca2+  Ca46  1  0.92493807  0.67571123  0.49386591  1
  Ca2+  Ca47  1  0.92778242  0.67608337  0.82552474  1
  Al0+  Al48  1  0.00256744  -0.00010741  0.00635257  1
  Al0+  Al49  1  0.00074117  -0.00060749  0.33049498  1
  Al0+  Al50  1  0.00304965  0.00103222  0.66868531  1
  Al0+  Al51  1  -0.00214446  0.49877231  -0.00424168  1
  Al0+  Al52  1  -0.00179077  0.49915820  0.34069970  1
  Al0+  Al53  1  -0.00185437  0.50164082  0.66489409  1
  Al0+  Al54  1  0.50036546  -0.00006106  0.00751872  1
  Al0+  Al55  1  0.50204265  0.00074287  0.33515890  1
  Al0+  Al56  1  0.50183922  0.00124101  0.66929946  1
  Al0+  Al57  1  0.49809610  0.50040202  -0.00864223  1
  Al0+  Al58  1  0.49726065  0.49916486  0.32862022  1
  Al0+  Al59  1  0.50118599  0.49978326  0.66842590  1
  Al0+  Al60  1  0.24785215  0.25154677  0.00300867  1
  Al0+  Al61  1  0.24947060  0.25074459  0.33749178  1
  Al0+  Al62  1  0.24964389  0.25434233  0.67074634  1
  Al0+  Al63  1  0.25260055  0.74841897  -0.00416355  1
  Al0+  Al64  1  0.25139218  0.74773808  0.32641733  1
  Al0+  Al65  1  0.25445466  0.74989524  0.66507574  1
  Al0+  Al66  1  0.74555191  0.25029283  0.00240415  1
  Al0+  Al67  1  0.74823405  0.24792180  0.33570533  1
  Al0+  Al68  1  0.74700552  0.25021012  0.67001748  1
  Al0+  Al69  1  0.75080718  0.74863604  -0.00261274  1
  Al0+  Al70  1  0.75061126  0.75004652  0.33543043  1
  Al0+  Al71  1  0.74981571  0.74898738  0.66195283  1
  Al0+  Al72  1  0.42828658  0.31861256  0.31994870  1
  Al0+  Al73  1  0.67901495  0.42949032  0.68076095  1
  Al0+  Al74  1  0.92905851  0.82295524  0.65236399  1
  Al0+  Al75  1  0.17887819  0.43048197  0.34781759  1
  Al0+  Al76  1  0.82262640  0.07135782  0.34862508  1
  Al0+  Al77  1  0.07086590  0.67606426  0.31665291  1
  Al0+  Al78  1  0.31796619  0.07016470  0.01466247  1
  Al0+  Al79  1  0.07459988  0.67914961  0.65014221  1
  Al0+  Al80  1  0.07082654  0.67910611  0.98543760  1
  Al0+  Al81  1  0.07262431  0.18118887  0.65219184  1
  Al0+  Al82  1  0.92532678  0.32009482  0.65077001  1
  Al0+  Al83  1  0.32258086  0.07309509  0.68224801  1
  Al0+  Al84  1  0.68190521  0.92738963  0.01449841  1
  Al0+  Al85  1  0.81997693  0.57095270  0.34784489  1
  Al0+  Al86  1  0.17816127  0.43270760  0.01383058  1
  Al0+  Al87  1  0.92857834  0.82251225  0.31538312  1
  Al0+  Al88  1  0.32062371  0.07019161  0.34735514  1
  Al0+  Al89  1  0.82220037  0.06968398  0.67925987  1
  Al0+  Al90  1  0.92677951  0.31874145  0.98910005  1
  Al0+  Al91  1  0.82355089  0.07329138  0.01573712  1
  Al0+  Al92  1  0.57291750  0.67987629  0.98530727  1
  Al0+  Al93  1  0.42662728  0.31933610  0.98373636  1
  Al0+  Al94  1  0.17963287  0.92753669  0.68040219  1
  Al0+  Al95  1  0.17776006  0.43312834  0.68208321  1
  Si0+  Si96  1  0.82028687  0.57287128  0.68522879  1
  Si0+  Si97  1  0.32497775  0.57249914  0.68358479  1
  Si0+  Si98  1  0.81869382  0.56769289  0.01331196  1
  Si0+  Si99  1  0.57347603  0.17671384  0.31480947  1
  Si0+  Si100  1  0.07209019  0.17729801  0.98621892  1
  Si0+  Si101  1  0.32428439  0.57214093  0.01639163  1
  Si0+  Si102  1  0.56987020  0.17725592  0.98267968  1
  Si0+  Si103  1  0.07126814  0.17978443  0.31916708  1
  Si0+  Si104  1  0.92937283  0.82276724  0.98409313  1
  Si0+  Si105  1  0.43214425  0.82291802  0.65161817  1
  Si0+  Si106  1  0.42943086  0.82411774  0.98224955  1
  Si0+  Si107  1  0.32511578  0.57293674  0.34824977  1
  Si0+  Si108  1  0.67515970  0.42877143  0.34731952  1
  Si0+  Si109  1  0.42985110  0.32171477  0.65132345  1
  Si0+  Si110  1  0.92691713  0.31956578  0.32075495  1
  Si0+  Si111  1  0.67763746  0.92639877  0.68194139  1
  Si0+  Si112  1  0.67401891  0.42885513  0.01586067  1
  Si0+  Si113  1  0.67917016  0.92736847  0.35107173  1
  Si0+  Si114  1  0.56984187  0.17812482  0.65175913  1
  Si0+  Si115  1  0.57064470  0.67747013  0.64928874  1
  Si0+  Si116  1  0.18001292  0.92540511  0.34739388  1
  Si0+  Si117  1  0.57010264  0.67971221  0.31970011  1
  Si0+  Si118  1  0.17871593  0.92232732  0.01840942  1
  Si0+  Si119  1  0.42993053  0.82325227  0.31786689  1
  O2-  O120  1  0.24398027  -0.00512924  0.06212854  1
  O2-  O121  1  0.24816489  -0.00616788  0.39295678  1
  O2-  O122  1  0.24878822  0.00248295  0.73075154  1
  O2-  O123  1  0.25241613  0.50791105  0.06145758  1
  O2-  O124  1  0.25277962  0.50829605  0.39154516  1
  O2-  O125  1  0.24995200  0.51142552  0.72757053  1
  O2-  O126  1  0.75485316  -0.00253723  0.06535611  1
  O2-  O127  1  0.74918568  -0.00553847  0.39448359  1
  O2-  O128  1  0.75160416  -0.01031890  0.72403462  1
  O2-  O129  1  0.74757161  0.49704311  0.05787459  1
  O2-  O130  1  0.74560908  0.49439605  0.39253301  1
  O2-  O131  1  0.75587617  0.50030121  0.73007230  1
  O2-  O132  1  -0.00306779  0.24812195  0.27768217  1
  O2-  O133  1  -0.00155216  0.24991709  0.59958468  1
  O2-  O134  1  -0.00494140  0.23759204  0.94435927  1
  O2-  O135  1  -0.00015285  0.74910485  0.26646753  1
  O2-  O136  1  0.00315014  0.75282120  0.60234264  1
  O2-  O137  1  0.00349036  0.76052853  0.93971043  1
  O2-  O138  1  0.50269511  0.24399516  0.27178337  1
  O2-  O139  1  0.49719059  0.24739150  0.60893509  1
  O2-  O140  1  0.50065282  0.24427730  0.93644197  1
  O2-  O141  1  0.50086976  0.75164645  0.27634079  1
  O2-  O142  1  0.50200349  0.75090770  0.60763572  1
  O2-  O143  1  0.49903376  0.75557282  0.93848242  1
  O2-  O144  1  0.07518138  0.18138339  0.09237058  1
  O2-  O145  1  0.07269183  0.18057452  0.42383844  1
  O2-  O146  1  0.07258351  0.18378317  0.76593278  1
  O2-  O147  1  0.06582448  0.67713889  0.09834033  1
  O2-  O148  1  0.07076174  0.67791278  0.42954021  1
  O2-  O149  1  0.07109393  0.68021404  0.76412284  1
  O2-  O150  1  0.57014612  0.18100239  0.08840057  1
  O2-  O151  1  0.57451028  0.17787697  0.42062778  1
  O2-  O152  1  0.56974576  0.17805879  0.75661772  1
  O2-  O153  1  0.57119051  0.67946252  0.09899984  1
  O2-  O154  1  0.56725209  0.67972609  0.42498051  1
  O2-  O155  1  0.56981140  0.67646305  0.75411523  1
  O2-  O156  1  0.17883149  0.42918263  0.23452916  1
  O2-  O157  1  0.18287290  0.43093806  0.56891651  1
  O2-  O158  1  0.17794710  0.43316377  0.90119226  1
  O2-  O159  1  0.18372423  0.92648387  0.24157056  1
  O2-  O160  1  0.18484485  0.92642961  0.56651319  1
  O2-  O161  1  0.18061950  0.91969099  0.91328787  1
  O2-  O162  1  0.67396268  0.43170791  0.24155738  1
  O2-  O163  1  0.67479946  0.43410999  0.56742852  1
  O2-  O164  1  0.67379634  0.43004585  0.91090854  1
  O2-  O165  1  0.67715949  0.92676554  0.24579148  1
  O2-  O166  1  0.67155717  0.92934237  0.57650031  1
  O2-  O167  1  0.68349827  0.92829912  0.90079935  1
  O2-  O168  1  0.42743992  0.31913364  0.09712854  1
  O2-  O169  1  0.43087398  0.31907040  0.43327186  1
  O2-  O170  1  0.43213575  0.32279999  0.75624871  1
  O2-  O171  1  0.42982840  0.82219739  0.08827343  1
  O2-  O172  1  0.43127489  0.82300291  0.42317661  1
  O2-  O173  1  0.43457117  0.82331351  0.75632814  1
  O2-  O174  1  0.92942072  0.32239773  0.10302605  1
  O2-  O175  1  0.92510145  0.31889188  0.42526630  1
  O2-  O176  1  0.92471107  0.31715788  0.76453349  1
  O2-  O177  1  0.92708469  0.81891339  0.08956516  1
  O2-  O178  1  0.93036039  0.82273258  0.42851108  1
  O2-  O179  1  0.92612206  0.81954641  0.76627491  1
  O2-  O180  1  0.31890350  0.07022080  0.23413128  1
  O2-  O181  1  0.32474124  0.06987386  0.56847012  1
  O2-  O182  1  0.31690780  0.06933244  0.90204362  1
  O2-  O183  1  0.33295467  0.57159656  0.24334051  1
  O2-  O184  1  0.33149075  0.56860173  0.57798810  1
  O2-  O185  1  0.32743740  0.57015648  0.91101079  1
  O2-  O186  1  0.81883639  0.07478385  0.23595679  1
  O2-  O187  1  0.81831796  0.07087429  0.56610998  1
  O2-  O188  1  0.82122189  0.07384100  0.90231165  1
  O2-  O189  1  0.81780322  0.56891923  0.23392501  1
  O2-  O190  1  0.81521716  0.57343164  0.57959022  1
  O2-  O191  1  0.81659476  0.56678439  0.90858186  1
  O2-  O192  1  0.04901173  0.08716299  0.27100558  1
  O2-  O193  1  0.05024450  0.08085729  0.60131869  1
  O2-  O194  1  0.05768731  0.07947978  0.94464020  1
  O2-  O195  1  0.03617412  0.57732480  0.26698643  1
  O2-  O196  1  0.04246758  0.58173181  0.59854029  1
  O2-  O197  1  0.03182835  0.58586683  0.93096783  1
  O2-  O198  1  0.54991064  0.08209014  0.27005397  1
  O2-  O199  1  0.54452913  0.08602954  0.60298213  1
  O2-  O200  1  0.54588432  0.08214890  0.93994901  1
  O2-  O201  1  0.54212609  0.58872868  0.27067262  1
  O2-  O202  1  0.53876377  0.58714857  0.60099020  1
  O2-  O203  1  0.53963737  0.58554914  0.92825619  1
  O2-  O204  1  0.16143280  0.21232705  0.27114888  1
  O2-  O205  1  0.17077115  0.21411963  0.59919922  1
  O2-  O206  1  0.16149795  0.21131253  0.93816414  1
  O2-  O207  1  0.17126147  0.69958133  0.26329181  1
  O2-  O208  1  0.17617759  0.70128436  0.59998406  1
  O2-  O209  1  0.17116986  0.70042580  0.93450090  1
  O2-  O210  1  0.66605974  0.20456917  0.26755516  1
  O2-  O211  1  0.65959600  0.20949033  0.60281593  1
  O2-  O212  1  0.66257833  0.20502236  0.93611018  1
  O2-  O213  1  0.66218162  0.70603190  0.27291323  1
  O2-  O214  1  0.66205311  0.70281954  0.60031428  1
  O2-  O215  1  0.66865525  0.70878020  0.92858372  1
  O2-  O216  1  0.08063143  0.46380437  0.06692437  1
  O2-  O217  1  0.08292825  0.45760570  0.40374442  1
  O2-  O218  1  0.07925089  0.46052208  0.73429796  1
  O2-  O219  1  0.08427041  0.94347007  0.06444302  1
  O2-  O220  1  0.08593152  0.95080405  0.39067295  1
  O2-  O221  1  0.08197162  0.95221795  0.73536931  1
  O2-  O222  1  0.58302178  0.46170140  0.06188855  1
  O2-  O223  1  0.58249659  0.45780257  0.39392276  1
  O2-  O224  1  0.58425097  0.46481980  0.73649485  1
  O2-  O225  1  0.58348300  0.95402830  0.06909939  1
  O2-  O226  1  0.58580437  0.95405783  0.39808816  1
  O2-  O227  1  0.58724854  0.95685043  0.73164944  1
  O2-  O228  1  0.20978283  0.33687488  0.06865876  1
  O2-  O229  1  0.21400662  0.33626119  0.40332961  1
  O2-  O230  1  0.21240096  0.33882543  0.73742741  1
  O2-  O231  1  0.20955153  0.83015756  0.06526259  1
  O2-  O232  1  0.20645916  0.83104274  0.39118212  1
  O2-  O233  1  0.21404001  0.83031107  0.73355263  1
  O2-  O234  1  0.69583547  0.33620573  0.06350110  1
  O2-  O235  1  0.69662114  0.33383379  0.39169553  1
  O2-  O236  1  0.70303884  0.33240863  0.73625306  1
  O2-  O237  1  0.70785305  0.82730664  0.06661648  1
  O2-  O238  1  0.70001313  0.83301101  0.39760157  1
  O2-  O239  1  0.69646007  0.82960560  0.72395674  1
  O2-  O240  1  0.45855139  0.41500866  0.26392290  1
  O2-  O241  1  0.46291819  0.41211762  0.60371995  1
  O2-  O242  1  0.45809973  0.41489959  0.92893402  1
  O2-  O243  1  0.45943278  0.91459768  0.27015597  1
  O2-  O244  1  0.46262784  0.91377542  0.60284802  1
  O2-  O245  1  0.45622940  0.91778310  0.93774412  1
  O2-  O246  1  0.95556685  0.41175620  0.27513071  1
  O2-  O247  1  0.95121271  0.42032700  0.60132735  1
  O2-  O248  1  0.96035216  0.41248761  0.93220646  1
  O2-  O249  1  0.95714768  0.92076254  0.26132768  1
  O2-  O250  1  0.95625020  0.92189316  0.60122197  1
  O2-  O251  1  0.94974539  0.91975480  0.94309456  1
  O2-  O252  1  0.33173963  0.28659933  0.26657282  1
  O2-  O253  1  0.33716288  0.29737970  0.60538661  1
  O2-  O254  1  0.32977536  0.28767429  0.93157445  1
  O2-  O255  1  0.33952446  0.79657241  0.26782649  1
  O2-  O256  1  0.34205624  0.79523567  0.60128293  1
  O2-  O257  1  0.33727216  0.79737091  0.93441467  1
  O2-  O258  1  0.83397561  0.29408784  0.27317559  1
  O2-  O259  1  0.82533115  0.29315876  0.59953546  1
  O2-  O260  1  0.82656721  0.29586400  0.93837110  1
  O2-  O261  1  0.82836949  0.79319397  0.26571922  1
  O2-  O262  1  0.83022255  0.79396095  0.59831067  1
  O2-  O263  1  0.83836231  0.79157949  0.93680147  1
  O2-  O264  1  0.41465953  0.04121483  0.06985984  1
  O2-  O265  1  0.41932130  0.04279291  0.39907584  1
  O2-  O266  1  0.42045099  0.04197435  0.73514467  1
  O2-  O267  1  0.41753918  0.54344798  0.06232229  1
  O2-  O268  1  0.41692056  0.54417396  0.39777267  1
  O2-  O269  1  0.41567258  0.54066223  0.73243374  1
  O2-  O270  1  0.92363803  0.05119249  0.06854414  1
  O2-  O271  1  0.92112229  0.04277870  0.39953193  1
  O2-  O272  1  0.91934658  0.04539179  0.73379452  1
  O2-  O273  1  0.90897922  0.53732241  0.06161337  1
  O2-  O274  1  0.91358737  0.53945404  0.40503708  1
  O2-  O275  1  0.91526645  0.55253474  0.72873571  1
  O2-  O276  1  0.28496010  0.16596706  0.06935480  1
  O2-  O277  1  0.28852033  0.16543446  0.40167580  1
  O2-  O278  1  0.29597093  0.17206379  0.73357242  1
  O2-  O279  1  0.30564267  0.66846208  0.05981604  1
  O2-  O280  1  0.30445283  0.66892006  0.39213346  1
  O2-  O281  1  0.31035812  0.66932941  0.72626841  1
  O2-  O282  1  0.78758932  0.16985384  0.07004925  1
  O2-  O283  1  0.78819601  0.16696898  0.40365528  1
  O2-  O284  1  0.78393890  0.16341204  0.73356500  1
  O2-  O285  1  0.79057688  0.65933232  0.06065615  1
  O2-  O286  1  0.78649165  0.66602538  0.40286238  1
  O2-  O287  1  0.78822511  0.66495014  0.73109157  1
