# generated using pymatgen
data_Ca2Al2SiO7
_symmetry_space_group_name_H-M   'P 1'
_cell_length_a   15.45798692
_cell_length_b   15.45771432
_cell_length_c   15.28297626
_cell_angle_alpha   89.98881642
_cell_angle_beta   90.00075549
_cell_angle_gamma   89.99922594
_symmetry_Int_Tables_number   1
_chemical_formula_structural   Ca2Al2SiO7
_chemical_formula_sum   'Ca48 Al48 Si24 O168'
_cell_volume   3651.79292027
_cell_formula_units_Z   24
loop_
 _symmetry_equiv_pos_site_id
 _symmetry_equiv_pos_as_xyz
  1  'x, y, z'
loop_
 _atom_type_symbol
 _atom_type_oxidation_number
  Ca2+  2.0
  Al0+  0.0
  Si0+  0.0
  O2-  -2.0
loop_
 _atom_site_type_symbol
 _atom_site_label
 _atom_site_symmetry_multiplicity
 _atom_site_fract_x
 _atom_site_fract_y
 _atom_site_fract_z
 _atom_site_occupancy
  Ca2+  Ca0  1  0.17039062  0.09649047  0.16786035  1
  Ca2+  Ca1  1  0.16884926  0.08966429  0.50725578  1
  Ca2+  Ca2  1  0.17495812  0.08956204  0.83823136  1
  Ca2+  Ca3  1  0.16028881  0.57166181  0.16938105  1
  Ca2+  Ca4  1  0.16120859  0.57231918  0.50096661  1
  Ca2+  Ca5  1  0.16410884  0.57774527  0.84486240  1
  Ca2+  Ca6  1  0.67048807  0.08062982  0.16886195  1
  Ca2+  Ca7  1  0.67435516  0.07607458  0.50533642  1
  Ca2+  Ca8  1  0.67958835  0.08509792  0.84224058  1
  Ca2+  Ca9  1  0.67365515  0.57624492  0.17508369  1
  Ca2+  Ca10  1  0.67116501  0.58411749  0.50014037  1
  Ca2+  Ca11  1  0.67454441  0.58338255  0.83780112  1
  Ca2+  Ca12  1  0.08100334  0.33134559  0.16514022  1
  Ca2+  Ca13  1  0.07850236  0.32397474  0.49060372  1
  Ca2+  Ca14  1  0.08477783  0.32529739  0.83325116  1
  Ca2+  Ca15  1  0.07622857  0.82509279  0.16235848  1
  Ca2+  Ca16  1  0.06827540  0.83424911  0.49504353  1
  Ca2+  Ca17  1  0.07838096  0.82532070  0.82919955  1
  Ca2+  Ca18  1  0.58111900  0.33852099  0.16179826  1
  Ca2+  Ca19  1  0.57744790  0.33493895  0.48960254  1
  Ca2+  Ca20  1  0.59084969  0.32853162  0.83606071  1
  Ca2+  Ca21  1  0.59180811  0.82884461  0.16825671  1
  Ca2+  Ca22  1  0.58889657  0.82322068  0.49542495  1
  Ca2+  Ca23  1  0.57787706  0.82752578  0.82330606  1
  Ca2+  Ca24  1  0.32238584  0.40852454  0.17211716  1
  Ca2+  Ca25  1  0.32973332  0.41134392  0.49721745  1
  Ca2+  Ca26  1  0.32487443  0.41796085  0.83940817  1
  Ca2+  Ca27  1  0.33173740  0.92459288  0.16896647  1
  Ca2+  Ca28  1  0.33065097  0.92216514  0.50905304  1
  Ca2+  Ca29  1  0.33735175  0.92554137  0.83694539  1
  Ca2+  Ca30  1  0.82827509  0.42529723  0.17560451  1
  Ca2+  Ca31  1  0.83681509  0.42639894  0.50102165  1
  Ca2+  Ca32  1  0.82919006  0.42954454  0.84310655  1
  Ca2+  Ca33  1  0.83421182  0.92266426  0.17288131  1
  Ca2+  Ca34  1  0.83294646  0.91466813  0.50321418  1
  Ca2+  Ca35  1  0.84149736  0.92605841  0.83225016  1
  Ca2+  Ca36  1  0.42341953  0.17100773  0.16106591  1
  Ca2+  Ca37  1  0.41602555  0.17036028  0.49513716  1
  Ca2+  Ca38  1  0.42026820  0.16106860  0.83316713  1
  Ca2+  Ca39  1  0.42513177  0.66339701  0.16507233  1
  Ca2+  Ca40  1  0.43023807  0.66861778  0.49525770  1
  Ca2+  Ca41  1  0.42363671  0.67430163  0.82147565  1
  Ca2+  Ca42  1  0.92377805  0.17223473  0.16011705  1
  Ca2+  Ca43  1  0.92655702  0.16730254  0.49233217  1
  Ca2+  Ca44  1  0.92523764  0.16055688  0.82710062  1
  Ca2+  Ca45  1  0.90984211  0.66861434  0.16413241  1
  Ca2+  Ca46  1  0.90299286  0.67487760  0.49642232  1
  Ca2+  Ca47  1  0.91477948  0.66676488  0.82977517  1
  Al0+  Al48  1  0.00107548  -0.00036397  0.00025251  1
  Al0+  Al49  1  0.00318694  -0.00191325  0.32378960  1
  Al0+  Al50  1  0.00191045  -0.00246912  0.66261043  1
  Al0+  Al51  1  0.00002213  0.50115538  0.00330883  1
  Al0+  Al52  1  0.00114739  0.49912708  0.34125867  1
  Al0+  Al53  1  -0.00164206  0.49769683  0.67292957  1
  Al0+  Al54  1  0.49925075  0.00230758  0.00115822  1
  Al0+  Al55  1  0.49988236  -0.00050335  0.33898672  1
  Al0+  Al56  1  0.49898002  0.00090690  0.66658263  1
  Al0+  Al57  1  0.49843326  0.50142612  -0.00151621  1
  Al0+  Al58  1  0.49944839  0.50047649  0.32701444  1
  Al0+  Al59  1  0.49819449  0.49818894  0.66425685  1
  Al0+  Al60  1  0.25001648  0.25069759  0.00322595  1
  Al0+  Al61  1  0.25281376  0.25120474  0.33143158  1
  Al0+  Al62  1  0.25006025  0.24851434  0.66826844  1
  Al0+  Al63  1  0.24892198  0.75122637  -0.00401524  1
  Al0+  Al64  1  0.25091192  0.75229465  0.33505700  1
  Al0+  Al65  1  0.24942127  0.74836184  0.66181931  1
  Al0+  Al66  1  0.74905006  0.25037314  0.00313362  1
  Al0+  Al67  1  0.75134964  0.24947072  0.33460304  1
  Al0+  Al68  1  0.75036168  0.25008359  0.66910975  1
  Al0+  Al69  1  0.74882336  0.75179393  -0.00077255  1
  Al0+  Al70  1  0.74889649  0.75172774  0.33021961  1
  Al0+  Al71  1  0.74980232  0.74834746  0.66564764  1
  Al0+  Al72  1  0.92861453  0.81895851  0.31778080  1
  Al0+  Al73  1  0.07172039  0.17960434  0.31676685  1
  Al0+  Al74  1  0.81882565  0.57080711  0.68227874  1
  Al0+  Al75  1  0.43189803  0.32014826  0.31900195  1
  Al0+  Al76  1  0.82037897  0.57319860  0.01629965  1
  Al0+  Al77  1  0.67988908  0.93095436  0.34725947  1
  Al0+  Al78  1  0.06945880  0.67826223  0.98760352  1
  Al0+  Al79  1  0.67650917  0.42672274  0.34897924  1
  Al0+  Al80  1  0.07053899  0.18046855  0.65411692  1
  Al0+  Al81  1  0.57154318  0.17942690  0.98663001  1
  Al0+  Al82  1  0.18026387  0.42987529  0.01402379  1
  Al0+  Al83  1  0.42743442  0.82388902  0.65036314  1
  Al0+  Al84  1  0.67710506  0.42936557  0.01484623  1
  Al0+  Al85  1  0.82035510  0.57082815  0.34992204  1
  Al0+  Al86  1  0.82262434  0.07068017  0.67822001  1
  Al0+  Al87  1  0.93139000  0.81860897  0.65355365  1
  Al0+  Al88  1  0.18058842  0.42875605  0.34890985  1
  Al0+  Al89  1  0.56974437  0.68104715  0.31685239  1
  Al0+  Al90  1  0.32028319  0.07001196  0.01569307  1
  Al0+  Al91  1  0.57052797  0.67823826  0.65083286  1
  Al0+  Al92  1  0.82405473  0.07075465  0.01398015  1
  Al0+  Al93  1  0.92747916  0.32318643  0.31886805  1
  Al0+  Al94  1  0.32018402  0.07041007  0.68114947  1
  Al0+  Al95  1  0.07075079  0.18002701  0.98418936  1
  Si0+  Si96  1  0.67398255  0.42696885  0.68363311  1
  Si0+  Si97  1  0.17850023  0.92716474  0.34868985  1
  Si0+  Si98  1  0.57371391  0.17910381  0.65218678  1
  Si0+  Si99  1  0.92659888  0.32285478  0.65178410  1
  Si0+  Si100  1  0.07239506  0.67307937  0.64981782  1
  Si0+  Si101  1  0.17992546  0.42882697  0.68266071  1
  Si0+  Si102  1  0.17758246  0.92531754  0.68301889  1
  Si0+  Si103  1  0.32156952  0.57542577  0.01495244  1
  Si0+  Si104  1  0.32250417  0.57429746  0.34994913  1
  Si0+  Si105  1  0.17839176  0.92608197  0.01715696  1
  Si0+  Si106  1  0.92642452  0.82215710  0.98187691  1
  Si0+  Si107  1  0.67689875  0.93002406  0.01481950  1
  Si0+  Si108  1  0.57041357  0.67954656  0.98387777  1
  Si0+  Si109  1  0.42854945  0.31881832  0.65275535  1
  Si0+  Si110  1  0.42845162  0.82208814  0.98576312  1
  Si0+  Si111  1  0.42647424  0.82445526  0.31561678  1
  Si0+  Si112  1  0.07487763  0.67788521  0.31930336  1
  Si0+  Si113  1  0.57298341  0.17504367  0.31930228  1
  Si0+  Si114  1  0.32134235  0.57051729  0.68004364  1
  Si0+  Si115  1  0.31930795  0.07015853  0.34904423  1
  Si0+  Si116  1  0.82601377  0.07102601  0.34861078  1
  Si0+  Si117  1  0.92716862  0.32249850  0.98319656  1
  Si0+  Si118  1  0.67872731  0.92850652  0.68314278  1
  Si0+  Si119  1  0.42763301  0.32225094  0.98186702  1
  O2-  O120  1  0.24326863  -0.00205170  0.06275747  1
  O2-  O121  1  0.24747642  0.00011721  0.39088858  1
  O2-  O122  1  0.24902945  -0.00848097  0.72724231  1
  O2-  O123  1  0.25402233  0.50651747  0.05955669  1
  O2-  O124  1  0.25281507  0.50685437  0.39527012  1
  O2-  O125  1  0.24655955  0.50462065  0.72410362  1
  O2-  O126  1  0.74814918  -0.00387679  0.05849132  1
  O2-  O127  1  0.75497663  0.00522101  0.39389609  1
  O2-  O128  1  0.74636491  -0.00194713  0.72739346  1
  O2-  O129  1  0.74909861  0.50041908  0.06506937  1
  O2-  O130  1  0.75029456  0.49616123  0.40004355  1
  O2-  O131  1  0.74311712  0.49578941  0.72662653  1
  O2-  O132  1  -0.00251123  0.24961324  0.26785825  1
  O2-  O133  1  -0.00753317  0.25122907  0.60806717  1
  O2-  O134  1  -0.00704059  0.25133609  0.93685400  1
  O2-  O135  1  0.00221170  0.74159555  0.27411383  1
  O2-  O136  1  0.00415984  0.74185959  0.60601628  1
  O2-  O137  1  -0.00642416  0.75085843  0.93945491  1
  O2-  O138  1  0.51138200  0.24976105  0.27446730  1
  O2-  O139  1  0.50249677  0.25052159  0.61093650  1
  O2-  O140  1  0.49910448  0.25631707  0.93780158  1
  O2-  O141  1  0.49369632  0.75551152  0.26988208  1
  O2-  O142  1  0.49987128  0.75237901  0.60101496  1
  O2-  O143  1  0.49834060  0.75027008  0.94305290  1
  O2-  O144  1  0.07140751  0.18338401  0.09665070  1
  O2-  O145  1  0.07225653  0.17916871  0.43092474  1
  O2-  O146  1  0.07292328  0.18326742  0.76718951  1
  O2-  O147  1  0.07275795  0.68111196  0.10034391  1
  O2-  O148  1  0.07886125  0.68269816  0.42490315  1
  O2-  O149  1  0.07359741  0.67347912  0.75559961  1
  O2-  O150  1  0.56748423  0.17540864  0.09936693  1
  O2-  O151  1  0.56765392  0.17227243  0.42535432  1
  O2-  O152  1  0.57436478  0.17957810  0.75724383  1
  O2-  O153  1  0.56985044  0.68029616  0.08877700  1
  O2-  O154  1  0.56847313  0.68185754  0.42972776  1
  O2-  O155  1  0.56748120  0.67914041  0.76522865  1
  O2-  O156  1  0.18255802  0.42876575  0.23603484  1
  O2-  O157  1  0.18195405  0.42780635  0.57770912  1
  O2-  O158  1  0.18321507  0.43051291  0.90005137  1
  O2-  O159  1  0.18158034  0.92294120  0.24380959  1
  O2-  O160  1  0.17714435  0.92765246  0.57723750  1
  O2-  O161  1  0.18170940  0.92343111  0.91162315  1
  O2-  O162  1  0.67509061  0.43118237  0.23581321  1
  O2-  O163  1  0.67132744  0.42565142  0.57856767  1
  O2-  O164  1  0.67763893  0.43261116  0.90053685  1
  O2-  O165  1  0.67943628  0.93363179  0.23387337  1
  O2-  O166  1  0.67979346  0.92997202  0.57751781  1
  O2-  O167  1  0.67477060  0.93028375  0.90913773  1
  O2-  O168  1  0.42724072  0.32070032  0.08722077  1
  O2-  O169  1  0.42882661  0.31547099  0.43292917  1
  O2-  O170  1  0.42643805  0.31937364  0.75769078  1
  O2-  O171  1  0.42791994  0.82127299  0.09083643  1
  O2-  O172  1  0.42569783  0.82421358  0.42068825  1
  O2-  O173  1  0.42951642  0.82182904  0.76486473  1
  O2-  O174  1  0.92967609  0.32213803  0.08844548  1
  O2-  O175  1  0.93098851  0.32112648  0.43313001  1
  O2-  O176  1  0.92882347  0.32472221  0.75741554  1
  O2-  O177  1  0.92643806  0.82239665  0.08736063  1
  O2-  O178  1  0.93008948  0.82050532  0.43105488  1
  O2-  O179  1  0.93443176  0.81902043  0.76669156  1
  O2-  O180  1  0.32067990  0.06837590  0.24391314  1
  O2-  O181  1  0.31713862  0.07389394  0.56785035  1
  O2-  O182  1  0.32125975  0.06753541  0.90251591  1
  O2-  O183  1  0.32047634  0.57600274  0.24428252  1
  O2-  O184  1  0.32257251  0.56717515  0.57530054  1
  O2-  O185  1  0.32103748  0.57482848  0.90876168  1
  O2-  O186  1  0.82520081  0.06870430  0.24292946  1
  O2-  O187  1  0.82053285  0.07037964  0.56532393  1
  O2-  O188  1  0.82455656  0.06783410  0.90035299  1
  O2-  O189  1  0.81855323  0.57175161  0.23654290  1
  O2-  O190  1  0.81960025  0.57007508  0.56986568  1
  O2-  O191  1  0.81784631  0.57403372  0.90218537  1
  O2-  O192  1  0.05022006  0.08021470  0.26307933  1
  O2-  O193  1  0.04538326  0.08251812  0.60077973  1
  O2-  O194  1  0.04535680  0.08028618  0.93310580  1
  O2-  O195  1  0.05436593  0.58154360  0.27887023  1
  O2-  O196  1  0.04631201  0.57843457  0.60649185  1
  O2-  O197  1  0.04212228  0.58121490  0.93235498  1
  O2-  O198  1  0.53883021  0.08436846  0.27209271  1
  O2-  O199  1  0.54512374  0.08770335  0.60491595  1
  O2-  O200  1  0.53705943  0.08397110  0.93118937  1
  O2-  O201  1  0.53699991  0.58622554  0.26109709  1
  O2-  O202  1  0.53856349  0.58016068  0.59881033  1
  O2-  O203  1  0.54240402  0.58832333  0.93537285  1
  O2-  O204  1  0.16974070  0.21179225  0.26603317  1
  O2-  O205  1  0.16611548  0.21530151  0.59996815  1
  O2-  O206  1  0.16796260  0.21423320  0.93210386  1
  O2-  O207  1  0.16688854  0.70788995  0.27154209  1
  O2-  O208  1  0.16652565  0.69496072  0.60331513  1
  O2-  O209  1  0.16583620  0.71007721  0.93070552  1
  O2-  O210  1  0.66973290  0.19054028  0.27741537  1
  O2-  O211  1  0.66540593  0.20531711  0.60371760  1
  O2-  O212  1  0.66872735  0.20823017  0.93139544  1
  O2-  O213  1  0.66374976  0.71581448  0.26143302  1
  O2-  O214  1  0.66838350  0.70661363  0.59845024  1
  O2-  O215  1  0.66133303  0.70941489  0.93568075  1
  O2-  O216  1  0.08443541  0.46029595  0.06811115  1
  O2-  O217  1  0.08575015  0.45699776  0.40755464  1
  O2-  O218  1  0.08747989  0.45159798  0.73090364  1
  O2-  O219  1  0.08348267  0.94706758  0.06133685  1
  O2-  O220  1  0.08555671  0.95401092  0.39391319  1
  O2-  O221  1  0.08543784  0.95256208  0.73025223  1
  O2-  O222  1  0.57687033  0.45749535  0.06446110  1
  O2-  O223  1  0.57662730  0.45745446  0.39906241  1
  O2-  O224  1  0.57969656  0.45113500  0.73008836  1
  O2-  O225  1  0.58496599  0.95715319  0.06312908  1
  O2-  O226  1  0.58331460  0.95954933  0.40389089  1
  O2-  O227  1  0.58425714  0.95328787  0.72789249  1
  O2-  O228  1  0.21396854  0.33565640  0.06941117  1
  O2-  O229  1  0.21829788  0.33394218  0.40320631  1
  O2-  O230  1  0.21458084  0.33975721  0.73095616  1
  O2-  O231  1  0.20870728  0.83425021  0.06495399  1
  O2-  O232  1  0.20733127  0.83729238  0.39990588  1
  O2-  O233  1  0.19958647  0.82925893  0.72698186  1
  O2-  O234  1  0.69916134  0.32958906  0.06610023  1
  O2-  O235  1  0.69802884  0.32524087  0.40013600  1
  O2-  O236  1  0.70024950  0.33337183  0.72997212  1
  O2-  O237  1  0.70060348  0.83572399  0.06004884  1
  O2-  O238  1  0.71156082  0.83498445  0.40054310  1
  O2-  O239  1  0.70376346  0.83486163  0.72884913  1
  O2-  O240  1  0.45346602  0.41766612  0.26328757  1
  O2-  O241  1  0.45201244  0.41102552  0.60408235  1
  O2-  O242  1  0.44835723  0.41785149  0.93610830  1
  O2-  O243  1  0.45373333  0.91838574  0.27080908  1
  O2-  O244  1  0.45252726  0.92371832  0.59880259  1
  O2-  O245  1  0.45825275  0.91323449  0.93849599  1
  O2-  O246  1  0.95908994  0.42212255  0.26899546  1
  O2-  O247  1  0.95700670  0.41506167  0.60550098  1
  O2-  O248  1  0.95681353  0.41535390  0.93733633  1
  O2-  O249  1  0.96328115  0.91262104  0.26059236  1
  O2-  O250  1  0.96363228  0.91311852  0.59616103  1
  O2-  O251  1  0.95639019  0.91442178  0.93560462  1
  O2-  O252  1  0.33833500  0.28373928  0.26345236  1
  O2-  O253  1  0.33859171  0.28708492  0.60399364  1
  O2-  O254  1  0.33554002  0.29262413  0.93522952  1
  O2-  O255  1  0.33214163  0.80064850  0.26943791  1
  O2-  O256  1  0.32827456  0.79654211  0.59798161  1
  O2-  O257  1  0.33706504  0.79651236  0.93625303  1
  O2-  O258  1  0.82767075  0.29812905  0.26683137  1
  O2-  O259  1  0.83147226  0.30178792  0.60726663  1
  O2-  O260  1  0.83210260  0.30079879  0.93891618  1
  O2-  O261  1  0.83251650  0.79174237  0.26229012  1
  O2-  O262  1  0.83372723  0.79036581  0.60101781  1
  O2-  O263  1  0.83199405  0.79971465  0.93543386  1
  O2-  O264  1  0.41552180  0.03651347  0.07079421  1
  O2-  O265  1  0.41017234  0.04212594  0.39844809  1
  O2-  O266  1  0.41854463  0.04346904  0.73492482  1
  O2-  O267  1  0.41541593  0.55076984  0.06016647  1
  O2-  O268  1  0.41509069  0.54506376  0.39494568  1
  O2-  O269  1  0.41106057  0.53884483  0.73011459  1
  O2-  O270  1  0.91974830  0.03912895  0.06897303  1
  O2-  O271  1  0.91978018  0.04072118  0.39184393  1
  O2-  O272  1  0.91893657  0.03619290  0.73134750  1
  O2-  O273  1  0.91946320  0.54775596  0.06738849  1
  O2-  O274  1  0.91997014  0.54808595  0.40396009  1
  O2-  O275  1  0.91573974  0.53990713  0.73749085  1
  O2-  O276  1  0.29167994  0.16697262  0.06882618  1
  O2-  O277  1  0.29205489  0.16197562  0.39603037  1
  O2-  O278  1  0.28685542  0.16575143  0.73677757  1
  O2-  O279  1  0.29734253  0.66928731  0.06043153  1
  O2-  O280  1  0.29984415  0.66884836  0.39642780  1
  O2-  O281  1  0.29858878  0.66465179  0.72583109  1
  O2-  O282  1  0.79318709  0.16691454  0.06708841  1
  O2-  O283  1  0.80487445  0.16550310  0.39422841  1
  O2-  O284  1  0.79423448  0.16781179  0.73326194  1
  O2-  O285  1  0.79111737  0.67273465  0.06624049  1
  O2-  O286  1  0.78648318  0.66921308  0.39958279  1
  O2-  O287  1  0.78838941  0.66756135  0.73671903  1
