# generated using pymatgen
data_Ca2Al2SiO7
_symmetry_space_group_name_H-M   'P 1'
_cell_length_a   15.45918673
_cell_length_b   15.45954148
_cell_length_c   15.28412713
_cell_angle_alpha   90.00584186
_cell_angle_beta   89.98750408
_cell_angle_gamma   90.00035728
_symmetry_Int_Tables_number   1
_chemical_formula_structural   Ca2Al2SiO7
_chemical_formula_sum   'Ca48 Al48 Si24 O168'
_cell_volume   3652.78306593
_cell_formula_units_Z   24
loop_
 _symmetry_equiv_pos_site_id
 _symmetry_equiv_pos_as_xyz
  1  'x, y, z'
loop_
 _atom_type_symbol
 _atom_type_oxidation_number
  Ca2+  2.0
  Al0+  0.0
  Si0+  0.0
  O2-  -2.0
loop_
 _atom_site_type_symbol
 _atom_site_label
 _atom_site_symmetry_multiplicity
 _atom_site_fract_x
 _atom_site_fract_y
 _atom_site_fract_z
 _atom_site_occupancy
  Ca2+  Ca0  1  0.17153257  0.08213717  0.17381451  1
  Ca2+  Ca1  1  0.17154297  0.08370574  0.49929107  1
  Ca2+  Ca2  1  0.18217046  0.08772981  0.83501553  1
  Ca2+  Ca3  1  0.16743722  0.56822506  0.17383142  1
  Ca2+  Ca4  1  0.17354364  0.57550510  0.50496720  1
  Ca2+  Ca5  1  0.17562545  0.57682112  0.83581199  1
  Ca2+  Ca6  1  0.67844737  0.08197301  0.17597578  1
  Ca2+  Ca7  1  0.67460179  0.08839375  0.50536852  1
  Ca2+  Ca8  1  0.67602981  0.09181914  0.83336744  1
  Ca2+  Ca9  1  0.66059969  0.58206831  0.17439270  1
  Ca2+  Ca10  1  0.65635419  0.57116304  0.50010156  1
  Ca2+  Ca11  1  0.66102557  0.57690058  0.83399778  1
  Ca2+  Ca12  1  0.08405175  0.33079115  0.16726031  1
  Ca2+  Ca13  1  0.07283116  0.32801629  0.48854816  1
  Ca2+  Ca14  1  0.07723323  0.33480686  0.82854941  1
  Ca2+  Ca15  1  0.08593400  0.83691534  0.16815675  1
  Ca2+  Ca16  1  0.07985856  0.83887975  0.49516649  1
  Ca2+  Ca17  1  0.07664440  0.83455280  0.82515286  1
  Ca2+  Ca18  1  0.57070279  0.33904179  0.16572570  1
  Ca2+  Ca19  1  0.57844176  0.33316097  0.49783206  1
  Ca2+  Ca20  1  0.57396195  0.32730887  0.82309626  1
  Ca2+  Ca21  1  0.59097075  0.82479540  0.16745443  1
  Ca2+  Ca22  1  0.57228716  0.83113444  0.48963244  1
  Ca2+  Ca23  1  0.58102852  0.82512395  0.82633279  1
  Ca2+  Ca24  1  0.32608699  0.40858330  0.17275705  1
  Ca2+  Ca25  1  0.33499903  0.41675936  0.50492990  1
  Ca2+  Ca26  1  0.33553973  0.41621836  0.83770853  1
  Ca2+  Ca27  1  0.33189195  0.92212587  0.17436607  1
  Ca2+  Ca28  1  0.33169530  0.91457115  0.50687172  1
  Ca2+  Ca29  1  0.34520387  0.92995506  0.83156353  1
  Ca2+  Ca30  1  0.82493966  0.41803177  0.17901036  1
  Ca2+  Ca31  1  0.82233231  0.40451053  0.50373024  1
  Ca2+  Ca32  1  0.82432515  0.40782788  0.83127495  1
  Ca2+  Ca33  1  0.82781151  0.92749609  0.17646388  1
  Ca2+  Ca34  1  0.82868918  0.92651069  0.50403726  1
  Ca2+  Ca35  1  0.83657447  0.92815314  0.83644584  1
  Ca2+  Ca36  1  0.41013163  0.17689291  0.16277190  1
  Ca2+  Ca37  1  0.41928311  0.17308646  0.49833386  1
  Ca2+  Ca38  1  0.41734423  0.17279255  0.82382949  1
  Ca2+  Ca39  1  0.42768198  0.67237821  0.16677051  1
  Ca2+  Ca40  1  0.41555633  0.67451548  0.49361913  1
  Ca2+  Ca41  1  0.41875401  0.66976980  0.82628464  1
  Ca2+  Ca42  1  0.91785020  0.16345321  0.17028568  1
  Ca2+  Ca43  1  0.91619653  0.17133999  0.49328560  1
  Ca2+  Ca44  1  0.91683388  0.16695437  0.82417672  1
  Ca2+  Ca45  1  0.91758010  0.66837564  0.16359782  1
  Ca2+  Ca46  1  0.91495492  0.67371166  0.49848128  1
  Ca2+  Ca47  1  0.92007574  0.67524031  0.82489175  1
  Al0+  Al48  1  0.00038000  0.00158392  0.00275843  1
  Al0+  Al49  1  0.00246722  0.00100116  0.33635741  1
  Al0+  Al50  1  -0.00073427  -0.00129645  0.66637506  1
  Al0+  Al51  1  -0.00023972  0.50021310  0.00166595  1
  Al0+  Al52  1  -0.00031711  0.50035198  0.33475731  1
  Al0+  Al53  1  -0.00139587  0.50053227  0.66321201  1
  Al0+  Al54  1  0.50228921  0.00003693  0.00617098  1
  Al0+  Al55  1  0.50032796  0.00169957  0.33113184  1
  Al0+  Al56  1  0.50104680  -0.00170456  0.66308874  1
  Al0+  Al57  1  0.49896413  0.50156168  -0.00756770  1
  Al0+  Al58  1  0.49958713  0.50135656  0.32903258  1
  Al0+  Al59  1  0.49907252  0.49912525  0.67391221  1
  Al0+  Al60  1  0.24778382  0.24962405  0.00238600  1
  Al0+  Al61  1  0.24745883  0.24946506  0.33152391  1
  Al0+  Al62  1  0.24875907  0.24880319  0.66728190  1
  Al0+  Al63  1  0.25052924  0.74910331  -0.00117490  1
  Al0+  Al64  1  0.24969126  0.75106899  0.33130465  1
  Al0+  Al65  1  0.24952914  0.74663557  0.66987624  1
  Al0+  Al66  1  0.74963668  0.25127550  0.00682839  1
  Al0+  Al67  1  0.75020366  0.25252748  0.33583958  1
  Al0+  Al68  1  0.74993879  0.24920047  0.66977806  1
  Al0+  Al69  1  0.75102522  0.74936647  -0.00661253  1
  Al0+  Al70  1  0.75054969  0.75123841  0.33343516  1
  Al0+  Al71  1  0.75116735  0.74871780  0.66196832  1
  Al0+  Al72  1  0.92952168  0.32040546  0.65452821  1
  Al0+  Al73  1  0.06981670  0.17826618  0.31675723  1
  Al0+  Al74  1  0.57080267  0.68071687  0.31959152  1
  Al0+  Al75  1  0.82150719  0.07207611  0.01547313  1
  Al0+  Al76  1  0.17823228  0.42718413  0.34892662  1
  Al0+  Al77  1  0.67721792  0.92745461  0.34923340  1
  Al0+  Al78  1  0.42734233  0.31805133  0.98537660  1
  Al0+  Al79  1  0.32039849  0.56995696  0.68077489  1
  Al0+  Al80  1  0.42635722  0.82464472  0.31691351  1
  Al0+  Al81  1  0.92723041  0.32218276  0.31646960  1
  Al0+  Al82  1  0.17865680  0.43061468  0.01407710  1
  Al0+  Al83  1  0.57125638  0.68050412  0.98301102  1
  Al0+  Al84  1  0.82036086  0.07104650  0.35082917  1
  Al0+  Al85  1  0.18186380  0.92844683  0.34703601  1
  Al0+  Al86  1  0.32205158  0.07051613  0.67807682  1
  Al0+  Al87  1  0.67753098  0.43161147  0.34591068  1
  Al0+  Al88  1  0.42938111  0.81951737  0.65435567  1
  Al0+  Al89  1  0.42951056  0.31995283  0.32027554  1
  Al0+  Al90  1  0.42725183  0.32202657  0.65195439  1
  Al0+  Al91  1  0.67985441  0.42937441  0.68193586  1
  Al0+  Al92  1  0.92915660  0.82207720  0.65162752  1
  Al0+  Al93  1  0.32257953  0.07050511  0.01392330  1
  Al0+  Al94  1  0.82024046  0.06929492  0.68140374  1
  Al0+  Al95  1  0.57152318  0.17838596  0.65245758  1
  Si0+  Si96  1  0.93050389  0.82093039  0.31779106  1
  Si0+  Si97  1  0.82382967  0.57377516  0.35014322  1
  Si0+  Si98  1  0.07277604  0.17684320  0.65098381  1
  Si0+  Si99  1  0.32338769  0.57330953  0.01865347  1
  Si0+  Si100  1  0.17847388  0.92689602  0.68362103  1
  Si0+  Si101  1  0.57419446  0.17785975  0.98593401  1
  Si0+  Si102  1  0.93191085  0.82127840  0.98599626  1
  Si0+  Si103  1  0.32273531  0.07349164  0.34985997  1
  Si0+  Si104  1  0.92762667  0.32229783  0.98573508  1
  Si0+  Si105  1  0.82327524  0.57364258  0.68395906  1
  Si0+  Si106  1  0.67800504  0.92532838  0.68335658  1
  Si0+  Si107  1  0.17575540  0.42748084  0.68239079  1
  Si0+  Si108  1  0.67819520  0.43151974  0.01522616  1
  Si0+  Si109  1  0.82088350  0.57219959  0.01317225  1
  Si0+  Si110  1  0.06896633  0.17843447  0.98365842  1
  Si0+  Si111  1  0.57379614  0.17844864  0.31587628  1
  Si0+  Si112  1  0.42685636  0.82382101  0.98274927  1
  Si0+  Si113  1  0.07164472  0.67847179  0.31794122  1
  Si0+  Si114  1  0.17786388  0.92734766  0.01467029  1
  Si0+  Si115  1  0.57237650  0.67644220  0.64953014  1
  Si0+  Si116  1  0.07135106  0.67642651  0.98519311  1
  Si0+  Si117  1  0.32036280  0.57051263  0.34782527  1
  Si0+  Si118  1  0.68068627  0.92489186  0.01553639  1
  Si0+  Si119  1  0.07182271  0.67811944  0.64917928  1
  O2-  O120  1  0.25075766  -0.00856237  0.05796897  1
  O2-  O121  1  0.26032306  -0.00148201  0.39337241  1
  O2-  O122  1  0.24813630  -0.00530858  0.72719405  1
  O2-  O123  1  0.25538353  0.50342438  0.06164341  1
  O2-  O124  1  0.25409631  0.50069913  0.39409101  1
  O2-  O125  1  0.24822142  0.49189434  0.72722855  1
  O2-  O126  1  0.74518968  -0.00213170  0.05910002  1
  O2-  O127  1  0.74520448  0.00220448  0.40037768  1
  O2-  O128  1  0.74619058  -0.00601788  0.72945635  1
  O2-  O129  1  0.74907538  0.50330330  0.05649196  1
  O2-  O130  1  0.75495776  0.50445966  0.39205463  1
  O2-  O131  1  0.75539891  0.50461086  0.72903183  1
  O2-  O132  1  -0.00148539  0.25052406  0.26486131  1
  O2-  O133  1  0.00522306  0.24714737  0.60856184  1
  O2-  O134  1  -0.00324517  0.24942870  0.94277107  1
  O2-  O135  1  -0.00008264  0.74861684  0.27431745  1
  O2-  O136  1  0.00422419  0.74764031  0.60487606  1
  O2-  O137  1  0.00476664  0.75192476  0.94320595  1
  O2-  O138  1  0.50276256  0.24468922  0.27125370  1
  O2-  O139  1  0.49858634  0.24958266  0.60263219  1
  O2-  O140  1  0.50148756  0.24168813  0.94083368  1
  O2-  O141  1  0.50310887  0.75654451  0.26828548  1
  O2-  O142  1  0.50434217  0.74597619  0.60692292  1
  O2-  O143  1  0.49578959  0.75534700  0.93829954  1
  O2-  O144  1  0.06887366  0.17634905  0.08806668  1
  O2-  O145  1  0.07020573  0.17900275  0.43036526  1
  O2-  O146  1  0.07252009  0.17712081  0.75743059  1
  O2-  O147  1  0.06832663  0.67508228  0.09014850  1
  O2-  O148  1  0.07112153  0.67924386  0.42276234  1
  O2-  O149  1  0.06994939  0.67869589  0.75551353  1
  O2-  O150  1  0.57678181  0.18191587  0.09118595  1
  O2-  O151  1  0.57352821  0.17980782  0.42124171  1
  O2-  O152  1  0.57157435  0.18035732  0.76695817  1
  O2-  O153  1  0.57357822  0.68128994  0.09562086  1
  O2-  O154  1  0.56683090  0.67763970  0.43275454  1
  O2-  O155  1  0.57248117  0.67902398  0.75576510  1
  O2-  O156  1  0.17889871  0.43003608  0.23538796  1
  O2-  O157  1  0.17398127  0.43068301  0.57722622  1
  O2-  O158  1  0.17498014  0.43404166  0.90093657  1
  O2-  O159  1  0.18133681  0.92899731  0.23338035  1
  O2-  O160  1  0.17845610  0.92626511  0.57831324  1
  O2-  O161  1  0.17282426  0.92869849  0.90927568  1
  O2-  O162  1  0.67724592  0.43514602  0.23197766  1
  O2-  O163  1  0.67945140  0.43120301  0.56919707  1
  O2-  O164  1  0.68110903  0.43011092  0.91017059  1
  O2-  O165  1  0.68451528  0.92586751  0.23492132  1
  O2-  O166  1  0.68032622  0.92462325  0.57846701  1
  O2-  O167  1  0.68362373  0.92144656  0.90997698  1
  O2-  O168  1  0.42869065  0.31910528  0.09858336  1
  O2-  O169  1  0.43024294  0.32069733  0.43286098  1
  O2-  O170  1  0.42801413  0.32001607  0.76603668  1
  O2-  O171  1  0.42475175  0.82176151  0.08779067  1
  O2-  O172  1  0.42272329  0.81829305  0.43045612  1
  O2-  O173  1  0.43216077  0.81873824  0.76801930  1
  O2-  O174  1  0.92795264  0.32501320  0.08996827  1
  O2-  O175  1  0.92851366  0.32118715  0.42998794  1
  O2-  O176  1  0.93128986  0.31930236  0.76888716  1
  O2-  O177  1  0.93182204  0.81902476  0.09103304  1
  O2-  O178  1  0.93174133  0.81923214  0.42266636  1
  O2-  O179  1  0.93206738  0.82094336  0.76584607  1
  O2-  O180  1  0.31836272  0.07439512  0.24381498  1
  O2-  O181  1  0.31921982  0.07047175  0.56565801  1
  O2-  O182  1  0.32123391  0.07049476  0.90052798  1
  O2-  O183  1  0.31758377  0.57021305  0.24193975  1
  O2-  O184  1  0.31735110  0.57236945  0.56786380  1
  O2-  O185  1  0.32046672  0.57463141  0.91287033  1
  O2-  O186  1  0.82038208  0.06752743  0.23655354  1
  O2-  O187  1  0.82153216  0.06904171  0.56937456  1
  O2-  O188  1  0.82335852  0.07088877  0.90224317  1
  O2-  O189  1  0.82505173  0.57437752  0.24363925  1
  O2-  O190  1  0.82442930  0.57599489  0.57900057  1
  O2-  O191  1  0.82287649  0.57236603  0.90832826  1
  O2-  O192  1  0.04148583  0.07934145  0.26322810  1
  O2-  O193  1  0.04707137  0.08330411  0.60626299  1
  O2-  O194  1  0.04142841  0.08652353  0.93558340  1
  O2-  O195  1  0.04288063  0.58745761  0.26919322  1
  O2-  O196  1  0.04513716  0.58573643  0.60182928  1
  O2-  O197  1  0.03807953  0.58761753  0.93499947  1
  O2-  O198  1  0.55313447  0.08386110  0.26944843  1
  O2-  O199  1  0.54725716  0.07961945  0.59973428  1
  O2-  O200  1  0.55604153  0.08085294  0.94387327  1
  O2-  O201  1  0.53807226  0.58538034  0.26228676  1
  O2-  O202  1  0.54439341  0.58250662  0.60774629  1
  O2-  O203  1  0.54038098  0.58491005  0.92726353  1
  O2-  O204  1  0.16728931  0.20753006  0.26217228  1
  O2-  O205  1  0.16600359  0.20031512  0.60439028  1
  O2-  O206  1  0.15992313  0.20844944  0.93586803  1
  O2-  O207  1  0.16155214  0.70728683  0.26771401  1
  O2-  O208  1  0.16544299  0.70241597  0.60407107  1
  O2-  O209  1  0.16482793  0.69965923  0.93847122  1
  O2-  O210  1  0.66645115  0.20695727  0.26983035  1
  O2-  O211  1  0.66902746  0.20973417  0.60095979  1
  O2-  O212  1  0.66670856  0.20929888  0.93913151  1
  O2-  O213  1  0.67140568  0.70543201  0.26624528  1
  O2-  O214  1  0.66686724  0.69742799  0.60453618  1
  O2-  O215  1  0.66835385  0.70950718  0.92724556  1
  O2-  O216  1  0.08287934  0.46477930  0.06896322  1
  O2-  O217  1  0.08235860  0.46139753  0.40193824  1
  O2-  O218  1  0.08345016  0.45870699  0.72961877  1
  O2-  O219  1  0.08635950  0.95639305  0.06353211  1
  O2-  O220  1  0.08651298  0.96043723  0.40222449  1
  O2-  O221  1  0.08514020  0.95373816  0.73007107  1
  O2-  O222  1  0.58549591  0.46123887  0.05920471  1
  O2-  O223  1  0.58181367  0.46525595  0.39989123  1
  O2-  O224  1  0.58491825  0.46042614  0.73941544  1
  O2-  O225  1  0.58584222  0.94377325  0.06109870  1
  O2-  O226  1  0.57555019  0.94968862  0.39718183  1
  O2-  O227  1  0.58414213  0.94912454  0.72941306  1
  O2-  O228  1  0.20606739  0.33330677  0.06716687  1
  O2-  O229  1  0.20629514  0.33005186  0.40120409  1
  O2-  O230  1  0.19542268  0.33221916  0.72747061  1
  O2-  O231  1  0.19766027  0.83103539  0.05866882  1
  O2-  O232  1  0.20607332  0.82987974  0.40086552  1
  O2-  O233  1  0.20040061  0.83254935  0.73013614  1
  O2-  O234  1  0.70576833  0.34096577  0.06439395  1
  O2-  O235  1  0.70656415  0.33558718  0.40049235  1
  O2-  O236  1  0.71318171  0.33464108  0.73862770  1
  O2-  O237  1  0.71324161  0.83301136  0.06196334  1
  O2-  O238  1  0.70830913  0.82983280  0.40205147  1
  O2-  O239  1  0.70512765  0.83089373  0.72853747  1
  O2-  O240  1  0.46008252  0.41583884  0.26423152  1
  O2-  O241  1  0.45617570  0.42168544  0.60305408  1
  O2-  O242  1  0.45758641  0.41528108  0.93240322  1
  O2-  O243  1  0.44849257  0.92522996  0.26572683  1
  O2-  O244  1  0.45677439  0.91530427  0.59882009  1
  O2-  O245  1  0.45389239  0.91866088  0.93941908  1
  O2-  O246  1  0.95488127  0.42256587  0.26575024  1
  O2-  O247  1  0.95468784  0.41831097  0.60088114  1
  O2-  O248  1  0.95704195  0.41381321  0.93760525  1
  O2-  O249  1  0.96209812  0.91124798  0.27044483  1
  O2-  O250  1  0.96122123  0.91722132  0.59687300  1
  O2-  O251  1  0.96020285  0.91331885  0.93878811  1
  O2-  O252  1  0.33291959  0.28857414  0.26638809  1
  O2-  O253  1  0.32725451  0.29588222  0.60175858  1
  O2-  O254  1  0.32929836  0.28910137  0.93316856  1
  O2-  O255  1  0.32951279  0.79152265  0.26193749  1
  O2-  O256  1  0.33143139  0.78788821  0.60385465  1
  O2-  O257  1  0.33263840  0.79883972  0.93629267  1
  O2-  O258  1  0.82791637  0.29565550  0.26413347  1
  O2-  O259  1  0.83363037  0.28809245  0.60274151  1
  O2-  O260  1  0.83435088  0.29509114  0.94038483  1
  O2-  O261  1  0.83940729  0.79348686  0.26897053  1
  O2-  O262  1  0.83382618  0.79011652  0.59660255  1
  O2-  O263  1  0.84221136  0.79173983  0.93595248  1
  O2-  O264  1  0.42011462  0.04588397  0.06939795  1
  O2-  O265  1  0.41934639  0.05718411  0.39145478  1
  O2-  O266  1  0.41863210  0.03889966  0.73280093  1
  O2-  O267  1  0.41838707  0.54836117  0.06111464  1
  O2-  O268  1  0.41414068  0.54663698  0.39263440  1
  O2-  O269  1  0.41607705  0.54357888  0.73858205  1
  O2-  O270  1  0.91736989  0.03850501  0.06918711  1
  O2-  O271  1  0.91822889  0.03930553  0.40133631  1
  O2-  O272  1  0.91743649  0.03725338  0.73582609  1
  O2-  O273  1  0.91202468  0.54477893  0.06230365  1
  O2-  O274  1  0.91739086  0.55122417  0.39689160  1
  O2-  O275  1  0.91791678  0.54971232  0.73005061  1
  O2-  O276  1  0.28529292  0.16439420  0.06818898  1
  O2-  O277  1  0.28908490  0.16362912  0.39723484  1
  O2-  O278  1  0.28864229  0.16591336  0.73514956  1
  O2-  O279  1  0.29692325  0.66716082  0.06390053  1
  O2-  O280  1  0.29117694  0.66330597  0.39310831  1
  O2-  O281  1  0.28525279  0.66388284  0.73974503  1
  O2-  O282  1  0.79238534  0.16857947  0.07050196  1
  O2-  O283  1  0.79482442  0.17102617  0.40056478  1
  O2-  O284  1  0.78944990  0.16490003  0.73785288  1
  O2-  O285  1  0.79553524  0.66527255  0.05977313  1
  O2-  O286  1  0.79918380  0.66743302  0.39551906  1
  O2-  O287  1  0.79727090  0.66741865  0.73109408  1
