# generated using pymatgen
data_Ca2Al2SiO7
_symmetry_space_group_name_H-M   'P 1'
_cell_length_a   15.45822675
_cell_length_b   15.45846815
_cell_length_c   15.28386835
_cell_angle_alpha   89.98965003
_cell_angle_beta   89.99186387
_cell_angle_gamma   90.01026075
_symmetry_Int_Tables_number   1
_chemical_formula_structural   Ca2Al2SiO7
_chemical_formula_sum   'Ca48 Al48 Si24 O168'
_cell_volume   3652.24075663
_cell_formula_units_Z   24
loop_
 _symmetry_equiv_pos_site_id
 _symmetry_equiv_pos_as_xyz
  1  'x, y, z'
loop_
 _atom_type_symbol
 _atom_type_oxidation_number
  Ca2+  2.0
  Al0+  0.0
  Si0+  0.0
  O2-  -2.0
loop_
 _atom_site_type_symbol
 _atom_site_label
 _atom_site_symmetry_multiplicity
 _atom_site_fract_x
 _atom_site_fract_y
 _atom_site_fract_z
 _atom_site_occupancy
  Ca2+  Ca0  1  0.17414745  0.07672873  0.17418121  1
  Ca2+  Ca1  1  0.17325186  0.09239239  0.50288268  1
  Ca2+  Ca2  1  0.17497342  0.08545208  0.83876340  1
  Ca2+  Ca3  1  0.17401788  0.58438438  0.16619584  1
  Ca2+  Ca4  1  0.16736980  0.57948606  0.50368936  1
  Ca2+  Ca5  1  0.17317360  0.57995366  0.84107607  1
  Ca2+  Ca6  1  0.67215039  0.07868038  0.17906225  1
  Ca2+  Ca7  1  0.66771065  0.08007447  0.50796080  1
  Ca2+  Ca8  1  0.66708922  0.08484289  0.82893527  1
  Ca2+  Ca9  1  0.67703779  0.57537070  0.17359092  1
  Ca2+  Ca10  1  0.67414422  0.57775439  0.50498506  1
  Ca2+  Ca11  1  0.67342370  0.58562258  0.83487229  1
  Ca2+  Ca12  1  0.07703190  0.32490651  0.16223939  1
  Ca2+  Ca13  1  0.07530076  0.32044498  0.49938558  1
  Ca2+  Ca14  1  0.07365535  0.32928256  0.82673881  1
  Ca2+  Ca15  1  0.08008980  0.83946533  0.15969344  1
  Ca2+  Ca16  1  0.08275307  0.83447928  0.49323057  1
  Ca2+  Ca17  1  0.07972831  0.83722960  0.83633670  1
  Ca2+  Ca18  1  0.58379696  0.32782474  0.16547521  1
  Ca2+  Ca19  1  0.58794962  0.32104392  0.49500778  1
  Ca2+  Ca20  1  0.57515741  0.32772287  0.82955637  1
  Ca2+  Ca21  1  0.57848589  0.83606711  0.16135725  1
  Ca2+  Ca22  1  0.59508036  0.83292371  0.49893492  1
  Ca2+  Ca23  1  0.57988139  0.83097932  0.82642689  1
  Ca2+  Ca24  1  0.34105097  0.41986954  0.16477623  1
  Ca2+  Ca25  1  0.33088716  0.41418213  0.50248835  1
  Ca2+  Ca26  1  0.33488445  0.41990831  0.84275012  1
  Ca2+  Ca27  1  0.32596530  0.92250146  0.16958871  1
  Ca2+  Ca28  1  0.32847350  0.92920180  0.50141038  1
  Ca2+  Ca29  1  0.32982451  0.92747514  0.84296643  1
  Ca2+  Ca30  1  0.83473835  0.42462575  0.17172076  1
  Ca2+  Ca31  1  0.83461279  0.42262416  0.50379752  1
  Ca2+  Ca32  1  0.84071911  0.42342174  0.83847136  1
  Ca2+  Ca33  1  0.82887910  0.91933420  0.17445268  1
  Ca2+  Ca34  1  0.82443752  0.93107178  0.50186113  1
  Ca2+  Ca35  1  0.82967176  0.92018486  0.83424869  1
  Ca2+  Ca36  1  0.42136905  0.16171594  0.16332662  1
  Ca2+  Ca37  1  0.42544568  0.15551818  0.49671516  1
  Ca2+  Ca38  1  0.41574133  0.16569589  0.82854136  1
  Ca2+  Ca39  1  0.41826270  0.67442531  0.15521269  1
  Ca2+  Ca40  1  0.42736397  0.66946957  0.49646123  1
  Ca2+  Ca41  1  0.41830264  0.67414105  0.82810634  1
  Ca2+  Ca42  1  0.92099590  0.16410360  0.16242440  1
  Ca2+  Ca43  1  0.92200148  0.15779439  0.49452714  1
  Ca2+  Ca44  1  0.91923596  0.17782448  0.82122886  1
  Ca2+  Ca45  1  0.91182271  0.67186692  0.15899173  1
  Ca2+  Ca46  1  0.90983932  0.66548375  0.49744738  1
  Ca2+  Ca47  1  0.90648924  0.67159452  0.83116617  1
  Al0+  Al48  1  0.00000325  -0.00142675  -0.00370419  1
  Al0+  Al49  1  -0.00005468  -0.00281478  0.33358588  1
  Al0+  Al50  1  -0.00045782  -0.00095198  0.66613392  1
  Al0+  Al51  1  0.00142459  0.49999054  0.00205367  1
  Al0+  Al52  1  0.00347033  0.50117444  0.33505674  1
  Al0+  Al53  1  0.00038617  0.50086797  0.66692349  1
  Al0+  Al54  1  0.50095149  -0.00204088  -0.00193717  1
  Al0+  Al55  1  0.49780868  -0.00186786  0.33429319  1
  Al0+  Al56  1  0.49620215  0.00008490  0.67179968  1
  Al0+  Al57  1  0.50210779  0.49701711  0.00044582  1
  Al0+  Al58  1  0.50214744  0.50064880  0.33600654  1
  Al0+  Al59  1  0.50048799  0.50290448  0.66182118  1
  Al0+  Al60  1  0.25252568  0.25026159  0.00119526  1
  Al0+  Al61  1  0.24913455  0.25209059  0.33092568  1
  Al0+  Al62  1  0.24672897  0.25187487  0.66854281  1
  Al0+  Al63  1  0.25019239  0.74982819  0.00168186  1
  Al0+  Al64  1  0.25065866  0.74984498  0.33680362  1
  Al0+  Al65  1  0.24935063  0.75101241  0.66492418  1
  Al0+  Al66  1  0.75087061  0.24963724  -0.00465579  1
  Al0+  Al67  1  0.75041125  0.25235503  0.33345351  1
  Al0+  Al68  1  0.74658831  0.25288731  0.66373544  1
  Al0+  Al69  1  0.75118367  0.74942543  0.00005010  1
  Al0+  Al70  1  0.75065715  0.74905130  0.33720437  1
  Al0+  Al71  1  0.74874873  0.74882059  0.66890545  1
  Al0+  Al72  1  0.31936518  0.07328395  0.34875071  1
  Al0+  Al73  1  0.92792277  0.82079202  0.98562513  1
  Al0+  Al74  1  0.67903191  0.92950541  0.68382400  1
  Al0+  Al75  1  0.82201706  0.07390836  0.68252309  1
  Al0+  Al76  1  0.07030844  0.17747593  0.31734755  1
  Al0+  Al77  1  0.31777123  0.07162762  0.68189132  1
  Al0+  Al78  1  0.82048148  0.56806868  0.68272360  1
  Al0+  Al79  1  0.82100840  0.57050140  0.01399028  1
  Al0+  Al80  1  0.43020364  0.32006762  0.98743517  1
  Al0+  Al81  1  0.17850121  0.92795939  0.34924429  1
  Al0+  Al82  1  0.32337059  0.07268509  0.01677321  1
  Al0+  Al83  1  0.67786773  0.42833183  0.34959157  1
  Al0+  Al84  1  0.32295887  0.57023752  0.01190078  1
  Al0+  Al85  1  0.57097560  0.17755705  0.32030387  1
  Al0+  Al86  1  0.67679684  0.92946490  0.34633468  1
  Al0+  Al87  1  0.82279991  0.57004508  0.34874841  1
  Al0+  Al88  1  0.42822893  0.82051792  0.98611751  1
  Al0+  Al89  1  0.92726051  0.32346175  0.65051976  1
  Al0+  Al90  1  0.57107081  0.68087355  0.65152173  1
  Al0+  Al91  1  0.92942541  0.32144304  0.98722310  1
  Al0+  Al92  1  0.06949663  0.17791915  0.65211539  1
  Al0+  Al93  1  0.56718921  0.17907469  0.65351662  1
  Al0+  Al94  1  0.82171424  0.07245596  0.34479029  1
  Al0+  Al95  1  0.17766983  0.93004938  0.01449041  1
  Si0+  Si96  1  0.42614862  0.82190973  0.64793273  1
  Si0+  Si97  1  0.17685858  0.92449423  0.68457366  1
  Si0+  Si98  1  0.57292761  0.17583787  0.98275562  1
  Si0+  Si99  1  0.67434131  0.42823543  0.68533209  1
  Si0+  Si100  1  0.92974025  0.81751303  0.31907959  1
  Si0+  Si101  1  0.92956968  0.32439585  0.31624436  1
  Si0+  Si102  1  0.07411221  0.67743884  0.31731203  1
  Si0+  Si103  1  0.42614007  0.32397066  0.65014765  1
  Si0+  Si104  1  0.42769503  0.81867304  0.31777724  1
  Si0+  Si105  1  0.42795744  0.32418352  0.31666444  1
  Si0+  Si106  1  0.68026524  0.92839301  0.01407888  1
  Si0+  Si107  1  0.07241424  0.67775229  0.98375806  1
  Si0+  Si108  1  0.92814810  0.81992243  0.65056819  1
  Si0+  Si109  1  0.57214292  0.67757764  0.98473847  1
  Si0+  Si110  1  0.17854744  0.42779902  0.01790549  1
  Si0+  Si111  1  0.82038428  0.07201933  0.01246021  1
  Si0+  Si112  1  0.57198715  0.67877292  0.31665861  1
  Si0+  Si113  1  0.07243628  0.67969856  0.65176032  1
  Si0+  Si114  1  0.17978720  0.42983467  0.34873128  1
  Si0+  Si115  1  0.07192787  0.17785829  0.98384986  1
  Si0+  Si116  1  0.32210352  0.57174708  0.34896757  1
  Si0+  Si117  1  0.18000532  0.43150124  0.68222422  1
  Si0+  Si118  1  0.67880508  0.42521460  0.01614224  1
  Si0+  Si119  1  0.32200138  0.57205039  0.68016355  1
  O2-  O120  1  0.24929556  0.00181433  0.06480384  1
  O2-  O121  1  0.24423975  0.00472582  0.39973948  1
  O2-  O122  1  0.24178057  -0.00285709  0.72689049  1
  O2-  O123  1  0.24957955  0.49524575  0.06130171  1
  O2-  O124  1  0.25311914  0.49910929  0.39123021  1
  O2-  O125  1  0.25347399  0.50023036  0.72405671  1
  O2-  O126  1  0.74988514  0.00087605  0.05538216  1
  O2-  O127  1  0.74236918  0.00814471  0.39439001  1
  O2-  O128  1  0.75007106  0.00233386  0.73454738  1
  O2-  O129  1  0.74914865  0.49306082  0.05942599  1
  O2-  O130  1  0.75272749  0.49734205  0.39943217  1
  O2-  O131  1  0.74758499  0.49197770  0.73003481  1
  O2-  O132  1  -0.00787192  0.24987524  0.27171783  1
  O2-  O133  1  -0.00923038  0.24303548  0.60146544  1
  O2-  O134  1  0.00344628  0.24675126  0.94002737  1
  O2-  O135  1  0.00190556  0.74708587  0.27632809  1
  O2-  O136  1  0.00240768  0.75098138  0.60923801  1
  O2-  O137  1  0.00229987  0.74475977  0.93925961  1
  O2-  O138  1  0.49529026  0.25298925  0.27455472  1
  O2-  O139  1  0.49271286  0.25423064  0.60591194  1
  O2-  O140  1  0.50088807  0.24252438  0.94047680  1
  O2-  O141  1  0.50134113  0.74996219  0.27472877  1
  O2-  O142  1  0.49814549  0.75683158  0.60296332  1
  O2-  O143  1  0.50129249  0.74369482  0.93993364  1
  O2-  O144  1  0.06940922  0.17818816  0.08969118  1
  O2-  O145  1  0.07152284  0.18132380  0.43005178  1
  O2-  O146  1  0.07327832  0.18394136  0.76578182  1
  O2-  O147  1  0.07268565  0.67714293  0.08950745  1
  O2-  O148  1  0.07630077  0.67667673  0.42270432  1
  O2-  O149  1  0.07660435  0.67912376  0.75649227  1
  O2-  O150  1  0.57583685  0.17629762  0.08838949  1
  O2-  O151  1  0.56821963  0.17719546  0.43316026  1
  O2-  O152  1  0.56437787  0.18117520  0.76684008  1
  O2-  O153  1  0.57180137  0.67994519  0.09072953  1
  O2-  O154  1  0.56997231  0.67838242  0.42176254  1
  O2-  O155  1  0.56689242  0.67962627  0.76481544  1
  O2-  O156  1  0.17847281  0.43254521  0.24378032  1
  O2-  O157  1  0.18119650  0.43388209  0.57677775  1
  O2-  O158  1  0.17802628  0.43041255  0.91209501  1
  O2-  O159  1  0.18133489  0.92442331  0.23611487  1
  O2-  O160  1  0.18041428  0.91779743  0.57943515  1
  O2-  O161  1  0.17784110  0.93160696  0.90074053  1
  O2-  O162  1  0.67561151  0.43245495  0.23555704  1
  O2-  O163  1  0.67084769  0.43250872  0.58010648  1
  O2-  O164  1  0.67682200  0.42545839  0.91076384  1
  O2-  O165  1  0.67999368  0.92670221  0.23198320  1
  O2-  O166  1  0.68227104  0.92968921  0.57043351  1
  O2-  O167  1  0.68071437  0.92689769  0.90930538  1
  O2-  O168  1  0.43489237  0.32374076  0.10014834  1
  O2-  O169  1  0.42707717  0.32795995  0.42216119  1
  O2-  O170  1  0.42718246  0.32663653  0.75576294  1
  O2-  O171  1  0.43129115  0.81921555  0.09964617  1
  O2-  O172  1  0.42438464  0.81404894  0.42268418  1
  O2-  O173  1  0.42327807  0.81681403  0.75351930  1
  O2-  O174  1  0.93047663  0.32016098  0.10039709  1
  O2-  O175  1  0.93524205  0.32965390  0.42125617  1
  O2-  O176  1  0.93453644  0.32676982  0.76432706  1
  O2-  O177  1  0.92581802  0.81953711  0.09882180  1
  O2-  O178  1  0.93030878  0.81490922  0.42423065  1
  O2-  O179  1  0.92850184  0.81823724  0.75592669  1
  O2-  O180  1  0.32054605  0.07034857  0.23547342  1
  O2-  O181  1  0.31790705  0.07109779  0.56905852  1
  O2-  O182  1  0.32108326  0.07239231  0.90305452  1
  O2-  O183  1  0.32156811  0.57293207  0.24386113  1
  O2-  O184  1  0.31947760  0.57153012  0.57467664  1
  O2-  O185  1  0.32038795  0.56888911  0.89848665  1
  O2-  O186  1  0.82249087  0.06708547  0.23024270  1
  O2-  O187  1  0.82221206  0.06993029  0.56927362  1
  O2-  O188  1  0.81870094  0.07264323  0.90764985  1
  O2-  O189  1  0.82193958  0.57077331  0.23489534  1
  O2-  O190  1  0.82089392  0.56795635  0.56994037  1
  O2-  O191  1  0.81819430  0.57106322  0.90105461  1
  O2-  O192  1  0.04147758  0.07930655  0.26486072  1
  O2-  O193  1  0.05097470  0.07620304  0.60122703  1
  O2-  O194  1  0.04746880  0.08484414  0.93714955  1
  O2-  O195  1  0.04942700  0.58512178  0.26922994  1
  O2-  O196  1  0.04437601  0.58849544  0.60323908  1
  O2-  O197  1  0.04975747  0.58328821  0.93820874  1
  O2-  O198  1  0.54025182  0.08028387  0.26584788  1
  O2-  O199  1  0.53506118  0.08159598  0.60191130  1
  O2-  O200  1  0.55003162  0.08196819  0.93669733  1
  O2-  O201  1  0.54219809  0.58731317  0.26954109  1
  O2-  O202  1  0.53716984  0.58621602  0.59433157  1
  O2-  O203  1  0.55036210  0.58270242  0.94037399  1
  O2-  O204  1  0.16561269  0.21391844  0.26306353  1
  O2-  O205  1  0.16513490  0.21691444  0.59846325  1
  O2-  O206  1  0.16614525  0.20480019  0.94032044  1
  O2-  O207  1  0.16652460  0.70533014  0.27053514  1
  O2-  O208  1  0.16419902  0.70567668  0.60138071  1
  O2-  O209  1  0.16528479  0.70391062  0.93624179  1
  O2-  O210  1  0.66809253  0.20814617  0.26534865  1
  O2-  O211  1  0.66373747  0.20831056  0.59906144  1
  O2-  O212  1  0.66454243  0.20498186  0.93438335  1
  O2-  O213  1  0.66447731  0.70615129  0.27049838  1
  O2-  O214  1  0.66797057  0.71026976  0.59750908  1
  O2-  O215  1  0.66407645  0.70704489  0.93797778  1
  O2-  O216  1  0.08714373  0.45636135  0.06668366  1
  O2-  O217  1  0.09130406  0.46213948  0.39935468  1
  O2-  O218  1  0.09063617  0.46404466  0.73084643  1
  O2-  O219  1  0.07787148  0.95674658  0.06657518  1
  O2-  O220  1  0.07796088  0.94815544  0.39940922  1
  O2-  O221  1  0.08105846  0.94460450  0.72724879  1
  O2-  O222  1  0.58682761  0.45246588  0.06434976  1
  O2-  O223  1  0.58092141  0.46010542  0.40428276  1
  O2-  O224  1  0.58184327  0.46076551  0.73142390  1
  O2-  O225  1  0.58805489  0.95423145  0.06110741  1
  O2-  O226  1  0.57639167  0.94733478  0.39797475  1
  O2-  O227  1  0.57913628  0.95481060  0.73518335  1
  O2-  O228  1  0.20338305  0.33453405  0.06397555  1
  O2-  O229  1  0.20695117  0.33900559  0.39739364  1
  O2-  O230  1  0.20532259  0.34067624  0.73171353  1
  O2-  O231  1  0.20377758  0.83040647  0.06575833  1
  O2-  O232  1  0.21055066  0.83031355  0.40372123  1
  O2-  O233  1  0.20596082  0.83187213  0.73242444  1
  O2-  O234  1  0.70422468  0.33114327  0.06165969  1
  O2-  O235  1  0.70259318  0.32947416  0.40141367  1
  O2-  O236  1  0.69244212  0.33294156  0.72966659  1
  O2-  O237  1  0.70890670  0.83731861  0.06236082  1
  O2-  O238  1  0.71109325  0.83331291  0.39992679  1
  O2-  O239  1  0.70887767  0.83119289  0.73627336  1
  O2-  O240  1  0.45645134  0.41799574  0.27054015  1
  O2-  O241  1  0.45092903  0.41760529  0.60300158  1
  O2-  O242  1  0.46236903  0.41600901  0.93079178  1
  O2-  O243  1  0.45259546  0.91068619  0.27037950  1
  O2-  O244  1  0.44800511  0.91702127  0.60554735  1
  O2-  O245  1  0.46090379  0.91555534  0.93044905  1
  O2-  O246  1  0.96446277  0.41577085  0.26877762  1
  O2-  O247  1  0.96687433  0.41872219  0.59698937  1
  O2-  O248  1  0.96214213  0.41827278  0.93429337  1
  O2-  O249  1  0.95598546  0.90872231  0.27010788  1
  O2-  O250  1  0.95345371  0.91191098  0.60293499  1
  O2-  O251  1  0.95873156  0.91621233  0.92878147  1
  O2-  O252  1  0.33326189  0.30387884  0.27058213  1
  O2-  O253  1  0.33097321  0.30126320  0.60644772  1
  O2-  O254  1  0.33139344  0.29660152  0.93324840  1
  O2-  O255  1  0.33742501  0.78542943  0.26975211  1
  O2-  O256  1  0.33439839  0.79102010  0.60001954  1
  O2-  O257  1  0.33186429  0.78924968  0.93210651  1
  O2-  O258  1  0.83326035  0.30843547  0.27299803  1
  O2-  O259  1  0.82444560  0.30916322  0.60356817  1
  O2-  O260  1  0.83302994  0.29326452  0.93153968  1
  O2-  O261  1  0.83826588  0.78784384  0.27098464  1
  O2-  O262  1  0.83835019  0.78681577  0.60383019  1
  O2-  O263  1  0.83247274  0.78772548  0.93012372  1
  O2-  O264  1  0.42251360  0.04143141  0.06659903  1
  O2-  O265  1  0.41548967  0.03809844  0.40151485  1
  O2-  O266  1  0.41242642  0.03984431  0.73813668  1
  O2-  O267  1  0.41946915  0.53997687  0.06685698  1
  O2-  O268  1  0.41395871  0.54580968  0.39664378  1
  O2-  O269  1  0.41447044  0.54682667  0.72647693  1
  O2-  O270  1  0.91274201  0.04392648  0.05773715  1
  O2-  O271  1  0.91608787  0.03524846  0.39927646  1
  O2-  O272  1  0.92121344  0.04453879  0.73452609  1
  O2-  O273  1  0.91939323  0.54402613  0.06680051  1
  O2-  O274  1  0.92350340  0.54618727  0.39965754  1
  O2-  O275  1  0.91954252  0.54217537  0.73520620  1
  O2-  O276  1  0.29915107  0.17264812  0.06834457  1
  O2-  O277  1  0.29508946  0.17418457  0.39874187  1
  O2-  O278  1  0.28819894  0.16976244  0.73467126  1
  O2-  O279  1  0.29042151  0.66497062  0.06813470  1
  O2-  O280  1  0.29132971  0.66085818  0.39918204  1
  O2-  O281  1  0.29156632  0.66344612  0.72674524  1
  O2-  O282  1  0.79343846  0.16383813  0.06030038  1
  O2-  O283  1  0.80624590  0.17440890  0.39274927  1
  O2-  O284  1  0.79318856  0.17411371  0.73235943  1
  O2-  O285  1  0.78796865  0.66645059  0.06840504  1
  O2-  O286  1  0.79192042  0.66689366  0.40222605  1
  O2-  O287  1  0.78647024  0.66403626  0.73574153  1
