# generated using pymatgen
data_Ca2Al2SiO7
_symmetry_space_group_name_H-M   'P 1'
_cell_length_a   15.45799023
_cell_length_b   15.45846131
_cell_length_c   15.28328770
_cell_angle_alpha   90.00246326
_cell_angle_beta   89.98132955
_cell_angle_gamma   89.97978637
_symmetry_Int_Tables_number   1
_chemical_formula_structural   Ca2Al2SiO7
_chemical_formula_sum   'Ca48 Al48 Si24 O168'
_cell_volume   3652.04424159
_cell_formula_units_Z   24
loop_
 _symmetry_equiv_pos_site_id
 _symmetry_equiv_pos_as_xyz
  1  'x, y, z'
loop_
 _atom_type_symbol
 _atom_type_oxidation_number
  Ca2+  2.0
  Al0+  0.0
  Si0+  0.0
  O2-  -2.0
loop_
 _atom_site_type_symbol
 _atom_site_label
 _atom_site_symmetry_multiplicity
 _atom_site_fract_x
 _atom_site_fract_y
 _atom_site_fract_z
 _atom_site_occupancy
  Ca2+  Ca0  1  0.17210717  0.08332114  0.17575080  1
  Ca2+  Ca1  1  0.17691879  0.08980493  0.50041724  1
  Ca2+  Ca2  1  0.17223355  0.08370564  0.83493289  1
  Ca2+  Ca3  1  0.17073133  0.58307464  0.16644096  1
  Ca2+  Ca4  1  0.17767790  0.58462417  0.50324462  1
  Ca2+  Ca5  1  0.17531038  0.57944601  0.84330547  1
  Ca2+  Ca6  1  0.67287848  0.08371151  0.17728245  1
  Ca2+  Ca7  1  0.66803888  0.08919602  0.50012226  1
  Ca2+  Ca8  1  0.66531834  0.08477109  0.83469359  1
  Ca2+  Ca9  1  0.65904183  0.57120090  0.16818027  1
  Ca2+  Ca10  1  0.66728395  0.57376307  0.50029074  1
  Ca2+  Ca11  1  0.66783697  0.57757272  0.84448704  1
  Ca2+  Ca12  1  0.07763969  0.33315135  0.16180182  1
  Ca2+  Ca13  1  0.07252177  0.32972588  0.49216978  1
  Ca2+  Ca14  1  0.07289275  0.34676369  0.83314079  1
  Ca2+  Ca15  1  0.07500453  0.82845859  0.16055203  1
  Ca2+  Ca16  1  0.07539011  0.83610993  0.49524033  1
  Ca2+  Ca17  1  0.07740192  0.82759544  0.83447004  1
  Ca2+  Ca18  1  0.58268986  0.33300052  0.16357831  1
  Ca2+  Ca19  1  0.57913290  0.32424918  0.49665671  1
  Ca2+  Ca20  1  0.57180245  0.33612902  0.83084583  1
  Ca2+  Ca21  1  0.57048397  0.82655710  0.16044343  1
  Ca2+  Ca22  1  0.57600011  0.82912126  0.49269119  1
  Ca2+  Ca23  1  0.57960277  0.82510261  0.83713039  1
  Ca2+  Ca24  1  0.33423839  0.42663216  0.16764772  1
  Ca2+  Ca25  1  0.33729413  0.42640527  0.50709729  1
  Ca2+  Ca26  1  0.33352765  0.42196832  0.84451390  1
  Ca2+  Ca27  1  0.33676251  0.91796431  0.17559359  1
  Ca2+  Ca28  1  0.33967065  0.92877217  0.50123492  1
  Ca2+  Ca29  1  0.34080204  0.92534550  0.83728783  1
  Ca2+  Ca30  1  0.82412947  0.40718705  0.17174498  1
  Ca2+  Ca31  1  0.82854951  0.40351638  0.49986883  1
  Ca2+  Ca32  1  0.82778843  0.41025745  0.84282768  1
  Ca2+  Ca33  1  0.83680340  0.91967166  0.17530966  1
  Ca2+  Ca34  1  0.84063407  0.92207531  0.50254532  1
  Ca2+  Ca35  1  0.83747689  0.91546693  0.83835399  1
  Ca2+  Ca36  1  0.42268019  0.16860624  0.16261591  1
  Ca2+  Ca37  1  0.42355523  0.16325344  0.49485950  1
  Ca2+  Ca38  1  0.41835147  0.18046484  0.82438877  1
  Ca2+  Ca39  1  0.41276863  0.67179068  0.15882440  1
  Ca2+  Ca40  1  0.40994599  0.66932024  0.49266639  1
  Ca2+  Ca41  1  0.41757766  0.65966601  0.83418123  1
  Ca2+  Ca42  1  0.91855995  0.17292342  0.16917198  1
  Ca2+  Ca43  1  0.92195418  0.17241140  0.48938109  1
  Ca2+  Ca44  1  0.91897462  0.17931831  0.83012643  1
  Ca2+  Ca45  1  0.91978995  0.67686896  0.15733581  1
  Ca2+  Ca46  1  0.91629524  0.67851792  0.49449288  1
  Ca2+  Ca47  1  0.92212628  0.67235437  0.83071356  1
  Al0+  Al48  1  0.00189085  0.00215880  -0.00312550  1
  Al0+  Al49  1  0.00013341  0.00076140  0.33057741  1
  Al0+  Al50  1  -0.00003989  0.00049090  0.66627704  1
  Al0+  Al51  1  -0.00004517  0.50089569  -0.00306096  1
  Al0+  Al52  1  -0.00153320  0.50122368  0.33122042  1
  Al0+  Al53  1  -0.00044181  0.50306237  0.65937616  1
  Al0+  Al54  1  0.50329124  -0.00140229  -0.00203535  1
  Al0+  Al55  1  0.50077714  -0.00100348  0.32909859  1
  Al0+  Al56  1  0.50157432  -0.00165073  0.66980438  1
  Al0+  Al57  1  0.50106995  0.49905842  0.00192664  1
  Al0+  Al58  1  0.50098564  0.49845026  0.34472125  1
  Al0+  Al59  1  0.50219447  0.49959779  0.66657861  1
  Al0+  Al60  1  0.25102886  0.24978124  0.00102525  1
  Al0+  Al61  1  0.25000041  0.25121408  0.33518854  1
  Al0+  Al62  1  0.24857871  0.25230265  0.66901341  1
  Al0+  Al63  1  0.24824514  0.75422384  -0.00526854  1
  Al0+  Al64  1  0.24857489  0.75053272  0.33486502  1
  Al0+  Al65  1  0.24976585  0.74984928  0.67168178  1
  Al0+  Al66  1  0.75250556  0.24782103  0.00100760  1
  Al0+  Al67  1  0.74838834  0.24742888  0.33555601  1
  Al0+  Al68  1  0.74938756  0.24806349  0.66303499  1
  Al0+  Al69  1  0.74707027  0.75169447  -0.00508577  1
  Al0+  Al70  1  0.74792008  0.74763071  0.32957841  1
  Al0+  Al71  1  0.74967146  0.75018375  0.66283890  1
  Al0+  Al72  1  0.56859124  0.17733402  0.65164239  1
  Al0+  Al73  1  0.32060756  0.57231076  0.01540697  1
  Al0+  Al74  1  0.42973013  0.31946701  0.98962885  1
  Al0+  Al75  1  0.42891993  0.81902729  0.32206743  1
  Al0+  Al76  1  0.82077415  0.06800324  0.34765667  1
  Al0+  Al77  1  0.32195132  0.57021922  0.68264303  1
  Al0+  Al78  1  0.56878451  0.17940778  0.31853229  1
  Al0+  Al79  1  0.92947492  0.31965453  0.98739738  1
  Al0+  Al80  1  0.07140587  0.67815835  0.98429750  1
  Al0+  Al81  1  0.32278878  0.07165212  0.34513389  1
  Al0+  Al82  1  0.07414479  0.17968998  0.31818976  1
  Al0+  Al83  1  0.31876347  0.57056843  0.34732408  1
  Al0+  Al84  1  0.92793674  0.32115708  0.31706957  1
  Al0+  Al85  1  0.42697524  0.82308928  0.98342071  1
  Al0+  Al86  1  0.68058643  0.42808409  0.01324891  1
  Al0+  Al87  1  0.92813923  0.82332465  0.98494126  1
  Al0+  Al88  1  0.56818246  0.67736256  0.98599331  1
  Al0+  Al89  1  0.17654951  0.42760779  0.01600692  1
  Al0+  Al90  1  0.92908886  0.82071780  0.65164257  1
  Al0+  Al91  1  0.92923852  0.32184691  0.65245125  1
  Al0+  Al92  1  0.42696319  0.32345173  0.65110099  1
  Al0+  Al93  1  0.32228683  0.07146870  0.68157205  1
  Al0+  Al94  1  0.68077039  0.42777882  0.34975235  1
  Al0+  Al95  1  0.92795767  0.82064707  0.31959848  1
  Si0+  Si96  1  0.57073022  0.67426672  0.31803739  1
  Si0+  Si97  1  0.17483959  0.42780826  0.35098345  1
  Si0+  Si98  1  0.07237359  0.67860398  0.31705212  1
  Si0+  Si99  1  0.68293283  0.42791233  0.68277029  1
  Si0+  Si100  1  0.67790088  0.92581947  0.34949881  1
  Si0+  Si101  1  0.07416111  0.17840550  0.98204823  1
  Si0+  Si102  1  0.82302778  0.57400859  0.34990109  1
  Si0+  Si103  1  0.17664239  0.92908381  0.68496075  1
  Si0+  Si104  1  0.82114018  0.07035978  0.68290806  1
  Si0+  Si105  1  0.07339993  0.67976125  0.64743693  1
  Si0+  Si106  1  0.32329897  0.07025507  0.01498664  1
  Si0+  Si107  1  0.82148969  0.57445859  0.01470283  1
  Si0+  Si108  1  0.42797215  0.32480176  0.31793820  1
  Si0+  Si109  1  0.82041407  0.57350885  0.68037887  1
  Si0+  Si110  1  0.17806808  0.93175230  0.01505109  1
  Si0+  Si111  1  0.17505070  0.42984494  0.68195881  1
  Si0+  Si112  1  0.07191085  0.17700457  0.65052136  1
  Si0+  Si113  1  0.67884579  0.92818885  0.01634138  1
  Si0+  Si114  1  0.42889241  0.81977573  0.65229733  1
  Si0+  Si115  1  0.82201854  0.06934897  0.01494454  1
  Si0+  Si116  1  0.67973828  0.92637211  0.68290212  1
  Si0+  Si117  1  0.17811689  0.92872989  0.34955126  1
  Si0+  Si118  1  0.57392131  0.17742469  0.98423619  1
  Si0+  Si119  1  0.57183902  0.67850873  0.65026746  1
  O2-  O120  1  0.25311214  -0.00146043  0.05731994  1
  O2-  O121  1  0.24680927  -0.00192657  0.39304711  1
  O2-  O122  1  0.24674173  -0.00291097  0.72883986  1
  O2-  O123  1  0.24777321  0.50089007  0.06557826  1
  O2-  O124  1  0.24507847  0.49526998  0.39526348  1
  O2-  O125  1  0.24869245  0.49299466  0.72643963  1
  O2-  O126  1  0.75287386  -0.00359500  0.05701256  1
  O2-  O127  1  0.74940907  -0.00982630  0.39591525  1
  O2-  O128  1  0.75095613  -0.00191244  0.72481721  1
  O2-  O129  1  0.75536795  0.50358071  0.05945259  1
  O2-  O130  1  0.75836929  0.50148765  0.39508184  1
  O2-  O131  1  0.75540845  0.49797547  0.72435341  1
  O2-  O132  1  0.00413763  0.25326352  0.26789542  1
  O2-  O133  1  0.00553410  0.24838019  0.60762265  1
  O2-  O134  1  0.00892683  0.25092355  0.93869294  1
  O2-  O135  1  -0.00016030  0.74372467  0.27380279  1
  O2-  O136  1  0.00491543  0.74875424  0.60335048  1
  O2-  O137  1  -0.00369214  0.74816116  0.93494793  1
  O2-  O138  1  0.49277980  0.25275532  0.27290486  1
  O2-  O139  1  0.49362349  0.24613295  0.60151735  1
  O2-  O140  1  0.50419695  0.24492032  0.94135879  1
  O2-  O141  1  0.50052151  0.74180417  0.27557057  1
  O2-  O142  1  0.49618649  0.74542832  0.60936707  1
  O2-  O143  1  0.49351317  0.74574659  0.93349908  1
  O2-  O144  1  0.07237301  0.17405766  0.08711759  1
  O2-  O145  1  0.07309255  0.18028413  0.43225204  1
  O2-  O146  1  0.06867710  0.17331787  0.75623480  1
  O2-  O147  1  0.07004521  0.68217473  0.09819220  1
  O2-  O148  1  0.07340853  0.68148214  0.42301907  1
  O2-  O149  1  0.07162404  0.67884498  0.75251298  1
  O2-  O150  1  0.57376599  0.17581301  0.08978761  1
  O2-  O151  1  0.56798818  0.17870259  0.43143980  1
  O2-  O152  1  0.57055864  0.17977972  0.76556752  1
  O2-  O153  1  0.56888497  0.68021096  0.09947076  1
  O2-  O154  1  0.57201901  0.67668851  0.42430899  1
  O2-  O155  1  0.57500268  0.67941673  0.75493881  1
  O2-  O156  1  0.17423932  0.42916359  0.24577713  1
  O2-  O157  1  0.17284922  0.43344272  0.57634224  1
  O2-  O158  1  0.17789919  0.42810178  0.90200736  1
  O2-  O159  1  0.17952722  0.92758602  0.24385060  1
  O2-  O160  1  0.17545409  0.92921405  0.57940621  1
  O2-  O161  1  0.17481414  0.93644829  0.90990927  1
  O2-  O162  1  0.67906932  0.42963646  0.23664225  1
  O2-  O163  1  0.68351291  0.42887447  0.57774051  1
  O2-  O164  1  0.68256844  0.42751756  0.89957507  1
  O2-  O165  1  0.67833621  0.92785595  0.24383168  1
  O2-  O166  1  0.67907430  0.92396721  0.57803541  1
  O2-  O167  1  0.67717586  0.93016884  0.91086948  1
  O2-  O168  1  0.43079458  0.31697477  0.10270172  1
  O2-  O169  1  0.43080653  0.32536748  0.42357196  1
  O2-  O170  1  0.43073501  0.32474971  0.76491145  1
  O2-  O171  1  0.43075408  0.82673544  0.09689641  1
  O2-  O172  1  0.43113232  0.81905455  0.43591422  1
  O2-  O173  1  0.43212040  0.82139019  0.75695720  1
  O2-  O174  1  0.92520318  0.31423109  0.09949705  1
  O2-  O175  1  0.92959440  0.31758047  0.43103792  1
  O2-  O176  1  0.92804971  0.32057523  0.76581508  1
  O2-  O177  1  0.93041704  0.82462625  0.09846192  1
  O2-  O178  1  0.93019521  0.82011621  0.43308080  1
  O2-  O179  1  0.92890241  0.81837022  0.76426598  1
  O2-  O180  1  0.32330656  0.06809475  0.23186490  1
  O2-  O181  1  0.32308162  0.06752184  0.56851224  1
  O2-  O182  1  0.32228132  0.06974774  0.90963179  1
  O2-  O183  1  0.31870995  0.57234106  0.23486075  1
  O2-  O184  1  0.31936238  0.57282546  0.56917061  1
  O2-  O185  1  0.32085300  0.56781426  0.90168278  1
  O2-  O186  1  0.81899809  0.06707454  0.23422097  1
  O2-  O187  1  0.82208928  0.06936118  0.57814198  1
  O2-  O188  1  0.82028316  0.07026874  0.90932205  1
  O2-  O189  1  0.82118362  0.57821557  0.24478718  1
  O2-  O190  1  0.81586849  0.57704109  0.57551865  1
  O2-  O191  1  0.81889769  0.57421017  0.90840042  1
  O2-  O192  1  0.04452804  0.08187078  0.26504048  1
  O2-  O193  1  0.04387590  0.08493229  0.60305948  1
  O2-  O194  1  0.04343087  0.08775332  0.93244922  1
  O2-  O195  1  0.05126735  0.58399261  0.27233928  1
  O2-  O196  1  0.04705496  0.58803415  0.59803887  1
  O2-  O197  1  0.04565507  0.58024989  0.92930810  1
  O2-  O198  1  0.54061268  0.08287289  0.26306002  1
  O2-  O199  1  0.54503351  0.07641419  0.60090788  1
  O2-  O200  1  0.55010179  0.08372408  0.93790179  1
  O2-  O201  1  0.54538860  0.57958499  0.27582483  1
  O2-  O202  1  0.54875867  0.58554477  0.60354807  1
  O2-  O203  1  0.54499185  0.57850323  0.93186265  1
  O2-  O204  1  0.17375405  0.20454443  0.26556808  1
  O2-  O205  1  0.16678471  0.19978973  0.60672219  1
  O2-  O206  1  0.16908341  0.19894128  0.93703406  1
  O2-  O207  1  0.16352367  0.70900466  0.26969230  1
  O2-  O208  1  0.16732410  0.70751238  0.60260531  1
  O2-  O209  1  0.16646692  0.71169372  0.92815747  1
  O2-  O210  1  0.66520072  0.21024209  0.26558361  1
  O2-  O211  1  0.66646568  0.20747419  0.59884044  1
  O2-  O212  1  0.66739032  0.20248376  0.93819872  1
  O2-  O213  1  0.66332177  0.69885415  0.27027582  1
  O2-  O214  1  0.66065759  0.71140247  0.60007586  1
  O2-  O215  1  0.66447891  0.71000257  0.92953765  1
  O2-  O216  1  0.07669878  0.45498538  0.06733610  1
  O2-  O217  1  0.08109150  0.45491509  0.39741896  1
  O2-  O218  1  0.08236219  0.46223495  0.72789892  1
  O2-  O219  1  0.08779420  0.96361331  0.06410731  1
  O2-  O220  1  0.08479568  0.95473910  0.39577096  1
  O2-  O221  1  0.08376338  0.95723199  0.73245253  1
  O2-  O222  1  0.58524175  0.45848011  0.06913283  1
  O2-  O223  1  0.58719558  0.46072602  0.40906941  1
  O2-  O224  1  0.59144762  0.45855880  0.72883995  1
  O2-  O225  1  0.58838925  0.95883538  0.06546841  1
  O2-  O226  1  0.58582006  0.95554246  0.39633554  1
  O2-  O227  1  0.58909073  0.95395817  0.73287705  1
  O2-  O228  1  0.20466538  0.32820452  0.06785838  1
  O2-  O229  1  0.19831965  0.33395787  0.39743702  1
  O2-  O230  1  0.19056677  0.33376111  0.72660718  1
  O2-  O231  1  0.20014575  0.83844974  0.06106217  1
  O2-  O232  1  0.20288872  0.83602336  0.39809116  1
  O2-  O233  1  0.20102975  0.83532186  0.73094989  1
  O2-  O234  1  0.71256450  0.33112490  0.06669179  1
  O2-  O235  1  0.71128768  0.33176865  0.40467014  1
  O2-  O236  1  0.70999396  0.33546708  0.72919031  1
  O2-  O237  1  0.70235275  0.83512303  0.06296024  1
  O2-  O238  1  0.69800691  0.82977968  0.39371337  1
  O2-  O239  1  0.70966292  0.83508447  0.73085696  1
  O2-  O240  1  0.45983264  0.41732070  0.27366687  1
  O2-  O241  1  0.46262615  0.41963810  0.59741974  1
  O2-  O242  1  0.46208729  0.41467740  0.93506055  1
  O2-  O243  1  0.46247912  0.91286309  0.26551320  1
  O2-  O244  1  0.46147617  0.91004857  0.60497157  1
  O2-  O245  1  0.46556743  0.91836732  0.92856001  1
  O2-  O246  1  0.94884218  0.42273913  0.26764947  1
  O2-  O247  1  0.95492403  0.41954110  0.59776366  1
  O2-  O248  1  0.95260392  0.41799474  0.93341716  1
  O2-  O249  1  0.95980289  0.91611373  0.26569505  1
  O2-  O250  1  0.95910041  0.91859137  0.59991998  1
  O2-  O251  1  0.96111844  0.92036880  0.93088760  1
  O2-  O252  1  0.33229238  0.30517032  0.27539249  1
  O2-  O253  1  0.32479750  0.30350858  0.60299492  1
  O2-  O254  1  0.33383095  0.28877692  0.93391817  1
  O2-  O255  1  0.33098126  0.79237675  0.26943186  1
  O2-  O256  1  0.33487288  0.79611186  0.60768395  1
  O2-  O257  1  0.32645803  0.80760810  0.93171373  1
  O2-  O258  1  0.83077529  0.28652216  0.26696438  1
  O2-  O259  1  0.83417235  0.28695835  0.59926960  1
  O2-  O260  1  0.83554557  0.28189978  0.93087767  1
  O2-  O261  1  0.82994084  0.79288706  0.26674641  1
  O2-  O262  1  0.83294692  0.78909717  0.59706119  1
  O2-  O263  1  0.82829475  0.80024436  0.93322431  1
  O2-  O264  1  0.41653715  0.04258663  0.05994359  1
  O2-  O265  1  0.41814393  0.03565077  0.39935733  1
  O2-  O266  1  0.41792689  0.03753048  0.73659788  1
  O2-  O267  1  0.41890916  0.54308727  0.06784940  1
  O2-  O268  1  0.41494017  0.54242349  0.40430372  1
  O2-  O269  1  0.42128666  0.54263391  0.73301467  1
  O2-  O270  1  0.91508719  0.04366865  0.06060067  1
  O2-  O271  1  0.91839823  0.03920510  0.40160584  1
  O2-  O272  1  0.91311170  0.04331199  0.73104020  1
  O2-  O273  1  0.91637516  0.55327114  0.05832542  1
  O2-  O274  1  0.91844649  0.55463498  0.39557674  1
  O2-  O275  1  0.91570156  0.55172810  0.72310776  1
  O2-  O276  1  0.29585818  0.16142647  0.06270599  1
  O2-  O277  1  0.29521678  0.16890972  0.40027458  1
  O2-  O278  1  0.29207912  0.16901971  0.73505560  1
  O2-  O279  1  0.29339406  0.67431555  0.06209754  1
  O2-  O280  1  0.28602452  0.66696778  0.40272085  1
  O2-  O281  1  0.29157295  0.66738330  0.73612473  1
  O2-  O282  1  0.79181423  0.15913458  0.06424653  1
  O2-  O283  1  0.78657900  0.16237817  0.40320078  1
  O2-  O284  1  0.79039378  0.16147061  0.73085936  1
  O2-  O285  1  0.79381661  0.66838395  0.05962673  1
  O2-  O286  1  0.79155499  0.66582034  0.39867787  1
  O2-  O287  1  0.78795239  0.66340481  0.72930673  1
