# generated using pymatgen
data_Ca2Al2SiO7
_symmetry_space_group_name_H-M   'P 1'
_cell_length_a   15.45830116
_cell_length_b   15.45712832
_cell_length_c   15.28322254
_cell_angle_alpha   89.99989443
_cell_angle_beta   89.98994472
_cell_angle_gamma   89.99881471
_symmetry_Int_Tables_number   1
_chemical_formula_structural   Ca2Al2SiO7
_chemical_formula_sum   'Ca48 Al48 Si24 O168'
_cell_volume   3651.78757294
_cell_formula_units_Z   24
loop_
 _symmetry_equiv_pos_site_id
 _symmetry_equiv_pos_as_xyz
  1  'x, y, z'
loop_
 _atom_type_symbol
 _atom_type_oxidation_number
  Ca2+  2.0
  Al0+  0.0
  Si0+  0.0
  O2-  -2.0
loop_
 _atom_site_type_symbol
 _atom_site_label
 _atom_site_symmetry_multiplicity
 _atom_site_fract_x
 _atom_site_fract_y
 _atom_site_fract_z
 _atom_site_occupancy
  Ca2+  Ca0  1  0.17103388  0.06984218  0.17403348  1
  Ca2+  Ca1  1  0.17494207  0.07685001  0.50837617  1
  Ca2+  Ca2  1  0.16213470  0.07120274  0.83399636  1
  Ca2+  Ca3  1  0.16818891  0.57732347  0.16906392  1
  Ca2+  Ca4  1  0.17053739  0.58542150  0.50156829  1
  Ca2+  Ca5  1  0.15818189  0.57916234  0.84005044  1
  Ca2+  Ca6  1  0.66705757  0.08409826  0.16718960  1
  Ca2+  Ca7  1  0.66953439  0.07659824  0.50378425  1
  Ca2+  Ca8  1  0.67876773  0.08756967  0.83844034  1
  Ca2+  Ca9  1  0.68031462  0.58605179  0.17338610  1
  Ca2+  Ca10  1  0.66945722  0.58380778  0.50337355  1
  Ca2+  Ca11  1  0.67239074  0.58545533  0.83782449  1
  Ca2+  Ca12  1  0.08121924  0.33474936  0.16368730  1
  Ca2+  Ca13  1  0.07524702  0.32514481  0.49894693  1
  Ca2+  Ca14  1  0.07886519  0.32712137  0.82442359  1
  Ca2+  Ca15  1  0.09100419  0.82776764  0.16073120  1
  Ca2+  Ca16  1  0.08512821  0.83689388  0.50100214  1
  Ca2+  Ca17  1  0.08581815  0.82576305  0.82491349  1
  Ca2+  Ca18  1  0.56997296  0.32829279  0.15990193  1
  Ca2+  Ca19  1  0.57754769  0.32755805  0.49248059  1
  Ca2+  Ca20  1  0.57960452  0.32860212  0.83460435  1
  Ca2+  Ca21  1  0.57790492  0.84001236  0.16887024  1
  Ca2+  Ca22  1  0.57339561  0.83693085  0.49532935  1
  Ca2+  Ca23  1  0.57706090  0.82726442  0.82334051  1
  Ca2+  Ca24  1  0.33171585  0.41602255  0.17228043  1
  Ca2+  Ca25  1  0.34136448  0.42360384  0.50164888  1
  Ca2+  Ca26  1  0.32488515  0.41781495  0.84201043  1
  Ca2+  Ca27  1  0.32492341  0.91879680  0.17812708  1
  Ca2+  Ca28  1  0.32867132  0.92079637  0.50569779  1
  Ca2+  Ca29  1  0.32500502  0.91554263  0.83177342  1
  Ca2+  Ca30  1  0.83829147  0.42838892  0.17307984  1
  Ca2+  Ca31  1  0.84250747  0.41844396  0.50167970  1
  Ca2+  Ca32  1  0.83617314  0.42181930  0.83895875  1
  Ca2+  Ca33  1  0.82606319  0.92448715  0.17208946  1
  Ca2+  Ca34  1  0.82813620  0.91628208  0.50806614  1
  Ca2+  Ca35  1  0.84593600  0.92845636  0.83312255  1
  Ca2+  Ca36  1  0.41572618  0.17265066  0.16124954  1
  Ca2+  Ca37  1  0.40881622  0.16753987  0.49176618  1
  Ca2+  Ca38  1  0.41634156  0.16748702  0.83163366  1
  Ca2+  Ca39  1  0.40859080  0.67214579  0.16766746  1
  Ca2+  Ca40  1  0.41632788  0.67881100  0.49589885  1
  Ca2+  Ca41  1  0.42279019  0.67424081  0.82244368  1
  Ca2+  Ca42  1  0.91326423  0.17193736  0.16259298  1
  Ca2+  Ca43  1  0.91762778  0.17068988  0.49964547  1
  Ca2+  Ca44  1  0.92063297  0.16748918  0.82058803  1
  Ca2+  Ca45  1  0.91975123  0.66607053  0.15961873  1
  Ca2+  Ca46  1  0.92212123  0.67038641  0.49904520  1
  Ca2+  Ca47  1  0.92634678  0.67089334  0.82652432  1
  Al0+  Al48  1  -0.00102164  0.00069971  0.01192141  1
  Al0+  Al49  1  -0.00086031  -0.00067156  0.33485268  1
  Al0+  Al50  1  0.00111472  -0.00062630  0.66531268  1
  Al0+  Al51  1  0.00115786  0.50082634  0.00487854  1
  Al0+  Al52  1  0.00042904  0.50011001  0.33434161  1
  Al0+  Al53  1  0.00031759  0.50073501  0.65995299  1
  Al0+  Al54  1  0.50086041  0.00129721  -0.00640409  1
  Al0+  Al55  1  0.50091883  -0.00089780  0.33494711  1
  Al0+  Al56  1  0.50035088  0.00087064  0.66909569  1
  Al0+  Al57  1  0.49949019  0.50109852  -0.00399376  1
  Al0+  Al58  1  0.50201346  0.49938463  0.33205336  1
  Al0+  Al59  1  0.50198313  0.49877671  0.66615516  1
  Al0+  Al60  1  0.24741431  0.25030902  0.00013573  1
  Al0+  Al61  1  0.24720444  0.24909640  0.33076735  1
  Al0+  Al62  1  0.24994785  0.25127583  0.66633117  1
  Al0+  Al63  1  0.24910421  0.74858986  -0.00234209  1
  Al0+  Al64  1  0.25001431  0.74722481  0.33584042  1
  Al0+  Al65  1  0.25279848  0.74930461  0.66320924  1
  Al0+  Al66  1  0.74781257  0.25165071  0.00187189  1
  Al0+  Al67  1  0.75053836  0.25220682  0.32702724  1
  Al0+  Al68  1  0.74724277  0.25171709  0.66651171  1
  Al0+  Al69  1  0.74973891  0.75267394  0.00358643  1
  Al0+  Al70  1  0.75148479  0.75027514  0.34138690  1
  Al0+  Al71  1  0.75103430  0.74710317  0.66247972  1
  Al0+  Al72  1  0.06941989  0.67973020  0.98798597  1
  Al0+  Al73  1  0.07272718  0.17763844  0.65239134  1
  Al0+  Al74  1  0.07284713  0.67797175  0.64960859  1
  Al0+  Al75  1  0.32270006  0.07423753  0.68435043  1
  Al0+  Al76  1  0.82058692  0.07282664  0.01437097  1
  Al0+  Al77  1  0.93036812  0.32083227  0.31667065  1
  Al0+  Al78  1  0.17922261  0.42802255  0.01308824  1
  Al0+  Al79  1  0.42772850  0.32164655  0.32010297  1
  Al0+  Al80  1  0.57132345  0.17888636  0.98268134  1
  Al0+  Al81  1  0.67982133  0.93029330  0.34758414  1
  Al0+  Al82  1  0.18054374  0.92753715  0.01426403  1
  Al0+  Al83  1  0.32236006  0.56819336  0.34676639  1
  Al0+  Al84  1  0.43080705  0.82264010  0.65065365  1
  Al0+  Al85  1  0.17984054  0.92764700  0.68289991  1
  Al0+  Al86  1  0.57211117  0.67612852  0.65093509  1
  Al0+  Al87  1  0.82268971  0.57034481  0.35027373  1
  Al0+  Al88  1  0.93014875  0.82208571  0.65223733  1
  Al0+  Al89  1  0.81990330  0.57100348  0.01216531  1
  Al0+  Al90  1  0.32034462  0.07160321  0.34581050  1
  Al0+  Al91  1  0.92639584  0.32064013  0.65315218  1
  Al0+  Al92  1  0.42915486  0.81989079  0.31837932  1
  Al0+  Al93  1  0.17783861  0.92632137  0.35003585  1
  Al0+  Al94  1  0.42566672  0.32203096  0.98301950  1
  Al0+  Al95  1  0.81923479  0.07074377  0.67796479  1
  Si0+  Si96  1  0.32279588  0.07109190  0.01567347  1
  Si0+  Si97  1  0.32320306  0.56946056  0.68158875  1
  Si0+  Si98  1  0.17750260  0.42737418  0.35162781  1
  Si0+  Si99  1  0.57399458  0.67877620  0.31572114  1
  Si0+  Si100  1  0.82227370  0.56981947  0.68216422  1
  Si0+  Si101  1  0.92656136  0.82379539  0.98679084  1
  Si0+  Si102  1  0.67547555  0.92842543  0.01566924  1
  Si0+  Si103  1  0.57375470  0.68017473  0.98711264  1
  Si0+  Si104  1  0.67931698  0.42827238  0.34948265  1
  Si0+  Si105  1  0.92993399  0.32179909  0.98694166  1
  Si0+  Si106  1  0.17859579  0.43132341  0.68015409  1
  Si0+  Si107  1  0.57215116  0.17737096  0.31681621  1
  Si0+  Si108  1  0.07065448  0.17593502  0.31365541  1
  Si0+  Si109  1  0.42821586  0.82029810  0.98541079  1
  Si0+  Si110  1  0.57131554  0.18006161  0.65163462  1
  Si0+  Si111  1  0.07016861  0.68012522  0.31661779  1
  Si0+  Si112  1  0.32360732  0.57156615  0.01469836  1
  Si0+  Si113  1  0.67739334  0.42905738  0.68344127  1
  Si0+  Si114  1  0.67869692  0.92577498  0.68413365  1
  Si0+  Si115  1  0.42874676  0.32017870  0.65218559  1
  Si0+  Si116  1  0.67570429  0.42913293  0.01791488  1
  Si0+  Si117  1  0.92665989  0.82158129  0.31727097  1
  Si0+  Si118  1  0.06841804  0.17684717  0.98688829  1
  Si0+  Si119  1  0.82107991  0.07503079  0.34998615  1
  O2-  O120  1  0.25682078  0.00059430  0.06069402  1
  O2-  O121  1  0.24968759  -0.00038821  0.39711147  1
  O2-  O122  1  0.25041800  0.00164508  0.73335359  1
  O2-  O123  1  0.25843260  0.49912240  0.05800257  1
  O2-  O124  1  0.25151580  0.49045471  0.39545938  1
  O2-  O125  1  0.24842798  0.50286269  0.72423940  1
  O2-  O126  1  0.74393016  -0.00150678  0.05832055  1
  O2-  O127  1  0.75427127  0.00514271  0.39409738  1
  O2-  O128  1  0.74901798  -0.00715476  0.72833809  1
  O2-  O129  1  0.74408869  0.49842359  0.06135408  1
  O2-  O130  1  0.74845899  0.49473182  0.39629706  1
  O2-  O131  1  0.75010313  0.49949441  0.72423896  1
  O2-  O132  1  0.00197345  0.24453382  0.26814288  1
  O2-  O133  1  -0.00377612  0.24634051  0.60389255  1
  O2-  O134  1  -0.00347234  0.24734618  0.94407188  1
  O2-  O135  1  0.00045073  0.75322226  0.27484078  1
  O2-  O136  1  0.00360285  0.75264022  0.59993455  1
  O2-  O137  1  -0.00440141  0.75564949  0.94267967  1
  O2-  O138  1  0.49980562  0.24373041  0.27469111  1
  O2-  O139  1  0.49447635  0.24464041  0.60967926  1
  O2-  O140  1  0.49720018  0.24940950  0.93289330  1
  O2-  O141  1  0.50380626  0.74504534  0.26948152  1
  O2-  O142  1  0.50431768  0.75134089  0.60122794  1
  O2-  O143  1  0.50119686  0.74967524  0.94531766  1
  O2-  O144  1  0.06714250  0.17773730  0.09194302  1
  O2-  O145  1  0.07023890  0.17712745  0.41887197  1
  O2-  O146  1  0.07120853  0.18091368  0.76693394  1
  O2-  O147  1  0.06930621  0.67944784  0.10130743  1
  O2-  O148  1  0.06901962  0.67852479  0.42140231  1
  O2-  O149  1  0.06820919  0.67345764  0.76347164  1
  O2-  O150  1  0.57007362  0.17968255  0.09644735  1
  O2-  O151  1  0.57571000  0.18010294  0.42263158  1
  O2-  O152  1  0.57503279  0.18477137  0.75627691  1
  O2-  O153  1  0.57577445  0.68033162  0.09191984  1
  O2-  O154  1  0.57298741  0.67949055  0.42085460  1
  O2-  O155  1  0.56975787  0.67573744  0.76571085  1
  O2-  O156  1  0.17597508  0.43071549  0.24569131  1
  O2-  O157  1  0.18070969  0.43138875  0.57519696  1
  O2-  O158  1  0.17642054  0.43038410  0.89967557  1
  O2-  O159  1  0.17991214  0.92625962  0.23565589  1
  O2-  O160  1  0.18243679  0.92852929  0.56986040  1
  O2-  O161  1  0.17971767  0.92664003  0.90177792  1
  O2-  O162  1  0.67984191  0.43091487  0.24393635  1
  O2-  O163  1  0.67367357  0.42837341  0.57865590  1
  O2-  O164  1  0.67676550  0.42992323  0.91193345  1
  O2-  O165  1  0.68155959  0.93101317  0.23393488  1
  O2-  O166  1  0.67837451  0.92907778  0.57848308  1
  O2-  O167  1  0.67497120  0.92477606  0.91056054  1
  O2-  O168  1  0.42732835  0.32149192  0.09670673  1
  O2-  O169  1  0.43232144  0.32247538  0.43360666  1
  O2-  O170  1  0.43077587  0.32332143  0.75692193  1
  O2-  O171  1  0.42781900  0.81978787  0.09062972  1
  O2-  O172  1  0.43075548  0.81979098  0.43054578  1
  O2-  O173  1  0.43155952  0.81855790  0.76540051  1
  O2-  O174  1  0.93268236  0.32200305  0.09202954  1
  O2-  O175  1  0.93161396  0.31921795  0.42941487  1
  O2-  O176  1  0.92831944  0.32269196  0.76749682  1
  O2-  O177  1  0.92473913  0.82137178  0.09267784  1
  O2-  O178  1  0.92529688  0.82015409  0.42192675  1
  O2-  O179  1  0.92916774  0.81888218  0.76645699  1
  O2-  O180  1  0.31925380  0.07039998  0.23165548  1
  O2-  O181  1  0.32198425  0.07618078  0.57104326  1
  O2-  O182  1  0.32126807  0.07004098  0.91040990  1
  O2-  O183  1  0.31857072  0.56873585  0.23328434  1
  O2-  O184  1  0.32569111  0.56518453  0.57662944  1
  O2-  O185  1  0.32360706  0.57245137  0.90894801  1
  O2-  O186  1  0.81887377  0.07456226  0.24399293  1
  O2-  O187  1  0.81325738  0.07316467  0.56512639  1
  O2-  O188  1  0.82294136  0.07228932  0.90134869  1
  O2-  O189  1  0.82206267  0.57067049  0.23662648  1
  O2-  O190  1  0.82240204  0.56762500  0.57728390  1
  O2-  O191  1  0.81883975  0.56912121  0.89890705  1
  O2-  O192  1  0.04418122  0.08190006  0.26773722  1
  O2-  O193  1  0.04806355  0.07957620  0.59957076  1
  O2-  O194  1  0.03924207  0.08434610  0.94173209  1
  O2-  O195  1  0.04009991  0.58845053  0.26996180  1
  O2-  O196  1  0.04108357  0.58212049  0.59360731  1
  O2-  O197  1  0.03632090  0.58324503  0.93458496  1
  O2-  O198  1  0.55032145  0.08311912  0.27128788  1
  O2-  O199  1  0.55101272  0.08557923  0.60736177  1
  O2-  O200  1  0.54806979  0.07991798  0.92789917  1
  O2-  O201  1  0.55225203  0.58391759  0.27052851  1
  O2-  O202  1  0.54183854  0.57822811  0.59788551  1
  O2-  O203  1  0.54926592  0.58800957  0.93857569  1
  O2-  O204  1  0.16337723  0.20235669  0.26591331  1
  O2-  O205  1  0.16846200  0.21301315  0.59797134  1
  O2-  O206  1  0.15998358  0.20399452  0.93975234  1
  O2-  O207  1  0.16250630  0.70547660  0.26919270  1
  O2-  O208  1  0.17302786  0.70032114  0.59931332  1
  O2-  O209  1  0.16651776  0.70659188  0.93249003  1
  O2-  O210  1  0.66358545  0.20663543  0.26769825  1
  O2-  O211  1  0.65880412  0.21476417  0.60044716  1
  O2-  O212  1  0.66943063  0.21212338  0.93003607  1
  O2-  O213  1  0.66792643  0.70826377  0.27152129  1
  O2-  O214  1  0.67220240  0.69681346  0.59999409  1
  O2-  O215  1  0.66453516  0.70984536  0.93770044  1
  O2-  O216  1  0.08602401  0.46321129  0.07114115  1
  O2-  O217  1  0.08700790  0.45996398  0.39893182  1
  O2-  O218  1  0.08606127  0.45900473  0.72692735  1
  O2-  O219  1  0.08530787  0.95795731  0.07130768  1
  O2-  O220  1  0.07755467  0.95289950  0.39953341  1
  O2-  O221  1  0.08013269  0.95374156  0.73496328  1
  O2-  O222  1  0.58137700  0.45503394  0.06236515  1
  O2-  O223  1  0.58648041  0.45393739  0.39708218  1
  O2-  O224  1  0.58711023  0.45865922  0.73403587  1
  O2-  O225  1  0.58177717  0.95512511  0.06192160  1
  O2-  O226  1  0.58440216  0.96090559  0.40299276  1
  O2-  O227  1  0.58597911  0.95265073  0.73083188  1
  O2-  O228  1  0.20482423  0.33069674  0.06885920  1
  O2-  O229  1  0.19595154  0.33126198  0.39378313  1
  O2-  O230  1  0.20698464  0.34028882  0.72849323  1
  O2-  O231  1  0.21167199  0.83008682  0.06694829  1
  O2-  O232  1  0.20529525  0.82778263  0.40073726  1
  O2-  O233  1  0.21107977  0.82805605  0.73427440  1
  O2-  O234  1  0.70031720  0.33608741  0.06446105  1
  O2-  O235  1  0.70354777  0.33338497  0.39378275  1
  O2-  O236  1  0.70490171  0.33815813  0.73265728  1
  O2-  O237  1  0.70141931  0.83646059  0.06546709  1
  O2-  O238  1  0.71033631  0.83520427  0.40352869  1
  O2-  O239  1  0.70146956  0.82985496  0.72706031  1
  O2-  O240  1  0.46191907  0.41689670  0.26451317  1
  O2-  O241  1  0.46320718  0.40964270  0.60420799  1
  O2-  O242  1  0.45474422  0.42113411  0.93005212  1
  O2-  O243  1  0.46215691  0.91635065  0.26427812  1
  O2-  O244  1  0.45868147  0.92202182  0.59982356  1
  O2-  O245  1  0.45448362  0.91176777  0.93751382  1
  O2-  O246  1  0.96408050  0.41777000  0.26407470  1
  O2-  O247  1  0.95871005  0.41637483  0.59822829  1
  O2-  O248  1  0.96149635  0.41234551  0.93979756  1
  O2-  O249  1  0.94932591  0.91570604  0.27115683  1
  O2-  O250  1  0.95253428  0.92084416  0.59828894  1
  O2-  O251  1  0.95327395  0.91871990  0.94472540  1
  O2-  O252  1  0.32919220  0.29575021  0.26712812  1
  O2-  O253  1  0.33582656  0.29977117  0.60451004  1
  O2-  O254  1  0.32610289  0.29493673  0.93132633  1
  O2-  O255  1  0.33284265  0.78509816  0.26482139  1
  O2-  O256  1  0.33470109  0.79082930  0.59712551  1
  O2-  O257  1  0.33858782  0.78899507  0.93628132  1
  O2-  O258  1  0.83271863  0.29458688  0.26131436  1
  O2-  O259  1  0.82693986  0.29632718  0.60026715  1
  O2-  O260  1  0.83508038  0.30086157  0.94329466  1
  O2-  O261  1  0.83564284  0.79012656  0.27002012  1
  O2-  O262  1  0.83249335  0.79124413  0.59880320  1
  O2-  O263  1  0.83265473  0.80012831  0.94042886  1
  O2-  O264  1  0.41855580  0.04846710  0.05851829  1
  O2-  O265  1  0.42011238  0.04772304  0.39693514  1
  O2-  O266  1  0.42223676  0.04680969  0.73683182  1
  O2-  O267  1  0.41881248  0.55166229  0.06029875  1
  O2-  O268  1  0.42035404  0.54036180  0.39982211  1
  O2-  O269  1  0.41354220  0.53731968  0.73036146  1
  O2-  O270  1  0.91372712  0.04207863  0.07495518  1
  O2-  O271  1  0.91551849  0.05127027  0.39353284  1
  O2-  O272  1  0.91714379  0.04387364  0.73152903  1
  O2-  O273  1  0.91426537  0.53785980  0.06863684  1
  O2-  O274  1  0.91859422  0.53755906  0.40361482  1
  O2-  O275  1  0.91405468  0.53982106  0.72878792  1
  O2-  O276  1  0.29534077  0.16469717  0.06038798  1
  O2-  O277  1  0.29188705  0.17077769  0.39796438  1
  O2-  O278  1  0.29573054  0.17451625  0.73560651  1
  O2-  O279  1  0.29330042  0.66329402  0.06168203  1
  O2-  O280  1  0.28815232  0.66232408  0.40212093  1
  O2-  O281  1  0.30086981  0.66288835  0.72711465  1
  O2-  O282  1  0.78937056  0.16960522  0.06865711  1
  O2-  O283  1  0.79421372  0.16921673  0.39359091  1
  O2-  O284  1  0.78510521  0.16706789  0.73231701  1
  O2-  O285  1  0.79065276  0.66819590  0.06695225  1
  O2-  O286  1  0.79197709  0.66560555  0.40513030  1
  O2-  O287  1  0.79524370  0.66178192  0.72983806  1
