# generated using pymatgen
data_Ca2Al2SiO7
_symmetry_space_group_name_H-M   'P 1'
_cell_length_a   15.45935048
_cell_length_b   15.46013442
_cell_length_c   15.28532266
_cell_angle_alpha   90.01102827
_cell_angle_beta   90.00761463
_cell_angle_gamma   90.00802928
_symmetry_Int_Tables_number   1
_chemical_formula_structural   Ca2Al2SiO7
_chemical_formula_sum   'Ca48 Al48 Si24 O168'
_cell_volume   3653.24756655
_cell_formula_units_Z   24
loop_
 _symmetry_equiv_pos_site_id
 _symmetry_equiv_pos_as_xyz
  1  'x, y, z'
loop_
 _atom_type_symbol
 _atom_type_oxidation_number
  Ca2+  2.0
  Al0+  0.0
  Si0+  0.0
  O2-  -2.0
loop_
 _atom_site_type_symbol
 _atom_site_label
 _atom_site_symmetry_multiplicity
 _atom_site_fract_x
 _atom_site_fract_y
 _atom_site_fract_z
 _atom_site_occupancy
  Ca2+  Ca0  1  0.16858745  0.08276889  0.16727347  1
  Ca2+  Ca1  1  0.15577430  0.07732922  0.50229766  1
  Ca2+  Ca2  1  0.17032354  0.09236139  0.84213437  1
  Ca2+  Ca3  1  0.17168907  0.57939005  0.17529786  1
  Ca2+  Ca4  1  0.16307659  0.57367240  0.49973923  1
  Ca2+  Ca5  1  0.17154412  0.56695784  0.84215581  1
  Ca2+  Ca6  1  0.65979447  0.07462140  0.17268622  1
  Ca2+  Ca7  1  0.66338084  0.08137227  0.49652270  1
  Ca2+  Ca8  1  0.66653944  0.07840048  0.84349205  1
  Ca2+  Ca9  1  0.67005294  0.58242792  0.16235511  1
  Ca2+  Ca10  1  0.67780233  0.57571462  0.51023278  1
  Ca2+  Ca11  1  0.67343284  0.57185836  0.84115339  1
  Ca2+  Ca12  1  0.08267847  0.33770838  0.16309600  1
  Ca2+  Ca13  1  0.07553321  0.34114870  0.49713772  1
  Ca2+  Ca14  1  0.08799361  0.32790889  0.82623296  1
  Ca2+  Ca15  1  0.07653483  0.83266249  0.16405510  1
  Ca2+  Ca16  1  0.07744295  0.82544642  0.48496034  1
  Ca2+  Ca17  1  0.07508329  0.83127404  0.83184338  1
  Ca2+  Ca18  1  0.58531737  0.32175313  0.15764718  1
  Ca2+  Ca19  1  0.57878510  0.33535518  0.49525030  1
  Ca2+  Ca20  1  0.58055849  0.33825070  0.82875441  1
  Ca2+  Ca21  1  0.58702695  0.82994328  0.15734106  1
  Ca2+  Ca22  1  0.58222242  0.83225840  0.49303437  1
  Ca2+  Ca23  1  0.58681906  0.82703487  0.83799427  1
  Ca2+  Ca24  1  0.32204006  0.42587840  0.16960394  1
  Ca2+  Ca25  1  0.32438336  0.41661618  0.50337993  1
  Ca2+  Ca26  1  0.32535149  0.41110129  0.83977756  1
  Ca2+  Ca27  1  0.33034654  0.92474180  0.17151195  1
  Ca2+  Ca28  1  0.32436461  0.91761128  0.49846681  1
  Ca2+  Ca29  1  0.33061614  0.92727523  0.84111516  1
  Ca2+  Ca30  1  0.83202818  0.41703408  0.16828783  1
  Ca2+  Ca31  1  0.83401652  0.41757331  0.51011558  1
  Ca2+  Ca32  1  0.83091575  0.42378836  0.83786218  1
  Ca2+  Ca33  1  0.82659779  0.91041175  0.16969562  1
  Ca2+  Ca34  1  0.83117207  0.91468162  0.49898581  1
  Ca2+  Ca35  1  0.82957522  0.91857451  0.84394014  1
  Ca2+  Ca36  1  0.42510273  0.16232692  0.15960753  1
  Ca2+  Ca37  1  0.42216454  0.17607307  0.49740110  1
  Ca2+  Ca38  1  0.42097769  0.17118817  0.83186820  1
  Ca2+  Ca39  1  0.41850603  0.66257613  0.15859215  1
  Ca2+  Ca40  1  0.41720964  0.66421763  0.49323925  1
  Ca2+  Ca41  1  0.42460832  0.65275970  0.83701786  1
  Ca2+  Ca42  1  0.92342302  0.17444591  0.16183282  1
  Ca2+  Ca43  1  0.91911810  0.18111716  0.49807322  1
  Ca2+  Ca44  1  0.92927488  0.17546808  0.82800690  1
  Ca2+  Ca45  1  0.91787156  0.67492813  0.16277197  1
  Ca2+  Ca46  1  0.92258722  0.66642179  0.49064232  1
  Ca2+  Ca47  1  0.90412894  0.66836844  0.83497899  1
  Al0+  Al48  1  -0.00087904  0.00100058  -0.00919742  1
  Al0+  Al49  1  -0.00250280  0.00247480  0.33424630  1
  Al0+  Al50  1  -0.00197915  -0.00226407  0.66398179  1
  Al0+  Al51  1  -0.00149590  0.50241552  0.00666595  1
  Al0+  Al52  1  0.00029870  0.50119348  0.32710706  1
  Al0+  Al53  1  0.00188980  0.50200582  0.67378895  1
  Al0+  Al54  1  0.49928111  -0.00045628  0.00182693  1
  Al0+  Al55  1  0.50052193  -0.00095548  0.33691536  1
  Al0+  Al56  1  0.49777132  -0.00205008  0.66543241  1
  Al0+  Al57  1  0.50030680  0.49870940  0.00285938  1
  Al0+  Al58  1  0.49982621  0.49985967  0.33526577  1
  Al0+  Al59  1  0.50143467  0.50002744  0.66212877  1
  Al0+  Al60  1  0.25151106  0.24897995  0.00778283  1
  Al0+  Al61  1  0.25087484  0.25193422  0.33760180  1
  Al0+  Al62  1  0.25384382  0.24679612  0.65972747  1
  Al0+  Al63  1  0.24830479  0.75122583  -0.00092393  1
  Al0+  Al64  1  0.25164051  0.75223075  0.33656972  1
  Al0+  Al65  1  0.25016084  0.75171934  0.66787250  1
  Al0+  Al66  1  0.75210491  0.24842579  -0.00253433  1
  Al0+  Al67  1  0.75010012  0.24835123  0.32559759  1
  Al0+  Al68  1  0.75113698  0.24566948  0.66749934  1
  Al0+  Al69  1  0.74812292  0.75012870  -0.00169644  1
  Al0+  Al70  1  0.74857505  0.75024319  0.33624697  1
  Al0+  Al71  1  0.74805115  0.75032555  0.66818488  1
  Al0+  Al72  1  0.17839836  0.42742973  0.01557620  1
  Al0+  Al73  1  0.32047098  0.07008879  0.01329435  1
  Al0+  Al74  1  0.92680474  0.82252967  0.31867820  1
  Al0+  Al75  1  0.67971037  0.92857543  0.34856066  1
  Al0+  Al76  1  0.18179066  0.42794133  0.67997060  1
  Al0+  Al77  1  0.07179748  0.18236888  0.98838192  1
  Al0+  Al78  1  0.32108117  0.57244856  0.01326240  1
  Al0+  Al79  1  0.68066535  0.93148879  0.01273293  1
  Al0+  Al80  1  0.43136921  0.32136271  0.65256206  1
  Al0+  Al81  1  0.07272985  0.68024093  0.31764550  1
  Al0+  Al82  1  0.82237646  0.57173533  0.68140813  1
  Al0+  Al83  1  0.67800137  0.42558830  0.67960811  1
  Al0+  Al84  1  0.32290310  0.57215541  0.34991506  1
  Al0+  Al85  1  0.57248686  0.17658440  0.98578302  1
  Al0+  Al86  1  0.92966143  0.32198941  0.31850450  1
  Al0+  Al87  1  0.81948569  0.57230729  0.01822572  1
  Al0+  Al88  1  0.67933699  0.42557121  0.01607527  1
  Al0+  Al89  1  0.56891865  0.67820540  0.98639511  1
  Al0+  Al90  1  0.92940475  0.81906843  0.98499173  1
  Al0+  Al91  1  0.93055607  0.32282396  0.65430060  1
  Al0+  Al92  1  0.17713017  0.42971251  0.35090516  1
  Al0+  Al93  1  0.07320037  0.17772218  0.65032942  1
  Al0+  Al94  1  0.17746974  0.93222158  0.34541617  1
  Al0+  Al95  1  0.56812415  0.17999208  0.31950392  1
  Si0+  Si96  1  0.42987196  0.82124731  0.31866214  1
  Si0+  Si97  1  0.42823906  0.82261798  0.65013650  1
  Si0+  Si98  1  0.92808850  0.32519626  0.98267358  1
  Si0+  Si99  1  0.57271437  0.17371742  0.65035616  1
  Si0+  Si100  1  0.82107131  0.07445538  0.35094331  1
  Si0+  Si101  1  0.67712578  0.92977751  0.68246569  1
  Si0+  Si102  1  0.68047216  0.42613868  0.34684509  1
  Si0+  Si103  1  0.42546522  0.82276575  0.98336627  1
  Si0+  Si104  1  0.32108221  0.06847038  0.68108456  1
  Si0+  Si105  1  0.82237677  0.06856317  0.68256335  1
  Si0+  Si106  1  0.81889580  0.57051054  0.34710832  1
  Si0+  Si107  1  0.07345363  0.17796298  0.31728256  1
  Si0+  Si108  1  0.17469750  0.92851355  0.01408160  1
  Si0+  Si109  1  0.17713884  0.92856644  0.68220198  1
  Si0+  Si110  1  0.43044616  0.31969497  0.98559723  1
  Si0+  Si111  1  0.07300723  0.68120837  0.65315138  1
  Si0+  Si112  1  0.07363871  0.67711088  0.98144666  1
  Si0+  Si113  1  0.32265182  0.57427678  0.68277481  1
  Si0+  Si114  1  0.32342950  0.07209587  0.35252561  1
  Si0+  Si115  1  0.82485870  0.07177407  0.01611272  1
  Si0+  Si116  1  0.42694993  0.32399723  0.31439459  1
  Si0+  Si117  1  0.57049750  0.67838878  0.31938854  1
  Si0+  Si118  1  0.57015949  0.68071538  0.65042919  1
  Si0+  Si119  1  0.92681241  0.81964183  0.65044924  1
  O2-  O120  1  0.24574930  -0.00541416  0.05805537  1
  O2-  O121  1  0.24838822  0.00952506  0.39611655  1
  O2-  O122  1  0.24437232  0.00331009  0.72367241  1
  O2-  O123  1  0.24514088  0.50567338  0.06335839  1
  O2-  O124  1  0.25051672  0.50118457  0.40054526  1
  O2-  O125  1  0.25749582  0.50233945  0.72616622  1
  O2-  O126  1  0.75269555  0.00730436  0.06119557  1
  O2-  O127  1  0.75488382  0.00248660  0.39571647  1
  O2-  O128  1  0.74796294  0.00035534  0.72422609  1
  O2-  O129  1  0.75183674  0.49601376  0.06809219  1
  O2-  O130  1  0.75155786  0.49642520  0.39008840  1
  O2-  O131  1  0.75295142  0.49528930  0.72816619  1
  O2-  O132  1  0.00872694  0.25048965  0.27378660  1
  O2-  O133  1  0.00472515  0.25378747  0.60160916  1
  O2-  O134  1  0.00123896  0.26001282  0.94021748  1
  O2-  O135  1  0.00163528  0.75401625  0.26888631  1
  O2-  O136  1  -0.00207450  0.74834701  0.61036454  1
  O2-  O137  1  0.00292453  0.74386532  0.93615512  1
  O2-  O138  1  0.49345954  0.25301876  0.27074356  1
  O2-  O139  1  0.51146488  0.24995318  0.60779855  1
  O2-  O140  1  0.50213321  0.25485732  0.93898155  1
  O2-  O141  1  0.49765090  0.74749558  0.27731404  1
  O2-  O142  1  0.49683393  0.74932174  0.60775720  1
  O2-  O143  1  0.48966088  0.74942321  0.93911624  1
  O2-  O144  1  0.06904526  0.17972557  0.10135123  1
  O2-  O145  1  0.06914606  0.17565560  0.42275418  1
  O2-  O146  1  0.07230882  0.17722047  0.76396757  1
  O2-  O147  1  0.07602834  0.68144812  0.08647446  1
  O2-  O148  1  0.06885023  0.67989823  0.43238612  1
  O2-  O149  1  0.07753238  0.68648227  0.75777984  1
  O2-  O150  1  0.56804228  0.17412925  0.09876349  1
  O2-  O151  1  0.56742335  0.18165066  0.43319503  1
  O2-  O152  1  0.56766649  0.16628586  0.75535307  1
  O2-  O153  1  0.56898181  0.68218654  0.09971036  1
  O2-  O154  1  0.57081450  0.68075926  0.42509220  1
  O2-  O155  1  0.57009474  0.68223230  0.75515602  1
  O2-  O156  1  0.17885280  0.43030827  0.23790886  1
  O2-  O157  1  0.18032136  0.43174196  0.56731454  1
  O2-  O158  1  0.18265857  0.42419364  0.90139530  1
  O2-  O159  1  0.18060506  0.93371573  0.23248899  1
  O2-  O160  1  0.17869566  0.92684388  0.57716836  1
  O2-  O161  1  0.17593107  0.92953409  0.90778666  1
  O2-  O162  1  0.68051219  0.42684494  0.24231825  1
  O2-  O163  1  0.67734557  0.43040779  0.56518425  1
  O2-  O164  1  0.67914321  0.42710442  0.90240207  1
  O2-  O165  1  0.67793206  0.92816048  0.23614735  1
  O2-  O166  1  0.67700146  0.92900142  0.57733600  1
  O2-  O167  1  0.68154728  0.93213548  0.89883215  1
  O2-  O168  1  0.43099208  0.31663514  0.09100443  1
  O2-  O169  1  0.43027373  0.32367498  0.42045600  1
  O2-  O170  1  0.42933555  0.31806559  0.76563363  1
  O2-  O171  1  0.42686707  0.82534357  0.08888793  1
  O2-  O172  1  0.43213599  0.82274418  0.42449584  1
  O2-  O173  1  0.42909248  0.82795088  0.75450719  1
  O2-  O174  1  0.92653624  0.32110992  0.08839034  1
  O2-  O175  1  0.92634653  0.32186420  0.43173857  1
  O2-  O176  1  0.93053680  0.31968137  0.76742343  1
  O2-  O177  1  0.93073228  0.82042434  0.09756652  1
  O2-  O178  1  0.92662240  0.81786687  0.43315768  1
  O2-  O179  1  0.92673196  0.82185258  0.75543526  1
  O2-  O180  1  0.32669001  0.06779651  0.24718037  1
  O2-  O181  1  0.32609366  0.06278662  0.57638208  1
  O2-  O182  1  0.32003558  0.06989248  0.89952247  1
  O2-  O183  1  0.32492131  0.57075938  0.23690676  1
  O2-  O184  1  0.32018680  0.57760973  0.57742386  1
  O2-  O185  1  0.32092807  0.56823449  0.89909314  1
  O2-  O186  1  0.82002994  0.07584194  0.24579953  1
  O2-  O187  1  0.82347489  0.06661700  0.57755985  1
  O2-  O188  1  0.82473316  0.06782125  0.90995839  1
  O2-  O189  1  0.81464176  0.57327309  0.24280549  1
  O2-  O190  1  0.81988100  0.57556874  0.56715419  1
  O2-  O191  1  0.81603971  0.57189797  0.90454692  1
  O2-  O192  1  0.04427695  0.08611899  0.26984995  1
  O2-  O193  1  0.03823993  0.07954906  0.59868545  1
  O2-  O194  1  0.04072026  0.08741268  0.93018825  1
  O2-  O195  1  0.04332424  0.58398330  0.26311823  1
  O2-  O196  1  0.04765814  0.58808869  0.60822965  1
  O2-  O197  1  0.04888283  0.58198958  0.93830244  1
  O2-  O198  1  0.53673412  0.08169727  0.26898095  1
  O2-  O199  1  0.53774699  0.08352370  0.60092031  1
  O2-  O200  1  0.53665508  0.08141813  0.93114531  1
  O2-  O201  1  0.54558335  0.58563636  0.27293337  1
  O2-  O202  1  0.54629804  0.58903318  0.60095618  1
  O2-  O203  1  0.53991655  0.58085007  0.93152402  1
  O2-  O204  1  0.17044737  0.19763746  0.27593132  1
  O2-  O205  1  0.17385651  0.19470874  0.59849131  1
  O2-  O206  1  0.17079937  0.20963463  0.93670153  1
  O2-  O207  1  0.17225757  0.70957312  0.26819832  1
  O2-  O208  1  0.16308867  0.71315888  0.60383755  1
  O2-  O209  1  0.16616762  0.70428452  0.93268582  1
  O2-  O210  1  0.66429818  0.20721283  0.26420563  1
  O2-  O211  1  0.66940536  0.18876143  0.60749707  1
  O2-  O212  1  0.67176820  0.19940128  0.93328523  1
  O2-  O213  1  0.66105195  0.70931238  0.27280016  1
  O2-  O214  1  0.66052802  0.71320285  0.60185179  1
  O2-  O215  1  0.66188874  0.71526804  0.92979314  1
  O2-  O216  1  0.07841559  0.45061297  0.06589903  1
  O2-  O217  1  0.07786426  0.46174730  0.40124587  1
  O2-  O218  1  0.08703120  0.45916281  0.73648267  1
  O2-  O219  1  0.08219934  0.95820563  0.05879428  1
  O2-  O220  1  0.07991216  0.95938456  0.40111656  1
  O2-  O221  1  0.08300766  0.95108837  0.72735733  1
  O2-  O222  1  0.58132073  0.45419714  0.06877914  1
  O2-  O223  1  0.58863111  0.45492302  0.39392096  1
  O2-  O224  1  0.58031853  0.45923211  0.73160374  1
  O2-  O225  1  0.58330318  0.95841997  0.06624704  1
  O2-  O226  1  0.58391809  0.96085914  0.40503380  1
  O2-  O227  1  0.58445691  0.95660671  0.72840055  1
  O2-  O228  1  0.21160150  0.33273996  0.07210093  1
  O2-  O229  1  0.20385794  0.33014770  0.40368528  1
  O2-  O230  1  0.21418225  0.32897603  0.72853959  1
  O2-  O231  1  0.19644867  0.83419896  0.05888969  1
  O2-  O232  1  0.21227377  0.83809739  0.40259478  1
  O2-  O233  1  0.21003705  0.83929064  0.73156955  1
  O2-  O234  1  0.70678118  0.32551736  0.06685955  1
  O2-  O235  1  0.70724384  0.33364165  0.39288881  1
  O2-  O236  1  0.69718726  0.32356789  0.72847839  1
  O2-  O237  1  0.71210657  0.83560886  0.06573096  1
  O2-  O238  1  0.70939491  0.83244236  0.40564517  1
  O2-  O239  1  0.70485507  0.83797011  0.72943365  1
  O2-  O240  1  0.45519498  0.41711583  0.26961238  1
  O2-  O241  1  0.45824690  0.41832446  0.59597792  1
  O2-  O242  1  0.45192501  0.41401499  0.93949792  1
  O2-  O243  1  0.46098767  0.91192225  0.27163936  1
  O2-  O244  1  0.45931768  0.91185705  0.59877291  1
  O2-  O245  1  0.45788388  0.91343854  0.93464091  1
  O2-  O246  1  0.95630146  0.41814565  0.26285732  1
  O2-  O247  1  0.95615496  0.42379568  0.60407961  1
  O2-  O248  1  0.94801545  0.42165115  0.94109168  1
  O2-  O249  1  0.94969652  0.92343983  0.26931787  1
  O2-  O250  1  0.95504498  0.91056175  0.60193097  1
  O2-  O251  1  0.96077209  0.91429931  0.92695577  1
  O2-  O252  1  0.33183060  0.30038331  0.27161337  1
  O2-  O253  1  0.33940614  0.28432837  0.59355062  1
  O2-  O254  1  0.33808900  0.28820984  0.94036279  1
  O2-  O255  1  0.33704154  0.79945094  0.27196700  1
  O2-  O256  1  0.33523300  0.79653179  0.60324608  1
  O2-  O257  1  0.32998433  0.80502110  0.93698384  1
  O2-  O258  1  0.83573936  0.28677937  0.26214249  1
  O2-  O259  1  0.83198652  0.29007193  0.60125957  1
  O2-  O260  1  0.83670576  0.29523315  0.93460986  1
  O2-  O261  1  0.82850834  0.79039054  0.26779348  1
  O2-  O262  1  0.83349103  0.79421146  0.60436225  1
  O2-  O263  1  0.83287166  0.78880325  0.93002026  1
  O2-  O264  1  0.41474446  0.03590126  0.06905461  1
  O2-  O265  1  0.41290374  0.03782133  0.40192752  1
  O2-  O266  1  0.41028116  0.03380995  0.73056041  1
  O2-  O267  1  0.41835805  0.54351217  0.06683184  1
  O2-  O268  1  0.42177759  0.54276523  0.40435968  1
  O2-  O269  1  0.41863838  0.55090881  0.72367854  1
  O2-  O270  1  0.91722766  0.04173604  0.06138614  1
  O2-  O271  1  0.91451121  0.05180223  0.39854944  1
  O2-  O272  1  0.91226779  0.03556281  0.73127426  1
  O2-  O273  1  0.91961568  0.55225409  0.07019035  1
  O2-  O274  1  0.91257740  0.54570152  0.39131762  1
  O2-  O275  1  0.92121116  0.55160670  0.73622809  1
  O2-  O276  1  0.29115853  0.16346678  0.07249432  1
  O2-  O277  1  0.30562655  0.16826633  0.39563123  1
  O2-  O278  1  0.29971842  0.16191723  0.72681698  1
  O2-  O279  1  0.29967613  0.67451835  0.06237085  1
  O2-  O280  1  0.30007384  0.67269854  0.40154689  1
  O2-  O281  1  0.29693313  0.66788737  0.72939622  1
  O2-  O282  1  0.80494113  0.16686774  0.05967185  1
  O2-  O283  1  0.78869748  0.16587110  0.39853388  1
  O2-  O284  1  0.79868553  0.16043448  0.73118327  1
  O2-  O285  1  0.78419906  0.66888187  0.06974935  1
  O2-  O286  1  0.78797566  0.66013992  0.39765254  1
  O2-  O287  1  0.78726452  0.66918132  0.73399197  1
