# generated using pymatgen
data_Ca2Al2SiO7
_symmetry_space_group_name_H-M   'P 1'
_cell_length_a   15.45140120
_cell_length_b   15.45153171
_cell_length_c   15.27919647
_cell_angle_alpha   90.00379115
_cell_angle_beta   89.99916392
_cell_angle_gamma   90.00328910
_symmetry_Int_Tables_number   1
_chemical_formula_structural   Ca2Al2SiO7
_chemical_formula_sum   'Ca48 Al48 Si24 O168'
_cell_volume   3647.87476566
_cell_formula_units_Z   24
loop_
 _symmetry_equiv_pos_site_id
 _symmetry_equiv_pos_as_xyz
  1  'x, y, z'
loop_
 _atom_type_symbol
 _atom_type_oxidation_number
  Ca2+  2.0
  Al0+  0.0
  Si0+  0.0
  O2-  -2.0
loop_
 _atom_site_type_symbol
 _atom_site_label
 _atom_site_symmetry_multiplicity
 _atom_site_fract_x
 _atom_site_fract_y
 _atom_site_fract_z
 _atom_site_occupancy
  Ca2+  Ca0  1  0.16963491  0.08120040  0.17899042  1
  Ca2+  Ca1  1  0.17472438  0.08061223  0.50182098  1
  Ca2+  Ca2  1  0.16925535  0.07667608  0.83031876  1
  Ca2+  Ca3  1  0.17081248  0.58081505  0.16900312  1
  Ca2+  Ca4  1  0.16857639  0.56833561  0.50864600  1
  Ca2+  Ca5  1  0.17681566  0.58536928  0.83639418  1
  Ca2+  Ca6  1  0.67438219  0.07770448  0.17181086  1
  Ca2+  Ca7  1  0.66390336  0.07929170  0.50387614  1
  Ca2+  Ca8  1  0.67004103  0.08476272  0.83802190  1
  Ca2+  Ca9  1  0.66504520  0.58725645  0.17194069  1
  Ca2+  Ca10  1  0.67029709  0.57854109  0.50601291  1
  Ca2+  Ca11  1  0.66868206  0.58168038  0.83400445  1
  Ca2+  Ca12  1  0.07744388  0.33221642  0.16747584  1
  Ca2+  Ca13  1  0.08690089  0.33114747  0.48908500  1
  Ca2+  Ca14  1  0.07922809  0.33714221  0.83093685  1
  Ca2+  Ca15  1  0.08285475  0.83322215  0.16480598  1
  Ca2+  Ca16  1  0.07485032  0.84279877  0.49649526  1
  Ca2+  Ca17  1  0.08244788  0.82819230  0.82461068  1
  Ca2+  Ca18  1  0.56631800  0.33604396  0.16148950  1
  Ca2+  Ca19  1  0.57962766  0.32879052  0.49744703  1
  Ca2+  Ca20  1  0.57926168  0.32929918  0.82714950  1
  Ca2+  Ca21  1  0.58752254  0.82391818  0.16694576  1
  Ca2+  Ca22  1  0.57735916  0.82892052  0.49326224  1
  Ca2+  Ca23  1  0.57590519  0.82656961  0.82594641  1
  Ca2+  Ca24  1  0.33231815  0.41792561  0.17344585  1
  Ca2+  Ca25  1  0.32562888  0.41755547  0.50450738  1
  Ca2+  Ca26  1  0.33176940  0.42486693  0.83720374  1
  Ca2+  Ca27  1  0.32516525  0.92629767  0.17941970  1
  Ca2+  Ca28  1  0.32424905  0.92307004  0.50889509  1
  Ca2+  Ca29  1  0.33470786  0.91649062  0.83034327  1
  Ca2+  Ca30  1  0.83724382  0.41461945  0.17065478  1
  Ca2+  Ca31  1  0.83092807  0.42362150  0.51011789  1
  Ca2+  Ca32  1  0.82802747  0.41733126  0.83491117  1
  Ca2+  Ca33  1  0.83148189  0.91903048  0.17368104  1
  Ca2+  Ca34  1  0.82928904  0.90805676  0.50211773  1
  Ca2+  Ca35  1  0.83640804  0.92243670  0.83687419  1
  Ca2+  Ca36  1  0.40504220  0.17933441  0.16718322  1
  Ca2+  Ca37  1  0.41451542  0.16653187  0.49619590  1
  Ca2+  Ca38  1  0.41933911  0.17107071  0.82424898  1
  Ca2+  Ca39  1  0.42856238  0.66112049  0.15935429  1
  Ca2+  Ca40  1  0.41646149  0.66841544  0.49924603  1
  Ca2+  Ca41  1  0.41547896  0.66572653  0.82898765  1
  Ca2+  Ca42  1  0.91997940  0.17285330  0.16416153  1
  Ca2+  Ca43  1  0.92835901  0.17625145  0.48904904  1
  Ca2+  Ca44  1  0.91269256  0.17046654  0.83178532  1
  Ca2+  Ca45  1  0.92619214  0.67358637  0.16317551  1
  Ca2+  Ca46  1  0.91332726  0.67471273  0.49727313  1
  Ca2+  Ca47  1  0.92311151  0.66912700  0.82568666  1
  Al0+  Al48  1  -0.00051011  0.00203535  0.00526310  1
  Al0+  Al49  1  -0.00087613  0.00171636  0.32748379  1
  Al0+  Al50  1  -0.00008328  0.00071348  0.66583064  1
  Al0+  Al51  1  -0.00059245  0.50032550  -0.00845671  1
  Al0+  Al52  1  0.00044662  0.50237429  0.33403678  1
  Al0+  Al53  1  -0.00123601  0.50109599  0.67404142  1
  Al0+  Al54  1  0.49967884  -0.00069847  0.00419212  1
  Al0+  Al55  1  0.50238876  -0.00103555  0.33922822  1
  Al0+  Al56  1  0.50045723  -0.00090370  0.66251048  1
  Al0+  Al57  1  0.50000550  0.49982881  -0.00598258  1
  Al0+  Al58  1  0.50214072  0.49970675  0.32705065  1
  Al0+  Al59  1  0.50051612  0.49776440  0.67281061  1
  Al0+  Al60  1  0.24764820  0.25006868  -0.00651733  1
  Al0+  Al61  1  0.25027605  0.25125556  0.33220447  1
  Al0+  Al62  1  0.24956288  0.24917472  0.67578877  1
  Al0+  Al63  1  0.25087053  0.74893872  0.00269065  1
  Al0+  Al64  1  0.25068704  0.75133470  0.33751094  1
  Al0+  Al65  1  0.24881346  0.74864273  0.66684675  1
  Al0+  Al66  1  0.74998706  0.24975048  0.00339505  1
  Al0+  Al67  1  0.74873612  0.25044165  0.33021094  1
  Al0+  Al68  1  0.74917269  0.24938184  0.66413161  1
  Al0+  Al69  1  0.74975997  0.74897158  -0.00473781  1
  Al0+  Al70  1  0.75116690  0.75041910  0.32850161  1
  Al0+  Al71  1  0.75048144  0.74984176  0.66877967  1
  Al0+  Al72  1  0.17672096  0.92970786  0.68222504  1
  Al0+  Al73  1  0.32149862  0.56984122  0.01606651  1
  Al0+  Al74  1  0.57171522  0.17899035  0.65300309  1
  Al0+  Al75  1  0.92807569  0.31968200  0.98433094  1
  Al0+  Al76  1  0.32369061  0.06939929  0.68376665  1
  Al0+  Al77  1  0.92996445  0.82042814  0.31887722  1
  Al0+  Al78  1  0.92983446  0.82144068  0.65358380  1
  Al0+  Al79  1  0.43065690  0.31910992  0.32171132  1
  Al0+  Al80  1  0.42719224  0.31994165  0.98386956  1
  Al0+  Al81  1  0.68265619  0.92774210  0.34797147  1
  Al0+  Al82  1  0.56930255  0.68067910  0.32118385  1
  Al0+  Al83  1  0.92742198  0.32447267  0.32019604  1
  Al0+  Al84  1  0.67991043  0.42619610  0.68166310  1
  Al0+  Al85  1  0.42758224  0.81955211  0.65225380  1
  Al0+  Al86  1  0.17756714  0.42666352  0.68392342  1
  Al0+  Al87  1  0.32117505  0.57108687  0.68058408  1
  Al0+  Al88  1  0.07175338  0.18050321  0.31881672  1
  Al0+  Al89  1  0.17927256  0.43227104  0.34384912  1
  Al0+  Al90  1  0.82039989  0.07153677  0.01497474  1
  Al0+  Al91  1  0.32121860  0.07265344  0.34805423  1
  Al0+  Al92  1  0.57180909  0.67951158  0.98354363  1
  Al0+  Al93  1  0.17612387  0.92756982  0.34889887  1
  Al0+  Al94  1  0.81956257  0.57353874  0.68300072  1
  Al0+  Al95  1  0.07232101  0.68051394  0.98610705  1
  Si0+  Si96  1  0.07161986  0.67651814  0.64843796  1
  Si0+  Si97  1  0.07097334  0.17600589  0.98023865  1
  Si0+  Si98  1  0.42704218  0.32158442  0.65052528  1
  Si0+  Si99  1  0.07107768  0.18009458  0.65280636  1
  Si0+  Si100  1  0.67733466  0.42879389  0.34562193  1
  Si0+  Si101  1  0.32626932  0.57150291  0.34848323  1
  Si0+  Si102  1  0.82066993  0.07062995  0.67884372  1
  Si0+  Si103  1  0.92916293  0.32152614  0.65282344  1
  Si0+  Si104  1  0.42690176  0.82328257  0.31684298  1
  Si0+  Si105  1  0.07424286  0.67745216  0.31843843  1
  Si0+  Si106  1  0.57188163  0.67655462  0.65034009  1
  Si0+  Si107  1  0.68008457  0.42999002  0.01664439  1
  Si0+  Si108  1  0.57299163  0.17456905  0.31490934  1
  Si0+  Si109  1  0.67886423  0.92858595  0.68135707  1
  Si0+  Si110  1  0.92945991  0.82337695  0.98364058  1
  Si0+  Si111  1  0.42824953  0.82344220  0.98534062  1
  Si0+  Si112  1  0.17972595  0.92906088  0.01510864  1
  Si0+  Si113  1  0.32130682  0.07223036  0.01473321  1
  Si0+  Si114  1  0.57068477  0.17731906  0.98641896  1
  Si0+  Si115  1  0.17646994  0.42777531  0.01770850  1
  Si0+  Si116  1  0.82038048  0.57040003  0.34526731  1
  Si0+  Si117  1  0.67739530  0.92599290  0.01656562  1
  Si0+  Si118  1  0.82198085  0.57152345  0.01602445  1
  Si0+  Si119  1  0.82121895  0.07432961  0.35154756  1
  O2-  O120  1  0.25025581  0.00113109  0.05629870  1
  O2-  O121  1  0.25082465  -0.00192306  0.39644814  1
  O2-  O122  1  0.25247628  -0.00342572  0.73435836  1
  O2-  O123  1  0.24723207  0.49422375  0.06242870  1
  O2-  O124  1  0.25317466  0.50726001  0.39145535  1
  O2-  O125  1  0.25006077  0.49890399  0.73211861  1
  O2-  O126  1  0.74714864  -0.00569798  0.05975183  1
  O2-  O127  1  0.75428270  0.00462421  0.39702032  1
  O2-  O128  1  0.74999125  -0.00019297  0.72276211  1
  O2-  O129  1  0.75060655  0.50155194  0.05995889  1
  O2-  O130  1  0.75359076  0.49478085  0.38646913  1
  O2-  O131  1  0.74896174  0.50022209  0.73343420  1
  O2-  O132  1  -0.00204660  0.25150130  0.26964373  1
  O2-  O133  1  0.00521283  0.25639806  0.61095555  1
  O2-  O134  1  0.00259292  0.24539570  0.93636202  1
  O2-  O135  1  0.01051910  0.75116635  0.27396706  1
  O2-  O136  1  0.00381308  0.74680059  0.60510098  1
  O2-  O137  1  -0.00187669  0.75572081  0.93892966  1
  O2-  O138  1  0.50247707  0.24208653  0.27206705  1
  O2-  O139  1  0.49538004  0.25228213  0.60653011  1
  O2-  O140  1  0.49962751  0.24167543  0.93993370  1
  O2-  O141  1  0.49232036  0.75189201  0.27174136  1
  O2-  O142  1  0.50077525  0.74241111  0.60617982  1
  O2-  O143  1  0.49749869  0.75570243  0.94028150  1
  O2-  O144  1  0.07203490  0.17530103  0.08546493  1
  O2-  O145  1  0.07099873  0.18283036  0.43292816  1
  O2-  O146  1  0.06629988  0.17698210  0.75806897  1
  O2-  O147  1  0.07033993  0.68196964  0.09967325  1
  O2-  O148  1  0.06984934  0.67216110  0.42337854  1
  O2-  O149  1  0.07011931  0.67873416  0.75436443  1
  O2-  O150  1  0.57013201  0.17841657  0.09190549  1
  O2-  O151  1  0.57567824  0.17782561  0.42048246  1
  O2-  O152  1  0.57379927  0.17965978  0.76657360  1
  O2-  O153  1  0.57301531  0.68077594  0.09701813  1
  O2-  O154  1  0.57016498  0.67935693  0.43408001  1
  O2-  O155  1  0.57338679  0.68064859  0.75599679  1
  O2-  O156  1  0.17891199  0.43416020  0.23065455  1
  O2-  O157  1  0.17788753  0.42615135  0.56977579  1
  O2-  O158  1  0.17733382  0.42905802  0.91232357  1
  O2-  O159  1  0.17949323  0.92727617  0.23430706  1
  O2-  O160  1  0.17349251  0.93554595  0.56940893  1
  O2-  O161  1  0.17863597  0.92931600  0.91022982  1
  O2-  O162  1  0.67488175  0.43160254  0.24037681  1
  O2-  O163  1  0.68245871  0.42644504  0.56733609  1
  O2-  O164  1  0.68231780  0.42873649  0.91181195  1
  O2-  O165  1  0.68520079  0.92765232  0.23448229  1
  O2-  O166  1  0.68063350  0.92725241  0.57637410  1
  O2-  O167  1  0.67573397  0.92719950  0.91082659  1
  O2-  O168  1  0.42732512  0.31953530  0.09746802  1
  O2-  O169  1  0.43382322  0.32221504  0.43443633  1
  O2-  O170  1  0.42953582  0.31948697  0.75629892  1
  O2-  O171  1  0.42954596  0.82489936  0.09091484  1
  O2-  O172  1  0.42886926  0.82153996  0.42226235  1
  O2-  O173  1  0.43281789  0.82097013  0.76584491  1
  O2-  O174  1  0.92946592  0.31950440  0.09718065  1
  O2-  O175  1  0.92736432  0.32417848  0.43409802  1
  O2-  O176  1  0.92668712  0.31676976  0.75800872  1
  O2-  O177  1  0.92971182  0.82181300  0.08937101  1
  O2-  O178  1  0.92612765  0.81574630  0.43180019  1
  O2-  O179  1  0.93107635  0.82317989  0.76694292  1
  O2-  O180  1  0.31886418  0.07149433  0.23333681  1
  O2-  O181  1  0.32116820  0.07081228  0.57069441  1
  O2-  O182  1  0.32352054  0.07045837  0.91006906  1
  O2-  O183  1  0.32788834  0.56881919  0.24266788  1
  O2-  O184  1  0.32055521  0.56822545  0.56642678  1
  O2-  O185  1  0.31993843  0.57062161  0.90354018  1
  O2-  O186  1  0.81792981  0.07378782  0.24567895  1
  O2-  O187  1  0.82044726  0.07117750  0.57413508  1
  O2-  O188  1  0.81882101  0.07039440  0.90106182  1
  O2-  O189  1  0.81961707  0.57126785  0.23978494  1
  O2-  O190  1  0.81819787  0.57261987  0.56856706  1
  O2-  O191  1  0.82006038  0.57127059  0.91137309  1
  O2-  O192  1  0.04393243  0.08334625  0.26278287  1
  O2-  O193  1  0.03774242  0.09120520  0.60368116  1
  O2-  O194  1  0.04264184  0.08244479  0.93493224  1
  O2-  O195  1  0.04227041  0.58767110  0.26789942  1
  O2-  O196  1  0.04251738  0.58251417  0.60435074  1
  O2-  O197  1  0.04099716  0.58571810  0.92989785  1
  O2-  O198  1  0.55118497  0.07926412  0.27096050  1
  O2-  O199  1  0.54424741  0.08232394  0.59801352  1
  O2-  O200  1  0.54985351  0.08138176  0.94213749  1
  O2-  O201  1  0.54194638  0.58473607  0.26318041  1
  O2-  O202  1  0.55003228  0.58051071  0.60770456  1
  O2-  O203  1  0.54141030  0.58377411  0.92935494  1
  O2-  O204  1  0.16848720  0.21014834  0.26372309  1
  O2-  O205  1  0.16513337  0.20454642  0.60895444  1
  O2-  O206  1  0.16388943  0.20048215  0.93225064  1
  O2-  O207  1  0.17010685  0.69834944  0.27410403  1
  O2-  O208  1  0.16577136  0.69769425  0.60314908  1
  O2-  O209  1  0.16901984  0.71182518  0.93286825  1
  O2-  O210  1  0.66577221  0.20162750  0.26770539  1
  O2-  O211  1  0.66713276  0.21078579  0.59574365  1
  O2-  O212  1  0.66332720  0.20636494  0.94056634  1
  O2-  O213  1  0.66398404  0.71435900  0.26424983  1
  O2-  O214  1  0.66481102  0.70558168  0.60494583  1
  O2-  O215  1  0.66840005  0.70887446  0.92819775  1
  O2-  O216  1  0.08216476  0.45656367  0.06056655  1
  O2-  O217  1  0.08295838  0.46184471  0.40040336  1
  O2-  O218  1  0.07934107  0.45461275  0.73700241  1
  O2-  O219  1  0.08782409  0.95645228  0.06309334  1
  O2-  O220  1  0.07641082  0.95737008  0.39758991  1
  O2-  O221  1  0.08014718  0.96363052  0.73741398  1
  O2-  O222  1  0.58757281  0.45921244  0.06151752  1
  O2-  O223  1  0.58861298  0.46238845  0.39529536  1
  O2-  O224  1  0.58151072  0.45033353  0.73573458  1
  O2-  O225  1  0.58446266  0.95131395  0.06520161  1
  O2-  O226  1  0.58551898  0.95429590  0.40275917  1
  O2-  O227  1  0.58807699  0.95733044  0.72905440  1
  O2-  O228  1  0.19989222  0.33158953  0.05976998  1
  O2-  O229  1  0.21105089  0.33656404  0.39749575  1
  O2-  O230  1  0.20277470  0.32928522  0.73991091  1
  O2-  O231  1  0.20770423  0.83814539  0.06383397  1
  O2-  O232  1  0.20055240  0.82819498  0.40247881  1
  O2-  O233  1  0.20138650  0.82938793  0.73179587  1
  O2-  O234  1  0.70725042  0.33864421  0.06515301  1
  O2-  O235  1  0.69869947  0.33463331  0.39116270  1
  O2-  O236  1  0.71201891  0.32892577  0.73576785  1
  O2-  O237  1  0.70479180  0.83199692  0.06134254  1
  O2-  O238  1  0.71697752  0.83177033  0.40141910  1
  O2-  O239  1  0.70670927  0.83793502  0.73069312  1
  O2-  O240  1  0.46530581  0.41310224  0.26347958  1
  O2-  O241  1  0.45318024  0.41560217  0.60585364  1
  O2-  O242  1  0.46261299  0.41397630  0.92944228  1
  O2-  O243  1  0.45648132  0.91634608  0.27157890  1
  O2-  O244  1  0.46150576  0.91426143  0.59712812  1
  O2-  O245  1  0.45377344  0.91745791  0.93874843  1
  O2-  O246  1  0.95656490  0.42265814  0.26651448  1
  O2-  O247  1  0.95076912  0.41671035  0.60991354  1
  O2-  O248  1  0.95627921  0.41593613  0.92864852  1
  O2-  O249  1  0.95368140  0.91818724  0.26412584  1
  O2-  O250  1  0.95871300  0.91850978  0.59875788  1
  O2-  O251  1  0.95427100  0.91840200  0.94040680  1
  O2-  O252  1  0.33496962  0.29050448  0.26476754  1
  O2-  O253  1  0.33191655  0.29547892  0.60812651  1
  O2-  O254  1  0.33037297  0.29218257  0.92936720  1
  O2-  O255  1  0.33141190  0.80240154  0.27224689  1
  O2-  O256  1  0.33025511  0.79102704  0.59849951  1
  O2-  O257  1  0.33511177  0.79664695  0.93985879  1
  O2-  O258  1  0.82849969  0.29719867  0.26636704  1
  O2-  O259  1  0.83969276  0.28965756  0.60370304  1
  O2-  O260  1  0.83101178  0.28638092  0.93209326  1
  O2-  O261  1  0.83737834  0.78336140  0.26096455  1
  O2-  O262  1  0.83229390  0.78980971  0.60080782  1
  O2-  O263  1  0.83552787  0.79888527  0.93802889  1
  O2-  O264  1  0.41314600  0.04644485  0.06389486  1
  O2-  O265  1  0.42121283  0.04837610  0.39901633  1
  O2-  O266  1  0.42290960  0.04037223  0.73540600  1
  O2-  O267  1  0.41985563  0.53793265  0.06661449  1
  O2-  O268  1  0.41831626  0.54082357  0.39460164  1
  O2-  O269  1  0.41982606  0.54563641  0.73479925  1
  O2-  O270  1  0.91688801  0.04287188  0.07074591  1
  O2-  O271  1  0.91654273  0.05122252  0.39322596  1
  O2-  O272  1  0.91103696  0.04251685  0.72876341  1
  O2-  O273  1  0.91448652  0.54262945  0.06154315  1
  O2-  O274  1  0.91232381  0.54769655  0.39443820  1
  O2-  O275  1  0.91728974  0.54677236  0.73697565  1
  O2-  O276  1  0.29098111  0.16478955  0.05955187  1
  O2-  O277  1  0.29164047  0.17024583  0.40087876  1
  O2-  O278  1  0.29376722  0.16618482  0.73876421  1
  O2-  O279  1  0.29138705  0.66683304  0.07095116  1
  O2-  O280  1  0.30663560  0.66723088  0.39174679  1
  O2-  O281  1  0.29296448  0.66895450  0.73476530  1
  O2-  O282  1  0.78730323  0.16634949  0.07121201  1
  O2-  O283  1  0.79453147  0.16830780  0.39705639  1
  O2-  O284  1  0.79152451  0.16150748  0.72743039  1
  O2-  O285  1  0.79464209  0.66473537  0.06187550  1
  O2-  O286  1  0.78698922  0.65995002  0.39288055  1
  O2-  O287  1  0.79105749  0.67091997  0.73867470  1
