# generated using pymatgen
data_Ca2Al2SiO7
_symmetry_space_group_name_H-M   'P 1'
_cell_length_a   15.46557566
_cell_length_b   15.46419057
_cell_length_c   15.28764038
_cell_angle_alpha   90.00258483
_cell_angle_beta   90.01428788
_cell_angle_gamma   89.99148596
_symmetry_Int_Tables_number   1
_chemical_formula_structural   Ca2Al2SiO7
_chemical_formula_sum   'Ca48 Al48 Si24 O168'
_cell_volume   3656.23180439
_cell_formula_units_Z   24
loop_
 _symmetry_equiv_pos_site_id
 _symmetry_equiv_pos_as_xyz
  1  'x, y, z'
loop_
 _atom_type_symbol
 _atom_type_oxidation_number
  Ca2+  2.0
  Al0+  0.0
  Si0+  0.0
  O2-  -2.0
loop_
 _atom_site_type_symbol
 _atom_site_label
 _atom_site_symmetry_multiplicity
 _atom_site_fract_x
 _atom_site_fract_y
 _atom_site_fract_z
 _atom_site_occupancy
  Ca2+  Ca0  1  0.16130174  0.07644618  0.17192521  1
  Ca2+  Ca1  1  0.15932883  0.07705981  0.49915769  1
  Ca2+  Ca2  1  0.17264154  0.07955263  0.84785524  1
  Ca2+  Ca3  1  0.16652053  0.57148060  0.17944700  1
  Ca2+  Ca4  1  0.16805875  0.59005409  0.49852290  1
  Ca2+  Ca5  1  0.16016189  0.57879925  0.83583414  1
  Ca2+  Ca6  1  0.66525010  0.08679710  0.17059190  1
  Ca2+  Ca7  1  0.66913820  0.08544360  0.50795111  1
  Ca2+  Ca8  1  0.67208746  0.09052837  0.83347465  1
  Ca2+  Ca9  1  0.67491061  0.57668651  0.18012667  1
  Ca2+  Ca10  1  0.66857398  0.57405644  0.50412715  1
  Ca2+  Ca11  1  0.66360090  0.57784249  0.83391975  1
  Ca2+  Ca12  1  0.09719954  0.32518163  0.16438416  1
  Ca2+  Ca13  1  0.07867896  0.32890745  0.49174741  1
  Ca2+  Ca14  1  0.08063458  0.33052629  0.83077268  1
  Ca2+  Ca15  1  0.07793693  0.83517173  0.16650028  1
  Ca2+  Ca16  1  0.07602038  0.82544895  0.49148074  1
  Ca2+  Ca17  1  0.07644737  0.83461427  0.82871735  1
  Ca2+  Ca18  1  0.58092433  0.32860534  0.16781225  1
  Ca2+  Ca19  1  0.58724125  0.32757212  0.49199999  1
  Ca2+  Ca20  1  0.58552434  0.32347184  0.82526553  1
  Ca2+  Ca21  1  0.57384427  0.83439869  0.16697065  1
  Ca2+  Ca22  1  0.57795854  0.82672418  0.49443588  1
  Ca2+  Ca23  1  0.58035429  0.82537478  0.82693191  1
  Ca2+  Ca24  1  0.32618494  0.41882294  0.17701458  1
  Ca2+  Ca25  1  0.33064258  0.41425638  0.49478235  1
  Ca2+  Ca26  1  0.32558758  0.42011657  0.83997157  1
  Ca2+  Ca27  1  0.32296649  0.92133542  0.17390989  1
  Ca2+  Ca28  1  0.32773336  0.90997693  0.49749638  1
  Ca2+  Ca29  1  0.32493873  0.92361823  0.84417837  1
  Ca2+  Ca30  1  0.82750391  0.42401324  0.17808653  1
  Ca2+  Ca31  1  0.82645690  0.41745159  0.50377394  1
  Ca2+  Ca32  1  0.83041733  0.41198111  0.83067531  1
  Ca2+  Ca33  1  0.83700211  0.91453637  0.17181557  1
  Ca2+  Ca34  1  0.84231103  0.92263107  0.50455781  1
  Ca2+  Ca35  1  0.84001467  0.91972030  0.83421723  1
  Ca2+  Ca36  1  0.42422457  0.16698992  0.16390214  1
  Ca2+  Ca37  1  0.43019616  0.17325648  0.48916855  1
  Ca2+  Ca38  1  0.42578363  0.16101685  0.83168201  1
  Ca2+  Ca39  1  0.40386076  0.67145552  0.17311868  1
  Ca2+  Ca40  1  0.42031224  0.66587229  0.49211973  1
  Ca2+  Ca41  1  0.42125137  0.66776558  0.82627765  1
  Ca2+  Ca42  1  0.93131927  0.16823119  0.16571438  1
  Ca2+  Ca43  1  0.91424250  0.17282347  0.49735087  1
  Ca2+  Ca44  1  0.92249613  0.16943591  0.82723005  1
  Ca2+  Ca45  1  0.91769423  0.67266021  0.16627128  1
  Ca2+  Ca46  1  0.92383025  0.67258914  0.49094112  1
  Ca2+  Ca47  1  0.92340422  0.68005954  0.82378421  1
  Al0+  Al48  1  -0.00106127  0.00223756  -0.00416281  1
  Al0+  Al49  1  -0.00029931  0.00061006  0.33166169  1
  Al0+  Al50  1  0.00064566  0.00034223  0.67042099  1
  Al0+  Al51  1  -0.00178851  0.50075030  0.00405926  1
  Al0+  Al52  1  -0.00112081  0.50060752  0.33794183  1
  Al0+  Al53  1  -0.00070539  0.49947481  0.66078532  1
  Al0+  Al54  1  0.50165584  -0.00086648  -0.00211016  1
  Al0+  Al55  1  0.50048517  -0.00167788  0.32704067  1
  Al0+  Al56  1  0.49988058  -0.00015693  0.66424549  1
  Al0+  Al57  1  0.50038518  0.49931441  0.00113509  1
  Al0+  Al58  1  0.50005533  0.49773536  0.33619228  1
  Al0+  Al59  1  0.49859022  0.49953557  0.66917093  1
  Al0+  Al60  1  0.25374263  0.25113263  0.00135421  1
  Al0+  Al61  1  0.25316964  0.24896345  0.33159081  1
  Al0+  Al62  1  0.25112082  0.24981651  0.66947131  1
  Al0+  Al63  1  0.24886982  0.75053794  0.00090232  1
  Al0+  Al64  1  0.24880493  0.74984446  0.33352098  1
  Al0+  Al65  1  0.24924569  0.75001153  0.66830537  1
  Al0+  Al66  1  0.74916405  0.24985234  -0.00184679  1
  Al0+  Al67  1  0.75224003  0.24852590  0.33098510  1
  Al0+  Al68  1  0.75108244  0.24900415  0.66855508  1
  Al0+  Al69  1  0.75030107  0.75107577  -0.00490522  1
  Al0+  Al70  1  0.74938968  0.75148057  0.33476918  1
  Al0+  Al71  1  0.74860937  0.75052064  0.65992626  1
  Al0+  Al72  1  0.07168737  0.67880071  0.65146113  1
  Al0+  Al73  1  0.07087250  0.67753673  0.31621638  1
  Al0+  Al74  1  0.92816829  0.82154391  0.31740818  1
  Al0+  Al75  1  0.17851388  0.43075448  0.01220027  1
  Al0+  Al76  1  0.32468903  0.07077854  0.01633036  1
  Al0+  Al77  1  0.17633485  0.93027908  0.01644615  1
  Al0+  Al78  1  0.82158056  0.57430070  0.35015152  1
  Al0+  Al79  1  0.92870658  0.82085638  0.98441559  1
  Al0+  Al80  1  0.17844679  0.42498211  0.35067509  1
  Al0+  Al81  1  0.07262804  0.18164854  0.98652399  1
  Al0+  Al82  1  0.92926098  0.82395619  0.65072072  1
  Al0+  Al83  1  0.57089369  0.17903297  0.98317138  1
  Al0+  Al84  1  0.17816510  0.93095433  0.34873889  1
  Al0+  Al85  1  0.82040843  0.06947868  0.68105914  1
  Al0+  Al86  1  0.57395892  0.17844179  0.31733477  1
  Al0+  Al87  1  0.07103815  0.18030041  0.32205487  1
  Al0+  Al88  1  0.67920753  0.42983609  0.68204341  1
  Al0+  Al89  1  0.56996110  0.17994201  0.65314726  1
  Al0+  Al90  1  0.68047450  0.42713489  0.34817209  1
  Al0+  Al91  1  0.92947056  0.31930449  0.65353136  1
  Al0+  Al92  1  0.57000943  0.67668702  0.65300520  1
  Al0+  Al93  1  0.42986523  0.32223770  0.31740114  1
  Al0+  Al94  1  0.31946426  0.57090209  0.34965436  1
  Al0+  Al95  1  0.42811710  0.81964957  0.31953450  1
  Si0+  Si96  1  0.42814845  0.81973346  0.98476520  1
  Si0+  Si97  1  0.42579585  0.32235292  0.65097593  1
  Si0+  Si98  1  0.67586236  0.92934820  0.34774441  1
  Si0+  Si99  1  0.68054851  0.92706778  0.01404654  1
  Si0+  Si100  1  0.32480535  0.07021924  0.35120551  1
  Si0+  Si101  1  0.82248006  0.57320735  0.68430503  1
  Si0+  Si102  1  0.18057118  0.92977850  0.68248918  1
  Si0+  Si103  1  0.31943901  0.57146766  0.68283891  1
  Si0+  Si104  1  0.92839466  0.32242762  0.31707089  1
  Si0+  Si105  1  0.67912532  0.42819049  0.01495866  1
  Si0+  Si106  1  0.57139312  0.67869605  0.98642318  1
  Si0+  Si107  1  0.32249341  0.07188518  0.68097508  1
  Si0+  Si108  1  0.07137553  0.67627160  0.98419130  1
  Si0+  Si109  1  0.17725786  0.42738244  0.68187723  1
  Si0+  Si110  1  0.43003098  0.32443640  0.98093989  1
  Si0+  Si111  1  0.92722359  0.32363141  0.98438030  1
  Si0+  Si112  1  0.81974052  0.07214899  0.01565003  1
  Si0+  Si113  1  0.81816993  0.57301993  0.01268710  1
  Si0+  Si114  1  0.57150648  0.67748928  0.31711694  1
  Si0+  Si115  1  0.82044839  0.06859854  0.34655400  1
  Si0+  Si116  1  0.67504183  0.92663490  0.68343710  1
  Si0+  Si117  1  0.32439352  0.57265510  0.01575770  1
  Si0+  Si118  1  0.07472454  0.17869698  0.65197414  1
  Si0+  Si119  1  0.42786968  0.82141980  0.65143140  1
  O2-  O120  1  0.24814065  0.00324343  0.06576625  1
  O2-  O121  1  0.25347887  0.00500830  0.39718489  1
  O2-  O122  1  0.25057543  0.00217074  0.72382183  1
  O2-  O123  1  0.25269994  0.50661678  0.05717772  1
  O2-  O124  1  0.24713818  0.50013288  0.40162031  1
  O2-  O125  1  0.24709023  0.50086552  0.72349371  1
  O2-  O126  1  0.75006001  -0.00077587  0.05708698  1
  O2-  O127  1  0.74739123  -0.00017748  0.38886037  1
  O2-  O128  1  0.74608091  -0.00691876  0.72788972  1
  O2-  O129  1  0.74961002  0.49987781  0.05564094  1
  O2-  O130  1  0.75058022  0.50045134  0.39870305  1
  O2-  O131  1  0.75261188  0.50604566  0.73077136  1
  O2-  O132  1  0.00374783  0.26113108  0.27331340  1
  O2-  O133  1  0.00619488  0.24657922  0.60766961  1
  O2-  O134  1  -0.00099912  0.25787415  0.94055045  1
  O2-  O135  1  -0.00213231  0.74846207  0.26610891  1
  O2-  O136  1  -0.00239833  0.74857705  0.60230799  1
  O2-  O137  1  0.00705372  0.74885715  0.93971194  1
  O2-  O138  1  0.50173015  0.24989864  0.26753638  1
  O2-  O139  1  0.49602182  0.25510842  0.60787600  1
  O2-  O140  1  0.49641171  0.25378179  0.93608496  1
  O2-  O141  1  0.50086537  0.74324739  0.27111370  1
  O2-  O142  1  0.49688963  0.75331233  0.60785507  1
  O2-  O143  1  0.49637292  0.74545641  0.94339127  1
  O2-  O144  1  0.06874443  0.18093361  0.09936191  1
  O2-  O145  1  0.06499460  0.17782947  0.43536760  1
  O2-  O146  1  0.07609740  0.18090278  0.75781216  1
  O2-  O147  1  0.06880666  0.67261321  0.08877457  1
  O2-  O148  1  0.07114982  0.68215400  0.42970476  1
  O2-  O149  1  0.07237777  0.68072781  0.76597622  1
  O2-  O150  1  0.57328319  0.18109082  0.09548442  1
  O2-  O151  1  0.57387872  0.17756282  0.43105537  1
  O2-  O152  1  0.56784377  0.17976321  0.76656071  1
  O2-  O153  1  0.57447158  0.68031537  0.09083886  1
  O2-  O154  1  0.57088994  0.68102693  0.42267309  1
  O2-  O155  1  0.56622783  0.67782657  0.76727649  1
  O2-  O156  1  0.18191996  0.42595339  0.23682344  1
  O2-  O157  1  0.17952689  0.42197088  0.57808826  1
  O2-  O158  1  0.17849042  0.43365595  0.89803166  1
  O2-  O159  1  0.17736560  0.93353556  0.23596862  1
  O2-  O160  1  0.18131501  0.92940298  0.57764647  1
  O2-  O161  1  0.18019353  0.93008784  0.90182871  1
  O2-  O162  1  0.68338151  0.42859592  0.23348778  1
  O2-  O163  1  0.68002756  0.42954644  0.56990583  1
  O2-  O164  1  0.67853794  0.42890634  0.90980091  1
  O2-  O165  1  0.67493414  0.92903956  0.24219972  1
  O2-  O166  1  0.66961740  0.92967659  0.57825339  1
  O2-  O167  1  0.68049741  0.92453855  0.90909443  1
  O2-  O168  1  0.43417510  0.32922358  0.08558713  1
  O2-  O169  1  0.43042337  0.31863819  0.43147131  1
  O2-  O170  1  0.42364447  0.32100346  0.75690039  1
  O2-  O171  1  0.42932416  0.81994526  0.08935342  1
  O2-  O172  1  0.43258036  0.82072388  0.43280412  1
  O2-  O173  1  0.42783320  0.82018887  0.75771576  1
  O2-  O174  1  0.92307569  0.32261674  0.08949953  1
  O2-  O175  1  0.92432300  0.31615893  0.42251402  1
  O2-  O176  1  0.93239308  0.31860015  0.76731716  1
  O2-  O177  1  0.92332898  0.81729150  0.09654226  1
  O2-  O178  1  0.93044662  0.82431198  0.43050705  1
  O2-  O179  1  0.93332221  0.82396456  0.76487982  1
  O2-  O180  1  0.32618816  0.06662287  0.24586909  1
  O2-  O181  1  0.32288860  0.07276188  0.57643323  1
  O2-  O182  1  0.32498053  0.06575397  0.90158549  1
  O2-  O183  1  0.31780042  0.56994723  0.23560207  1
  O2-  O184  1  0.32120417  0.57393868  0.57873578  1
  O2-  O185  1  0.32808670  0.57153066  0.90961035  1
  O2-  O186  1  0.82043806  0.06778158  0.24111069  1
  O2-  O187  1  0.81948712  0.06947313  0.56787691  1
  O2-  O188  1  0.81852978  0.07311809  0.91058357  1
  O2-  O189  1  0.81746455  0.57382307  0.23513445  1
  O2-  O190  1  0.82102155  0.57115297  0.57948332  1
  O2-  O191  1  0.81588618  0.57368514  0.90770659  1
  O2-  O192  1  0.03246798  0.08776010  0.26563441  1
  O2-  O193  1  0.04916387  0.08440796  0.60915047  1
  O2-  O194  1  0.03927212  0.08685628  0.93033085  1
  O2-  O195  1  0.04328221  0.57724755  0.26639340  1
  O2-  O196  1  0.04903145  0.57944788  0.59991983  1
  O2-  O197  1  0.04048270  0.58431650  0.93611138  1
  O2-  O198  1  0.54530461  0.08035341  0.26399302  1
  O2-  O199  1  0.54062807  0.08267584  0.59990446  1
  O2-  O200  1  0.54257230  0.08083215  0.92984906  1
  O2-  O201  1  0.55006486  0.58265826  0.27317770  1
  O2-  O202  1  0.53643278  0.58113101  0.60021826  1
  O2-  O203  1  0.54594883  0.58563045  0.93930466  1
  O2-  O204  1  0.16975212  0.20230498  0.26931315  1
  O2-  O205  1  0.16857020  0.20310964  0.60622553  1
  O2-  O206  1  0.17098752  0.20910727  0.93352190  1
  O2-  O207  1  0.16926510  0.70593329  0.26459998  1
  O2-  O208  1  0.17035317  0.70928517  0.60086420  1
  O2-  O209  1  0.16743438  0.69682031  0.93964223  1
  O2-  O210  1  0.67228372  0.20605419  0.26339446  1
  O2-  O211  1  0.66714859  0.20933007  0.60214520  1
  O2-  O212  1  0.66757944  0.21200874  0.92938845  1
  O2-  O213  1  0.66340525  0.70736412  0.27018750  1
  O2-  O214  1  0.66590425  0.70421398  0.59797811  1
  O2-  O215  1  0.65980371  0.71055883  0.93486889  1
  O2-  O216  1  0.08102009  0.45699979  0.06673339  1
  O2-  O217  1  0.07745647  0.44704486  0.39977620  1
  O2-  O218  1  0.08488044  0.45487325  0.72880344  1
  O2-  O219  1  0.07703799  0.95966264  0.06621952  1
  O2-  O220  1  0.08256225  0.96564557  0.40291559  1
  O2-  O221  1  0.08935591  0.95687164  0.73109165  1
  O2-  O222  1  0.58745454  0.45632214  0.06201598  1
  O2-  O223  1  0.58164960  0.45176148  0.40027642  1
  O2-  O224  1  0.58167046  0.45970445  0.73717149  1
  O2-  O225  1  0.58841859  0.95402254  0.06081296  1
  O2-  O226  1  0.58480037  0.95738478  0.39637957  1
  O2-  O227  1  0.58183286  0.95371440  0.73167477  1
  O2-  O228  1  0.21086990  0.33485310  0.06496213  1
  O2-  O229  1  0.21016008  0.32681278  0.40362689  1
  O2-  O230  1  0.20775853  0.33686318  0.73250479  1
  O2-  O231  1  0.20450246  0.83028461  0.06597198  1
  O2-  O232  1  0.21109720  0.83515637  0.40184022  1
  O2-  O233  1  0.20992862  0.83877569  0.73156263  1
  O2-  O234  1  0.70781519  0.33667382  0.06164984  1
  O2-  O235  1  0.71223023  0.32867191  0.39939613  1
  O2-  O236  1  0.71369721  0.33452444  0.73706769  1
  O2-  O237  1  0.70880458  0.83573644  0.06234398  1
  O2-  O238  1  0.70092146  0.83749748  0.39571377  1
  O2-  O239  1  0.69758454  0.83109535  0.72780645  1
  O2-  O240  1  0.45755205  0.42074070  0.26398287  1
  O2-  O241  1  0.44874884  0.41685525  0.60768678  1
  O2-  O242  1  0.45777317  0.41766956  0.93276642  1
  O2-  O243  1  0.46264257  0.91301933  0.26195368  1
  O2-  O244  1  0.45194305  0.91458913  0.60488624  1
  O2-  O245  1  0.46069077  0.90897744  0.93529761  1
  O2-  O246  1  0.94415396  0.41906520  0.27524675  1
  O2-  O247  1  0.95564351  0.41570375  0.59884503  1
  O2-  O248  1  0.94994390  0.41846341  0.93878806  1
  O2-  O249  1  0.95907803  0.91903135  0.26390472  1
  O2-  O250  1  0.96139349  0.92209570  0.59994651  1
  O2-  O251  1  0.95612520  0.91868874  0.93140065  1
  O2-  O252  1  0.33231804  0.29363449  0.26361481  1
  O2-  O253  1  0.33288890  0.29480082  0.60467743  1
  O2-  O254  1  0.33571005  0.30152847  0.93541489  1
  O2-  O255  1  0.33243713  0.79014613  0.26425646  1
  O2-  O256  1  0.33471188  0.79465982  0.60670143  1
  O2-  O257  1  0.33583112  0.79461019  0.93592265  1
  O2-  O258  1  0.83914402  0.28901273  0.26661863  1
  O2-  O259  1  0.83489060  0.28471925  0.59958359  1
  O2-  O260  1  0.83536799  0.29381282  0.93639852  1
  O2-  O261  1  0.82722413  0.79715715  0.26660632  1
  O2-  O262  1  0.82772266  0.80486042  0.60193744  1
  O2-  O263  1  0.83316063  0.78787806  0.92788380  1
  O2-  O264  1  0.42225142  0.03741500  0.06783731  1
  O2-  O265  1  0.41758591  0.03935457  0.39682811  1
  O2-  O266  1  0.41367821  0.04165736  0.72925669  1
  O2-  O267  1  0.41735667  0.54645995  0.06306506  1
  O2-  O268  1  0.41891914  0.54369221  0.40147250  1
  O2-  O269  1  0.40982629  0.54239694  0.73321350  1
  O2-  O270  1  0.91196833  0.04562818  0.06163756  1
  O2-  O271  1  0.91025019  0.03917251  0.39606188  1
  O2-  O272  1  0.91770317  0.04086343  0.73732286  1
  O2-  O273  1  0.90976951  0.54760854  0.06104852  1
  O2-  O274  1  0.91947944  0.54824477  0.40318247  1
  O2-  O275  1  0.91624484  0.54508042  0.72986799  1
  O2-  O276  1  0.30546228  0.17252652  0.06380913  1
  O2-  O277  1  0.30341970  0.16502510  0.39505062  1
  O2-  O278  1  0.29674654  0.16358177  0.73085209  1
  O2-  O279  1  0.30224013  0.66787263  0.05901881  1
  O2-  O280  1  0.29409672  0.67023867  0.40262749  1
  O2-  O281  1  0.29283981  0.66320154  0.73293295  1
  O2-  O282  1  0.78969631  0.16329229  0.06326121  1
  O2-  O283  1  0.79487800  0.16095358  0.39357966  1
  O2-  O284  1  0.78858649  0.16449634  0.73771259  1
  O2-  O285  1  0.78652099  0.66344977  0.06026008  1
  O2-  O286  1  0.79135735  0.67230842  0.40281892  1
  O2-  O287  1  0.79680307  0.66852760  0.72795539  1
