# generated using pymatgen
data_Ca2Al2SiO7
_symmetry_space_group_name_H-M   'P 1'
_cell_length_a   15.45813499
_cell_length_b   15.45743996
_cell_length_c   15.28432319
_cell_angle_alpha   90.00370709
_cell_angle_beta   90.00669005
_cell_angle_gamma   89.99684508
_symmetry_Int_Tables_number   1
_chemical_formula_structural   Ca2Al2SiO7
_chemical_formula_sum   'Ca48 Al48 Si24 O168'
_cell_volume   3652.08495385
_cell_formula_units_Z   24
loop_
 _symmetry_equiv_pos_site_id
 _symmetry_equiv_pos_as_xyz
  1  'x, y, z'
loop_
 _atom_type_symbol
 _atom_type_oxidation_number
  Ca2+  2.0
  Al0+  0.0
  Si0+  0.0
  O2-  -2.0
loop_
 _atom_site_type_symbol
 _atom_site_label
 _atom_site_symmetry_multiplicity
 _atom_site_fract_x
 _atom_site_fract_y
 _atom_site_fract_z
 _atom_site_occupancy
  Ca2+  Ca0  1  0.15769968  0.06980476  0.17264932  1
  Ca2+  Ca1  1  0.16528712  0.07687032  0.50985297  1
  Ca2+  Ca2  1  0.16708760  0.07495861  0.83202745  1
  Ca2+  Ca3  1  0.16275356  0.58632416  0.17045607  1
  Ca2+  Ca4  1  0.15899730  0.57773350  0.50678846  1
  Ca2+  Ca5  1  0.15599401  0.58165436  0.83331503  1
  Ca2+  Ca6  1  0.67464844  0.08238948  0.17204128  1
  Ca2+  Ca7  1  0.67026230  0.08626799  0.49703149  1
  Ca2+  Ca8  1  0.67203883  0.07750278  0.84530040  1
  Ca2+  Ca9  1  0.67089571  0.57455805  0.17676668  1
  Ca2+  Ca10  1  0.67263629  0.57735947  0.50586178  1
  Ca2+  Ca11  1  0.67599175  0.58425677  0.83357408  1
  Ca2+  Ca12  1  0.07603806  0.32205482  0.16274360  1
  Ca2+  Ca13  1  0.09141067  0.31934370  0.49838312  1
  Ca2+  Ca14  1  0.08081933  0.32807317  0.82596731  1
  Ca2+  Ca15  1  0.08347494  0.82842774  0.15895483  1
  Ca2+  Ca16  1  0.08442719  0.82996021  0.49641948  1
  Ca2+  Ca17  1  0.07675460  0.83310094  0.82617948  1
  Ca2+  Ca18  1  0.59029829  0.32063674  0.16643787  1
  Ca2+  Ca19  1  0.57235228  0.33074600  0.48938369  1
  Ca2+  Ca20  1  0.57747293  0.32323199  0.82842941  1
  Ca2+  Ca21  1  0.58553401  0.84344435  0.16272051  1
  Ca2+  Ca22  1  0.57696016  0.83938764  0.49721854  1
  Ca2+  Ca23  1  0.57879047  0.83906803  0.82679912  1
  Ca2+  Ca24  1  0.33593734  0.41925447  0.17203782  1
  Ca2+  Ca25  1  0.33097598  0.41344442  0.50908348  1
  Ca2+  Ca26  1  0.32742026  0.41191618  0.83003232  1
  Ca2+  Ca27  1  0.32094920  0.91808840  0.17040779  1
  Ca2+  Ca28  1  0.32225331  0.92263539  0.50938572  1
  Ca2+  Ca29  1  0.32347081  0.91501149  0.83237991  1
  Ca2+  Ca30  1  0.83116687  0.41387453  0.17223151  1
  Ca2+  Ca31  1  0.82829111  0.42088959  0.50481173  1
  Ca2+  Ca32  1  0.84363797  0.42433098  0.83682140  1
  Ca2+  Ca33  1  0.82999547  0.92598719  0.17095623  1
  Ca2+  Ca34  1  0.83196988  0.91821593  0.50071436  1
  Ca2+  Ca35  1  0.83461790  0.91973406  0.84316951  1
  Ca2+  Ca36  1  0.42953703  0.16688550  0.16642505  1
  Ca2+  Ca37  1  0.41386028  0.17583496  0.49376849  1
  Ca2+  Ca38  1  0.42100578  0.16272987  0.82518004  1
  Ca2+  Ca39  1  0.42107461  0.66902335  0.16418562  1
  Ca2+  Ca40  1  0.41032000  0.67677054  0.49957989  1
  Ca2+  Ca41  1  0.42050158  0.67486789  0.82688799  1
  Ca2+  Ca42  1  0.91230797  0.16534998  0.16360885  1
  Ca2+  Ca43  1  0.92833642  0.15962281  0.49592633  1
  Ca2+  Ca44  1  0.91883843  0.16866782  0.83188264  1
  Ca2+  Ca45  1  0.92734927  0.67540128  0.15830105  1
  Ca2+  Ca46  1  0.92398326  0.66955541  0.50108446  1
  Ca2+  Ca47  1  0.92281318  0.67903036  0.82567592  1
  Al0+  Al48  1  0.00054642  0.00017172  0.00464597  1
  Al0+  Al49  1  -0.00160338  -0.00180166  0.33700373  1
  Al0+  Al50  1  -0.00219994  -0.00011737  0.66399405  1
  Al0+  Al51  1  0.00102028  0.49832793  -0.00294086  1
  Al0+  Al52  1  0.00184433  0.50128965  0.33011543  1
  Al0+  Al53  1  -0.00176856  0.50073332  0.67176573  1
  Al0+  Al54  1  0.49874355  0.00069011  -0.00145146  1
  Al0+  Al55  1  0.49851605  0.00184685  0.33219306  1
  Al0+  Al56  1  0.50060081  -0.00041276  0.66377851  1
  Al0+  Al57  1  0.49887546  0.50038953  -0.00091677  1
  Al0+  Al58  1  0.49883003  0.50304544  0.33533454  1
  Al0+  Al59  1  0.50051121  0.49795710  0.66611889  1
  Al0+  Al60  1  0.25084216  0.25163087  0.00308905  1
  Al0+  Al61  1  0.24849335  0.25087924  0.32041961  1
  Al0+  Al62  1  0.25116767  0.24993330  0.66892475  1
  Al0+  Al63  1  0.25306899  0.74758062  0.00095335  1
  Al0+  Al64  1  0.25032720  0.74964158  0.33237971  1
  Al0+  Al65  1  0.25108932  0.74856404  0.66290645  1
  Al0+  Al66  1  0.74890438  0.25075870  -0.00768229  1
  Al0+  Al67  1  0.74921306  0.25139773  0.34163506  1
  Al0+  Al68  1  0.74917879  0.24949268  0.66778275  1
  Al0+  Al69  1  0.75086592  0.74784161  0.00164030  1
  Al0+  Al70  1  0.74981891  0.75068686  0.33714644  1
  Al0+  Al71  1  0.75095769  0.74867014  0.66682256  1
  Al0+  Al72  1  0.56919393  0.17891674  0.98484987  1
  Al0+  Al73  1  0.32191360  0.07136694  0.68017321  1
  Al0+  Al74  1  0.82002629  0.57026694  0.68168912  1
  Al0+  Al75  1  0.67757043  0.92708710  0.01304054  1
  Al0+  Al76  1  0.67837668  0.42997306  0.34726287  1
  Al0+  Al77  1  0.67641820  0.92840114  0.35052478  1
  Al0+  Al78  1  0.92884324  0.82232844  0.98635862  1
  Al0+  Al79  1  0.42999055  0.31929879  0.65395231  1
  Al0+  Al80  1  0.42761561  0.32454250  0.31614196  1
  Al0+  Al81  1  0.06967293  0.18066754  0.65572287  1
  Al0+  Al82  1  0.42953844  0.82117314  0.65248562  1
  Al0+  Al83  1  0.92705144  0.82276820  0.64941320  1
  Al0+  Al84  1  0.82059572  0.07323426  0.01394698  1
  Al0+  Al85  1  0.18045386  0.92865285  0.01327371  1
  Al0+  Al86  1  0.92879999  0.31904422  0.98688812  1
  Al0+  Al87  1  0.07354803  0.67949587  0.98366145  1
  Al0+  Al88  1  0.06985120  0.17620359  0.31901845  1
  Al0+  Al89  1  0.82071188  0.07207640  0.35121756  1
  Al0+  Al90  1  0.17734741  0.92697589  0.68165763  1
  Al0+  Al91  1  0.17974889  0.42921988  0.67943417  1
  Al0+  Al92  1  0.07069901  0.67843548  0.65092952  1
  Al0+  Al93  1  0.17947959  0.92791324  0.34748982  1
  Al0+  Al94  1  0.57202617  0.17987204  0.31826274  1
  Al0+  Al95  1  0.07111550  0.67961899  0.31832401  1
  Si0+  Si96  1  0.92598007  0.82108639  0.31568216  1
  Si0+  Si97  1  0.43105890  0.81992537  0.98615000  1
  Si0+  Si98  1  0.57237402  0.67744022  0.65012796  1
  Si0+  Si99  1  0.67782165  0.43131713  0.01340690  1
  Si0+  Si100  1  0.17787770  0.42884730  0.01730899  1
  Si0+  Si101  1  0.32230692  0.56941793  0.01589983  1
  Si0+  Si102  1  0.32117590  0.57134652  0.34902665  1
  Si0+  Si103  1  0.67680015  0.42703228  0.68604172  1
  Si0+  Si104  1  0.31966691  0.07347945  0.34716008  1
  Si0+  Si105  1  0.32242123  0.07381615  0.01824253  1
  Si0+  Si106  1  0.07423948  0.17713583  0.98361193  1
  Si0+  Si107  1  0.17952708  0.42913009  0.34573945  1
  Si0+  Si108  1  0.82278123  0.56952412  0.01662262  1
  Si0+  Si109  1  0.42941469  0.82106632  0.31718077  1
  Si0+  Si110  1  0.82395498  0.57190180  0.34958950  1
  Si0+  Si111  1  0.32433327  0.57181502  0.68378763  1
  Si0+  Si112  1  0.57175701  0.68023248  0.31967043  1
  Si0+  Si113  1  0.92688042  0.32299814  0.64999330  1
  Si0+  Si114  1  0.67955800  0.92942836  0.68065147  1
  Si0+  Si115  1  0.57182345  0.67591091  0.98637838  1
  Si0+  Si116  1  0.42795821  0.32399394  0.98186245  1
  Si0+  Si117  1  0.57336311  0.17680192  0.64847342  1
  Si0+  Si118  1  0.82096988  0.07206998  0.68313358  1
  Si0+  Si119  1  0.92884445  0.32238150  0.32050675  1
  O2-  O120  1  0.25080526  0.00763953  0.06142934  1
  O2-  O121  1  0.24959718  0.00742122  0.39253645  1
  O2-  O122  1  0.25076687  -0.00134809  0.73066066  1
  O2-  O123  1  0.24943845  0.50034476  0.05840241  1
  O2-  O124  1  0.25261612  0.49746582  0.38889990  1
  O2-  O125  1  0.25253687  0.50620886  0.72769599  1
  O2-  O126  1  0.75028266  -0.00166669  0.06255581  1
  O2-  O127  1  0.74799070  -0.00007651  0.40109853  1
  O2-  O128  1  0.75016839  -0.00006077  0.72363495  1
  O2-  O129  1  0.75042906  0.49945151  0.05838700  1
  O2-  O130  1  0.75441145  0.50363949  0.39334079  1
  O2-  O131  1  0.74731452  0.49354762  0.73052842  1
  O2-  O132  1  -0.00719030  0.25021047  0.27480129  1
  O2-  O133  1  -0.00454478  0.25500636  0.60589473  1
  O2-  O134  1  0.00348358  0.24436376  0.94056663  1
  O2-  O135  1  -0.00309921  0.75418664  0.27207311  1
  O2-  O136  1  0.00308359  0.75399724  0.60034080  1
  O2-  O137  1  0.00348419  0.75353399  0.93536557  1
  O2-  O138  1  0.50153765  0.25392137  0.26764041  1
  O2-  O139  1  0.50453344  0.24591842  0.60601728  1
  O2-  O140  1  0.49141077  0.25086464  0.93819886  1
  O2-  O141  1  0.50565033  0.75481632  0.27497132  1
  O2-  O142  1  0.50305284  0.74486812  0.60528555  1
  O2-  O143  1  0.50810179  0.75395157  0.94528481  1
  O2-  O144  1  0.07515621  0.17999179  0.08937724  1
  O2-  O145  1  0.07323915  0.17986375  0.43204369  1
  O2-  O146  1  0.06743328  0.18200064  0.76899823  1
  O2-  O147  1  0.07170399  0.67952421  0.09773656  1
  O2-  O148  1  0.07009352  0.67576840  0.43061962  1
  O2-  O149  1  0.06744309  0.67823575  0.76421860  1
  O2-  O150  1  0.57034937  0.18127868  0.09756400  1
  O2-  O151  1  0.56908674  0.18174595  0.43169606  1
  O2-  O152  1  0.57352931  0.17749273  0.75436532  1
  O2-  O153  1  0.56725800  0.66946158  0.09141879  1
  O2-  O154  1  0.56839153  0.67815649  0.42435587  1
  O2-  O155  1  0.57175722  0.67831400  0.75634617  1
  O2-  O156  1  0.17881247  0.43231636  0.24036971  1
  O2-  O157  1  0.18189648  0.42867495  0.56588211  1
  O2-  O158  1  0.17911506  0.42734037  0.91245422  1
  O2-  O159  1  0.18332504  0.92598229  0.23389591  1
  O2-  O160  1  0.17954049  0.92881561  0.56799665  1
  O2-  O161  1  0.18320434  0.92758396  0.90069450  1
  O2-  O162  1  0.68058540  0.43198287  0.23335806  1
  O2-  O163  1  0.67629862  0.42894795  0.58051447  1
  O2-  O164  1  0.67517358  0.43580961  0.90858596  1
  O2-  O165  1  0.67857255  0.92708008  0.23726591  1
  O2-  O166  1  0.67873369  0.93037371  0.57582354  1
  O2-  O167  1  0.67583951  0.92886700  0.89901538  1
  O2-  O168  1  0.43102708  0.32836186  0.08702837  1
  O2-  O169  1  0.42653208  0.32406865  0.42971861  1
  O2-  O170  1  0.43268186  0.31993940  0.76728453  1
  O2-  O171  1  0.42958112  0.81629909  0.09163569  1
  O2-  O172  1  0.42792543  0.81743034  0.42197249  1
  O2-  O173  1  0.43305988  0.81934718  0.76616444  1
  O2-  O174  1  0.92983709  0.32102770  0.10033184  1
  O2-  O175  1  0.93311731  0.32667713  0.42572879  1
  O2-  O176  1  0.92734674  0.32081826  0.75586229  1
  O2-  O177  1  0.92749660  0.81866307  0.09999886  1
  O2-  O178  1  0.92472265  0.81819279  0.42105626  1
  O2-  O179  1  0.92415126  0.82243878  0.76292761  1
  O2-  O180  1  0.32077149  0.06913097  0.24128649  1
  O2-  O181  1  0.32070794  0.07191131  0.56640923  1
  O2-  O182  1  0.32382933  0.07335809  0.91287505  1
  O2-  O183  1  0.32250094  0.57303523  0.24343875  1
  O2-  O184  1  0.32762371  0.56947531  0.57817288  1
  O2-  O185  1  0.32781764  0.56866069  0.91155571  1
  O2-  O186  1  0.81985636  0.07239091  0.23763967  1
  O2-  O187  1  0.81937263  0.07484141  0.57844987  1
  O2-  O188  1  0.81820125  0.07391123  0.89988275  1
  O2-  O189  1  0.82228568  0.57066076  0.24352418  1
  O2-  O190  1  0.81674309  0.56764233  0.56833959  1
  O2-  O191  1  0.82075737  0.56901200  0.91172953  1
  O2-  O192  1  0.03934581  0.07891721  0.26673994  1
  O2-  O193  1  0.03833144  0.08548570  0.60043301  1
  O2-  O194  1  0.05100248  0.08283488  0.93972698  1
  O2-  O195  1  0.04104085  0.58293981  0.26244979  1
  O2-  O196  1  0.03677015  0.57990961  0.59991703  1
  O2-  O197  1  0.04331185  0.58066163  0.93388784  1
  O2-  O198  1  0.54150567  0.08193268  0.26445084  1
  O2-  O199  1  0.54985046  0.08336110  0.60265851  1
  O2-  O200  1  0.53901552  0.08211140  0.93019666  1
  O2-  O201  1  0.53880044  0.59106343  0.26945885  1
  O2-  O202  1  0.54814847  0.58299714  0.60552293  1
  O2-  O203  1  0.53601879  0.58856583  0.93478203  1
  O2-  O204  1  0.16266615  0.20910060  0.25908771  1
  O2-  O205  1  0.16582279  0.21253430  0.60220094  1
  O2-  O206  1  0.16775078  0.20651833  0.93902304  1
  O2-  O207  1  0.16887896  0.70905844  0.26480495  1
  O2-  O208  1  0.17200861  0.69737608  0.60025512  1
  O2-  O209  1  0.17548043  0.70009553  0.93500091  1
  O2-  O210  1  0.67130883  0.21134663  0.26811315  1
  O2-  O211  1  0.66719580  0.20374603  0.60358882  1
  O2-  O212  1  0.66262908  0.21320015  0.92729816  1
  O2-  O213  1  0.66582359  0.70095368  0.27319426  1
  O2-  O214  1  0.66494722  0.70314275  0.60361126  1
  O2-  O215  1  0.66594403  0.69525812  0.94090301  1
  O2-  O216  1  0.08646449  0.45706399  0.06534544  1
  O2-  O217  1  0.08865927  0.45885711  0.39368128  1
  O2-  O218  1  0.08292618  0.45685831  0.73480146  1
  O2-  O219  1  0.08402869  0.95605042  0.06928609  1
  O2-  O220  1  0.08137436  0.95222306  0.39927783  1
  O2-  O221  1  0.07865612  0.95819326  0.73243411  1
  O2-  O222  1  0.58703969  0.46183807  0.06189605  1
  O2-  O223  1  0.58287500  0.46511416  0.40119359  1
  O2-  O224  1  0.58421074  0.45514525  0.73325535  1
  O2-  O225  1  0.57807866  0.95540042  0.06450157  1
  O2-  O226  1  0.57607362  0.95586566  0.40083422  1
  O2-  O227  1  0.58768495  0.95718483  0.72802173  1
  O2-  O228  1  0.20554672  0.33736898  0.06631262  1
  O2-  O229  1  0.20601792  0.33535266  0.38939450  1
  O2-  O230  1  0.21378682  0.33553667  0.73702805  1
  O2-  O231  1  0.21740162  0.83287734  0.06696284  1
  O2-  O232  1  0.21603193  0.83269708  0.40048998  1
  O2-  O233  1  0.20855557  0.82799264  0.73206723  1
  O2-  O234  1  0.70565015  0.33858156  0.05749393  1
  O2-  O235  1  0.70621197  0.33589236  0.40576051  1
  O2-  O236  1  0.70042387  0.33215052  0.73071205  1
  O2-  O237  1  0.69896802  0.82564958  0.06448961  1
  O2-  O238  1  0.70220371  0.82847895  0.40329391  1
  O2-  O239  1  0.70320718  0.83595647  0.72647043  1
  O2-  O240  1  0.45423096  0.42549418  0.26653529  1
  O2-  O241  1  0.45930033  0.41675197  0.60000457  1
  O2-  O242  1  0.45782553  0.41594018  0.93416240  1
  O2-  O243  1  0.45156023  0.91397591  0.26988479  1
  O2-  O244  1  0.46235019  0.91600112  0.59644340  1
  O2-  O245  1  0.45230629  0.91259298  0.93848447  1
  O2-  O246  1  0.95744520  0.41383805  0.27051670  1
  O2-  O247  1  0.95022967  0.41731252  0.60634071  1
  O2-  O248  1  0.96250638  0.41429162  0.93181805  1
  O2-  O249  1  0.95015874  0.91542737  0.27214763  1
  O2-  O250  1  0.95033270  0.92192226  0.59676805  1
  O2-  O251  1  0.95428369  0.92260233  0.93600760  1
  O2-  O252  1  0.33117257  0.29709419  0.25863964  1
  O2-  O253  1  0.33359106  0.29012649  0.59981931  1
  O2-  O254  1  0.33140826  0.30300654  0.93995786  1
  O2-  O255  1  0.34104562  0.78552073  0.26764195  1
  O2-  O256  1  0.33482612  0.78962251  0.59582380  1
  O2-  O257  1  0.34308465  0.78403431  0.93726944  1
  O2-  O258  1  0.83300945  0.30124942  0.27779326  1
  O2-  O259  1  0.83201223  0.29795219  0.60585145  1
  O2-  O260  1  0.83295287  0.29444044  0.92868834  1
  O2-  O261  1  0.83249152  0.79320708  0.26994130  1
  O2-  O262  1  0.82985846  0.78850670  0.59665008  1
  O2-  O263  1  0.83011463  0.79078036  0.93409778  1
  O2-  O264  1  0.41416840  0.04303233  0.06500007  1
  O2-  O265  1  0.41263577  0.04771751  0.39355081  1
  O2-  O266  1  0.42108641  0.04142279  0.73228174  1
  O2-  O267  1  0.41297501  0.53889872  0.06644586  1
  O2-  O268  1  0.41307801  0.54887267  0.39833958  1
  O2-  O269  1  0.41712564  0.54345125  0.73175050  1
  O2-  O270  1  0.91999049  0.05003504  0.06705484  1
  O2-  O271  1  0.91801496  0.04101203  0.40469665  1
  O2-  O272  1  0.91248302  0.04523015  0.73033675  1
  O2-  O273  1  0.91402651  0.53890153  0.06348431  1
  O2-  O274  1  0.91711369  0.54386536  0.39498439  1
  O2-  O275  1  0.91459936  0.53996787  0.73916813  1
  O2-  O276  1  0.30211311  0.16932721  0.06344123  1
  O2-  O277  1  0.29536176  0.16983679  0.38759589  1
  O2-  O278  1  0.29427639  0.16832123  0.73595048  1
  O2-  O279  1  0.29800159  0.66097592  0.06598789  1
  O2-  O280  1  0.29061494  0.66186658  0.39676467  1
  O2-  O281  1  0.30320420  0.66673938  0.72831476  1
  O2-  O282  1  0.78868788  0.17238245  0.06444299  1
  O2-  O283  1  0.79487137  0.17020518  0.40631916  1
  O2-  O284  1  0.79303990  0.16434550  0.73095785  1
  O2-  O285  1  0.79497731  0.66039808  0.06539145  1
  O2-  O286  1  0.79760010  0.66446874  0.39613412  1
  O2-  O287  1  0.78527445  0.66537745  0.73732087  1
