# generated using pymatgen
data_Ca2Al2SiO7
_symmetry_space_group_name_H-M   'P 1'
_cell_length_a   15.46340474
_cell_length_b   15.46486000
_cell_length_c   15.28821063
_cell_angle_alpha   89.97803285
_cell_angle_beta   89.99098770
_cell_angle_gamma   90.00003220
_symmetry_Int_Tables_number   1
_chemical_formula_structural   Ca2Al2SiO7
_chemical_formula_sum   'Ca48 Al48 Si24 O168'
_cell_volume   3656.01304331
_cell_formula_units_Z   24
loop_
 _symmetry_equiv_pos_site_id
 _symmetry_equiv_pos_as_xyz
  1  'x, y, z'
loop_
 _atom_type_symbol
 _atom_type_oxidation_number
  Ca2+  2.0
  Al0+  0.0
  Si0+  0.0
  O2-  -2.0
loop_
 _atom_site_type_symbol
 _atom_site_label
 _atom_site_symmetry_multiplicity
 _atom_site_fract_x
 _atom_site_fract_y
 _atom_site_fract_z
 _atom_site_occupancy
  Ca2+  Ca0  1  0.16725981  0.08719963  0.16022936  1
  Ca2+  Ca1  1  0.16715622  0.08158009  0.50490737  1
  Ca2+  Ca2  1  0.16834953  0.07935759  0.84711452  1
  Ca2+  Ca3  1  0.18018028  0.57941124  0.16991480  1
  Ca2+  Ca4  1  0.17563229  0.57846671  0.51079263  1
  Ca2+  Ca5  1  0.17463543  0.57802530  0.83462715  1
  Ca2+  Ca6  1  0.67334952  0.09197241  0.17344104  1
  Ca2+  Ca7  1  0.67340867  0.09344189  0.50229851  1
  Ca2+  Ca8  1  0.67317324  0.09572761  0.83642300  1
  Ca2+  Ca9  1  0.66901284  0.57574230  0.16864535  1
  Ca2+  Ca10  1  0.66425781  0.57410842  0.50504420  1
  Ca2+  Ca11  1  0.66745919  0.58333751  0.84329059  1
  Ca2+  Ca12  1  0.06920492  0.32866150  0.15832715  1
  Ca2+  Ca13  1  0.07214319  0.34176696  0.49935806  1
  Ca2+  Ca14  1  0.07264005  0.33853869  0.82990066  1
  Ca2+  Ca15  1  0.08342081  0.83421466  0.15985037  1
  Ca2+  Ca16  1  0.08512024  0.82553109  0.49912417  1
  Ca2+  Ca17  1  0.08608459  0.82869309  0.82921710  1
  Ca2+  Ca18  1  0.58474867  0.32515992  0.16243796  1
  Ca2+  Ca19  1  0.58405549  0.32569957  0.49866145  1
  Ca2+  Ca20  1  0.57048727  0.32485438  0.83336096  1
  Ca2+  Ca21  1  0.58786954  0.82762025  0.16234935  1
  Ca2+  Ca22  1  0.58799403  0.82749708  0.49736014  1
  Ca2+  Ca23  1  0.58715267  0.81924701  0.83065835  1
  Ca2+  Ca24  1  0.34568761  0.42606108  0.16767897  1
  Ca2+  Ca25  1  0.33039185  0.42439278  0.51217704  1
  Ca2+  Ca26  1  0.33973092  0.42073718  0.83733894  1
  Ca2+  Ca27  1  0.33074652  0.92295804  0.16181987  1
  Ca2+  Ca28  1  0.33450591  0.91912465  0.50253416  1
  Ca2+  Ca29  1  0.32612239  0.92370475  0.84249463  1
  Ca2+  Ca30  1  0.83140194  0.41402216  0.17013390  1
  Ca2+  Ca31  1  0.82844446  0.40517624  0.50152788  1
  Ca2+  Ca32  1  0.83495638  0.41832689  0.83896502  1
  Ca2+  Ca33  1  0.82474154  0.93132769  0.17214885  1
  Ca2+  Ca34  1  0.82656518  0.93034887  0.50347028  1
  Ca2+  Ca35  1  0.83364926  0.93195279  0.83952403  1
  Ca2+  Ca36  1  0.42864678  0.17095026  0.15309069  1
  Ca2+  Ca37  1  0.42620169  0.17283982  0.49439033  1
  Ca2+  Ca38  1  0.42093085  0.17098318  0.82632886  1
  Ca2+  Ca39  1  0.42009067  0.66382952  0.15856661  1
  Ca2+  Ca40  1  0.41708208  0.66026576  0.50089761  1
  Ca2+  Ca41  1  0.42384501  0.65910698  0.83025268  1
  Ca2+  Ca42  1  0.91224225  0.17364786  0.15848215  1
  Ca2+  Ca43  1  0.90890170  0.17430881  0.49704224  1
  Ca2+  Ca44  1  0.91603112  0.17322632  0.83164178  1
  Ca2+  Ca45  1  0.91509152  0.66854331  0.15788819  1
  Ca2+  Ca46  1  0.92701068  0.66241817  0.49810703  1
  Ca2+  Ca47  1  0.92192157  0.66616722  0.82679732  1
  Al0+  Al48  1  -0.00311058  -0.00040981  0.00554610  1
  Al0+  Al49  1  0.00072438  -0.00112852  0.33789704  1
  Al0+  Al50  1  -0.00235045  0.00065044  0.66997291  1
  Al0+  Al51  1  0.00101570  0.50235926  0.00191067  1
  Al0+  Al52  1  0.00280622  0.50050802  0.32599372  1
  Al0+  Al53  1  0.00050610  0.50090887  0.66056494  1
  Al0+  Al54  1  0.49961289  -0.00346875  -0.00155397  1
  Al0+  Al55  1  0.49947914  -0.00312627  0.33183549  1
  Al0+  Al56  1  0.50182466  -0.00320276  0.66385342  1
  Al0+  Al57  1  0.50200806  0.49918209  -0.00220826  1
  Al0+  Al58  1  0.50234666  0.50097187  0.34261162  1
  Al0+  Al59  1  0.50094679  0.49942998  0.66357363  1
  Al0+  Al60  1  0.24793391  0.25074964  -0.00036150  1
  Al0+  Al61  1  0.24862746  0.25131918  0.33315179  1
  Al0+  Al62  1  0.24719532  0.25035649  0.66633421  1
  Al0+  Al63  1  0.25002818  0.74903865  0.00779625  1
  Al0+  Al64  1  0.25205024  0.74988712  0.33599259  1
  Al0+  Al65  1  0.25074471  0.74917983  0.66572947  1
  Al0+  Al66  1  0.74825932  0.25241604  -0.00394854  1
  Al0+  Al67  1  0.74988666  0.25254811  0.33295642  1
  Al0+  Al68  1  0.75051088  0.25127138  0.66663442  1
  Al0+  Al69  1  0.75181270  0.75002830  -0.00029678  1
  Al0+  Al70  1  0.75246705  0.75096127  0.33629421  1
  Al0+  Al71  1  0.74959342  0.75178279  0.66064578  1
  Al0+  Al72  1  0.68195670  0.43087194  0.34789981  1
  Al0+  Al73  1  0.67665348  0.92673742  0.34915369  1
  Al0+  Al74  1  0.07079827  0.68089919  0.65344688  1
  Al0+  Al75  1  0.17600969  0.42791511  0.68249650  1
  Al0+  Al76  1  0.32205948  0.56996055  0.68479901  1
  Al0+  Al77  1  0.57105321  0.68057866  0.98930609  1
  Al0+  Al78  1  0.32103262  0.57011612  0.34893170  1
  Al0+  Al79  1  0.17777954  0.92909588  0.01509946  1
  Al0+  Al80  1  0.57238702  0.67820440  0.65145220  1
  Al0+  Al81  1  0.81632319  0.07282679  0.01358756  1
  Al0+  Al82  1  0.42770815  0.32154410  0.98783082  1
  Al0+  Al83  1  0.93025266  0.31935456  0.31833952  1
  Al0+  Al84  1  0.57061328  0.17542347  0.98525769  1
  Al0+  Al85  1  0.81961711  0.07211964  0.34909874  1
  Al0+  Al86  1  0.32193458  0.56723956  0.01392344  1
  Al0+  Al87  1  0.57028789  0.17842848  0.65061727  1
  Al0+  Al88  1  0.32306158  0.07432147  0.01337106  1
  Al0+  Al89  1  0.06876925  0.17703528  0.98580950  1
  Al0+  Al90  1  0.82287008  0.57236824  0.01148976  1
  Al0+  Al91  1  0.42579586  0.32060304  0.65045776  1
  Al0+  Al92  1  0.56866550  0.17922144  0.31950164  1
  Al0+  Al93  1  0.92886968  0.32321021  0.98371306  1
  Al0+  Al94  1  0.81825689  0.07187895  0.68335736  1
  Al0+  Al95  1  0.93078889  0.32059496  0.65222298  1
  Si0+  Si96  1  0.82073150  0.57304642  0.67845884  1
  Si0+  Si97  1  0.17997024  0.92854350  0.35012707  1
  Si0+  Si98  1  0.67742783  0.92544177  0.68547589  1
  Si0+  Si99  1  0.32198641  0.07017412  0.67806833  1
  Si0+  Si100  1  0.57187412  0.67852197  0.31904137  1
  Si0+  Si101  1  0.17527495  0.42753780  0.01853516  1
  Si0+  Si102  1  0.17903994  0.92920371  0.67971115  1
  Si0+  Si103  1  0.42819353  0.82064563  0.64938514  1
  Si0+  Si104  1  0.93059509  0.82109909  0.31773187  1
  Si0+  Si105  1  0.07312187  0.68109163  0.31569749  1
  Si0+  Si106  1  0.42737225  0.81997289  0.31613844  1
  Si0+  Si107  1  0.68017216  0.42997687  0.68349292  1
  Si0+  Si108  1  0.32115731  0.07162020  0.34722565  1
  Si0+  Si109  1  0.07139950  0.17445431  0.65047002  1
  Si0+  Si110  1  0.92814146  0.82471501  0.64840569  1
  Si0+  Si111  1  0.07301053  0.68038593  0.98610761  1
  Si0+  Si112  1  0.17664163  0.42833024  0.34950959  1
  Si0+  Si113  1  0.07415767  0.17422615  0.31665734  1
  Si0+  Si114  1  0.42511247  0.82012922  0.98352267  1
  Si0+  Si115  1  0.92926315  0.82037566  0.98547101  1
  Si0+  Si116  1  0.67808101  0.92533634  0.01437803  1
  Si0+  Si117  1  0.82557940  0.57307513  0.35002011  1
  Si0+  Si118  1  0.67948620  0.43053631  0.01579059  1
  Si0+  Si119  1  0.42678508  0.32336074  0.31846784  1
  O2-  O120  1  0.24852174  0.00351664  0.06361548  1
  O2-  O121  1  0.24770779  0.00303584  0.39134928  1
  O2-  O122  1  0.24751535  0.00250819  0.72044975  1
  O2-  O123  1  0.25069017  0.48992638  0.06225429  1
  O2-  O124  1  0.24880210  0.49285120  0.39387362  1
  O2-  O125  1  0.25278075  0.49455627  0.73336510  1
  O2-  O126  1  0.73607556  0.00278995  0.05872206  1
  O2-  O127  1  0.74417565  0.00290878  0.39903070  1
  O2-  O128  1  0.74249284  -0.00280967  0.72932272  1
  O2-  O129  1  0.75145365  0.49640984  0.05962588  1
  O2-  O130  1  0.75838405  0.50448541  0.39548890  1
  O2-  O131  1  0.74844048  0.50537501  0.72307218  1
  O2-  O132  1  0.00382577  0.24208674  0.27479047  1
  O2-  O133  1  0.00589539  0.24568014  0.60592945  1
  O2-  O134  1  0.00071948  0.25115405  0.93356824  1
  O2-  O135  1  -0.00015991  0.74927447  0.27302918  1
  O2-  O136  1  -0.00408620  0.75483053  0.60414781  1
  O2-  O137  1  0.00138354  0.75045330  0.94327751  1
  O2-  O138  1  0.49087951  0.25122147  0.27380984  1
  O2-  O139  1  0.49607821  0.24748062  0.59964048  1
  O2-  O140  1  0.49016390  0.24041903  0.93864366  1
  O2-  O141  1  0.50132835  0.75021803  0.27670197  1
  O2-  O142  1  0.49636032  0.75170176  0.60476850  1
  O2-  O143  1  0.49590526  0.75352307  0.94022820  1
  O2-  O144  1  0.06458528  0.17771008  0.09982306  1
  O2-  O145  1  0.07732128  0.17284385  0.42226252  1
  O2-  O146  1  0.06906488  0.16865450  0.75524470  1
  O2-  O147  1  0.07230068  0.68228399  0.09159293  1
  O2-  O148  1  0.07280760  0.68276876  0.42087437  1
  O2-  O149  1  0.06953451  0.68372743  0.76658125  1
  O2-  O150  1  0.57311754  0.17962643  0.09916536  1
  O2-  O151  1  0.56701620  0.18121263  0.43242762  1
  O2-  O152  1  0.56802463  0.17937522  0.76381638  1
  O2-  O153  1  0.57078753  0.68163239  0.10286514  1
  O2-  O154  1  0.57059444  0.67953621  0.42401440  1
  O2-  O155  1  0.57540017  0.68053965  0.76447134  1
  O2-  O156  1  0.17428302  0.43118952  0.24418925  1
  O2-  O157  1  0.17475893  0.43336191  0.56844418  1
  O2-  O158  1  0.16941995  0.43430652  0.91365793  1
  O2-  O159  1  0.18016472  0.92497997  0.24580212  1
  O2-  O160  1  0.18000808  0.92901654  0.57401267  1
  O2-  O161  1  0.17985867  0.92575326  0.90111058  1
  O2-  O162  1  0.68063633  0.43362683  0.23489858  1
  O2-  O163  1  0.68231642  0.42954788  0.57803097  1
  O2-  O164  1  0.67813900  0.43363270  0.91012856  1
  O2-  O165  1  0.68104757  0.92172835  0.23576466  1
  O2-  O166  1  0.67972984  0.92237548  0.58014260  1
  O2-  O167  1  0.68504936  0.91846714  0.90931370  1
  O2-  O168  1  0.43588125  0.32536545  0.10174482  1
  O2-  O169  1  0.42549568  0.32109819  0.42377502  1
  O2-  O170  1  0.42764372  0.31885862  0.76380127  1
  O2-  O171  1  0.42424641  0.81831996  0.08945001  1
  O2-  O172  1  0.42271219  0.81985473  0.42110813  1
  O2-  O173  1  0.42696927  0.82233203  0.75453598  1
  O2-  O174  1  0.92913032  0.32296419  0.09744044  1
  O2-  O175  1  0.93235938  0.32035501  0.43147315  1
  O2-  O176  1  0.92999612  0.32248588  0.76465735  1
  O2-  O177  1  0.92900395  0.81774244  0.09083956  1
  O2-  O178  1  0.93425736  0.81981350  0.42273043  1
  O2-  O179  1  0.92954995  0.82457222  0.75413981  1
  O2-  O180  1  0.32065931  0.06975183  0.24278759  1
  O2-  O181  1  0.32053551  0.06624514  0.57230024  1
  O2-  O182  1  0.32227554  0.06847191  0.89933993  1
  O2-  O183  1  0.32106592  0.57117782  0.23558861  1
  O2-  O184  1  0.31829001  0.57172731  0.57092411  1
  O2-  O185  1  0.32095459  0.56983967  0.90166064  1
  O2-  O186  1  0.81980660  0.07025237  0.23554137  1
  O2-  O187  1  0.81915606  0.07029086  0.57035410  1
  O2-  O188  1  0.81841549  0.07026410  0.90048789  1
  O2-  O189  1  0.82361362  0.57515403  0.24446056  1
  O2-  O190  1  0.82002230  0.57233415  0.57320025  1
  O2-  O191  1  0.82146694  0.57484595  0.89815433  1
  O2-  O192  1  0.05137492  0.07874838  0.27319536  1
  O2-  O193  1  0.04371917  0.08147475  0.60221746  1
  O2-  O194  1  0.03943246  0.07752047  0.93497817  1
  O2-  O195  1  0.04909977  0.58921883  0.26724298  1
  O2-  O196  1  0.03814855  0.58742343  0.59491355  1
  O2-  O197  1  0.04538450  0.58929640  0.93891382  1
  O2-  O198  1  0.54193137  0.08020103  0.26813167  1
  O2-  O199  1  0.54748983  0.07722515  0.59995860  1
  O2-  O200  1  0.55319746  0.07314669  0.93551178  1
  O2-  O201  1  0.54276913  0.58644182  0.27338928  1
  O2-  O202  1  0.54312191  0.58222076  0.59665241  1
  O2-  O203  1  0.54179898  0.58499274  0.93408217  1
  O2-  O204  1  0.16756465  0.20098121  0.26974368  1
  O2-  O205  1  0.16609373  0.19528947  0.60442047  1
  O2-  O206  1  0.17025315  0.19727603  0.93650655  1
  O2-  O207  1  0.16422694  0.71349189  0.26970742  1
  O2-  O208  1  0.16597408  0.71443451  0.59734135  1
  O2-  O209  1  0.16424842  0.71026790  0.93951735  1
  O2-  O210  1  0.66421402  0.21460351  0.26728709  1
  O2-  O211  1  0.66713363  0.21379519  0.59922867  1
  O2-  O212  1  0.66446239  0.21361997  0.93032805  1
  O2-  O213  1  0.66545932  0.70508801  0.27400469  1
  O2-  O214  1  0.66792226  0.70979728  0.59461086  1
  O2-  O215  1  0.66714373  0.71255668  0.93411130  1
  O2-  O216  1  0.08608016  0.46237747  0.06886893  1
  O2-  O217  1  0.08461063  0.46037626  0.39565638  1
  O2-  O218  1  0.07920377  0.46491632  0.73404342  1
  O2-  O219  1  0.07948374  0.95423129  0.06996410  1
  O2-  O220  1  0.08804136  0.95207050  0.39965744  1
  O2-  O221  1  0.08620265  0.95252371  0.72661209  1
  O2-  O222  1  0.58886676  0.46115698  0.06450197  1
  O2-  O223  1  0.58799311  0.46300474  0.40631011  1
  O2-  O224  1  0.58779126  0.45653719  0.72894642  1
  O2-  O225  1  0.58009884  0.93659897  0.05544161  1
  O2-  O226  1  0.57466704  0.94562018  0.39883364  1
  O2-  O227  1  0.58142584  0.94466922  0.72901017  1
  O2-  O228  1  0.19116773  0.33137030  0.06189409  1
  O2-  O229  1  0.19533543  0.33239130  0.39413595  1
  O2-  O230  1  0.19360508  0.32563608  0.73147202  1
  O2-  O231  1  0.20902615  0.83289913  0.07217252  1
  O2-  O232  1  0.21264804  0.83879703  0.39941325  1
  O2-  O233  1  0.20903782  0.83859042  0.72724788  1
  O2-  O234  1  0.70363557  0.33697124  0.06162055  1
  O2-  O235  1  0.71324774  0.33568090  0.40335826  1
  O2-  O236  1  0.71236595  0.34065008  0.73145741  1
  O2-  O237  1  0.71391148  0.83681070  0.06516318  1
  O2-  O238  1  0.71107978  0.83022537  0.40427459  1
  O2-  O239  1  0.70750964  0.83236823  0.73125668  1
  O2-  O240  1  0.45859109  0.41717445  0.27644738  1
  O2-  O241  1  0.45698274  0.41824277  0.59823100  1
  O2-  O242  1  0.46606842  0.41520104  0.93129676  1
  O2-  O243  1  0.45211320  0.91165584  0.26728595  1
  O2-  O244  1  0.45446977  0.91287182  0.59990338  1
  O2-  O245  1  0.44668249  0.91392880  0.93681659  1
  O2-  O246  1  0.96120244  0.41640392  0.26361719  1
  O2-  O247  1  0.95960082  0.41669016  0.59545314  1
  O2-  O248  1  0.95855354  0.42319368  0.93341838  1
  O2-  O249  1  0.96094207  0.91251691  0.27108823  1
  O2-  O250  1  0.95733790  0.91685035  0.60133566  1
  O2-  O251  1  0.95679901  0.91179478  0.93834300  1
  O2-  O252  1  0.33089294  0.30441604  0.27375566  1
  O2-  O253  1  0.32562928  0.29572837  0.59825777  1
  O2-  O254  1  0.32497426  0.30786289  0.93990946  1
  O2-  O255  1  0.33668597  0.78892948  0.26790958  1
  O2-  O256  1  0.33490812  0.79567675  0.60130772  1
  O2-  O257  1  0.33185054  0.79196221  0.93845910  1
  O2-  O258  1  0.83326354  0.29158809  0.26487861  1
  O2-  O259  1  0.83484779  0.28759052  0.59866620  1
  O2-  O260  1  0.83000450  0.29785591  0.93190819  1
  O2-  O261  1  0.83839646  0.79407275  0.27073668  1
  O2-  O262  1  0.83497154  0.80073523  0.60160970  1
  O2-  O263  1  0.83967260  0.79069928  0.93565208  1
  O2-  O264  1  0.42033634  0.04034849  0.06752411  1
  O2-  O265  1  0.41066168  0.03884430  0.39580564  1
  O2-  O266  1  0.41267261  0.03858714  0.72479513  1
  O2-  O267  1  0.41967320  0.53829426  0.06780936  1
  O2-  O268  1  0.41766153  0.54392314  0.40386509  1
  O2-  O269  1  0.42312582  0.54440661  0.73327105  1
  O2-  O270  1  0.90982262  0.03611074  0.06929141  1
  O2-  O271  1  0.91808110  0.04042870  0.40182400  1
  O2-  O272  1  0.91481386  0.03822479  0.73666022  1
  O2-  O273  1  0.91995522  0.54730410  0.06771388  1
  O2-  O274  1  0.92148535  0.54864411  0.39185162  1
  O2-  O275  1  0.91256635  0.54443589  0.72424467  1
  O2-  O276  1  0.29772882  0.17297952  0.06784733  1
  O2-  O277  1  0.29563304  0.16445878  0.39454208  1
  O2-  O278  1  0.29844104  0.16295785  0.72347650  1
  O2-  O279  1  0.28884841  0.66236003  0.07010152  1
  O2-  O280  1  0.28745770  0.66640089  0.40236913  1
  O2-  O281  1  0.29092253  0.66936720  0.73456301  1
  O2-  O282  1  0.78867611  0.17106921  0.06552583  1
  O2-  O283  1  0.79164982  0.17064680  0.40077043  1
  O2-  O284  1  0.78760685  0.16871880  0.73615016  1
  O2-  O285  1  0.79045130  0.66775504  0.06793887  1
  O2-  O286  1  0.80205943  0.66664029  0.39675138  1
  O2-  O287  1  0.79744490  0.66741535  0.72326465  1
