# generated using pymatgen
data_Ca2Al2SiO7
_symmetry_space_group_name_H-M   'P 1'
_cell_length_a   15.45532826
_cell_length_b   15.45499713
_cell_length_c   15.28144951
_cell_angle_alpha   90.00969197
_cell_angle_beta   89.99387702
_cell_angle_gamma   90.00300712
_symmetry_Int_Tables_number   1
_chemical_formula_structural   Ca2Al2SiO7
_chemical_formula_sum   'Ca48 Al48 Si24 O168'
_cell_volume   3650.15833954
_cell_formula_units_Z   24
loop_
 _symmetry_equiv_pos_site_id
 _symmetry_equiv_pos_as_xyz
  1  'x, y, z'
loop_
 _atom_type_symbol
 _atom_type_oxidation_number
  Ca2+  2.0
  Al0+  0.0
  Si0+  0.0
  O2-  -2.0
loop_
 _atom_site_type_symbol
 _atom_site_label
 _atom_site_symmetry_multiplicity
 _atom_site_fract_x
 _atom_site_fract_y
 _atom_site_fract_z
 _atom_site_occupancy
  Ca2+  Ca0  1  0.16330633  0.08592583  0.17177740  1
  Ca2+  Ca1  1  0.17057371  0.09188585  0.49442813  1
  Ca2+  Ca2  1  0.16429731  0.08021035  0.83996419  1
  Ca2+  Ca3  1  0.17805589  0.57347219  0.17368613  1
  Ca2+  Ca4  1  0.17704437  0.57835772  0.50174212  1
  Ca2+  Ca5  1  0.18035836  0.58256664  0.84166330  1
  Ca2+  Ca6  1  0.66933990  0.07675063  0.17385646  1
  Ca2+  Ca7  1  0.67005715  0.07336981  0.50283958  1
  Ca2+  Ca8  1  0.66107929  0.07344381  0.84075568  1
  Ca2+  Ca9  1  0.67334491  0.57578677  0.16896034  1
  Ca2+  Ca10  1  0.66265674  0.57321321  0.50369774  1
  Ca2+  Ca11  1  0.66791163  0.57730763  0.83510045  1
  Ca2+  Ca12  1  0.08491969  0.32340428  0.16114929  1
  Ca2+  Ca13  1  0.07815641  0.33225012  0.49171465  1
  Ca2+  Ca14  1  0.07223575  0.33476580  0.83264815  1
  Ca2+  Ca15  1  0.07025518  0.83884415  0.15980555  1
  Ca2+  Ca16  1  0.07685265  0.83016895  0.49055654  1
  Ca2+  Ca17  1  0.07764801  0.83680390  0.83483492  1
  Ca2+  Ca18  1  0.57528283  0.33093794  0.16150773  1
  Ca2+  Ca19  1  0.57473124  0.34429371  0.49544333  1
  Ca2+  Ca20  1  0.57668709  0.33413031  0.82903227  1
  Ca2+  Ca21  1  0.58580553  0.83627016  0.16167408  1
  Ca2+  Ca22  1  0.59367059  0.82739841  0.49803269  1
  Ca2+  Ca23  1  0.58902125  0.82707666  0.82720729  1
  Ca2+  Ca24  1  0.33612661  0.42018616  0.17531940  1
  Ca2+  Ca25  1  0.33382742  0.41950973  0.50173259  1
  Ca2+  Ca26  1  0.34542632  0.42441713  0.83560794  1
  Ca2+  Ca27  1  0.32466394  0.92669235  0.17121997  1
  Ca2+  Ca28  1  0.33733230  0.92828309  0.50136287  1
  Ca2+  Ca29  1  0.32483087  0.91859014  0.84312508  1
  Ca2+  Ca30  1  0.83264619  0.41726300  0.17043633  1
  Ca2+  Ca31  1  0.82070475  0.40894118  0.50654009  1
  Ca2+  Ca32  1  0.83243074  0.41594999  0.83938537  1
  Ca2+  Ca33  1  0.82741739  0.91881777  0.17334087  1
  Ca2+  Ca34  1  0.82999771  0.92055890  0.49768437  1
  Ca2+  Ca35  1  0.82264229  0.91458998  0.84201412  1
  Ca2+  Ca36  1  0.41775265  0.17680105  0.16044900  1
  Ca2+  Ca37  1  0.41568761  0.17857657  0.49070740  1
  Ca2+  Ca38  1  0.42167995  0.17785094  0.83221342  1
  Ca2+  Ca39  1  0.41507425  0.66298289  0.16369894  1
  Ca2+  Ca40  1  0.42039306  0.65903830  0.49873527  1
  Ca2+  Ca41  1  0.42053095  0.66339529  0.82569148  1
  Ca2+  Ca42  1  0.92479257  0.16634379  0.16056735  1
  Ca2+  Ca43  1  0.92026352  0.16746839  0.49324933  1
  Ca2+  Ca44  1  0.91944311  0.17596972  0.83370730  1
  Ca2+  Ca45  1  0.91139296  0.67624526  0.15982388  1
  Ca2+  Ca46  1  0.91531686  0.67465016  0.49302883  1
  Ca2+  Ca47  1  0.90970379  0.67047105  0.83417036  1
  Al0+  Al48  1  -0.00216260  -0.00126748  -0.00687161  1
  Al0+  Al49  1  -0.00153324  -0.00033193  0.33018010  1
  Al0+  Al50  1  0.00026867  0.00086502  0.66575068  1
  Al0+  Al51  1  0.00190919  0.50218541  0.00186985  1
  Al0+  Al52  1  0.00152529  0.50148159  0.33613936  1
  Al0+  Al53  1  0.00060869  0.50058670  0.66060199  1
  Al0+  Al54  1  0.49725049  -0.00100320  0.00048715  1
  Al0+  Al55  1  0.49909814  -0.00221115  0.34146093  1
  Al0+  Al56  1  0.49909887  0.00020201  0.67238861  1
  Al0+  Al57  1  0.50216281  0.50151678  0.00158683  1
  Al0+  Al58  1  0.50197860  0.50180837  0.33344023  1
  Al0+  Al59  1  0.50183164  0.50100387  0.66678991  1
  Al0+  Al60  1  0.25067920  0.25134486  -0.01204273  1
  Al0+  Al61  1  0.24894285  0.25111006  0.33245066  1
  Al0+  Al62  1  0.24938698  0.25059055  0.66523215  1
  Al0+  Al63  1  0.24896340  0.75077407  0.01030771  1
  Al0+  Al64  1  0.25146385  0.74938332  0.33619063  1
  Al0+  Al65  1  0.24989765  0.75099278  0.66916985  1
  Al0+  Al66  1  0.74900525  0.24708915  -0.00687365  1
  Al0+  Al67  1  0.74916739  0.24859144  0.34165262  1
  Al0+  Al68  1  0.75029200  0.24813139  0.66822137  1
  Al0+  Al69  1  0.74930686  0.74874860  0.00353011  1
  Al0+  Al70  1  0.74963286  0.74850536  0.33107149  1
  Al0+  Al71  1  0.74981073  0.75034019  0.66416286  1
  Al0+  Al72  1  0.92750834  0.81875856  0.98488890  1
  Al0+  Al73  1  0.92980775  0.81829428  0.31839562  1
  Al0+  Al74  1  0.68096898  0.92904279  0.68220117  1
  Al0+  Al75  1  0.68108638  0.42901979  0.34526899  1
  Al0+  Al76  1  0.17844432  0.42719663  0.34827957  1
  Al0+  Al77  1  0.67992874  0.42857198  0.68180361  1
  Al0+  Al78  1  0.32029565  0.07183731  0.34525077  1
  Al0+  Al79  1  0.31968844  0.56928721  0.68137427  1
  Al0+  Al80  1  0.43068395  0.32391868  0.98398370  1
  Al0+  Al81  1  0.43136841  0.32107162  0.31994237  1
  Al0+  Al82  1  0.07154259  0.17798027  0.98287987  1
  Al0+  Al83  1  0.67765180  0.92914090  0.01398995  1
  Al0+  Al84  1  0.57082866  0.17540496  0.98621486  1
  Al0+  Al85  1  0.17639527  0.93096113  0.01407473  1
  Al0+  Al86  1  0.82295252  0.07086630  0.34768432  1
  Al0+  Al87  1  0.43170162  0.32023305  0.65061289  1
  Al0+  Al88  1  0.82191494  0.56953630  0.01264336  1
  Al0+  Al89  1  0.32250081  0.57144758  0.35045935  1
  Al0+  Al90  1  0.57025650  0.68132165  0.65279821  1
  Al0+  Al91  1  0.92813534  0.32155116  0.65113587  1
  Al0+  Al92  1  0.92828837  0.32427564  0.98721285  1
  Al0+  Al93  1  0.32320482  0.56970386  0.01489445  1
  Al0+  Al94  1  0.06913293  0.18166270  0.31981805  1
  Al0+  Al95  1  0.67832682  0.92683523  0.34920370  1
  Si0+  Si96  1  0.57244104  0.17457317  0.32024952  1
  Si0+  Si97  1  0.57036180  0.68113598  0.98586780  1
  Si0+  Si98  1  0.82109913  0.07227955  0.01483988  1
  Si0+  Si99  1  0.17848250  0.92937249  0.68098248  1
  Si0+  Si100  1  0.17824016  0.42725144  0.01468667  1
  Si0+  Si101  1  0.92987108  0.82047260  0.65114744  1
  Si0+  Si102  1  0.42606173  0.82003043  0.98744605  1
  Si0+  Si103  1  0.82260522  0.57226233  0.34977717  1
  Si0+  Si104  1  0.17603561  0.42738576  0.68466555  1
  Si0+  Si105  1  0.92440912  0.32362133  0.31866530  1
  Si0+  Si106  1  0.07105218  0.17711233  0.64752423  1
  Si0+  Si107  1  0.32010335  0.07319098  0.68327517  1
  Si0+  Si108  1  0.07402165  0.67962459  0.98428926  1
  Si0+  Si109  1  0.07427510  0.68000181  0.65161007  1
  Si0+  Si110  1  0.31994052  0.07362726  0.01478577  1
  Si0+  Si111  1  0.42534172  0.82359131  0.65085435  1
  Si0+  Si112  1  0.67931372  0.42554763  0.01554278  1
  Si0+  Si113  1  0.56961780  0.68020591  0.31586146  1
  Si0+  Si114  1  0.57166512  0.17429408  0.64868365  1
  Si0+  Si115  1  0.82448036  0.07095876  0.68644369  1
  Si0+  Si116  1  0.82395841  0.57212905  0.68117394  1
  Si0+  Si117  1  0.17724070  0.92879534  0.34957566  1
  Si0+  Si118  1  0.42751438  0.82325003  0.31811113  1
  Si0+  Si119  1  0.07507817  0.67706821  0.31550561  1
  O2-  O120  1  0.24667964  0.01013010  0.05964552  1
  O2-  O121  1  0.24658997  -0.00375966  0.39461663  1
  O2-  O122  1  0.24930586  0.00051211  0.72337661  1
  O2-  O123  1  0.25155934  0.49124979  0.05875752  1
  O2-  O124  1  0.25021583  0.49935156  0.39904464  1
  O2-  O125  1  0.24601433  0.49448415  0.72976583  1
  O2-  O126  1  0.74996482  0.00613477  0.05919804  1
  O2-  O127  1  0.74903299  0.00046198  0.39801003  1
  O2-  O128  1  0.75359472  0.00435385  0.73053745  1
  O2-  O129  1  0.75371207  0.48869663  0.05893753  1
  O2-  O130  1  0.76078427  0.49797416  0.39384124  1
  O2-  O131  1  0.75955801  0.49984653  0.72580526  1
  O2-  O132  1  -0.00595617  0.25646132  0.27403419  1
  O2-  O133  1  0.00326509  0.24708192  0.60479623  1
  O2-  O134  1  0.00050754  0.25263846  0.93580011  1
  O2-  O135  1  0.00508285  0.74414679  0.27124383  1
  O2-  O136  1  0.00107891  0.74933760  0.60956031  1
  O2-  O137  1  0.00328387  0.74501455  0.93712019  1
  O2-  O138  1  0.50527133  0.24430421  0.27527408  1
  O2-  O139  1  0.50604602  0.24518108  0.60322205  1
  O2-  O140  1  0.50317161  0.25131751  0.93527421  1
  O2-  O141  1  0.49895306  0.75265728  0.27519443  1
  O2-  O142  1  0.49569468  0.75695035  0.60616668  1
  O2-  O143  1  0.49723236  0.75021210  0.94370715  1
  O2-  O144  1  0.07088184  0.17796023  0.09645924  1
  O2-  O145  1  0.06799753  0.18195394  0.43317167  1
  O2-  O146  1  0.06996880  0.17368667  0.75276022  1
  O2-  O147  1  0.07381035  0.68214980  0.08949772  1
  O2-  O148  1  0.07436816  0.68017637  0.42182808  1
  O2-  O149  1  0.07651466  0.68207884  0.75649909  1
  O2-  O150  1  0.56866765  0.17498853  0.10014402  1
  O2-  O151  1  0.56962732  0.17381430  0.42592020  1
  O2-  O152  1  0.56725139  0.17219182  0.75416718  1
  O2-  O153  1  0.57016060  0.68127861  0.09110105  1
  O2-  O154  1  0.57013836  0.68006157  0.42104064  1
  O2-  O155  1  0.57025696  0.68248961  0.76629249  1
  O2-  O156  1  0.17971650  0.42781443  0.23449355  1
  O2-  O157  1  0.17582214  0.42894347  0.57927466  1
  O2-  O158  1  0.17498411  0.43240725  0.90899482  1
  O2-  O159  1  0.17799376  0.92953067  0.24416613  1
  O2-  O160  1  0.17765544  0.92818198  0.57602134  1
  O2-  O161  1  0.18059268  0.92879277  0.90015450  1
  O2-  O162  1  0.68077909  0.43160741  0.23200077  1
  O2-  O163  1  0.67902046  0.43284311  0.56865381  1
  O2-  O164  1  0.67670092  0.43019171  0.90998547  1
  O2-  O165  1  0.67857662  0.92755898  0.23559885  1
  O2-  O166  1  0.68455126  0.92803543  0.56955050  1
  O2-  O167  1  0.67968327  0.92669877  0.90062131  1
  O2-  O168  1  0.43110693  0.32385445  0.09774184  1
  O2-  O169  1  0.43255700  0.32149376  0.43326013  1
  O2-  O170  1  0.43331936  0.31939125  0.76354254  1
  O2-  O171  1  0.42712225  0.82026105  0.09261539  1
  O2-  O172  1  0.42598757  0.82397020  0.42320550  1
  O2-  O173  1  0.42265121  0.82208042  0.75675859  1
  O2-  O174  1  0.92913228  0.32325279  0.10081851  1
  O2-  O175  1  0.92566515  0.32183122  0.42440499  1
  O2-  O176  1  0.93099255  0.32245311  0.76406495  1
  O2-  O177  1  0.92711214  0.81790842  0.09762349  1
  O2-  O178  1  0.93178932  0.81649220  0.43253164  1
  O2-  O179  1  0.92973366  0.81960991  0.75617716  1
  O2-  O180  1  0.31999930  0.06984280  0.23237638  1
  O2-  O181  1  0.31986234  0.07265862  0.57804258  1
  O2-  O182  1  0.32084067  0.06797224  0.90878125  1
  O2-  O183  1  0.32203366  0.57073840  0.23678773  1
  O2-  O184  1  0.31746264  0.57030923  0.56891721  1
  O2-  O185  1  0.32271619  0.57223117  0.90147180  1
  O2-  O186  1  0.82302578  0.07007831  0.23408209  1
  O2-  O187  1  0.82765723  0.06732480  0.58096176  1
  O2-  O188  1  0.82127576  0.06929242  0.90898564  1
  O2-  O189  1  0.81941874  0.57439436  0.24413432  1
  O2-  O190  1  0.82279632  0.57470049  0.57556211  1
  O2-  O191  1  0.81672966  0.57234593  0.89940054  1
  O2-  O192  1  0.04023652  0.08417031  0.26660262  1
  O2-  O193  1  0.04500176  0.08340327  0.60040141  1
  O2-  O194  1  0.04073509  0.08103139  0.92759722  1
  O2-  O195  1  0.05159179  0.58239694  0.27093653  1
  O2-  O196  1  0.04919495  0.58847261  0.60250564  1
  O2-  O197  1  0.05254466  0.58535683  0.93836381  1
  O2-  O198  1  0.54611955  0.08017771  0.27598994  1
  O2-  O199  1  0.54283521  0.08083311  0.60324933  1
  O2-  O200  1  0.53678892  0.07863247  0.93089193  1
  O2-  O201  1  0.54050780  0.59003573  0.26621760  1
  O2-  O202  1  0.53789221  0.58606217  0.59789065  1
  O2-  O203  1  0.54471116  0.58901181  0.93834836  1
  O2-  O204  1  0.16538740  0.21101846  0.26476028  1
  O2-  O205  1  0.16565269  0.20174844  0.60323923  1
  O2-  O206  1  0.16931837  0.20260939  0.92644775  1
  O2-  O207  1  0.16913436  0.70302433  0.27079478  1
  O2-  O208  1  0.16388432  0.71234132  0.60204127  1
  O2-  O209  1  0.16697929  0.71024207  0.93849809  1
  O2-  O210  1  0.66746812  0.19877234  0.27675600  1
  O2-  O211  1  0.66809225  0.19437948  0.60738853  1
  O2-  O212  1  0.66986856  0.19570340  0.93120768  1
  O2-  O213  1  0.66150837  0.70669300  0.26782839  1
  O2-  O214  1  0.66655769  0.71199691  0.59686080  1
  O2-  O215  1  0.66055168  0.71130658  0.93744068  1
  O2-  O216  1  0.08728835  0.45584734  0.06416916  1
  O2-  O217  1  0.07989499  0.45624520  0.40289301  1
  O2-  O218  1  0.08241979  0.45655120  0.72904500  1
  O2-  O219  1  0.07750518  0.95788040  0.06446357  1
  O2-  O220  1  0.08448100  0.95519799  0.39620741  1
  O2-  O221  1  0.08657378  0.95766797  0.72869315  1
  O2-  O222  1  0.58950558  0.45988314  0.06411639  1
  O2-  O223  1  0.58819879  0.46875275  0.40006426  1
  O2-  O224  1  0.58629759  0.46596710  0.73670868  1
  O2-  O225  1  0.57878946  0.95525967  0.06606635  1
  O2-  O226  1  0.57984717  0.95007535  0.40443191  1
  O2-  O227  1  0.58181954  0.95485072  0.73486648  1
  O2-  O228  1  0.20050373  0.33064095  0.05503192  1
  O2-  O229  1  0.20596058  0.33007612  0.40293307  1
  O2-  O230  1  0.19866166  0.33214919  0.72848156  1
  O2-  O231  1  0.20983911  0.83757753  0.07197502  1
  O2-  O232  1  0.20195968  0.83480117  0.39550545  1
  O2-  O233  1  0.20564264  0.83852059  0.73063250  1
  O2-  O234  1  0.69763654  0.32905704  0.05765481  1
  O2-  O235  1  0.70299028  0.33231926  0.40294360  1
  O2-  O236  1  0.70525083  0.32964583  0.73371165  1
  O2-  O237  1  0.71017590  0.83360002  0.06819013  1
  O2-  O238  1  0.71061170  0.82845285  0.40043318  1
  O2-  O239  1  0.71403864  0.83198309  0.73482577  1
  O2-  O240  1  0.46491303  0.41734237  0.26675244  1
  O2-  O241  1  0.46384857  0.41702905  0.59867333  1
  O2-  O242  1  0.46317388  0.42211169  0.93166630  1
  O2-  O243  1  0.45504002  0.91525792  0.27065104  1
  O2-  O244  1  0.44964360  0.91879985  0.60753145  1
  O2-  O245  1  0.45041150  0.91193959  0.93874513  1
  O2-  O246  1  0.94724920  0.41976192  0.27632420  1
  O2-  O247  1  0.95616248  0.41889751  0.59607798  1
  O2-  O248  1  0.95712615  0.42332148  0.93373321  1
  O2-  O249  1  0.96037734  0.91439125  0.26455119  1
  O2-  O250  1  0.95957441  0.91214055  0.60450032  1
  O2-  O251  1  0.95733112  0.91359115  0.92750446  1
  O2-  O252  1  0.33453985  0.29096840  0.26734930  1
  O2-  O253  1  0.33273164  0.29044327  0.60000696  1
  O2-  O254  1  0.33331299  0.29885129  0.92736018  1
  O2-  O255  1  0.33534615  0.79550857  0.27066052  1
  O2-  O256  1  0.33195403  0.79840609  0.60389738  1
  O2-  O257  1  0.33390359  0.79149964  0.94087447  1
  O2-  O258  1  0.82998512  0.29816704  0.27461319  1
  O2-  O259  1  0.83083392  0.28952271  0.59900806  1
  O2-  O260  1  0.83045221  0.29661013  0.93222385  1
  O2-  O261  1  0.83351381  0.78590013  0.26464721  1
  O2-  O262  1  0.83943100  0.79149387  0.60229089  1
  O2-  O263  1  0.83168567  0.78342301  0.93116584  1
  O2-  O264  1  0.41047163  0.04218792  0.06305896  1
  O2-  O265  1  0.41403117  0.03973941  0.40448714  1
  O2-  O266  1  0.41100941  0.04564299  0.73221385  1
  O2-  O267  1  0.42101980  0.54314160  0.06874128  1
  O2-  O268  1  0.42127664  0.54344899  0.40132373  1
  O2-  O269  1  0.41697180  0.53967830  0.73399929  1
  O2-  O270  1  0.91399424  0.04284236  0.05918976  1
  O2-  O271  1  0.91943778  0.03741584  0.40293548  1
  O2-  O272  1  0.91768933  0.04248452  0.73247553  1
  O2-  O273  1  0.92074525  0.54861819  0.06703443  1
  O2-  O274  1  0.91900453  0.55745065  0.39358146  1
  O2-  O275  1  0.91994533  0.55230179  0.72500839  1
  O2-  O276  1  0.29979968  0.17051226  0.05513799  1
  O2-  O277  1  0.28730707  0.16628914  0.40120463  1
  O2-  O278  1  0.29065762  0.16417605  0.73114483  1
  O2-  O279  1  0.29039691  0.66463978  0.07085109  1
  O2-  O280  1  0.29510500  0.67066385  0.40373910  1
  O2-  O281  1  0.28929035  0.66746785  0.73435302  1
  O2-  O282  1  0.79979677  0.16729009  0.05972116  1
  O2-  O283  1  0.79762579  0.16817038  0.40450745  1
  O2-  O284  1  0.80137504  0.16541180  0.73074349  1
  O2-  O285  1  0.78322266  0.66210565  0.06953095  1
  O2-  O286  1  0.78971606  0.66286462  0.39757203  1
  O2-  O287  1  0.79398323  0.66462465  0.72739556  1
