# generated using pymatgen
data_Ca2Al2SiO7
_symmetry_space_group_name_H-M   'P 1'
_cell_length_a   15.45831007
_cell_length_b   15.45792471
_cell_length_c   15.28445149
_cell_angle_alpha   89.99913597
_cell_angle_beta   89.99781130
_cell_angle_gamma   90.00631579
_symmetry_Int_Tables_number   1
_chemical_formula_structural   Ca2Al2SiO7
_chemical_formula_sum   'Ca48 Al48 Si24 O168'
_cell_volume   3652.27152224
_cell_formula_units_Z   24
loop_
 _symmetry_equiv_pos_site_id
 _symmetry_equiv_pos_as_xyz
  1  'x, y, z'
loop_
 _atom_type_symbol
 _atom_type_oxidation_number
  Ca2+  2.0
  Al0+  0.0
  Si0+  0.0
  O2-  -2.0
loop_
 _atom_site_type_symbol
 _atom_site_label
 _atom_site_symmetry_multiplicity
 _atom_site_fract_x
 _atom_site_fract_y
 _atom_site_fract_z
 _atom_site_occupancy
  Ca2+  Ca0  1  0.16050147  0.07677090  0.17701449  1
  Ca2+  Ca1  1  0.16528932  0.08074444  0.50153913  1
  Ca2+  Ca2  1  0.17381455  0.08338432  0.83388512  1
  Ca2+  Ca3  1  0.17297682  0.57328044  0.17418854  1
  Ca2+  Ca4  1  0.16996033  0.58035146  0.50425302  1
  Ca2+  Ca5  1  0.16630846  0.57742278  0.83598284  1
  Ca2+  Ca6  1  0.66838195  0.08382127  0.16028372  1
  Ca2+  Ca7  1  0.66670369  0.08282974  0.50671578  1
  Ca2+  Ca8  1  0.66864974  0.08239226  0.84355247  1
  Ca2+  Ca9  1  0.68112199  0.58966034  0.17046825  1
  Ca2+  Ca10  1  0.67374717  0.57572846  0.50370969  1
  Ca2+  Ca11  1  0.67477339  0.57471282  0.83735495  1
  Ca2+  Ca12  1  0.08605299  0.33364431  0.16318080  1
  Ca2+  Ca13  1  0.08717189  0.33430017  0.49619489  1
  Ca2+  Ca14  1  0.07438048  0.34485739  0.83114453  1
  Ca2+  Ca15  1  0.08448740  0.82660460  0.16876836  1
  Ca2+  Ca16  1  0.07921785  0.82334153  0.49199333  1
  Ca2+  Ca17  1  0.07446846  0.82373433  0.82225521  1
  Ca2+  Ca18  1  0.57542447  0.33156703  0.16184089  1
  Ca2+  Ca19  1  0.57815379  0.33297396  0.49745358  1
  Ca2+  Ca20  1  0.58999937  0.32167608  0.82533093  1
  Ca2+  Ca21  1  0.57628542  0.83357998  0.15710623  1
  Ca2+  Ca22  1  0.57894070  0.82928687  0.49680306  1
  Ca2+  Ca23  1  0.58022388  0.83546954  0.83506627  1
  Ca2+  Ca24  1  0.32685296  0.42145822  0.17622978  1
  Ca2+  Ca25  1  0.32367456  0.42137547  0.50547064  1
  Ca2+  Ca26  1  0.31987339  0.42737104  0.83969742  1
  Ca2+  Ca27  1  0.32833199  0.91690340  0.17059159  1
  Ca2+  Ca28  1  0.32297127  0.92146937  0.50376288  1
  Ca2+  Ca29  1  0.33763175  0.92067202  0.83636736  1
  Ca2+  Ca30  1  0.83872452  0.42612159  0.16612774  1
  Ca2+  Ca31  1  0.83448791  0.42052536  0.50593254  1
  Ca2+  Ca32  1  0.83389431  0.41413816  0.83932369  1
  Ca2+  Ca33  1  0.83173478  0.91912521  0.17131828  1
  Ca2+  Ca34  1  0.84042099  0.91416749  0.50222274  1
  Ca2+  Ca35  1  0.82875977  0.92289610  0.84329712  1
  Ca2+  Ca36  1  0.41804718  0.17693257  0.16218341  1
  Ca2+  Ca37  1  0.41709442  0.17181403  0.49684184  1
  Ca2+  Ca38  1  0.42856222  0.16365217  0.82606808  1
  Ca2+  Ca39  1  0.40833876  0.66990457  0.16042031  1
  Ca2+  Ca40  1  0.41538956  0.65539465  0.49540289  1
  Ca2+  Ca41  1  0.40664030  0.66918437  0.83260932  1
  Ca2+  Ca42  1  0.92193246  0.17227848  0.16014315  1
  Ca2+  Ca43  1  0.92328478  0.17659632  0.49595770  1
  Ca2+  Ca44  1  0.91106880  0.17794323  0.83066631  1
  Ca2+  Ca45  1  0.91972197  0.66232380  0.16587127  1
  Ca2+  Ca46  1  0.92881947  0.67057349  0.49246331  1
  Ca2+  Ca47  1  0.92086712  0.66829289  0.82410471  1
  Al0+  Al48  1  0.00063202  0.00054198  0.00167128  1
  Al0+  Al49  1  -0.00150404  0.00105457  0.33152276  1
  Al0+  Al50  1  -0.00096116  0.00202996  0.66634579  1
  Al0+  Al51  1  0.00056428  0.49870850  0.00339697  1
  Al0+  Al52  1  -0.00021185  0.50120103  0.33771779  1
  Al0+  Al53  1  0.00011669  0.50168000  0.66032130  1
  Al0+  Al54  1  0.49944607  -0.00091089  -0.00278226  1
  Al0+  Al55  1  0.50255079  -0.00093938  0.33325149  1
  Al0+  Al56  1  0.50119722  -0.00058671  0.66425856  1
  Al0+  Al57  1  0.49994205  0.50180474  0.00048442  1
  Al0+  Al58  1  0.50191304  0.49880488  0.32935873  1
  Al0+  Al59  1  0.50102686  0.49943828  0.67669822  1
  Al0+  Al60  1  0.25022482  0.24896708  0.00074374  1
  Al0+  Al61  1  0.25197524  0.24994374  0.32744624  1
  Al0+  Al62  1  0.25094142  0.24983979  0.67752759  1
  Al0+  Al63  1  0.24961659  0.75080799  -0.00362990  1
  Al0+  Al64  1  0.24930408  0.75144494  0.33754924  1
  Al0+  Al65  1  0.24926045  0.75200644  0.66544288  1
  Al0+  Al66  1  0.75074381  0.24916622  -0.00090443  1
  Al0+  Al67  1  0.75006051  0.24763827  0.33220258  1
  Al0+  Al68  1  0.75053099  0.24858447  0.65897626  1
  Al0+  Al69  1  0.74795244  0.75045702  0.00608570  1
  Al0+  Al70  1  0.74915396  0.75095590  0.33589766  1
  Al0+  Al71  1  0.74639543  0.75086492  0.66317729  1
  Al0+  Al72  1  0.32220565  0.06988050  0.67983300  1
  Al0+  Al73  1  0.93000280  0.32059362  0.65238493  1
  Al0+  Al74  1  0.57063987  0.17827956  0.65095923  1
  Al0+  Al75  1  0.17947646  0.42642733  0.34944426  1
  Al0+  Al76  1  0.92592342  0.82301603  0.65341597  1
  Al0+  Al77  1  0.82041015  0.57063059  0.01167650  1
  Al0+  Al78  1  0.42874839  0.81860817  0.98571430  1
  Al0+  Al79  1  0.68105182  0.42691012  0.67946877  1
  Al0+  Al80  1  0.17917645  0.42842544  0.01732548  1
  Al0+  Al81  1  0.07062860  0.18106530  0.32110666  1
  Al0+  Al82  1  0.82238222  0.07244889  0.01582408  1
  Al0+  Al83  1  0.43085956  0.32052918  0.32044933  1
  Al0+  Al84  1  0.67810274  0.92996294  0.01579177  1
  Al0+  Al85  1  0.32187992  0.57310203  0.68333663  1
  Al0+  Al86  1  0.17763500  0.93038711  0.34696021  1
  Al0+  Al87  1  0.07197835  0.67959526  0.65032338  1
  Al0+  Al88  1  0.17613673  0.42884244  0.68325433  1
  Al0+  Al89  1  0.82069674  0.57155366  0.34926299  1
  Al0+  Al90  1  0.93249618  0.31981495  0.98773799  1
  Al0+  Al91  1  0.32045859  0.57320580  0.01577271  1
  Al0+  Al92  1  0.07264322  0.67790135  0.31530245  1
  Al0+  Al93  1  0.92790348  0.82043799  0.31560494  1
  Al0+  Al94  1  0.32262170  0.57113409  0.34796993  1
  Al0+  Al95  1  0.56785786  0.18213228  0.98648178  1
  Si0+  Si96  1  0.57070174  0.67914746  0.31892312  1
  Si0+  Si97  1  0.67777755  0.42600242  0.01619502  1
  Si0+  Si98  1  0.82034316  0.07114902  0.35041438  1
  Si0+  Si99  1  0.67895272  0.42599539  0.34823353  1
  Si0+  Si100  1  0.57523288  0.67731341  0.98241708  1
  Si0+  Si101  1  0.57375262  0.17516812  0.31447418  1
  Si0+  Si102  1  0.67806569  0.92953696  0.35093822  1
  Si0+  Si103  1  0.32184846  0.06944775  0.01485615  1
  Si0+  Si104  1  0.92694455  0.82244832  0.98663935  1
  Si0+  Si105  1  0.67820038  0.92811682  0.68127191  1
  Si0+  Si106  1  0.06881991  0.68038821  0.98553687  1
  Si0+  Si107  1  0.07425849  0.17432327  0.98152321  1
  Si0+  Si108  1  0.07504353  0.17809512  0.65217630  1
  Si0+  Si109  1  0.32437337  0.07135757  0.34780382  1
  Si0+  Si110  1  0.56989810  0.67692630  0.65201483  1
  Si0+  Si111  1  0.42961737  0.82201654  0.32000433  1
  Si0+  Si112  1  0.92584993  0.32267440  0.31650457  1
  Si0+  Si113  1  0.82014953  0.57253072  0.68095647  1
  Si0+  Si114  1  0.42575885  0.32477368  0.98069161  1
  Si0+  Si115  1  0.82059572  0.07049311  0.67977926  1
  Si0+  Si116  1  0.17863963  0.92956889  0.01343434  1
  Si0+  Si117  1  0.42831484  0.32205190  0.65362142  1
  Si0+  Si118  1  0.17683384  0.92951645  0.68400680  1
  Si0+  Si119  1  0.42995702  0.82122542  0.65044676  1
  O2-  O120  1  0.24587854  0.00395213  0.05664421  1
  O2-  O121  1  0.25328766  0.00548991  0.39223275  1
  O2-  O122  1  0.24683194  -0.00337531  0.72874507  1
  O2-  O123  1  0.25568181  0.49596784  0.06642871  1
  O2-  O124  1  0.24950340  0.50110052  0.39837069  1
  O2-  O125  1  0.24736614  0.50297254  0.73141212  1
  O2-  O126  1  0.75290608  -0.00177444  0.06694920  1
  O2-  O127  1  0.74923450  0.00005327  0.39316704  1
  O2-  O128  1  0.75325073  -0.00451060  0.72128259  1
  O2-  O129  1  0.74298129  0.49837664  0.05951411  1
  O2-  O130  1  0.74982761  0.49163531  0.39338171  1
  O2-  O131  1  0.75706069  0.49983475  0.72696069  1
  O2-  O132  1  -0.00096779  0.25817759  0.27364390  1
  O2-  O133  1  0.00980501  0.24992125  0.60813692  1
  O2-  O134  1  0.00653448  0.24458776  0.93919856  1
  O2-  O135  1  -0.00170891  0.74789426  0.26412178  1
  O2-  O136  1  -0.00141881  0.75249671  0.60347348  1
  O2-  O137  1  -0.00452643  0.74998709  0.94352432  1
  O2-  O138  1  0.50548318  0.24499388  0.27300141  1
  O2-  O139  1  0.49550473  0.25296730  0.60618246  1
  O2-  O140  1  0.49691381  0.25852697  0.93640701  1
  O2-  O141  1  0.49592070  0.74676318  0.27790612  1
  O2-  O142  1  0.49469603  0.74396571  0.60894941  1
  O2-  O143  1  0.50197533  0.74200900  0.93884716  1
  O2-  O144  1  0.07360072  0.17141795  0.08711368  1
  O2-  O145  1  0.06817094  0.17969043  0.43440829  1
  O2-  O146  1  0.07145388  0.17275819  0.75748411  1
  O2-  O147  1  0.06998804  0.68251062  0.09028637  1
  O2-  O148  1  0.07297809  0.68092032  0.42846400  1
  O2-  O149  1  0.06888510  0.68127961  0.76511124  1
  O2-  O150  1  0.56452260  0.18290452  0.09977551  1
  O2-  O151  1  0.57384821  0.17286570  0.42003075  1
  O2-  O152  1  0.57142836  0.17642535  0.76396757  1
  O2-  O153  1  0.57798528  0.68025570  0.08812124  1
  O2-  O154  1  0.57091603  0.68054335  0.42449213  1
  O2-  O155  1  0.57542328  0.68073203  0.75652196  1
  O2-  O156  1  0.18276381  0.42544942  0.23605838  1
  O2-  O157  1  0.18015535  0.42543176  0.57015260  1
  O2-  O158  1  0.17586838  0.43276281  0.90397370  1
  O2-  O159  1  0.18124487  0.93139398  0.23324755  1
  O2-  O160  1  0.17749539  0.93127902  0.57851144  1
  O2-  O161  1  0.17889756  0.93019776  0.90832023  1
  O2-  O162  1  0.67855120  0.42668525  0.24260170  1
  O2-  O163  1  0.67986719  0.43021951  0.56620581  1
  O2-  O164  1  0.68118389  0.42467674  0.91044138  1
  O2-  O165  1  0.67414354  0.93034211  0.24646168  1
  O2-  O166  1  0.67486132  0.92898872  0.57598955  1
  O2-  O167  1  0.67940401  0.93069043  0.90164904  1
  O2-  O168  1  0.42684648  0.32146601  0.08660724  1
  O2-  O169  1  0.43304554  0.31884217  0.43376812  1
  O2-  O170  1  0.43191405  0.31878082  0.75899766  1
  O2-  O171  1  0.42873751  0.81986383  0.09920347  1
  O2-  O172  1  0.43445139  0.82714689  0.42503376  1
  O2-  O173  1  0.43344746  0.82428042  0.75542758  1
  O2-  O174  1  0.93345943  0.31937058  0.10074469  1
  O2-  O175  1  0.92069479  0.31756459  0.42199435  1
  O2-  O176  1  0.92647981  0.31772096  0.76555155  1
  O2-  O177  1  0.92923369  0.82338019  0.09123667  1
  O2-  O178  1  0.92895919  0.81964989  0.42914102  1
  O2-  O179  1  0.92539578  0.82201209  0.76791451  1
  O2-  O180  1  0.32726799  0.06750447  0.24199679  1
  O2-  O181  1  0.32180871  0.06739510  0.56661272  1
  O2-  O182  1  0.32283759  0.06661966  0.90966699  1
  O2-  O183  1  0.32336548  0.57067598  0.23468818  1
  O2-  O184  1  0.32506968  0.56943014  0.57010999  1
  O2-  O185  1  0.31441959  0.57522447  0.90260670  1
  O2-  O186  1  0.81857773  0.07242358  0.24567557  1
  O2-  O187  1  0.81922235  0.07040014  0.57449705  1
  O2-  O188  1  0.82069799  0.07089760  0.90163616  1
  O2-  O189  1  0.81761962  0.57193923  0.23584335  1
  O2-  O190  1  0.81513245  0.57308259  0.57559111  1
  O2-  O191  1  0.81991225  0.57091077  0.89837922  1
  O2-  O192  1  0.03584888  0.08640213  0.26546090  1
  O2-  O193  1  0.04580237  0.08611389  0.60392327  1
  O2-  O194  1  0.04865033  0.08074943  0.93436998  1
  O2-  O195  1  0.04365158  0.57810253  0.26531923  1
  O2-  O196  1  0.04456890  0.58271295  0.59544544  1
  O2-  O197  1  0.04041476  0.58847084  0.93968615  1
  O2-  O198  1  0.54735610  0.08161122  0.26849692  1
  O2-  O199  1  0.53930157  0.08182093  0.59606191  1
  O2-  O200  1  0.53551038  0.08577230  0.93267318  1
  O2-  O201  1  0.55044480  0.58655687  0.27039776  1
  O2-  O202  1  0.54521767  0.58336200  0.60650473  1
  O2-  O203  1  0.55584979  0.58145013  0.93808816  1
  O2-  O204  1  0.16846592  0.20318383  0.26522653  1
  O2-  O205  1  0.17113660  0.19916617  0.60955673  1
  O2-  O206  1  0.16949124  0.19721714  0.93718013  1
  O2-  O207  1  0.17087394  0.71227189  0.26425700  1
  O2-  O208  1  0.17006611  0.71019109  0.59774383  1
  O2-  O209  1  0.15833015  0.71235898  0.93643654  1
  O2-  O210  1  0.66752822  0.20021724  0.26856601  1
  O2-  O211  1  0.66551157  0.20852653  0.59395903  1
  O2-  O212  1  0.66615297  0.20893954  0.93350807  1
  O2-  O213  1  0.66000567  0.71330535  0.27110978  1
  O2-  O214  1  0.65835941  0.70935516  0.59988136  1
  O2-  O215  1  0.66669923  0.70828893  0.93418198  1
  O2-  O216  1  0.08254845  0.45970666  0.07097341  1
  O2-  O217  1  0.07903824  0.44939331  0.39954838  1
  O2-  O218  1  0.07637545  0.45936911  0.73329630  1
  O2-  O219  1  0.08662910  0.95345421  0.06215098  1
  O2-  O220  1  0.08162474  0.96306830  0.40048186  1
  O2-  O221  1  0.08353891  0.95648066  0.73079533  1
  O2-  O222  1  0.58224632  0.44782978  0.05984947  1
  O2-  O223  1  0.58699327  0.45548689  0.39491650  1
  O2-  O224  1  0.58711873  0.45740482  0.73798508  1
  O2-  O225  1  0.58031491  0.96221710  0.06839046  1
  O2-  O226  1  0.58691943  0.95850331  0.40077725  1
  O2-  O227  1  0.58830060  0.95963187  0.72956299  1
  O2-  O228  1  0.20284199  0.32650713  0.06592627  1
  O2-  O229  1  0.21134590  0.32735728  0.39995571  1
  O2-  O230  1  0.20230835  0.33094159  0.73895276  1
  O2-  O231  1  0.21098238  0.83958294  0.06075108  1
  O2-  O232  1  0.21094870  0.83664009  0.40387911  1
  O2-  O233  1  0.20240748  0.83626661  0.72996083  1
  O2-  O234  1  0.70582589  0.33449746  0.06411265  1
  O2-  O235  1  0.70016410  0.33035707  0.39299054  1
  O2-  O236  1  0.71232877  0.32897907  0.73044831  1
  O2-  O237  1  0.70127429  0.83124942  0.06977754  1
  O2-  O238  1  0.70394139  0.83796724  0.39966069  1
  O2-  O239  1  0.70071170  0.83484448  0.72851886  1
  O2-  O240  1  0.46410443  0.41497447  0.26249005  1
  O2-  O241  1  0.45642409  0.41587492  0.60974155  1
  O2-  O242  1  0.44742205  0.42056435  0.93806920  1
  O2-  O243  1  0.46243154  0.91179638  0.27029109  1
  O2-  O244  1  0.46562472  0.90899752  0.60026013  1
  O2-  O245  1  0.46266242  0.91376552  0.93011867  1
  O2-  O246  1  0.94613330  0.41866025  0.27501415  1
  O2-  O247  1  0.95394176  0.41812666  0.59814483  1
  O2-  O248  1  0.96204030  0.41690488  0.93288849  1
  O2-  O249  1  0.95534210  0.91988507  0.26483517  1
  O2-  O250  1  0.95267167  0.92287032  0.60202488  1
  O2-  O251  1  0.95639898  0.91397748  0.93874732  1
  O2-  O252  1  0.33746536  0.28791721  0.26159297  1
  O2-  O253  1  0.33393925  0.29511938  0.61011375  1
  O2-  O254  1  0.33266060  0.29576948  0.93580790  1
  O2-  O255  1  0.33634169  0.79977806  0.27416442  1
  O2-  O256  1  0.33542682  0.80270455  0.60532971  1
  O2-  O257  1  0.33223312  0.79134119  0.92844150  1
  O2-  O258  1  0.83399350  0.29171142  0.26878037  1
  O2-  O259  1  0.83727612  0.28406275  0.59425204  1
  O2-  O260  1  0.83546183  0.28898843  0.93375959  1
  O2-  O261  1  0.82671385  0.79465534  0.26637391  1
  O2-  O262  1  0.82622617  0.79817122  0.60055460  1
  O2-  O263  1  0.83307370  0.79744272  0.94224643  1
  O2-  O264  1  0.41052512  0.03610129  0.06358670  1
  O2-  O265  1  0.41726613  0.04292165  0.39492413  1
  O2-  O266  1  0.41800009  0.03387698  0.73343644  1
  O2-  O267  1  0.42402310  0.55571238  0.06293900  1
  O2-  O268  1  0.42301120  0.54179676  0.39760761  1
  O2-  O269  1  0.41980057  0.54671143  0.73887436  1
  O2-  O270  1  0.92186756  0.04612345  0.06772931  1
  O2-  O271  1  0.91138317  0.04333761  0.39836166  1
  O2-  O272  1  0.91323924  0.04843046  0.72848987  1
  O2-  O273  1  0.91455295  0.53731249  0.06785927  1
  O2-  O274  1  0.91720262  0.54484492  0.40387637  1
  O2-  O275  1  0.91594125  0.55264367  0.72280574  1
  O2-  O276  1  0.29993211  0.16325919  0.06060170  1
  O2-  O277  1  0.30112852  0.16562244  0.39151277  1
  O2-  O278  1  0.29592903  0.16468613  0.73898922  1
  O2-  O279  1  0.28826679  0.67168393  0.06677710  1
  O2-  O280  1  0.30009824  0.67149155  0.39953701  1
  O2-  O281  1  0.29664912  0.67472034  0.73191619  1
  O2-  O282  1  0.79024990  0.16908680  0.07003753  1
  O2-  O283  1  0.79128955  0.16269659  0.39872050  1
  O2-  O284  1  0.78789221  0.16068039  0.72631610  1
  O2-  O285  1  0.79069199  0.66620348  0.06839301  1
  O2-  O286  1  0.78341875  0.66620086  0.40307929  1
  O2-  O287  1  0.78853068  0.66499096  0.72690831  1
