# generated using pymatgen
data_Ca2Al2SiO7
_symmetry_space_group_name_H-M   'P 1'
_cell_length_a   15.45779579
_cell_length_b   15.45798035
_cell_length_c   15.28367777
_cell_angle_alpha   89.98662388
_cell_angle_beta   90.00372252
_cell_angle_gamma   90.01472903
_symmetry_Int_Tables_number   1
_chemical_formula_structural   Ca2Al2SiO7
_chemical_formula_sum   'Ca48 Al48 Si24 O168'
_cell_volume   3651.97808075
_cell_formula_units_Z   24
loop_
 _symmetry_equiv_pos_site_id
 _symmetry_equiv_pos_as_xyz
  1  'x, y, z'
loop_
 _atom_type_symbol
 _atom_type_oxidation_number
  Ca2+  2.0
  Al0+  0.0
  Si0+  0.0
  O2-  -2.0
loop_
 _atom_site_type_symbol
 _atom_site_label
 _atom_site_symmetry_multiplicity
 _atom_site_fract_x
 _atom_site_fract_y
 _atom_site_fract_z
 _atom_site_occupancy
  Ca2+  Ca0  1  0.17508556  0.08124927  0.16530202  1
  Ca2+  Ca1  1  0.17377078  0.08289109  0.50194061  1
  Ca2+  Ca2  1  0.17228442  0.07924929  0.84566065  1
  Ca2+  Ca3  1  0.17772909  0.58652372  0.17236148  1
  Ca2+  Ca4  1  0.17781469  0.58573762  0.50636227  1
  Ca2+  Ca5  1  0.18004729  0.57306661  0.83950254  1
  Ca2+  Ca6  1  0.66013508  0.07634935  0.17341532  1
  Ca2+  Ca7  1  0.66641146  0.06943920  0.50989767  1
  Ca2+  Ca8  1  0.66466503  0.08435791  0.83444934  1
  Ca2+  Ca9  1  0.66558624  0.58406436  0.16975977  1
  Ca2+  Ca10  1  0.67409161  0.59629943  0.50542967  1
  Ca2+  Ca11  1  0.66639701  0.58454024  0.83774670  1
  Ca2+  Ca12  1  0.08449993  0.33030763  0.15819387  1
  Ca2+  Ca13  1  0.08478963  0.33850453  0.49894079  1
  Ca2+  Ca14  1  0.09512987  0.33053797  0.83150784  1
  Ca2+  Ca15  1  0.08715784  0.82918085  0.16366542  1
  Ca2+  Ca16  1  0.07402661  0.82664707  0.49520879  1
  Ca2+  Ca17  1  0.07825786  0.83635011  0.82795659  1
  Ca2+  Ca18  1  0.58253664  0.32800530  0.15496575  1
  Ca2+  Ca19  1  0.57923380  0.32931837  0.50289086  1
  Ca2+  Ca20  1  0.57992562  0.32628806  0.82713407  1
  Ca2+  Ca21  1  0.58017256  0.82473092  0.16772230  1
  Ca2+  Ca22  1  0.58485086  0.82658558  0.49433712  1
  Ca2+  Ca23  1  0.58356226  0.82301898  0.82680289  1
  Ca2+  Ca24  1  0.33201978  0.42853207  0.16602261  1
  Ca2+  Ca25  1  0.33232797  0.42815684  0.50901747  1
  Ca2+  Ca26  1  0.33327531  0.42129410  0.83462499  1
  Ca2+  Ca27  1  0.34022541  0.92657054  0.17038255  1
  Ca2+  Ca28  1  0.34112387  0.91913535  0.49855409  1
  Ca2+  Ca29  1  0.32742826  0.92254756  0.84259793  1
  Ca2+  Ca30  1  0.82322638  0.41924135  0.16992879  1
  Ca2+  Ca31  1  0.83150790  0.43033748  0.50446860  1
  Ca2+  Ca32  1  0.82547118  0.42252099  0.83586141  1
  Ca2+  Ca33  1  0.82406496  0.91789862  0.17218809  1
  Ca2+  Ca34  1  0.82172103  0.91475952  0.50997311  1
  Ca2+  Ca35  1  0.82855376  0.91672526  0.82847719  1
  Ca2+  Ca36  1  0.41712458  0.16484828  0.15878409  1
  Ca2+  Ca37  1  0.41604086  0.17151008  0.49855315  1
  Ca2+  Ca38  1  0.42430459  0.16982532  0.82646994  1
  Ca2+  Ca39  1  0.42203053  0.66380645  0.16246962  1
  Ca2+  Ca40  1  0.42536065  0.66763544  0.49110472  1
  Ca2+  Ca41  1  0.42450576  0.65680359  0.82891468  1
  Ca2+  Ca42  1  0.92397068  0.16938621  0.15669711  1
  Ca2+  Ca43  1  0.91403041  0.16610462  0.49998676  1
  Ca2+  Ca44  1  0.92210394  0.16533584  0.82789993  1
  Ca2+  Ca45  1  0.92146514  0.66200622  0.16846358  1
  Ca2+  Ca46  1  0.91658375  0.66599729  0.49432700  1
  Ca2+  Ca47  1  0.91658861  0.67246494  0.82353347  1
  Al0+  Al48  1  -0.00057886  0.00107497  0.00024524  1
  Al0+  Al49  1  0.00076474  0.00114543  0.33161237  1
  Al0+  Al50  1  -0.00150717  -0.00001682  0.66267857  1
  Al0+  Al51  1  -0.00110992  0.50141622  0.00063084  1
  Al0+  Al52  1  -0.00287315  0.49905801  0.33062427  1
  Al0+  Al53  1  0.00085749  0.49817784  0.67521072  1
  Al0+  Al54  1  0.50106083  -0.00191935  -0.00157827  1
  Al0+  Al55  1  0.50000978  -0.00004048  0.33972732  1
  Al0+  Al56  1  0.50062807  -0.00219761  0.66874995  1
  Al0+  Al57  1  0.50214831  0.49873132  0.00371132  1
  Al0+  Al58  1  0.49881295  0.49669166  0.33303668  1
  Al0+  Al59  1  0.50153087  0.49881436  0.65982206  1
  Al0+  Al60  1  0.24968068  0.25071961  0.00250713  1
  Al0+  Al61  1  0.24980664  0.24889903  0.33613223  1
  Al0+  Al62  1  0.25055248  0.24945639  0.66396223  1
  Al0+  Al63  1  0.24898152  0.75051831  0.00446995  1
  Al0+  Al64  1  0.24885465  0.75220607  0.33040914  1
  Al0+  Al65  1  0.25052227  0.75014198  0.67160186  1
  Al0+  Al66  1  0.75088303  0.25107787  -0.00034432  1
  Al0+  Al67  1  0.75027724  0.25073334  0.33288591  1
  Al0+  Al68  1  0.75302869  0.24905963  0.66393078  1
  Al0+  Al69  1  0.75017883  0.75150222  -0.00292136  1
  Al0+  Al70  1  0.74962290  0.74998551  0.33466425  1
  Al0+  Al71  1  0.75050245  0.75241252  0.66850754  1
  Al0+  Al72  1  0.82040475  0.57210240  0.68070772  1
  Al0+  Al73  1  0.68036592  0.93016841  0.34665341  1
  Al0+  Al74  1  0.68081943  0.42877117  0.01189950  1
  Al0+  Al75  1  0.93050018  0.82042437  0.65231268  1
  Al0+  Al76  1  0.31979104  0.07062401  0.34926259  1
  Al0+  Al77  1  0.57181529  0.17683390  0.98730606  1
  Al0+  Al78  1  0.32311900  0.06992917  0.01326741  1
  Al0+  Al79  1  0.42898482  0.82293822  0.31827820  1
  Al0+  Al80  1  0.57172178  0.67724699  0.31717033  1
  Al0+  Al81  1  0.32456408  0.57255052  0.68099850  1
  Al0+  Al82  1  0.32127413  0.57270756  0.34789929  1
  Al0+  Al83  1  0.07047539  0.18120553  0.98630123  1
  Al0+  Al84  1  0.07000744  0.67861321  0.32051040  1
  Al0+  Al85  1  0.67742659  0.92906576  0.68525880  1
  Al0+  Al86  1  0.57002569  0.67902154  0.98579196  1
  Al0+  Al87  1  0.81865696  0.56838811  0.34582745  1
  Al0+  Al88  1  0.56998497  0.67972608  0.65352488  1
  Al0+  Al89  1  0.17967774  0.42777262  0.68127305  1
  Al0+  Al90  1  0.57309154  0.17682660  0.65027502  1
  Al0+  Al91  1  0.32259417  0.57075270  0.01620321  1
  Al0+  Al92  1  0.17722717  0.42894556  0.01647762  1
  Al0+  Al93  1  0.82185510  0.07190025  0.68206294  1
  Al0+  Al94  1  0.42817598  0.31977419  0.65009484  1
  Al0+  Al95  1  0.17570867  0.92907867  0.01565222  1
  Si0+  Si96  1  0.82049705  0.07148674  0.01478833  1
  Si0+  Si97  1  0.07203473  0.17904293  0.31755991  1
  Si0+  Si98  1  0.82104507  0.57545072  0.01688088  1
  Si0+  Si99  1  0.17771635  0.92991087  0.67916425  1
  Si0+  Si100  1  0.92942775  0.32290534  0.65104557  1
  Si0+  Si101  1  0.92761529  0.82294384  0.31564580  1
  Si0+  Si102  1  0.07084110  0.17881125  0.65010757  1
  Si0+  Si103  1  0.42874071  0.32147431  0.98472285  1
  Si0+  Si104  1  0.92728476  0.32360251  0.98157242  1
  Si0+  Si105  1  0.92854890  0.32036354  0.31717741  1
  Si0+  Si106  1  0.32042751  0.07044444  0.68119741  1
  Si0+  Si107  1  0.17785212  0.42886901  0.34874881  1
  Si0+  Si108  1  0.67661821  0.42421843  0.35149480  1
  Si0+  Si109  1  0.67892480  0.42699892  0.68118288  1
  Si0+  Si110  1  0.57003010  0.18053269  0.31977061  1
  Si0+  Si111  1  0.42699386  0.82152729  0.98308321  1
  Si0+  Si112  1  0.42417846  0.82213427  0.65182957  1
  Si0+  Si113  1  0.07216450  0.67661725  0.65310201  1
  Si0+  Si114  1  0.07227678  0.67834351  0.98392596  1
  Si0+  Si115  1  0.82387866  0.07363786  0.34805629  1
  Si0+  Si116  1  0.67994431  0.92811430  0.01564180  1
  Si0+  Si117  1  0.42675782  0.31969310  0.31621057  1
  Si0+  Si118  1  0.17487503  0.92813869  0.35199495  1
  Si0+  Si119  1  0.92931356  0.82110426  0.98487362  1
  O2-  O120  1  0.25163104  -0.00238878  0.06447757  1
  O2-  O121  1  0.24588279  -0.00532574  0.39617295  1
  O2-  O122  1  0.25090398  -0.00214915  0.72209909  1
  O2-  O123  1  0.24603136  0.50318728  0.06668346  1
  O2-  O124  1  0.24426632  0.49896467  0.39314594  1
  O2-  O125  1  0.25244726  0.49952330  0.72923515  1
  O2-  O126  1  0.74662688  0.00395379  0.05765725  1
  O2-  O127  1  0.75737333  0.00373425  0.39155147  1
  O2-  O128  1  0.74650799  0.00519595  0.73426478  1
  O2-  O129  1  0.75353477  0.50510506  0.05964516  1
  O2-  O130  1  0.73950689  0.49902715  0.39389462  1
  O2-  O131  1  0.74362293  0.49920470  0.72620452  1
  O2-  O132  1  -0.00120750  0.24812977  0.27597662  1
  O2-  O133  1  0.00110201  0.25176739  0.60863382  1
  O2-  O134  1  -0.00019832  0.25881579  0.93736747  1
  O2-  O135  1  -0.00278447  0.75536910  0.27148382  1
  O2-  O136  1  0.00273182  0.74313994  0.60636570  1
  O2-  O137  1  0.00145483  0.75064391  0.94304606  1
  O2-  O138  1  0.50069217  0.25113165  0.27469867  1
  O2-  O139  1  0.49984157  0.24699449  0.59925377  1
  O2-  O140  1  0.49526220  0.24968275  0.94166919  1
  O2-  O141  1  0.49583204  0.74604355  0.26764881  1
  O2-  O142  1  0.49144331  0.75157778  0.60908395  1
  O2-  O143  1  0.49185341  0.74966481  0.93850037  1
  O2-  O144  1  0.06628000  0.18054936  0.09983594  1
  O2-  O145  1  0.07180829  0.17920210  0.42292404  1
  O2-  O146  1  0.07098479  0.17708801  0.75496925  1
  O2-  O147  1  0.06978137  0.67765805  0.08914264  1
  O2-  O148  1  0.06727046  0.67868515  0.43376623  1
  O2-  O149  1  0.07117298  0.68059762  0.75880593  1
  O2-  O150  1  0.57210132  0.17812059  0.10123325  1
  O2-  O151  1  0.57075752  0.18282820  0.42438746  1
  O2-  O152  1  0.57091836  0.17976184  0.76407320  1
  O2-  O153  1  0.57342463  0.68220009  0.09854487  1
  O2-  O154  1  0.57391270  0.68070461  0.43056104  1
  O2-  O155  1  0.57015434  0.68032396  0.76701034  1
  O2-  O156  1  0.17908188  0.42705451  0.24345601  1
  O2-  O157  1  0.17788102  0.42996530  0.56719432  1
  O2-  O158  1  0.17932909  0.42983120  0.90336708  1
  O2-  O159  1  0.16946661  0.93280749  0.24708000  1
  O2-  O160  1  0.17707082  0.93139736  0.57411729  1
  O2-  O161  1  0.17431216  0.93220470  0.90126214  1
  O2-  O162  1  0.68142287  0.41726167  0.24605560  1
  O2-  O163  1  0.68292490  0.42542711  0.57542585  1
  O2-  O164  1  0.68269751  0.42808874  0.89903363  1
  O2-  O165  1  0.68166976  0.93276353  0.23268300  1
  O2-  O166  1  0.67994357  0.92826578  0.57160848  1
  O2-  O167  1  0.68259643  0.92595544  0.91118647  1
  O2-  O168  1  0.43146214  0.32101745  0.09088432  1
  O2-  O169  1  0.42544149  0.31817508  0.42103310  1
  O2-  O170  1  0.42759987  0.31693503  0.76387842  1
  O2-  O171  1  0.43116144  0.82497894  0.08834624  1
  O2-  O172  1  0.43260722  0.82321305  0.43204364  1
  O2-  O173  1  0.42217981  0.82420003  0.75740455  1
  O2-  O174  1  0.92511478  0.31944926  0.08765978  1
  O2-  O175  1  0.92841292  0.32049501  0.42232173  1
  O2-  O176  1  0.92771488  0.32235673  0.75566617  1
  O2-  O177  1  0.92657214  0.82030069  0.09002541  1
  O2-  O178  1  0.92923963  0.82383651  0.42107259  1
  O2-  O179  1  0.93431588  0.82147429  0.76591536  1
  O2-  O180  1  0.31869957  0.07322565  0.23659874  1
  O2-  O181  1  0.31794014  0.07089407  0.57582064  1
  O2-  O182  1  0.32149447  0.06821874  0.89923779  1
  O2-  O183  1  0.32126007  0.56944238  0.23501393  1
  O2-  O184  1  0.32127875  0.57449577  0.56721083  1
  O2-  O185  1  0.32351573  0.56818205  0.90289353  1
  O2-  O186  1  0.82352509  0.07486336  0.24200378  1
  O2-  O187  1  0.82407315  0.06899009  0.56817074  1
  O2-  O188  1  0.82268686  0.07047099  0.91025589  1
  O2-  O189  1  0.82080975  0.56398191  0.23267521  1
  O2-  O190  1  0.82221116  0.56963340  0.56740260  1
  O2-  O191  1  0.82064826  0.57678933  0.91124581  1
  O2-  O192  1  0.04599840  0.08695167  0.26963863  1
  O2-  O193  1  0.04077099  0.08902647  0.59974195  1
  O2-  O194  1  0.03590103  0.08526516  0.93242463  1
  O2-  O195  1  0.03568105  0.58332210  0.26475426  1
  O2-  O196  1  0.04808682  0.58156635  0.61028737  1
  O2-  O197  1  0.04307914  0.58699680  0.93620768  1
  O2-  O198  1  0.54156613  0.08835520  0.27445378  1
  O2-  O199  1  0.54404547  0.07714865  0.60046556  1
  O2-  O200  1  0.54481359  0.07952131  0.93295281  1
  O2-  O201  1  0.54807517  0.57530299  0.26815968  1
  O2-  O202  1  0.54806334  0.58211556  0.59796064  1
  O2-  O203  1  0.54373159  0.57994275  0.93473602  1
  O2-  O204  1  0.16300116  0.20916050  0.27029082  1
  O2-  O205  1  0.16215275  0.20553330  0.60102778  1
  O2-  O206  1  0.16850213  0.20800792  0.93283212  1
  O2-  O207  1  0.16532318  0.70937693  0.26446322  1
  O2-  O208  1  0.16549799  0.70513652  0.60769003  1
  O2-  O209  1  0.16455055  0.70509714  0.93709228  1
  O2-  O210  1  0.66339139  0.20589505  0.27248257  1
  O2-  O211  1  0.67217798  0.20486573  0.59780152  1
  O2-  O212  1  0.66864145  0.20892293  0.93465402  1
  O2-  O213  1  0.66998886  0.70915493  0.26437101  1
  O2-  O214  1  0.66590509  0.71534428  0.60139105  1
  O2-  O215  1  0.66625307  0.71347281  0.93209245  1
  O2-  O216  1  0.07568916  0.45254205  0.06652356  1
  O2-  O217  1  0.08214607  0.45115929  0.39183925  1
  O2-  O218  1  0.08198793  0.45158516  0.73740371  1
  O2-  O219  1  0.07862636  0.96090844  0.07004773  1
  O2-  O220  1  0.08212818  0.95791037  0.39964336  1
  O2-  O221  1  0.08731171  0.96131220  0.72637161  1
  O2-  O222  1  0.58551739  0.45570797  0.06927676  1
  O2-  O223  1  0.58029482  0.44116426  0.39348521  1
  O2-  O224  1  0.58369739  0.44768809  0.72417003  1
  O2-  O225  1  0.58736457  0.95261283  0.06201248  1
  O2-  O226  1  0.58667013  0.96322204  0.40319010  1
  O2-  O227  1  0.57775421  0.95256440  0.73821252  1
  O2-  O228  1  0.20526705  0.33082421  0.06986335  1
  O2-  O229  1  0.20370861  0.33540739  0.39538425  1
  O2-  O230  1  0.20792253  0.32799061  0.73205172  1
  O2-  O231  1  0.19783099  0.82928606  0.06686448  1
  O2-  O232  1  0.19623545  0.83349694  0.39647717  1
  O2-  O233  1  0.20094446  0.83794665  0.72854850  1
  O2-  O234  1  0.71455758  0.33358149  0.06928053  1
  O2-  O235  1  0.71023377  0.33373741  0.40025097  1
  O2-  O236  1  0.70972254  0.33509367  0.72741202  1
  O2-  O237  1  0.71448620  0.83893813  0.06428420  1
  O2-  O238  1  0.71136979  0.83426513  0.40051428  1
  O2-  O239  1  0.71364048  0.83407794  0.73971308  1
  O2-  O240  1  0.45261736  0.41141076  0.26821167  1
  O2-  O241  1  0.45790920  0.41641759  0.59422797  1
  O2-  O242  1  0.45906845  0.41309569  0.93833961  1
  O2-  O243  1  0.46352010  0.92097977  0.26633580  1
  O2-  O244  1  0.45082936  0.91554706  0.60590424  1
  O2-  O245  1  0.45638619  0.91317722  0.93458381  1
  O2-  O246  1  0.95590199  0.41035149  0.26667598  1
  O2-  O247  1  0.95944074  0.41451825  0.60338157  1
  O2-  O248  1  0.94632739  0.41986921  0.93843962  1
  O2-  O249  1  0.95157766  0.91789546  0.26984265  1
  O2-  O250  1  0.96302747  0.91540386  0.59554594  1
  O2-  O251  1  0.95661211  0.91307216  0.93782992  1
  O2-  O252  1  0.33560402  0.28821659  0.26958504  1
  O2-  O253  1  0.33062894  0.28922075  0.59490470  1
  O2-  O254  1  0.33419408  0.29914161  0.94029627  1
  O2-  O255  1  0.32711374  0.80584142  0.26843730  1
  O2-  O256  1  0.32948878  0.80048076  0.60505809  1
  O2-  O257  1  0.33038066  0.80180412  0.94032946  1
  O2-  O258  1  0.83682268  0.29207355  0.26839745  1
  O2-  O259  1  0.83967137  0.29508941  0.59946536  1
  O2-  O260  1  0.83613281  0.29303816  0.93391165  1
  O2-  O261  1  0.83510691  0.79572402  0.26884047  1
  O2-  O262  1  0.83386805  0.79093117  0.59945353  1
  O2-  O263  1  0.83885288  0.79217555  0.93527250  1
  O2-  O264  1  0.42159820  0.04063203  0.06713375  1
  O2-  O265  1  0.41557363  0.04153453  0.40493454  1
  O2-  O266  1  0.41252243  0.04502894  0.72794062  1
  O2-  O267  1  0.41899194  0.53800537  0.07043046  1
  O2-  O268  1  0.41764219  0.53854588  0.40042679  1
  O2-  O269  1  0.42341317  0.54120685  0.73083190  1
  O2-  O270  1  0.91008004  0.03998346  0.06452483  1
  O2-  O271  1  0.91892835  0.05184353  0.39280994  1
  O2-  O272  1  0.92003062  0.03936160  0.73432959  1
  O2-  O273  1  0.91518181  0.55090906  0.06182796  1
  O2-  O274  1  0.91378795  0.53252511  0.40058120  1
  O2-  O275  1  0.91520010  0.53978230  0.73711385  1
  O2-  O276  1  0.29501604  0.16807584  0.06595126  1
  O2-  O277  1  0.28469742  0.16568167  0.40496642  1
  O2-  O278  1  0.28995458  0.16112986  0.72763324  1
  O2-  O279  1  0.29702430  0.67046441  0.06734520  1
  O2-  O280  1  0.29123778  0.67087191  0.39863356  1
  O2-  O281  1  0.29636891  0.67034292  0.73617301  1
  O2-  O282  1  0.79743209  0.16440059  0.06214400  1
  O2-  O283  1  0.79812886  0.16729627  0.39393569  1
  O2-  O284  1  0.80108797  0.17293221  0.73286361  1
  O2-  O285  1  0.79409580  0.66842041  0.06350121  1
  O2-  O286  1  0.79497517  0.66711191  0.39824787  1
  O2-  O287  1  0.79224733  0.66850720  0.73487262  1
