# generated using pymatgen
data_Ca2Al2SiO7
_symmetry_space_group_name_H-M   'P 1'
_cell_length_a   15.46452450
_cell_length_b   15.46728381
_cell_length_c   15.28975415
_cell_angle_alpha   90.00381617
_cell_angle_beta   90.00527424
_cell_angle_gamma   90.02206158
_symmetry_Int_Tables_number   1
_chemical_formula_structural   Ca2Al2SiO7
_chemical_formula_sum   'Ca48 Al48 Si24 O168'
_cell_volume   3657.22005518
_cell_formula_units_Z   24
loop_
 _symmetry_equiv_pos_site_id
 _symmetry_equiv_pos_as_xyz
  1  'x, y, z'
loop_
 _atom_type_symbol
 _atom_type_oxidation_number
  Ca2+  2.0
  Al0+  0.0
  Si0+  0.0
  O2-  -2.0
loop_
 _atom_site_type_symbol
 _atom_site_label
 _atom_site_symmetry_multiplicity
 _atom_site_fract_x
 _atom_site_fract_y
 _atom_site_fract_z
 _atom_site_occupancy
  Ca2+  Ca0  1  0.17133073  0.07978042  0.16704278  1
  Ca2+  Ca1  1  0.16766837  0.07636353  0.50430423  1
  Ca2+  Ca2  1  0.17072087  0.07761943  0.84331721  1
  Ca2+  Ca3  1  0.17671546  0.58203983  0.16865218  1
  Ca2+  Ca4  1  0.17853560  0.57627213  0.50907705  1
  Ca2+  Ca5  1  0.17544359  0.57166958  0.83776335  1
  Ca2+  Ca6  1  0.66158628  0.07454939  0.16975058  1
  Ca2+  Ca7  1  0.66864256  0.08598064  0.50399416  1
  Ca2+  Ca8  1  0.67551550  0.08711716  0.84072906  1
  Ca2+  Ca9  1  0.67031880  0.57989145  0.16958315  1
  Ca2+  Ca10  1  0.66546612  0.57617924  0.51057654  1
  Ca2+  Ca11  1  0.65749803  0.57679474  0.83147662  1
  Ca2+  Ca12  1  0.07927854  0.33074817  0.15806869  1
  Ca2+  Ca13  1  0.07650981  0.33867956  0.49492453  1
  Ca2+  Ca14  1  0.09252181  0.32901894  0.83219516  1
  Ca2+  Ca15  1  0.08144749  0.84149665  0.15768728  1
  Ca2+  Ca16  1  0.08208682  0.84224731  0.49908427  1
  Ca2+  Ca17  1  0.07365981  0.84841971  0.82856413  1
  Ca2+  Ca18  1  0.57985649  0.31525093  0.16137887  1
  Ca2+  Ca19  1  0.58169355  0.32411355  0.50147418  1
  Ca2+  Ca20  1  0.57679479  0.32420790  0.82318931  1
  Ca2+  Ca21  1  0.58514713  0.83663049  0.16039651  1
  Ca2+  Ca22  1  0.58486135  0.82772038  0.49566120  1
  Ca2+  Ca23  1  0.58376744  0.82816587  0.82846231  1
  Ca2+  Ca24  1  0.33147661  0.42468166  0.16692877  1
  Ca2+  Ca25  1  0.33686137  0.42342646  0.51071381  1
  Ca2+  Ca26  1  0.33250277  0.42148825  0.83567177  1
  Ca2+  Ca27  1  0.32469868  0.92833243  0.17057159  1
  Ca2+  Ca28  1  0.32343649  0.92251334  0.50042770  1
  Ca2+  Ca29  1  0.32208195  0.91980283  0.84081991  1
  Ca2+  Ca30  1  0.83534710  0.41387915  0.17158650  1
  Ca2+  Ca31  1  0.82730739  0.41262478  0.50733180  1
  Ca2+  Ca32  1  0.82374632  0.41512438  0.83446545  1
  Ca2+  Ca33  1  0.82573637  0.92010610  0.16351151  1
  Ca2+  Ca34  1  0.82913564  0.92369911  0.50779058  1
  Ca2+  Ca35  1  0.83131417  0.92372814  0.83927365  1
  Ca2+  Ca36  1  0.42293239  0.15207533  0.16110977  1
  Ca2+  Ca37  1  0.42352070  0.16756727  0.49547889  1
  Ca2+  Ca38  1  0.42650291  0.16490315  0.82684642  1
  Ca2+  Ca39  1  0.41197762  0.66575728  0.16370673  1
  Ca2+  Ca40  1  0.41660476  0.66068070  0.50032171  1
  Ca2+  Ca41  1  0.41610121  0.66362045  0.82679082  1
  Ca2+  Ca42  1  0.92221522  0.16711468  0.15968037  1
  Ca2+  Ca43  1  0.91579017  0.17084795  0.49734847  1
  Ca2+  Ca44  1  0.92169671  0.15547489  0.83227720  1
  Ca2+  Ca45  1  0.92258617  0.67637995  0.15639953  1
  Ca2+  Ca46  1  0.91824821  0.67561185  0.49795436  1
  Ca2+  Ca47  1  0.91889681  0.68268435  0.82745890  1
  Al0+  Al48  1  -0.00294251  0.00272991  -0.00048092  1
  Al0+  Al49  1  -0.00290686  0.00116241  0.33409142  1
  Al0+  Al50  1  -0.00202240  0.00177561  0.66599348  1
  Al0+  Al51  1  -0.00098564  0.50156863  0.00056419  1
  Al0+  Al52  1  -0.00014401  0.50365042  0.32779500  1
  Al0+  Al53  1  0.00085151  0.50192498  0.67020499  1
  Al0+  Al54  1  0.50040142  -0.00389718  -0.00222813  1
  Al0+  Al55  1  0.49902523  -0.00360718  0.33881557  1
  Al0+  Al56  1  0.50096672  -0.00332806  0.66028869  1
  Al0+  Al57  1  0.50125947  0.49891443  0.00540037  1
  Al0+  Al58  1  0.50214352  0.49871718  0.33442681  1
  Al0+  Al59  1  0.50171518  0.49951326  0.66686112  1
  Al0+  Al60  1  0.25004426  0.25240858  0.00418094  1
  Al0+  Al61  1  0.24983284  0.25168391  0.33588379  1
  Al0+  Al62  1  0.25123641  0.24918275  0.66356945  1
  Al0+  Al63  1  0.24998138  0.74788992  0.00496813  1
  Al0+  Al64  1  0.25066789  0.74839256  0.34114210  1
  Al0+  Al65  1  0.24817152  0.74993666  0.67367113  1
  Al0+  Al66  1  0.74984437  0.25066609  0.00070167  1
  Al0+  Al67  1  0.74876875  0.24999908  0.32395589  1
  Al0+  Al68  1  0.75146103  0.25034260  0.67235895  1
  Al0+  Al69  1  0.75082983  0.74869645  -0.00209965  1
  Al0+  Al70  1  0.75072957  0.74953328  0.33520893  1
  Al0+  Al71  1  0.75112754  0.75134291  0.65633545  1
  Al0+  Al72  1  0.93022280  0.82088121  0.98600639  1
  Al0+  Al73  1  0.17918213  0.93193276  0.68111668  1
  Al0+  Al74  1  0.42861984  0.31953110  0.65223580  1
  Al0+  Al75  1  0.07074775  0.18200738  0.98676845  1
  Al0+  Al76  1  0.32224608  0.56993580  0.68267238  1
  Al0+  Al77  1  0.57410399  0.17703380  0.65159957  1
  Al0+  Al78  1  0.93004414  0.32182745  0.32060520  1
  Al0+  Al79  1  0.17688812  0.93006647  0.01326580  1
  Al0+  Al80  1  0.68086136  0.43006715  0.68004032  1
  Al0+  Al81  1  0.32287465  0.57018231  0.01643462  1
  Al0+  Al82  1  0.82009163  0.07338133  0.01696608  1
  Al0+  Al83  1  0.67944306  0.92737222  0.34878009  1
  Al0+  Al84  1  0.93130834  0.82286927  0.64994636  1
  Al0+  Al85  1  0.56954205  0.17596980  0.98546544  1
  Al0+  Al86  1  0.67965226  0.92675409  0.01203959  1
  Al0+  Al87  1  0.17672375  0.42582928  0.68105925  1
  Al0+  Al88  1  0.56733352  0.17716981  0.31853441  1
  Al0+  Al89  1  0.17658931  0.93019607  0.34847968  1
  Al0+  Al90  1  0.32287335  0.07163399  0.01136443  1
  Al0+  Al91  1  0.17700021  0.42841545  0.01717698  1
  Al0+  Al92  1  0.81824998  0.07107695  0.67963766  1
  Al0+  Al93  1  0.56938433  0.68014815  0.65303903  1
  Al0+  Al94  1  0.32195264  0.07352891  0.34998201  1
  Al0+  Al95  1  0.32219483  0.56838992  0.34974595  1
  Si0+  Si96  1  0.07371057  0.67739304  0.98195457  1
  Si0+  Si97  1  0.42766269  0.81855771  0.98604299  1
  Si0+  Si98  1  0.82256324  0.57533572  0.68261361  1
  Si0+  Si99  1  0.42381530  0.82138317  0.64838588  1
  Si0+  Si100  1  0.17556883  0.42995466  0.34897716  1
  Si0+  Si101  1  0.57269532  0.67756706  0.31692617  1
  Si0+  Si102  1  0.82231630  0.57161372  0.34805515  1
  Si0+  Si103  1  0.81993182  0.57108826  0.01402358  1
  Si0+  Si104  1  0.92989155  0.32326367  0.65499749  1
  Si0+  Si105  1  0.57130733  0.67707113  0.98646702  1
  Si0+  Si106  1  0.42880882  0.81737954  0.31871259  1
  Si0+  Si107  1  0.68230959  0.42862993  0.34741537  1
  Si0+  Si108  1  0.07090573  0.17948953  0.65207545  1
  Si0+  Si109  1  0.42744710  0.32404583  0.31585455  1
  Si0+  Si110  1  0.67956264  0.42878532  0.01726996  1
  Si0+  Si111  1  0.92791951  0.82159914  0.31666122  1
  Si0+  Si112  1  0.07166796  0.68145142  0.31812012  1
  Si0+  Si113  1  0.67763110  0.92549321  0.68138033  1
  Si0+  Si114  1  0.32473196  0.07158851  0.68177891  1
  Si0+  Si115  1  0.92693821  0.32538848  0.98082708  1
  Si0+  Si116  1  0.42988964  0.32385476  0.98491568  1
  Si0+  Si117  1  0.07248744  0.17738655  0.31746205  1
  Si0+  Si118  1  0.81923175  0.07340203  0.34949698  1
  Si0+  Si119  1  0.07193815  0.67713997  0.64952535  1
  O2-  O120  1  0.24846835  0.00239093  0.06224847  1
  O2-  O121  1  0.24481937  0.00575519  0.39844907  1
  O2-  O122  1  0.25701666  0.00293631  0.72689620  1
  O2-  O123  1  0.24905329  0.50053131  0.06664469  1
  O2-  O124  1  0.25007137  0.49075345  0.39455425  1
  O2-  O125  1  0.25087874  0.49611881  0.72977661  1
  O2-  O126  1  0.74545586  0.00292306  0.06488015  1
  O2-  O127  1  0.75190705  0.00420188  0.39469507  1
  O2-  O128  1  0.74028080  -0.00088459  0.72501213  1
  O2-  O129  1  0.75376304  0.49697077  0.05899799  1
  O2-  O130  1  0.75412409  0.49863039  0.39043720  1
  O2-  O131  1  0.75382153  0.50708402  0.72729604  1
  O2-  O132  1  0.00686192  0.24987791  0.27442065  1
  O2-  O133  1  0.00475310  0.25675081  0.61201254  1
  O2-  O134  1  -0.00359468  0.25738715  0.93777531  1
  O2-  O135  1  0.00419165  0.75585640  0.27516326  1
  O2-  O136  1  0.00628258  0.74804217  0.60311079  1
  O2-  O137  1  0.01022736  0.75140753  0.93869339  1
  O2-  O138  1  0.48799704  0.24795580  0.27158503  1
  O2-  O139  1  0.49845927  0.24535120  0.60179458  1
  O2-  O140  1  0.49266319  0.24957070  0.94114814  1
  O2-  O141  1  0.50184679  0.74804836  0.27465940  1
  O2-  O142  1  0.49385179  0.75299572  0.60459263  1
  O2-  O143  1  0.49870380  0.74623726  0.94523707  1
  O2-  O144  1  0.06783563  0.18291843  0.10009666  1
  O2-  O145  1  0.06900019  0.17652024  0.42338540  1
  O2-  O146  1  0.06952490  0.17724021  0.75681447  1
  O2-  O147  1  0.06963774  0.67581131  0.08818135  1
  O2-  O148  1  0.06726548  0.67810750  0.42285085  1
  O2-  O149  1  0.06810021  0.67488591  0.75462317  1
  O2-  O150  1  0.56861014  0.17696393  0.09898225  1
  O2-  O151  1  0.57215449  0.18260603  0.43109253  1
  O2-  O152  1  0.57411990  0.17950219  0.76514237  1
  O2-  O153  1  0.57353284  0.67641766  0.09194739  1
  O2-  O154  1  0.57425583  0.67662756  0.42160718  1
  O2-  O155  1  0.57063461  0.68199233  0.76653605  1
  O2-  O156  1  0.17297493  0.43456208  0.24383437  1
  O2-  O157  1  0.17171358  0.43042701  0.56725378  1
  O2-  O158  1  0.17751529  0.43025978  0.90401850  1
  O2-  O159  1  0.17705023  0.92957827  0.23527941  1
  O2-  O160  1  0.17867822  0.93467910  0.56795025  1
  O2-  O161  1  0.17906159  0.93155367  0.89975490  1
  O2-  O162  1  0.68333802  0.43182364  0.24205128  1
  O2-  O163  1  0.68492578  0.42967105  0.56641899  1
  O2-  O164  1  0.67824097  0.43094096  0.91243933  1
  O2-  O165  1  0.68175418  0.92418576  0.23594765  1
  O2-  O166  1  0.68150147  0.92376846  0.57556511  1
  O2-  O167  1  0.68179092  0.92174855  0.89886734  1
  O2-  O168  1  0.43633809  0.32929229  0.09050739  1
  O2-  O169  1  0.43318427  0.32853067  0.42086255  1
  O2-  O170  1  0.43038916  0.31889610  0.76601019  1
  O2-  O171  1  0.42846472  0.81798375  0.09144049  1
  O2-  O172  1  0.42982471  0.81455653  0.42368977  1
  O2-  O173  1  0.42498062  0.82251681  0.75410261  1
  O2-  O174  1  0.92770746  0.32665813  0.08680512  1
  O2-  O175  1  0.92897840  0.32222554  0.43423835  1
  O2-  O176  1  0.92756551  0.32350216  0.75944657  1
  O2-  O177  1  0.92795226  0.81602024  0.09970180  1
  O2-  O178  1  0.92621464  0.81897719  0.42160768  1
  O2-  O179  1  0.93062223  0.82200804  0.76284626  1
  O2-  O180  1  0.32260934  0.06831182  0.23666030  1
  O2-  O181  1  0.32181185  0.07071678  0.57617969  1
  O2-  O182  1  0.32350174  0.06790577  0.89764587  1
  O2-  O183  1  0.32113802  0.56911380  0.23692946  1
  O2-  O184  1  0.32083073  0.56813413  0.56876162  1
  O2-  O185  1  0.32622814  0.56820938  0.90371312  1
  O2-  O186  1  0.82024323  0.07199926  0.24442306  1
  O2-  O187  1  0.81967187  0.07147938  0.56596946  1
  O2-  O188  1  0.81958597  0.07103575  0.90336773  1
  O2-  O189  1  0.82001941  0.57320779  0.24270817  1
  O2-  O190  1  0.82252491  0.57284985  0.57645553  1
  O2-  O191  1  0.81704926  0.57192838  0.90939033  1
  O2-  O192  1  0.04180516  0.08554490  0.27023822  1
  O2-  O193  1  0.03460059  0.09220381  0.60134163  1
  O2-  O194  1  0.03789839  0.08635338  0.93171015  1
  O2-  O195  1  0.03983772  0.59273090  0.26637348  1
  O2-  O196  1  0.04292503  0.58482118  0.60115778  1
  O2-  O197  1  0.04081799  0.58629502  0.93513365  1
  O2-  O198  1  0.53994402  0.07733306  0.26878587  1
  O2-  O199  1  0.55166943  0.07660922  0.59936578  1
  O2-  O200  1  0.54318460  0.07838232  0.93130903  1
  O2-  O201  1  0.54612393  0.58511111  0.26935569  1
  O2-  O202  1  0.54218843  0.58297988  0.59830426  1
  O2-  O203  1  0.54411120  0.58445188  0.94018918  1
  O2-  O204  1  0.16817130  0.19841880  0.27390016  1
  O2-  O205  1  0.16382721  0.19985835  0.60384154  1
  O2-  O206  1  0.16878190  0.21100573  0.93348636  1
  O2-  O207  1  0.16558302  0.70554321  0.27360789  1
  O2-  O208  1  0.16699275  0.70114079  0.60610143  1
  O2-  O209  1  0.17013842  0.69551633  0.93998846  1
  O2-  O210  1  0.66170238  0.21240591  0.26203797  1
  O2-  O211  1  0.67177009  0.21264342  0.60024040  1
  O2-  O212  1  0.66650881  0.21142764  0.93510611  1
  O2-  O213  1  0.66534369  0.70531258  0.26979758  1
  O2-  O214  1  0.66527944  0.70894823  0.59512693  1
  O2-  O215  1  0.66197661  0.70464711  0.93740103  1
  O2-  O216  1  0.07725620  0.45777255  0.06830429  1
  O2-  O217  1  0.08347997  0.46302834  0.39484339  1
  O2-  O218  1  0.07908820  0.45552585  0.73571708  1
  O2-  O219  1  0.07871839  0.95825908  0.06506329  1
  O2-  O220  1  0.07608223  0.95588098  0.39995238  1
  O2-  O221  1  0.08344030  0.96747546  0.73235792  1
  O2-  O222  1  0.59123382  0.46123277  0.06792972  1
  O2-  O223  1  0.59168298  0.45833527  0.39476154  1
  O2-  O224  1  0.58616070  0.46174818  0.73560420  1
  O2-  O225  1  0.58000750  0.94981237  0.06433841  1
  O2-  O226  1  0.58222154  0.95194893  0.40280347  1
  O2-  O227  1  0.58043279  0.94193873  0.72285543  1
  O2-  O228  1  0.20410293  0.33141126  0.07263240  1
  O2-  O229  1  0.19063136  0.33321091  0.39149628  1
  O2-  O230  1  0.20309694  0.32586893  0.73105496  1
  O2-  O231  1  0.20310628  0.83076074  0.06497246  1
  O2-  O232  1  0.20771875  0.83297254  0.40241901  1
  O2-  O233  1  0.20262210  0.83376130  0.73446061  1
  O2-  O234  1  0.70615279  0.33748466  0.06547184  1
  O2-  O235  1  0.71106717  0.33661820  0.39274975  1
  O2-  O236  1  0.71472969  0.33687183  0.73751657  1
  O2-  O237  1  0.71153177  0.82909062  0.06679886  1
  O2-  O238  1  0.71249861  0.83085145  0.40262156  1
  O2-  O239  1  0.70900897  0.83301373  0.72585104  1
  O2-  O240  1  0.46236475  0.41438835  0.26723414  1
  O2-  O241  1  0.46206991  0.41668863  0.59957260  1
  O2-  O242  1  0.46403364  0.41480387  0.93748449  1
  O2-  O243  1  0.45586014  0.90940667  0.27232059  1
  O2-  O244  1  0.44884087  0.91389716  0.59953542  1
  O2-  O245  1  0.45616449  0.90777090  0.93482094  1
  O2-  O246  1  0.95674829  0.41988535  0.26540037  1
  O2-  O247  1  0.95241424  0.41680009  0.60695598  1
  O2-  O248  1  0.94859156  0.42063052  0.93601206  1
  O2-  O249  1  0.94968166  0.91570116  0.27147927  1
  O2-  O250  1  0.96285138  0.91890264  0.59479764  1
  O2-  O251  1  0.95543324  0.91870977  0.93292168  1
  O2-  O252  1  0.32945762  0.30915404  0.27491965  1
  O2-  O253  1  0.32964085  0.29609648  0.59668116  1
  O2-  O254  1  0.33310420  0.30721653  0.94412369  1
  O2-  O255  1  0.33739443  0.78623886  0.27241744  1
  O2-  O256  1  0.33007830  0.79406591  0.60350907  1
  O2-  O257  1  0.33581497  0.79031577  0.93859352  1
  O2-  O258  1  0.83500100  0.29200698  0.26303735  1
  O2-  O259  1  0.84003697  0.29094043  0.60618749  1
  O2-  O260  1  0.83224745  0.30053875  0.93705657  1
  O2-  O261  1  0.83832810  0.78615981  0.26930117  1
  O2-  O262  1  0.83673805  0.79046446  0.59236205  1
  O2-  O263  1  0.83626679  0.78190244  0.93129415  1
  O2-  O264  1  0.41851077  0.03594467  0.06510008  1
  O2-  O265  1  0.41690900  0.03811197  0.40500257  1
  O2-  O266  1  0.41978199  0.04586176  0.72459181  1
  O2-  O267  1  0.42086338  0.54099168  0.07172937  1
  O2-  O268  1  0.42132949  0.54065828  0.40073498  1
  O2-  O269  1  0.42130800  0.54358863  0.73391052  1
  O2-  O270  1  0.91660782  0.04191832  0.07061330  1
  O2-  O271  1  0.91295564  0.04902529  0.39603402  1
  O2-  O272  1  0.91333082  0.03644891  0.73311434  1
  O2-  O273  1  0.91240453  0.54812015  0.06257272  1
  O2-  O274  1  0.91536318  0.54734329  0.39403368  1
  O2-  O275  1  0.91535225  0.55100670  0.72954169  1
  O2-  O276  1  0.30094897  0.17093447  0.06428902  1
  O2-  O277  1  0.30086327  0.17497273  0.40052518  1
  O2-  O278  1  0.30032041  0.16560645  0.72586824  1
  O2-  O279  1  0.29511720  0.66804723  0.07121425  1
  O2-  O280  1  0.29002327  0.66333099  0.40504962  1
  O2-  O281  1  0.29405010  0.66787606  0.73589373  1
  O2-  O282  1  0.79725020  0.17392864  0.06806720  1
  O2-  O283  1  0.79203257  0.16784510  0.39314500  1
  O2-  O284  1  0.79347865  0.16710039  0.73659314  1
  O2-  O285  1  0.78764041  0.65992116  0.06469344  1
  O2-  O286  1  0.79221900  0.66152615  0.39724244  1
  O2-  O287  1  0.79546017  0.66955869  0.72542948  1
