# generated using pymatgen
data_Ca2Al2SiO7
_symmetry_space_group_name_H-M   'P 1'
_cell_length_a   15.45405178
_cell_length_b   15.45409501
_cell_length_c   15.28071569
_cell_angle_alpha   89.99292117
_cell_angle_beta   90.00853102
_cell_angle_gamma   90.01298066
_symmetry_Int_Tables_number   1
_chemical_formula_structural   Ca2Al2SiO7
_chemical_formula_sum   'Ca48 Al48 Si24 O168'
_cell_volume   3649.46847980
_cell_formula_units_Z   24
loop_
 _symmetry_equiv_pos_site_id
 _symmetry_equiv_pos_as_xyz
  1  'x, y, z'
loop_
 _atom_type_symbol
 _atom_type_oxidation_number
  Ca2+  2.0
  Al0+  0.0
  Si0+  0.0
  O2-  -2.0
loop_
 _atom_site_type_symbol
 _atom_site_label
 _atom_site_symmetry_multiplicity
 _atom_site_fract_x
 _atom_site_fract_y
 _atom_site_fract_z
 _atom_site_occupancy
  Ca2+  Ca0  1  0.16332435  0.07302996  0.17050342  1
  Ca2+  Ca1  1  0.16403375  0.08131762  0.50122789  1
  Ca2+  Ca2  1  0.16488446  0.08405287  0.84206785  1
  Ca2+  Ca3  1  0.16314219  0.57493013  0.17302459  1
  Ca2+  Ca4  1  0.17764241  0.57523806  0.50072277  1
  Ca2+  Ca5  1  0.17260730  0.57941159  0.84306191  1
  Ca2+  Ca6  1  0.66466952  0.08075412  0.17262367  1
  Ca2+  Ca7  1  0.67946359  0.09655096  0.50032150  1
  Ca2+  Ca8  1  0.67394932  0.08125637  0.84215130  1
  Ca2+  Ca9  1  0.67671359  0.58396465  0.16493533  1
  Ca2+  Ca10  1  0.67061334  0.57862299  0.50777166  1
  Ca2+  Ca11  1  0.66316593  0.57544721  0.84207934  1
  Ca2+  Ca12  1  0.08036541  0.33639728  0.16041141  1
  Ca2+  Ca13  1  0.07789561  0.32940110  0.49255407  1
  Ca2+  Ca14  1  0.08716139  0.32329666  0.83113294  1
  Ca2+  Ca15  1  0.07988161  0.83053655  0.15546934  1
  Ca2+  Ca16  1  0.08532504  0.83230348  0.49523810  1
  Ca2+  Ca17  1  0.07934270  0.83300959  0.83736084  1
  Ca2+  Ca18  1  0.58534355  0.32121062  0.16090421  1
  Ca2+  Ca19  1  0.57821259  0.33529544  0.49711862  1
  Ca2+  Ca20  1  0.58243371  0.33750630  0.82896736  1
  Ca2+  Ca21  1  0.58239541  0.82946415  0.15497530  1
  Ca2+  Ca22  1  0.58269724  0.82612836  0.49775717  1
  Ca2+  Ca23  1  0.59368625  0.81989502  0.83378803  1
  Ca2+  Ca24  1  0.31882416  0.42118743  0.17172865  1
  Ca2+  Ca25  1  0.33645190  0.42212027  0.50470262  1
  Ca2+  Ca26  1  0.33280924  0.41828502  0.83554077  1
  Ca2+  Ca27  1  0.32051338  0.92017568  0.17345678  1
  Ca2+  Ca28  1  0.32957571  0.92262202  0.49654644  1
  Ca2+  Ca29  1  0.32597659  0.92003802  0.84087887  1
  Ca2+  Ca30  1  0.83703302  0.42753125  0.17050424  1
  Ca2+  Ca31  1  0.82854800  0.41625290  0.50112980  1
  Ca2+  Ca32  1  0.81909679  0.42168324  0.84233718  1
  Ca2+  Ca33  1  0.83037329  0.91956770  0.16707026  1
  Ca2+  Ca34  1  0.83380729  0.93178258  0.50305170  1
  Ca2+  Ca35  1  0.83168260  0.92002814  0.83972332  1
  Ca2+  Ca36  1  0.42530517  0.15941434  0.16292130  1
  Ca2+  Ca37  1  0.42178149  0.17195690  0.49136945  1
  Ca2+  Ca38  1  0.42476169  0.17474685  0.82939660  1
  Ca2+  Ca39  1  0.41976918  0.66496237  0.16198907  1
  Ca2+  Ca40  1  0.41981737  0.65654615  0.49880735  1
  Ca2+  Ca41  1  0.42801528  0.65976194  0.82764371  1
  Ca2+  Ca42  1  0.91868504  0.17279035  0.16430140  1
  Ca2+  Ca43  1  0.91608380  0.17004302  0.49360227  1
  Ca2+  Ca44  1  0.92921378  0.15963864  0.82919632  1
  Ca2+  Ca45  1  0.91905358  0.66932511  0.15472463  1
  Ca2+  Ca46  1  0.91715264  0.66661429  0.49187915  1
  Ca2+  Ca47  1  0.91485704  0.66850070  0.83878502  1
  Al0+  Al48  1  0.00039551  0.00064065  -0.00314915  1
  Al0+  Al49  1  -0.00289212  -0.00090237  0.34069608  1
  Al0+  Al50  1  0.00001035  -0.00086127  0.66547884  1
  Al0+  Al51  1  0.00032387  0.50065483  -0.00068713  1
  Al0+  Al52  1  -0.00089981  0.50050090  0.33934896  1
  Al0+  Al53  1  0.00075615  0.50013833  0.66611704  1
  Al0+  Al54  1  0.50152214  0.00104211  -0.00352439  1
  Al0+  Al55  1  0.49799350  -0.00371959  0.33374176  1
  Al0+  Al56  1  0.49937577  -0.00212102  0.66661433  1
  Al0+  Al57  1  0.49981676  0.49898797  0.00313068  1
  Al0+  Al58  1  0.50056956  0.49838260  0.33089607  1
  Al0+  Al59  1  0.50048185  0.49994096  0.66487705  1
  Al0+  Al60  1  0.25163204  0.25219289  0.00095509  1
  Al0+  Al61  1  0.24936502  0.24817431  0.33894715  1
  Al0+  Al62  1  0.25062329  0.24862972  0.65663782  1
  Al0+  Al63  1  0.24992771  0.75200592  -0.00042406  1
  Al0+  Al64  1  0.25077162  0.74883787  0.34078339  1
  Al0+  Al65  1  0.25049128  0.75017427  0.67097842  1
  Al0+  Al66  1  0.74997945  0.25039940  -0.00159349  1
  Al0+  Al67  1  0.75055205  0.25042848  0.32658167  1
  Al0+  Al68  1  0.75278709  0.25023130  0.67889878  1
  Al0+  Al69  1  0.74931085  0.75245106  -0.00103707  1
  Al0+  Al70  1  0.75054229  0.74980796  0.33750561  1
  Al0+  Al71  1  0.75134514  0.75138768  0.65873388  1
  Al0+  Al72  1  0.17722817  0.92937636  0.34930327  1
  Al0+  Al73  1  0.07062982  0.18120529  0.98946321  1
  Al0+  Al74  1  0.67594714  0.42672815  0.01844436  1
  Al0+  Al75  1  0.57257718  0.17792113  0.98455160  1
  Al0+  Al76  1  0.56901636  0.17933403  0.32089115  1
  Al0+  Al77  1  0.92859602  0.82161769  0.98522947  1
  Al0+  Al78  1  0.31981841  0.56936300  0.68224595  1
  Al0+  Al79  1  0.81958030  0.57110354  0.01310229  1
  Al0+  Al80  1  0.43170360  0.31963529  0.65246962  1
  Al0+  Al81  1  0.06969175  0.17836179  0.65089323  1
  Al0+  Al82  1  0.17864174  0.93018777  0.01207667  1
  Al0+  Al83  1  0.56881473  0.67969203  0.98847186  1
  Al0+  Al84  1  0.17970118  0.42878545  0.01108135  1
  Al0+  Al85  1  0.32253471  0.56940484  0.34781101  1
  Al0+  Al86  1  0.67939900  0.93096213  0.01218707  1
  Al0+  Al87  1  0.17661433  0.42711261  0.34991150  1
  Al0+  Al88  1  0.32312025  0.07039978  0.34831276  1
  Al0+  Al89  1  0.82095207  0.07035382  0.68222038  1
  Al0+  Al90  1  0.81995105  0.57210869  0.34780909  1
  Al0+  Al91  1  0.93061239  0.32181411  0.31930937  1
  Al0+  Al92  1  0.68067365  0.43167555  0.67901233  1
  Al0+  Al93  1  0.07299872  0.67673804  0.98542985  1
  Al0+  Al94  1  0.56966129  0.68025785  0.65170153  1
  Al0+  Al95  1  0.81734505  0.07150919  0.34459236  1
  Si0+  Si96  1  0.82434511  0.57568584  0.68295471  1
  Si0+  Si97  1  0.92689849  0.32244362  0.65173911  1
  Si0+  Si98  1  0.67959468  0.42761628  0.34847674  1
  Si0+  Si99  1  0.32208757  0.57313436  0.01561309  1
  Si0+  Si100  1  0.67623775  0.92641175  0.35099117  1
  Si0+  Si101  1  0.42692080  0.82355442  0.98301604  1
  Si0+  Si102  1  0.92770135  0.32429646  0.98173381  1
  Si0+  Si103  1  0.57439080  0.17592944  0.65207311  1
  Si0+  Si104  1  0.42846718  0.81882418  0.31782509  1
  Si0+  Si105  1  0.42526263  0.32303294  0.31449772  1
  Si0+  Si106  1  0.42889843  0.32124324  0.98427208  1
  Si0+  Si107  1  0.57281882  0.67840320  0.31748605  1
  Si0+  Si108  1  0.92831758  0.82197820  0.31929709  1
  Si0+  Si109  1  0.07324907  0.67838075  0.65047202  1
  Si0+  Si110  1  0.82371524  0.07212423  0.01700740  1
  Si0+  Si111  1  0.32251443  0.07313075  0.01429798  1
  Si0+  Si112  1  0.67769565  0.92635205  0.68211752  1
  Si0+  Si113  1  0.17732930  0.42588120  0.68323732  1
  Si0+  Si114  1  0.07177018  0.17587170  0.31705467  1
  Si0+  Si115  1  0.32165613  0.07245924  0.68176776  1
  Si0+  Si116  1  0.07090605  0.68112606  0.32117210  1
  Si0+  Si117  1  0.17957656  0.92993582  0.68356178  1
  Si0+  Si118  1  0.42440843  0.82326163  0.64836729  1
  Si0+  Si119  1  0.93091330  0.82007971  0.64830674  1
  O2-  O120  1  0.25307123  0.00495132  0.05795628  1
  O2-  O121  1  0.24570307  0.00465263  0.39979547  1
  O2-  O122  1  0.25047124  0.00182090  0.72474133  1
  O2-  O123  1  0.24816546  0.50947296  0.05805428  1
  O2-  O124  1  0.25473175  0.49363880  0.39846426  1
  O2-  O125  1  0.24402342  0.49587178  0.72850026  1
  O2-  O126  1  0.75092575  0.00747116  0.06075595  1
  O2-  O127  1  0.74097473  -0.00070012  0.39398505  1
  O2-  O128  1  0.74165094  -0.00079493  0.72616541  1
  O2-  O129  1  0.75091655  0.49718584  0.06570947  1
  O2-  O130  1  0.74445059  0.49894418  0.39454058  1
  O2-  O131  1  0.75566895  0.50672382  0.72511910  1
  O2-  O132  1  0.00880621  0.24971943  0.27297510  1
  O2-  O133  1  -0.00376523  0.25504533  0.60620685  1
  O2-  O134  1  -0.00368429  0.25443683  0.93893809  1
  O2-  O135  1  0.00014766  0.75180993  0.27803486  1
  O2-  O136  1  -0.00098331  0.74570165  0.60670514  1
  O2-  O137  1  0.00025660  0.74852406  0.93523683  1
  O2-  O138  1  0.49110777  0.25043963  0.27212434  1
  O2-  O139  1  0.50616629  0.24384088  0.60640089  1
  O2-  O140  1  0.50077888  0.25582154  0.93935827  1
  O2-  O141  1  0.49998770  0.74803514  0.27597475  1
  O2-  O142  1  0.49454999  0.75516560  0.60483100  1
  O2-  O143  1  0.49344707  0.75270592  0.93917897  1
  O2-  O144  1  0.06944932  0.18010456  0.10233230  1
  O2-  O145  1  0.06638246  0.17460531  0.42284004  1
  O2-  O146  1  0.07089514  0.17763030  0.76432615  1
  O2-  O147  1  0.07292275  0.67854797  0.09957170  1
  O2-  O148  1  0.06943817  0.68317113  0.42686900  1
  O2-  O149  1  0.07398888  0.67983747  0.75508777  1
  O2-  O150  1  0.56823006  0.17472033  0.09777707  1
  O2-  O151  1  0.57098165  0.18382727  0.43436385  1
  O2-  O152  1  0.57082951  0.17540538  0.75749567  1
  O2-  O153  1  0.56730293  0.68259208  0.10194479  1
  O2-  O154  1  0.57320591  0.68004849  0.42282051  1
  O2-  O155  1  0.56971843  0.68106565  0.76470890  1
  O2-  O156  1  0.17555493  0.43161962  0.23605889  1
  O2-  O157  1  0.17639612  0.42848570  0.57793093  1
  O2-  O158  1  0.18478635  0.42583452  0.89782346  1
  O2-  O159  1  0.17738386  0.92775640  0.23581823  1
  O2-  O160  1  0.18001750  0.92940165  0.57855086  1
  O2-  O161  1  0.18048975  0.93230872  0.89848261  1
  O2-  O162  1  0.68075432  0.42880559  0.24341392  1
  O2-  O163  1  0.68212173  0.43144805  0.56538501  1
  O2-  O164  1  0.67510678  0.43028993  0.90446258  1
  O2-  O165  1  0.67770756  0.92365333  0.24548979  1
  O2-  O166  1  0.67989388  0.92410974  0.57637334  1
  O2-  O167  1  0.68118927  0.93096956  0.89888230  1
  O2-  O168  1  0.42647573  0.31883522  0.08962516  1
  O2-  O169  1  0.43018367  0.32544542  0.42025076  1
  O2-  O170  1  0.43087131  0.31810053  0.76568009  1
  O2-  O171  1  0.42735240  0.82374049  0.08888856  1
  O2-  O172  1  0.42994274  0.81992312  0.42301080  1
  O2-  O173  1  0.42203574  0.82480483  0.75364030  1
  O2-  O174  1  0.92942272  0.32427198  0.08757938  1
  O2-  O175  1  0.92800928  0.31881820  0.43285421  1
  O2-  O176  1  0.92867313  0.32272625  0.75703365  1
  O2-  O177  1  0.93014281  0.82246805  0.09927496  1
  O2-  O178  1  0.92823987  0.82081165  0.42484305  1
  O2-  O179  1  0.93056614  0.82144867  0.75300789  1
  O2-  O180  1  0.32544951  0.06418026  0.23480646  1
  O2-  O181  1  0.32266508  0.07023644  0.57713707  1
  O2-  O182  1  0.32126574  0.07277358  0.90804528  1
  O2-  O183  1  0.32030841  0.57191853  0.23419658  1
  O2-  O184  1  0.31889800  0.56783315  0.56932794  1
  O2-  O185  1  0.32400703  0.56989878  0.90983518  1
  O2-  O186  1  0.81821399  0.06885613  0.23194048  1
  O2-  O187  1  0.81996423  0.07052312  0.56872527  1
  O2-  O188  1  0.82426486  0.06830891  0.91109382  1
  O2-  O189  1  0.82014423  0.57545328  0.23535142  1
  O2-  O190  1  0.82362798  0.57528776  0.57703064  1
  O2-  O191  1  0.81703306  0.56981613  0.89911813  1
  O2-  O192  1  0.03966934  0.08276657  0.27319078  1
  O2-  O193  1  0.03704016  0.08186966  0.59742114  1
  O2-  O194  1  0.03988248  0.08600587  0.93202838  1
  O2-  O195  1  0.04221036  0.58895965  0.27631413  1
  O2-  O196  1  0.04899726  0.58501892  0.60330654  1
  O2-  O197  1  0.04577356  0.57905235  0.92997652  1
  O2-  O198  1  0.54107757  0.07969365  0.26980774  1
  O2-  O199  1  0.55069364  0.08122850  0.60670297  1
  O2-  O200  1  0.53995534  0.08305252  0.92755887  1
  O2-  O201  1  0.54746038  0.58576931  0.27086469  1
  O2-  O202  1  0.53772254  0.58501955  0.59637481  1
  O2-  O203  1  0.53839797  0.58231847  0.93536402  1
  O2-  O204  1  0.16916620  0.19253034  0.27596001  1
  O2-  O205  1  0.16585633  0.20560582  0.59476714  1
  O2-  O206  1  0.16788228  0.21165175  0.93488653  1
  O2-  O207  1  0.16369958  0.70781855  0.27570900  1
  O2-  O208  1  0.16381152  0.71140835  0.60348464  1
  O2-  O209  1  0.17125225  0.70688430  0.93189602  1
  O2-  O210  1  0.66351770  0.21125735  0.26387667  1
  O2-  O211  1  0.67006612  0.20329963  0.61182370  1
  O2-  O212  1  0.67061459  0.20453491  0.93124037  1
  O2-  O213  1  0.66449933  0.70944197  0.27172229  1
  O2-  O214  1  0.66613824  0.71103394  0.59554905  1
  O2-  O215  1  0.66365458  0.71292481  0.93320580  1
  O2-  O216  1  0.08199471  0.45491316  0.06404266  1
  O2-  O217  1  0.08198154  0.46156168  0.40652834  1
  O2-  O218  1  0.08253277  0.44940211  0.72828282  1
  O2-  O219  1  0.08258298  0.96178187  0.06587188  1
  O2-  O220  1  0.07896991  0.95429445  0.40488624  1
  O2-  O221  1  0.08746263  0.95791119  0.72913614  1
  O2-  O222  1  0.57827016  0.45567676  0.07187700  1
  O2-  O223  1  0.58457341  0.45088665  0.39283631  1
  O2-  O224  1  0.58493027  0.46368938  0.73262138  1
  O2-  O225  1  0.58144877  0.95897553  0.06579604  1
  O2-  O226  1  0.58133810  0.94595883  0.39583480  1
  O2-  O227  1  0.58135639  0.94402966  0.72582781  1
  O2-  O228  1  0.21443839  0.33523438  0.06892821  1
  O2-  O229  1  0.19616069  0.32613799  0.40039451  1
  O2-  O230  1  0.20620864  0.33128220  0.72505536  1
  O2-  O231  1  0.20823651  0.83358133  0.06684393  1
  O2-  O232  1  0.21047728  0.83343867  0.40486661  1
  O2-  O233  1  0.20752759  0.83869565  0.73172159  1
  O2-  O234  1  0.70251356  0.32613961  0.06728819  1
  O2-  O235  1  0.70904076  0.33552545  0.39448200  1
  O2-  O236  1  0.70892788  0.33645646  0.73730821  1
  O2-  O237  1  0.71035417  0.83589813  0.06818950  1
  O2-  O238  1  0.70701472  0.83560932  0.40014595  1
  O2-  O239  1  0.71068901  0.83428148  0.72733753  1
  O2-  O240  1  0.45322216  0.41535515  0.26656344  1
  O2-  O241  1  0.46492674  0.41455824  0.59681432  1
  O2-  O242  1  0.45244106  0.41567571  0.93885634  1
  O2-  O243  1  0.45518621  0.90971414  0.26825612  1
  O2-  O244  1  0.45080554  0.91681232  0.60091952  1
  O2-  O245  1  0.45336439  0.91605151  0.93521258  1
  O2-  O246  1  0.96002974  0.42031475  0.26775370  1
  O2-  O247  1  0.94965973  0.41738873  0.60523735  1
  O2-  O248  1  0.95293279  0.41689271  0.93444067  1
  O2-  O249  1  0.95480248  0.91441701  0.27315477  1
  O2-  O250  1  0.96351159  0.91006909  0.59986370  1
  O2-  O251  1  0.96026913  0.91800893  0.92954476  1
  O2-  O252  1  0.32898456  0.30094180  0.27273740  1
  O2-  O253  1  0.33623559  0.29067426  0.59546324  1
  O2-  O254  1  0.33752488  0.29265388  0.93473091  1
  O2-  O255  1  0.33602306  0.78966817  0.27194239  1
  O2-  O256  1  0.33108163  0.79637253  0.60227797  1
  O2-  O257  1  0.33301584  0.80092716  0.93634307  1
  O2-  O258  1  0.83662453  0.28873965  0.26211433  1
  O2-  O259  1  0.83315292  0.29379214  0.60731319  1
  O2-  O260  1  0.83368131  0.29934937  0.93658515  1
  O2-  O261  1  0.83574001  0.79378441  0.27348506  1
  O2-  O262  1  0.83913935  0.79644930  0.59820136  1
  O2-  O263  1  0.83112155  0.79374427  0.93006919  1
  O2-  O264  1  0.41564851  0.04518513  0.05901732  1
  O2-  O265  1  0.41839696  0.03476892  0.40470976  1
  O2-  O266  1  0.41393817  0.04456279  0.72958474  1
  O2-  O267  1  0.41278146  0.54335056  0.06449408  1
  O2-  O268  1  0.42287079  0.54292165  0.39920854  1
  O2-  O269  1  0.41627090  0.53657005  0.73424836  1
  O2-  O270  1  0.91537904  0.04251441  0.06358367  1
  O2-  O271  1  0.91103757  0.03874665  0.40319311  1
  O2-  O272  1  0.91634506  0.03284964  0.73449324  1
  O2-  O273  1  0.91934271  0.54574230  0.06490518  1
  O2-  O274  1  0.91494718  0.54195170  0.40443714  1
  O2-  O275  1  0.91929834  0.55229018  0.72727639  1
  O2-  O276  1  0.29921762  0.16625525  0.06093290  1
  O2-  O277  1  0.30337079  0.17060039  0.40058963  1
  O2-  O278  1  0.29296479  0.16472457  0.72718551  1
  O2-  O279  1  0.30318469  0.66920306  0.05875948  1
  O2-  O280  1  0.29268090  0.66555427  0.40451836  1
  O2-  O281  1  0.29177364  0.66715750  0.73564872  1
  O2-  O282  1  0.80277997  0.16793437  0.05901526  1
  O2-  O283  1  0.78625762  0.16831566  0.39871035  1
  O2-  O284  1  0.79726814  0.16597104  0.74059849  1
  O2-  O285  1  0.78963849  0.66914569  0.06542362  1
  O2-  O286  1  0.78988317  0.66811108  0.40470905  1
  O2-  O287  1  0.79869857  0.67069965  0.72505999  1
