# generated using pymatgen
data_Ca2Al2SiO7
_symmetry_space_group_name_H-M   'P 1'
_cell_length_a   15.46317366
_cell_length_b   15.46408501
_cell_length_c   15.28855546
_cell_angle_alpha   89.99861388
_cell_angle_beta   90.00499911
_cell_angle_gamma   89.99080210
_symmetry_Int_Tables_number   1
_chemical_formula_structural   Ca2Al2SiO7
_chemical_formula_sum   'Ca48 Al48 Si24 O168'
_cell_volume   3655.85790313
_cell_formula_units_Z   24
loop_
 _symmetry_equiv_pos_site_id
 _symmetry_equiv_pos_as_xyz
  1  'x, y, z'
loop_
 _atom_type_symbol
 _atom_type_oxidation_number
  Ca2+  2.0
  Al0+  0.0
  Si0+  0.0
  O2-  -2.0
loop_
 _atom_site_type_symbol
 _atom_site_label
 _atom_site_symmetry_multiplicity
 _atom_site_fract_x
 _atom_site_fract_y
 _atom_site_fract_z
 _atom_site_occupancy
  Ca2+  Ca0  1  0.17222016  0.08363810  0.17680728  1
  Ca2+  Ca1  1  0.17509079  0.09115534  0.50534134  1
  Ca2+  Ca2  1  0.17266443  0.09039490  0.83068437  1
  Ca2+  Ca3  1  0.17017334  0.57840693  0.16975312  1
  Ca2+  Ca4  1  0.18196494  0.57680142  0.51035872  1
  Ca2+  Ca5  1  0.16945074  0.57141787  0.83799350  1
  Ca2+  Ca6  1  0.66123224  0.07686470  0.17205321  1
  Ca2+  Ca7  1  0.65526931  0.08528371  0.50539254  1
  Ca2+  Ca8  1  0.66023931  0.07776212  0.83796025  1
  Ca2+  Ca9  1  0.66454228  0.57303032  0.17057572  1
  Ca2+  Ca10  1  0.66619622  0.58082875  0.50370153  1
  Ca2+  Ca11  1  0.67542757  0.58310273  0.83817618  1
  Ca2+  Ca12  1  0.09066143  0.32806461  0.16238486  1
  Ca2+  Ca13  1  0.08569431  0.33011996  0.50311258  1
  Ca2+  Ca14  1  0.08155481  0.33669678  0.82307032  1
  Ca2+  Ca15  1  0.07705442  0.82371796  0.15523877  1
  Ca2+  Ca16  1  0.08183482  0.83283715  0.49711443  1
  Ca2+  Ca17  1  0.07826083  0.82512917  0.83424709  1
  Ca2+  Ca18  1  0.57294642  0.34161019  0.16459319  1
  Ca2+  Ca19  1  0.57300250  0.32937094  0.49105900  1
  Ca2+  Ca20  1  0.57407841  0.33442668  0.82688638  1
  Ca2+  Ca21  1  0.58518853  0.82756726  0.16376780  1
  Ca2+  Ca22  1  0.57574106  0.82061983  0.50274116  1
  Ca2+  Ca23  1  0.58145022  0.82922018  0.82494359  1
  Ca2+  Ca24  1  0.33339379  0.41583901  0.16995184  1
  Ca2+  Ca25  1  0.33599987  0.41955110  0.50631600  1
  Ca2+  Ca26  1  0.32626938  0.40847741  0.83293092  1
  Ca2+  Ca27  1  0.33235122  0.92586555  0.17501349  1
  Ca2+  Ca28  1  0.34257823  0.92982248  0.50610075  1
  Ca2+  Ca29  1  0.34194841  0.92415205  0.83177101  1
  Ca2+  Ca30  1  0.82076300  0.41902395  0.16835375  1
  Ca2+  Ca31  1  0.82643299  0.41674712  0.50783376  1
  Ca2+  Ca32  1  0.82893314  0.42361078  0.83887811  1
  Ca2+  Ca33  1  0.82991668  0.91213344  0.16495248  1
  Ca2+  Ca34  1  0.82992420  0.92160245  0.50497552  1
  Ca2+  Ca35  1  0.82745249  0.91854862  0.84209854  1
  Ca2+  Ca36  1  0.41656498  0.17768054  0.16709547  1
  Ca2+  Ca37  1  0.41734779  0.17569068  0.49742950  1
  Ca2+  Ca38  1  0.42029402  0.17656103  0.82384627  1
  Ca2+  Ca39  1  0.42248394  0.65604046  0.16806052  1
  Ca2+  Ca40  1  0.42272886  0.65818706  0.49582364  1
  Ca2+  Ca41  1  0.42413665  0.67180289  0.81971340  1
  Ca2+  Ca42  1  0.92394696  0.16718209  0.16567711  1
  Ca2+  Ca43  1  0.92748505  0.17393076  0.49901891  1
  Ca2+  Ca44  1  0.92411813  0.17813856  0.82128272  1
  Ca2+  Ca45  1  0.92126263  0.66785847  0.15418862  1
  Ca2+  Ca46  1  0.91517239  0.66349825  0.50060447  1
  Ca2+  Ca47  1  0.91483818  0.66167530  0.83225121  1
  Al0+  Al48  1  0.00160279  -0.00189150  -0.00394010  1
  Al0+  Al49  1  -0.00204875  0.00000624  0.32912111  1
  Al0+  Al50  1  -0.00062341  -0.00052507  0.66510344  1
  Al0+  Al51  1  0.00267832  0.49749275  0.00591789  1
  Al0+  Al52  1  -0.00186913  0.50073723  0.33224811  1
  Al0+  Al53  1  -0.00090032  0.50188138  0.66777669  1
  Al0+  Al54  1  0.50111515  0.00056689  0.00705582  1
  Al0+  Al55  1  0.49940928  -0.00136962  0.33535553  1
  Al0+  Al56  1  0.49894938  -0.00260764  0.66600082  1
  Al0+  Al57  1  0.49856729  0.50047250  -0.00473098  1
  Al0+  Al58  1  0.50089465  0.49971422  0.33251090  1
  Al0+  Al59  1  0.50197532  0.50033479  0.66410474  1
  Al0+  Al60  1  0.25266128  0.25083774  0.00040240  1
  Al0+  Al61  1  0.24903386  0.24908431  0.32958836  1
  Al0+  Al62  1  0.25116437  0.24836269  0.66843054  1
  Al0+  Al63  1  0.25031825  0.75151806  -0.00398633  1
  Al0+  Al64  1  0.24840680  0.75032866  0.33653848  1
  Al0+  Al65  1  0.24831959  0.75350491  0.66649891  1
  Al0+  Al66  1  0.75124838  0.24796950  0.00432199  1
  Al0+  Al67  1  0.75069013  0.24797860  0.33365217  1
  Al0+  Al68  1  0.75234366  0.24915518  0.66170268  1
  Al0+  Al69  1  0.75052907  0.75256906  0.00439638  1
  Al0+  Al70  1  0.74849748  0.75112134  0.33036949  1
  Al0+  Al71  1  0.74936380  0.75111759  0.66603706  1
  Al0+  Al72  1  0.32520264  0.57384085  0.68226272  1
  Al0+  Al73  1  0.32047815  0.06870913  0.68144703  1
  Al0+  Al74  1  0.57000495  0.67978162  0.31752456  1
  Al0+  Al75  1  0.18157710  0.43015488  0.68052365  1
  Al0+  Al76  1  0.82140012  0.57065949  0.01570479  1
  Al0+  Al77  1  0.32024674  0.07077826  0.34798409  1
  Al0+  Al78  1  0.57201220  0.67888795  0.65285532  1
  Al0+  Al79  1  0.31955413  0.57014676  0.34587474  1
  Al0+  Al80  1  0.07109490  0.17845814  0.65268134  1
  Al0+  Al81  1  0.67626128  0.42787323  0.01386587  1
  Al0+  Al82  1  0.57248110  0.17633203  0.31687734  1
  Al0+  Al83  1  0.42962026  0.32131239  0.31683048  1
  Al0+  Al84  1  0.68001542  0.42811825  0.34810848  1
  Al0+  Al85  1  0.07213920  0.67544171  0.98383218  1
  Al0+  Al86  1  0.81894716  0.57192001  0.67953154  1
  Al0+  Al87  1  0.67935526  0.93069665  0.01473164  1
  Al0+  Al88  1  0.57168926  0.17774542  0.65471709  1
  Al0+  Al89  1  0.43004604  0.32116525  0.98369668  1
  Al0+  Al90  1  0.92778544  0.81994985  0.98321096  1
  Al0+  Al91  1  0.92902469  0.32553990  0.65205904  1
  Al0+  Al92  1  0.06931043  0.18094170  0.31866592  1
  Al0+  Al93  1  0.18097889  0.42821683  0.01486749  1
  Al0+  Al94  1  0.42597778  0.82064014  0.65210368  1
  Al0+  Al95  1  0.42922735  0.32150261  0.65154213  1
  Si0+  Si96  1  0.68122422  0.93165855  0.68055025  1
  Si0+  Si97  1  0.07243783  0.17850867  0.98515981  1
  Si0+  Si98  1  0.07161022  0.67904263  0.31957933  1
  Si0+  Si99  1  0.92836209  0.82075660  0.65090271  1
  Si0+  Si100  1  0.82573366  0.07150725  0.01716369  1
  Si0+  Si101  1  0.17571773  0.92877082  0.34921515  1
  Si0+  Si102  1  0.67939697  0.92840744  0.35125523  1
  Si0+  Si103  1  0.82362798  0.07182255  0.68084720  1
  Si0+  Si104  1  0.82266765  0.06966629  0.34919850  1
  Si0+  Si105  1  0.17882996  0.92843988  0.01490414  1
  Si0+  Si106  1  0.32015314  0.07022792  0.01629739  1
  Si0+  Si107  1  0.92896118  0.82063084  0.31793989  1
  Si0+  Si108  1  0.82143070  0.57363944  0.34963235  1
  Si0+  Si109  1  0.17261562  0.92771906  0.68586309  1
  Si0+  Si110  1  0.56982442  0.68049709  0.98582593  1
  Si0+  Si111  1  0.42642102  0.82103377  0.31634598  1
  Si0+  Si112  1  0.17545611  0.42736892  0.34968936  1
  Si0+  Si113  1  0.32130342  0.57566015  0.01507191  1
  Si0+  Si114  1  0.92670931  0.32380751  0.31442547  1
  Si0+  Si115  1  0.57219433  0.17624852  0.98578367  1
  Si0+  Si116  1  0.07076759  0.67925482  0.65079472  1
  Si0+  Si117  1  0.67906728  0.42476468  0.68206910  1
  Si0+  Si118  1  0.42947826  0.82475690  0.98682910  1
  Si0+  Si119  1  0.92863748  0.31917799  0.98700363  1
  O2-  O120  1  0.24846379  -0.00045039  0.05845017  1
  O2-  O121  1  0.24470855  -0.00425815  0.39390580  1
  O2-  O122  1  0.24443393  -0.00571346  0.72872746  1
  O2-  O123  1  0.25253063  0.50689273  0.05926798  1
  O2-  O124  1  0.24451460  0.49590782  0.39224147  1
  O2-  O125  1  0.25487553  0.50030750  0.73260562  1
  O2-  O126  1  0.75510292  0.00471043  0.06175123  1
  O2-  O127  1  0.74633149  0.00418528  0.39225290  1
  O2-  O128  1  0.74785620  0.00642819  0.72329635  1
  O2-  O129  1  0.74769734  0.50044177  0.06517223  1
  O2-  O130  1  0.75628999  0.50239816  0.39374117  1
  O2-  O131  1  0.74602279  0.49577652  0.72584458  1
  O2-  O132  1  -0.00162256  0.25801055  0.26953377  1
  O2-  O133  1  0.00184212  0.25337955  0.60353700  1
  O2-  O134  1  -0.00032458  0.24795848  0.94468704  1
  O2-  O135  1  -0.00092217  0.74850261  0.27721972  1
  O2-  O136  1  0.00024014  0.75144017  0.60784289  1
  O2-  O137  1  -0.00420715  0.74389795  0.93388097  1
  O2-  O138  1  0.50336702  0.25026052  0.26626774  1
  O2-  O139  1  0.50443675  0.25216773  0.60292558  1
  O2-  O140  1  0.50986962  0.24955703  0.94119405  1
  O2-  O141  1  0.49230822  0.75138271  0.26956064  1
  O2-  O142  1  0.49018255  0.74096062  0.60343456  1
  O2-  O143  1  0.49817639  0.75171084  0.94509950  1
  O2-  O144  1  0.07189659  0.17769907  0.09054370  1
  O2-  O145  1  0.06711922  0.17856149  0.43088983  1
  O2-  O146  1  0.06722107  0.17709501  0.76687461  1
  O2-  O147  1  0.07361213  0.68088139  0.09824813  1
  O2-  O148  1  0.07067318  0.68097035  0.42463151  1
  O2-  O149  1  0.06929475  0.67985780  0.75548260  1
  O2-  O150  1  0.56772361  0.17126679  0.09077510  1
  O2-  O151  1  0.56970467  0.17674899  0.42995359  1
  O2-  O152  1  0.57047558  0.17646676  0.76882734  1
  O2-  O153  1  0.56771014  0.68051776  0.09113147  1
  O2-  O154  1  0.57305076  0.68297803  0.42995257  1
  O2-  O155  1  0.57751756  0.68610724  0.76674974  1
  O2-  O156  1  0.17447019  0.42970303  0.24379356  1
  O2-  O157  1  0.17946339  0.43274422  0.56674101  1
  O2-  O158  1  0.18104628  0.42485328  0.90244066  1
  O2-  O159  1  0.17561585  0.92890641  0.24316011  1
  O2-  O160  1  0.16665761  0.92891793  0.58042414  1
  O2-  O161  1  0.17834682  0.92856564  0.91034096  1
  O2-  O162  1  0.68089041  0.43135894  0.23488310  1
  O2-  O163  1  0.68206945  0.42417064  0.57649195  1
  O2-  O164  1  0.67794337  0.42830391  0.90037764  1
  O2-  O165  1  0.68183752  0.92671707  0.24606605  1
  O2-  O166  1  0.68478307  0.93024634  0.57531536  1
  O2-  O167  1  0.67746324  0.93308959  0.90144849  1
  O2-  O168  1  0.42732678  0.31911749  0.09650775  1
  O2-  O169  1  0.42873114  0.32108732  0.42981974  1
  O2-  O170  1  0.42944452  0.31769008  0.76555244  1
  O2-  O171  1  0.42983953  0.82727416  0.09191627  1
  O2-  O172  1  0.42846274  0.82145525  0.42130693  1
  O2-  O173  1  0.43399459  0.82463712  0.76629647  1
  O2-  O174  1  0.92865046  0.31584695  0.09217203  1
  O2-  O175  1  0.92722637  0.32329929  0.41963705  1
  O2-  O176  1  0.92813044  0.32269886  0.76635077  1
  O2-  O177  1  0.93248450  0.82249888  0.09731272  1
  O2-  O178  1  0.92907373  0.82239584  0.42338921  1
  O2-  O179  1  0.92739532  0.82184416  0.75533210  1
  O2-  O180  1  0.31740670  0.06764265  0.23399400  1
  O2-  O181  1  0.31961024  0.06743961  0.56867626  1
  O2-  O182  1  0.32069233  0.06852368  0.91139351  1
  O2-  O183  1  0.31567432  0.57189614  0.23237447  1
  O2-  O184  1  0.32062632  0.57301928  0.56842740  1
  O2-  O185  1  0.32077325  0.57874787  0.91020537  1
  O2-  O186  1  0.82672705  0.06456832  0.24416814  1
  O2-  O187  1  0.82769829  0.06616060  0.57590138  1
  O2-  O188  1  0.82632620  0.07115476  0.91158875  1
  O2-  O189  1  0.82228366  0.57515958  0.24441435  1
  O2-  O190  1  0.81734365  0.57429998  0.56622390  1
  O2-  O191  1  0.81882296  0.56942133  0.90204623  1
  O2-  O192  1  0.03505832  0.08458974  0.26352426  1
  O2-  O193  1  0.03894680  0.08107831  0.59917549  1
  O2-  O194  1  0.04784398  0.08599074  0.93828531  1
  O2-  O195  1  0.04549877  0.58679548  0.27189377  1
  O2-  O196  1  0.04050113  0.58976954  0.60150569  1
  O2-  O197  1  0.04741760  0.57480173  0.93492618  1
  O2-  O198  1  0.54263198  0.07654460  0.26606704  1
  O2-  O199  1  0.54115321  0.07999924  0.60235574  1
  O2-  O200  1  0.54054515  0.08405732  0.93903286  1
  O2-  O201  1  0.53951849  0.58393471  0.26291479  1
  O2-  O202  1  0.55453870  0.57859052  0.60095946  1
  O2-  O203  1  0.54369919  0.58985437  0.93645932  1
  O2-  O204  1  0.16539597  0.20802908  0.26207107  1
  O2-  O205  1  0.16973109  0.20444920  0.60164294  1
  O2-  O206  1  0.16400547  0.20776240  0.93947657  1
  O2-  O207  1  0.16225124  0.70858134  0.27085993  1
  O2-  O208  1  0.16164615  0.70812973  0.60236290  1
  O2-  O209  1  0.16844254  0.71062166  0.93015529  1
  O2-  O210  1  0.67481824  0.19600660  0.26776771  1
  O2-  O211  1  0.67297742  0.19558708  0.60353177  1
  O2-  O212  1  0.66986629  0.19262695  0.94450450  1
  O2-  O213  1  0.66524139  0.71534299  0.26271566  1
  O2-  O214  1  0.66576455  0.71938989  0.59718220  1
  O2-  O215  1  0.66199620  0.71058525  0.94181586  1
  O2-  O216  1  0.08471603  0.45343391  0.07214580  1
  O2-  O217  1  0.08094151  0.45300142  0.39424575  1
  O2-  O218  1  0.08293093  0.46116516  0.73257508  1
  O2-  O219  1  0.08671013  0.95575578  0.06274502  1
  O2-  O220  1  0.08124979  0.95448472  0.39371216  1
  O2-  O221  1  0.08042352  0.95626412  0.73433205  1
  O2-  O222  1  0.57790265  0.46009906  0.06547254  1
  O2-  O223  1  0.58444799  0.46132958  0.40090879  1
  O2-  O224  1  0.58480250  0.44847882  0.72623053  1
  O2-  O225  1  0.58419413  0.96109001  0.07312713  1
  O2-  O226  1  0.58629058  0.95126310  0.39753940  1
  O2-  O227  1  0.58904311  0.95557769  0.72849195  1
  O2-  O228  1  0.21533970  0.33252131  0.07008912  1
  O2-  O229  1  0.19946308  0.33271313  0.39236394  1
  O2-  O230  1  0.20613369  0.33071746  0.73347193  1
  O2-  O231  1  0.20738487  0.83700615  0.06329203  1
  O2-  O232  1  0.19794811  0.83476963  0.39582918  1
  O2-  O233  1  0.19476568  0.83333627  0.73125816  1
  O2-  O234  1  0.70438343  0.32882431  0.06695034  1
  O2-  O235  1  0.70964337  0.33025008  0.40015521  1
  O2-  O236  1  0.70690851  0.33161643  0.72860041  1
  O2-  O237  1  0.70994351  0.83573075  0.07200352  1
  O2-  O238  1  0.71421545  0.83883981  0.39872105  1
  O2-  O239  1  0.71467418  0.84247540  0.72915917  1
  O2-  O240  1  0.45876503  0.41922685  0.26303293  1
  O2-  O241  1  0.45314549  0.42103719  0.60022294  1
  O2-  O242  1  0.45572462  0.41881734  0.92951818  1
  O2-  O243  1  0.45557713  0.91343867  0.26970065  1
  O2-  O244  1  0.46564278  0.91380035  0.59644891  1
  O2-  O245  1  0.46117916  0.91574197  0.93970559  1
  O2-  O246  1  0.94803329  0.41920500  0.26936391  1
  O2-  O247  1  0.95573337  0.42343983  0.59765553  1
  O2-  O248  1  0.95693954  0.41114854  0.94197788  1
  O2-  O249  1  0.95683257  0.91102174  0.26815621  1
  O2-  O250  1  0.95582731  0.91207317  0.60181711  1
  O2-  O251  1  0.96025313  0.91732602  0.92924711  1
  O2-  O252  1  0.33119494  0.29146824  0.26385847  1
  O2-  O253  1  0.33191187  0.28970677  0.59996974  1
  O2-  O254  1  0.33521359  0.28344812  0.93045635  1
  O2-  O255  1  0.33034526  0.79993545  0.27225519  1
  O2-  O256  1  0.32315158  0.80901269  0.60257732  1
  O2-  O257  1  0.33684175  0.80230463  0.93921261  1
  O2-  O258  1  0.83528253  0.29278208  0.26753988  1
  O2-  O259  1  0.83329698  0.29325258  0.59643337  1
  O2-  O260  1  0.83671071  0.29169939  0.93903024  1
  O2-  O261  1  0.83733393  0.79375716  0.27023383  1
  O2-  O262  1  0.83802865  0.79207191  0.60112982  1
  O2-  O263  1  0.82678984  0.79812648  0.93305695  1
  O2-  O264  1  0.41034576  0.04060413  0.06544951  1
  O2-  O265  1  0.41616661  0.03754070  0.40148022  1
  O2-  O266  1  0.41590472  0.03338493  0.73678824  1
  O2-  O267  1  0.41478723  0.54744736  0.05977615  1
  O2-  O268  1  0.41682164  0.54126485  0.39754543  1
  O2-  O269  1  0.42643076  0.55160693  0.73189561  1
  O2-  O270  1  0.91889659  0.04211281  0.06346857  1
  O2-  O271  1  0.91144913  0.03373888  0.39821815  1
  O2-  O272  1  0.91221490  0.03809096  0.73112655  1
  O2-  O273  1  0.91941097  0.54190464  0.06913603  1
  O2-  O274  1  0.91697339  0.55182587  0.39470089  1
  O2-  O275  1  0.91622788  0.54475233  0.73317576  1
  O2-  O276  1  0.29050454  0.16100999  0.06352421  1
  O2-  O277  1  0.28736080  0.16739769  0.39936005  1
  O2-  O278  1  0.28946348  0.16377549  0.73801974  1
  O2-  O279  1  0.29743421  0.66987473  0.06225899  1
  O2-  O280  1  0.28955089  0.66742013  0.40010507  1
  O2-  O281  1  0.29661045  0.67461749  0.73121174  1
  O2-  O282  1  0.80397509  0.16487633  0.06501851  1
  O2-  O283  1  0.80352280  0.16354370  0.39483839  1
  O2-  O284  1  0.80235481  0.16558803  0.72684205  1
  O2-  O285  1  0.79726586  0.67084971  0.06679767  1
  O2-  O286  1  0.79372740  0.66747377  0.39486995  1
  O2-  O287  1  0.78772495  0.66890315  0.73374699  1
