# generated using pymatgen
data_Ca2Al2SiO7
_symmetry_space_group_name_H-M   'P 1'
_cell_length_a   15.45630555
_cell_length_b   15.45563460
_cell_length_c   15.28286973
_cell_angle_alpha   89.99796571
_cell_angle_beta   90.00172108
_cell_angle_gamma   89.99602230
_symmetry_Int_Tables_number   1
_chemical_formula_structural   Ca2Al2SiO7
_chemical_formula_sum   'Ca48 Al48 Si24 O168'
_cell_volume   3650.87905278
_cell_formula_units_Z   24
loop_
 _symmetry_equiv_pos_site_id
 _symmetry_equiv_pos_as_xyz
  1  'x, y, z'
loop_
 _atom_type_symbol
 _atom_type_oxidation_number
  Ca2+  2.0
  Al0+  0.0
  Si0+  0.0
  O2-  -2.0
loop_
 _atom_site_type_symbol
 _atom_site_label
 _atom_site_symmetry_multiplicity
 _atom_site_fract_x
 _atom_site_fract_y
 _atom_site_fract_z
 _atom_site_occupancy
  Ca2+  Ca0  1  0.17029332  0.08987346  0.17530533  1
  Ca2+  Ca1  1  0.17410907  0.09193648  0.49791945  1
  Ca2+  Ca2  1  0.16710411  0.08206340  0.84002702  1
  Ca2+  Ca3  1  0.17664925  0.57136519  0.17156391  1
  Ca2+  Ca4  1  0.16956187  0.58153977  0.49948046  1
  Ca2+  Ca5  1  0.16948228  0.58023743  0.84393630  1
  Ca2+  Ca6  1  0.65973000  0.07992694  0.17421464  1
  Ca2+  Ca7  1  0.66331852  0.07506070  0.50726277  1
  Ca2+  Ca8  1  0.66660283  0.08606964  0.83204557  1
  Ca2+  Ca9  1  0.67323264  0.58266530  0.16939597  1
  Ca2+  Ca10  1  0.67104882  0.57644669  0.51218522  1
  Ca2+  Ca11  1  0.67305481  0.58335517  0.83376101  1
  Ca2+  Ca12  1  0.08311785  0.33233716  0.16412480  1
  Ca2+  Ca13  1  0.07454283  0.33058320  0.48708591  1
  Ca2+  Ca14  1  0.08045374  0.33749924  0.83646533  1
  Ca2+  Ca15  1  0.07548861  0.83524114  0.16548396  1
  Ca2+  Ca16  1  0.07448546  0.82669596  0.49464406  1
  Ca2+  Ca17  1  0.07988111  0.82283759  0.82481820  1
  Ca2+  Ca18  1  0.57938167  0.32174597  0.16459628  1
  Ca2+  Ca19  1  0.58511131  0.32318466  0.49291983  1
  Ca2+  Ca20  1  0.59055138  0.32588039  0.82760685  1
  Ca2+  Ca21  1  0.57202982  0.83648329  0.16608702  1
  Ca2+  Ca22  1  0.58889702  0.82993723  0.49457832  1
  Ca2+  Ca23  1  0.57990246  0.82804722  0.82806832  1
  Ca2+  Ca24  1  0.32582203  0.41765070  0.17816993  1
  Ca2+  Ca25  1  0.33085890  0.41339258  0.49714849  1
  Ca2+  Ca26  1  0.32646161  0.42624842  0.84537903  1
  Ca2+  Ca27  1  0.33679459  0.91983171  0.17554667  1
  Ca2+  Ca28  1  0.34033396  0.92230225  0.49655728  1
  Ca2+  Ca29  1  0.33421708  0.91494188  0.83888768  1
  Ca2+  Ca30  1  0.84167994  0.41701461  0.16660302  1
  Ca2+  Ca31  1  0.82757634  0.41621251  0.50800944  1
  Ca2+  Ca32  1  0.83101039  0.42409246  0.83658417  1
  Ca2+  Ca33  1  0.82535280  0.91860966  0.17789564  1
  Ca2+  Ca34  1  0.82511701  0.92199028  0.50548922  1
  Ca2+  Ca35  1  0.82587390  0.92118992  0.83229251  1
  Ca2+  Ca36  1  0.42279049  0.16566238  0.16836641  1
  Ca2+  Ca37  1  0.42649966  0.17033578  0.49023416  1
  Ca2+  Ca38  1  0.42888065  0.16978657  0.82974262  1
  Ca2+  Ca39  1  0.40452595  0.67472950  0.16467987  1
  Ca2+  Ca40  1  0.42363397  0.67031372  0.49264191  1
  Ca2+  Ca41  1  0.41674518  0.67081051  0.82870667  1
  Ca2+  Ca42  1  0.92831004  0.17928289  0.16070567  1
  Ca2+  Ca43  1  0.91841195  0.17018399  0.49060428  1
  Ca2+  Ca44  1  0.91747438  0.17108699  0.83163070  1
  Ca2+  Ca45  1  0.91321212  0.67109931  0.16378163  1
  Ca2+  Ca46  1  0.91859693  0.66605142  0.49652793  1
  Ca2+  Ca47  1  0.91920666  0.65784370  0.82636138  1
  Al0+  Al48  1  -0.00198409  0.00049161  -0.00390979  1
  Al0+  Al49  1  -0.00080168  -0.00168198  0.32648809  1
  Al0+  Al50  1  0.00147966  -0.00027909  0.67045880  1
  Al0+  Al51  1  -0.00017922  0.50062913  0.00536363  1
  Al0+  Al52  1  0.00179499  0.50117998  0.33345798  1
  Al0+  Al53  1  0.00162917  0.49877619  0.66363525  1
  Al0+  Al54  1  0.49877615  -0.00183217  -0.00986074  1
  Al0+  Al55  1  0.49964900  -0.00364440  0.33602245  1
  Al0+  Al56  1  0.49838087  0.00173960  0.66867766  1
  Al0+  Al57  1  0.50270099  0.50201050  0.00536747  1
  Al0+  Al58  1  0.50223010  0.49939026  0.33350425  1
  Al0+  Al59  1  0.49736055  0.50129966  0.66768606  1
  Al0+  Al60  1  0.25146590  0.24825184  -0.00116535  1
  Al0+  Al61  1  0.25117185  0.24995657  0.33792285  1
  Al0+  Al62  1  0.24977546  0.25029999  0.67003559  1
  Al0+  Al63  1  0.24760932  0.75252750  -0.00043426  1
  Al0+  Al64  1  0.25019833  0.74912216  0.33479740  1
  Al0+  Al65  1  0.24785351  0.75051255  0.66047098  1
  Al0+  Al66  1  0.75215045  0.24975835  -0.00667404  1
  Al0+  Al67  1  0.75232280  0.24999543  0.32391562  1
  Al0+  Al68  1  0.75059228  0.24913190  0.66907842  1
  Al0+  Al69  1  0.74720743  0.75115350  0.00432449  1
  Al0+  Al70  1  0.75039596  0.75003559  0.33316083  1
  Al0+  Al71  1  0.74914108  0.75194258  0.67111853  1
  Al0+  Al72  1  0.32355883  0.57252855  0.35144926  1
  Al0+  Al73  1  0.17924554  0.42878240  0.35160222  1
  Al0+  Al74  1  0.93138264  0.32357144  0.98096535  1
  Al0+  Al75  1  0.67608502  0.42841010  0.68075914  1
  Al0+  Al76  1  0.92854599  0.32377069  0.31825801  1
  Al0+  Al77  1  0.82222104  0.57039268  0.67950834  1
  Al0+  Al78  1  0.07210005  0.17847669  0.32056779  1
  Al0+  Al79  1  0.32317611  0.57427115  0.01463031  1
  Al0+  Al80  1  0.92786025  0.81919999  0.32050826  1
  Al0+  Al81  1  0.57121574  0.67944696  0.65421766  1
  Al0+  Al82  1  0.57129402  0.18106452  0.65159532  1
  Al0+  Al83  1  0.56970711  0.17936105  0.98435880  1
  Al0+  Al84  1  0.67914330  0.92997673  0.34640045  1
  Al0+  Al85  1  0.18121946  0.42768120  0.01616680  1
  Al0+  Al86  1  0.57113019  0.17647517  0.31958111  1
  Al0+  Al87  1  0.67614330  0.92913423  0.68419274  1
  Al0+  Al88  1  0.07339260  0.17825463  0.98245455  1
  Al0+  Al89  1  0.82337142  0.07150615  0.68194252  1
  Al0+  Al90  1  0.32015174  0.06963261  0.34658457  1
  Al0+  Al91  1  0.81962775  0.57126606  0.01526111  1
  Al0+  Al92  1  0.42813689  0.81800686  0.98578616  1
  Al0+  Al93  1  0.42988024  0.32230573  0.31960651  1
  Al0+  Al94  1  0.07035341  0.67698844  0.65216026  1
  Al0+  Al95  1  0.43003665  0.81808096  0.32145754  1
  Si0+  Si96  1  0.67908879  0.42456242  0.01854169  1
  Si0+  Si97  1  0.92844706  0.82334850  0.65175580  1
  Si0+  Si98  1  0.57391932  0.67641377  0.31627386  1
  Si0+  Si99  1  0.07246865  0.67846179  0.31416861  1
  Si0+  Si100  1  0.92448385  0.82202964  0.98362566  1
  Si0+  Si101  1  0.68068300  0.42692266  0.34612353  1
  Si0+  Si102  1  0.42873904  0.32455933  0.98459923  1
  Si0+  Si103  1  0.57446092  0.67744209  0.98413826  1
  Si0+  Si104  1  0.06722687  0.68267070  0.98723950  1
  Si0+  Si105  1  0.67806047  0.93151879  0.01584252  1
  Si0+  Si106  1  0.42508999  0.32251585  0.65149208  1
  Si0+  Si107  1  0.07302154  0.17704830  0.65196929  1
  Si0+  Si108  1  0.17445876  0.92688494  0.35008482  1
  Si0+  Si109  1  0.31906209  0.57352521  0.68130882  1
  Si0+  Si110  1  0.17609902  0.92955847  0.01421144  1
  Si0+  Si111  1  0.82274222  0.07234241  0.34593913  1
  Si0+  Si112  1  0.32134501  0.06766482  0.01289520  1
  Si0+  Si113  1  0.31970026  0.07164987  0.68382638  1
  Si0+  Si114  1  0.82042445  0.57150422  0.34815085  1
  Si0+  Si115  1  0.93130046  0.31927034  0.65210636  1
  Si0+  Si116  1  0.17964356  0.42871884  0.68236756  1
  Si0+  Si117  1  0.82150247  0.07146884  0.01643437  1
  Si0+  Si118  1  0.42678222  0.82200817  0.64845358  1
  Si0+  Si119  1  0.17998313  0.92810083  0.68124033  1
  O2-  O120  1  0.24447878  0.00306153  0.05515568  1
  O2-  O121  1  0.24218687  -0.00297273  0.39397385  1
  O2-  O122  1  0.25014469  -0.00119494  0.72547079  1
  O2-  O123  1  0.25908674  0.49500811  0.06393548  1
  O2-  O124  1  0.25249363  0.49977866  0.40238649  1
  O2-  O125  1  0.24958503  0.50115992  0.72382750  1
  O2-  O126  1  0.74848658  0.00258596  0.05904974  1
  O2-  O127  1  0.75205236  0.00693048  0.39182307  1
  O2-  O128  1  0.74845106  0.00211353  0.73295553  1
  O2-  O129  1  0.74647664  0.49522835  0.06251404  1
  O2-  O130  1  0.75248819  0.49735758  0.38883197  1
  O2-  O131  1  0.74714456  0.50213453  0.73032018  1
  O2-  O132  1  0.00273823  0.25259995  0.27079017  1
  O2-  O133  1  -0.00023117  0.24533424  0.61057393  1
  O2-  O134  1  0.00351672  0.25119318  0.93064386  1
  O2-  O135  1  0.00335228  0.74711224  0.27043720  1
  O2-  O136  1  -0.00810438  0.74927043  0.60801896  1
  O2-  O137  1  -0.00612845  0.74966408  0.94154985  1
  O2-  O138  1  0.49999230  0.24898883  0.26896958  1
  O2-  O139  1  0.49856718  0.25869546  0.60763887  1
  O2-  O140  1  0.49991343  0.25956856  0.93823591  1
  O2-  O141  1  0.50051982  0.74059094  0.27265526  1
  O2-  O142  1  0.49929024  0.75641372  0.60634221  1
  O2-  O143  1  0.49852655  0.73890339  0.94077300  1
  O2-  O144  1  0.07147704  0.17426391  0.09523926  1
  O2-  O145  1  0.06789808  0.17812660  0.43508731  1
  O2-  O146  1  0.07553981  0.17838697  0.75676413  1
  O2-  O147  1  0.06685896  0.68792634  0.09193104  1
  O2-  O148  1  0.07021740  0.67893392  0.42015401  1
  O2-  O149  1  0.07305208  0.67929538  0.76587571  1
  O2-  O150  1  0.56612146  0.17544370  0.09703917  1
  O2-  O151  1  0.57150399  0.17808456  0.43311794  1
  O2-  O152  1  0.56750106  0.18161102  0.76500258  1
  O2-  O153  1  0.58085199  0.68267657  0.08926657  1
  O2-  O154  1  0.57672788  0.67860869  0.42194938  1
  O2-  O155  1  0.56656763  0.67954460  0.76746823  1
  O2-  O156  1  0.17897351  0.43042360  0.23833872  1
  O2-  O157  1  0.18009440  0.42621381  0.57796483  1
  O2-  O158  1  0.18075203  0.43292690  0.90141322  1
  O2-  O159  1  0.17504692  0.92636046  0.24415386  1
  O2-  O160  1  0.17904325  0.92840689  0.57663062  1
  O2-  O161  1  0.17760521  0.92717575  0.90864110  1
  O2-  O162  1  0.68037822  0.42870873  0.24105805  1
  O2-  O163  1  0.67958695  0.42749635  0.56661693  1
  O2-  O164  1  0.67911653  0.42535336  0.91302316  1
  O2-  O165  1  0.67934270  0.92998890  0.23265077  1
  O2-  O166  1  0.67773544  0.92958296  0.57058100  1
  O2-  O167  1  0.67988004  0.93055313  0.91100992  1
  O2-  O168  1  0.42854902  0.32085701  0.08968414  1
  O2-  O169  1  0.43346512  0.32097307  0.43361005  1
  O2-  O170  1  0.42019959  0.31852302  0.75719656  1
  O2-  O171  1  0.42946792  0.82206690  0.09849658  1
  O2-  O172  1  0.43341969  0.81923405  0.43440160  1
  O2-  O173  1  0.42250307  0.81858998  0.75440973  1
  O2-  O174  1  0.93262363  0.32148352  0.09405603  1
  O2-  O175  1  0.92608660  0.32201616  0.43256338  1
  O2-  O176  1  0.93460383  0.32225079  0.75680118  1
  O2-  O177  1  0.92567050  0.82243666  0.08873128  1
  O2-  O178  1  0.92824043  0.81661973  0.43361892  1
  O2-  O179  1  0.93358777  0.82510291  0.75773946  1
  O2-  O180  1  0.32153613  0.06585774  0.23308602  1
  O2-  O181  1  0.31892893  0.07286737  0.57900957  1
  O2-  O182  1  0.32114216  0.06418861  0.90726264  1
  O2-  O183  1  0.31873587  0.57429831  0.23817131  1
  O2-  O184  1  0.31841963  0.57462224  0.57684021  1
  O2-  O185  1  0.31775758  0.57561886  0.90006277  1
  O2-  O186  1  0.82257610  0.06877820  0.24020467  1
  O2-  O187  1  0.82747753  0.06912405  0.56832749  1
  O2-  O188  1  0.82236632  0.06814418  0.91137746  1
  O2-  O189  1  0.81776230  0.57405620  0.24291525  1
  O2-  O190  1  0.82315337  0.56648460  0.56564902  1
  O2-  O191  1  0.81853407  0.57286025  0.90237888  1
  O2-  O192  1  0.04611842  0.08034399  0.26586361  1
  O2-  O193  1  0.05006978  0.08316126  0.60697165  1
  O2-  O194  1  0.04211140  0.07939482  0.92896953  1
  O2-  O195  1  0.04590532  0.58575264  0.26826647  1
  O2-  O196  1  0.04261830  0.58071452  0.59627431  1
  O2-  O197  1  0.04230349  0.58973309  0.94151709  1
  O2-  O198  1  0.53925522  0.07880463  0.26783012  1
  O2-  O199  1  0.53633848  0.08414917  0.60079182  1
  O2-  O200  1  0.53364937  0.08581396  0.92737703  1
  O2-  O201  1  0.55490234  0.58150059  0.27127056  1
  O2-  O202  1  0.53938042  0.58291836  0.59977485  1
  O2-  O203  1  0.55857740  0.58046474  0.94160044  1
  O2-  O204  1  0.17198582  0.20350967  0.27089849  1
  O2-  O205  1  0.16467180  0.20782156  0.60558416  1
  O2-  O206  1  0.17384459  0.20190844  0.92992166  1
  O2-  O207  1  0.16555355  0.70529189  0.26921915  1
  O2-  O208  1  0.16367867  0.71308536  0.59514423  1
  O2-  O209  1  0.15710790  0.71406128  0.93751072  1
  O2-  O210  1  0.66856334  0.20353154  0.26425364  1
  O2-  O211  1  0.67000893  0.20696327  0.59969990  1
  O2-  O212  1  0.66775097  0.20568530  0.93144068  1
  O2-  O213  1  0.66500827  0.70763324  0.26833690  1
  O2-  O214  1  0.66956969  0.70752546  0.60161368  1
  O2-  O215  1  0.66419871  0.71247797  0.93500236  1
  O2-  O216  1  0.08486939  0.46123559  0.06877513  1
  O2-  O217  1  0.08070024  0.46075558  0.40431741  1
  O2-  O218  1  0.08800129  0.45715530  0.72906596  1
  O2-  O219  1  0.08234404  0.95358642  0.05997450  1
  O2-  O220  1  0.07980363  0.95041290  0.39537198  1
  O2-  O221  1  0.08918939  0.95423626  0.73176278  1
  O2-  O222  1  0.58521984  0.44824485  0.06524953  1
  O2-  O223  1  0.58974825  0.45351454  0.39523601  1
  O2-  O224  1  0.57646171  0.45400996  0.73369787  1
  O2-  O225  1  0.58471999  0.96078184  0.05927901  1
  O2-  O226  1  0.58360149  0.95704010  0.40281158  1
  O2-  O227  1  0.57680731  0.95676953  0.73660074  1
  O2-  O228  1  0.20521506  0.32652967  0.06535675  1
  O2-  O229  1  0.20579567  0.33044348  0.40586926  1
  O2-  O230  1  0.20771641  0.33754716  0.73183836  1
  O2-  O231  1  0.20543057  0.83967575  0.06363730  1
  O2-  O232  1  0.20082179  0.83390621  0.39662314  1
  O2-  O233  1  0.20886742  0.83611888  0.72911732  1
  O2-  O234  1  0.70717819  0.33091556  0.06311289  1
  O2-  O235  1  0.70945945  0.33436965  0.39207831  1
  O2-  O236  1  0.70788795  0.33173164  0.73420280  1
  O2-  O237  1  0.70517726  0.84029333  0.06440685  1
  O2-  O238  1  0.71346619  0.83379353  0.39971907  1
  O2-  O239  1  0.70526016  0.83188901  0.73967092  1
  O2-  O240  1  0.45809950  0.42031860  0.26588993  1
  O2-  O241  1  0.44273804  0.41863634  0.60884683  1
  O2-  O242  1  0.45024846  0.42094863  0.94154209  1
  O2-  O243  1  0.46344856  0.91272117  0.26580183  1
  O2-  O244  1  0.44812372  0.91823539  0.60738211  1
  O2-  O245  1  0.46230191  0.91099910  0.92661751  1
  O2-  O246  1  0.95597386  0.42303730  0.26683466  1
  O2-  O247  1  0.96195953  0.40900623  0.60242002  1
  O2-  O248  1  0.96040957  0.42350307  0.93048368  1
  O2-  O249  1  0.95645553  0.91440239  0.26234925  1
  O2-  O250  1  0.96191096  0.91418402  0.60437858  1
  O2-  O251  1  0.95407690  0.91243795  0.93498744  1
  O2-  O252  1  0.33103080  0.29382385  0.26969835  1
  O2-  O253  1  0.33354795  0.29004407  0.60402395  1
  O2-  O254  1  0.33671358  0.29607022  0.93644483  1
  O2-  O255  1  0.33111947  0.79319278  0.26818826  1
  O2-  O256  1  0.33475906  0.79452809  0.60063930  1
  O2-  O257  1  0.32954159  0.79258812  0.93109494  1
  O2-  O258  1  0.83285503  0.29599266  0.26010409  1
  O2-  O259  1  0.83848016  0.29381198  0.60622177  1
  O2-  O260  1  0.83330677  0.29414146  0.92805233  1
  O2-  O261  1  0.83311397  0.78613696  0.26354364  1
  O2-  O262  1  0.83248838  0.80465724  0.60953332  1
  O2-  O263  1  0.83161802  0.79561198  0.93848452  1
  O2-  O264  1  0.41121939  0.03228933  0.05871324  1
  O2-  O265  1  0.41382526  0.03348180  0.40327431  1
  O2-  O266  1  0.41075647  0.04470149  0.73268526  1
  O2-  O267  1  0.42578944  0.55964614  0.06364185  1
  O2-  O268  1  0.42431323  0.54663192  0.40147274  1
  O2-  O269  1  0.41063061  0.54827331  0.73017429  1
  O2-  O270  1  0.91280927  0.04030404  0.06297035  1
  O2-  O271  1  0.91552017  0.04331355  0.39203535  1
  O2-  O272  1  0.92112654  0.04100642  0.73757016  1
  O2-  O273  1  0.91624383  0.54410458  0.07050852  1
  O2-  O274  1  0.91447747  0.54936725  0.39292469  1
  O2-  O275  1  0.92051321  0.53814290  0.73196854  1
  O2-  O276  1  0.30102224  0.16160300  0.05842765  1
  O2-  O277  1  0.29267304  0.16498897  0.40474183  1
  O2-  O278  1  0.28939273  0.16208411  0.73316830  1
  O2-  O279  1  0.28521787  0.67050269  0.06655249  1
  O2-  O280  1  0.29293309  0.67089782  0.40477949  1
  O2-  O281  1  0.28851323  0.66557500  0.72745486  1
  O2-  O282  1  0.79673368  0.16519335  0.06017155  1
  O2-  O283  1  0.80134415  0.16810581  0.38907802  1
  O2-  O284  1  0.79659744  0.16951923  0.73590102  1
  O2-  O285  1  0.78705098  0.66800257  0.07018558  1
  O2-  O286  1  0.78997006  0.66162338  0.39688834  1
  O2-  O287  1  0.80033231  0.67051475  0.73142633  1
