# generated using pymatgen
data_Ca2Al2SiO7
_symmetry_space_group_name_H-M   'P 1'
_cell_length_a   15.45642593
_cell_length_b   15.45775920
_cell_length_c   15.28212123
_cell_angle_alpha   89.97658639
_cell_angle_beta   89.99351120
_cell_angle_gamma   89.99323499
_symmetry_Int_Tables_number   1
_chemical_formula_structural   Ca2Al2SiO7
_chemical_formula_sum   'Ca48 Al48 Si24 O168'
_cell_volume   3651.23018339
_cell_formula_units_Z   24
loop_
 _symmetry_equiv_pos_site_id
 _symmetry_equiv_pos_as_xyz
  1  'x, y, z'
loop_
 _atom_type_symbol
 _atom_type_oxidation_number
  Ca2+  2.0
  Al0+  0.0
  Si0+  0.0
  O2-  -2.0
loop_
 _atom_site_type_symbol
 _atom_site_label
 _atom_site_symmetry_multiplicity
 _atom_site_fract_x
 _atom_site_fract_y
 _atom_site_fract_z
 _atom_site_occupancy
  Ca2+  Ca0  1  0.17110234  0.08624356  0.16932041  1
  Ca2+  Ca1  1  0.16800447  0.08491321  0.50854189  1
  Ca2+  Ca2  1  0.17838317  0.08809756  0.83468860  1
  Ca2+  Ca3  1  0.16699298  0.58153732  0.16752557  1
  Ca2+  Ca4  1  0.16919325  0.58470037  0.50856263  1
  Ca2+  Ca5  1  0.17550727  0.58454615  0.84012088  1
  Ca2+  Ca6  1  0.67839830  0.08365341  0.17144253  1
  Ca2+  Ca7  1  0.67603882  0.08821839  0.50995381  1
  Ca2+  Ca8  1  0.67506366  0.08819819  0.83512274  1
  Ca2+  Ca9  1  0.66824610  0.58797407  0.17492568  1
  Ca2+  Ca10  1  0.67324464  0.58164170  0.50683958  1
  Ca2+  Ca11  1  0.66599880  0.58059739  0.83361860  1
  Ca2+  Ca12  1  0.08337125  0.33095094  0.16322143  1
  Ca2+  Ca13  1  0.08557847  0.31984855  0.49790174  1
  Ca2+  Ca14  1  0.08581773  0.33003586  0.82950574  1
  Ca2+  Ca15  1  0.08280978  0.82060264  0.16329264  1
  Ca2+  Ca16  1  0.07849570  0.82071751  0.50171876  1
  Ca2+  Ca17  1  0.08097699  0.82330085  0.82531581  1
  Ca2+  Ca18  1  0.56894526  0.33736243  0.16160654  1
  Ca2+  Ca19  1  0.57600463  0.33768552  0.50375731  1
  Ca2+  Ca20  1  0.57267229  0.33089777  0.82402904  1
  Ca2+  Ca21  1  0.58807563  0.82084280  0.16420694  1
  Ca2+  Ca22  1  0.57709322  0.83079535  0.49948647  1
  Ca2+  Ca23  1  0.57734375  0.82793832  0.82916013  1
  Ca2+  Ca24  1  0.33255830  0.41627456  0.16351380  1
  Ca2+  Ca25  1  0.33667490  0.41956343  0.50719976  1
  Ca2+  Ca26  1  0.33159963  0.42199605  0.83923042  1
  Ca2+  Ca27  1  0.33370567  0.92311321  0.16730725  1
  Ca2+  Ca28  1  0.33133718  0.92040729  0.51234038  1
  Ca2+  Ca29  1  0.34264932  0.92843470  0.83394728  1
  Ca2+  Ca30  1  0.82852306  0.42381641  0.17450700  1
  Ca2+  Ca31  1  0.82792150  0.42814312  0.50967256  1
  Ca2+  Ca32  1  0.82607050  0.41810784  0.83054534  1
  Ca2+  Ca33  1  0.83597200  0.92517516  0.16979944  1
  Ca2+  Ca34  1  0.83628349  0.92281117  0.50656184  1
  Ca2+  Ca35  1  0.84227758  0.92550540  0.83262611  1
  Ca2+  Ca36  1  0.41185814  0.17834766  0.15974678  1
  Ca2+  Ca37  1  0.41810434  0.17724788  0.49993295  1
  Ca2+  Ca38  1  0.41543818  0.17487785  0.82229871  1
  Ca2+  Ca39  1  0.42856415  0.66157638  0.15857774  1
  Ca2+  Ca40  1  0.41832508  0.66933998  0.49854429  1
  Ca2+  Ca41  1  0.41622328  0.66462544  0.82667942  1
  Ca2+  Ca42  1  0.91955174  0.15921602  0.16488831  1
  Ca2+  Ca43  1  0.92494854  0.15808520  0.49688871  1
  Ca2+  Ca44  1  0.92095120  0.16317322  0.82330684  1
  Ca2+  Ca45  1  0.92691283  0.65820686  0.16212056  1
  Ca2+  Ca46  1  0.92092405  0.66193966  0.49625282  1
  Ca2+  Ca47  1  0.92850333  0.66798042  0.82224066  1
  Al0+  Al48  1  0.00124485  -0.00048751  0.00486651  1
  Al0+  Al49  1  0.00238053  -0.00176511  0.33186174  1
  Al0+  Al50  1  0.00075197  -0.00324897  0.66355390  1
  Al0+  Al51  1  0.00006683  0.49782819  -0.00231451  1
  Al0+  Al52  1  0.00081874  0.49752998  0.33437613  1
  Al0+  Al53  1  0.00024253  0.49767859  0.66682944  1
  Al0+  Al54  1  0.50327831  -0.00054893  0.00858719  1
  Al0+  Al55  1  0.50009034  0.00221600  0.33275143  1
  Al0+  Al56  1  0.50129567  0.00022500  0.66250976  1
  Al0+  Al57  1  0.49963302  0.49921152  -0.00541247  1
  Al0+  Al58  1  0.49809213  0.50095250  0.32590318  1
  Al0+  Al59  1  0.49947203  0.49966771  0.67016584  1
  Al0+  Al60  1  0.24847179  0.25087345  0.00396268  1
  Al0+  Al61  1  0.24899228  0.25089131  0.32571428  1
  Al0+  Al62  1  0.24964244  0.25007284  0.66223778  1
  Al0+  Al63  1  0.25183604  0.75130926  0.00135325  1
  Al0+  Al64  1  0.24864093  0.75143164  0.32892150  1
  Al0+  Al65  1  0.24955472  0.74989150  0.66292502  1
  Al0+  Al66  1  0.75031824  0.25102468  0.00702479  1
  Al0+  Al67  1  0.74903056  0.25072009  0.33868883  1
  Al0+  Al68  1  0.74957417  0.25096961  0.67164719  1
  Al0+  Al69  1  0.75015995  0.75127148  -0.00540851  1
  Al0+  Al70  1  0.74959271  0.75229253  0.33457664  1
  Al0+  Al71  1  0.75067804  0.75193097  0.66827432  1
  Al0+  Al72  1  0.32117843  0.07132423  0.67725316  1
  Al0+  Al73  1  0.67834195  0.42993822  0.68292714  1
  Al0+  Al74  1  0.07038591  0.67654022  0.31807767  1
  Al0+  Al75  1  0.06878652  0.17790293  0.31733917  1
  Al0+  Al76  1  0.32193985  0.07146327  0.01393479  1
  Al0+  Al77  1  0.92759565  0.82028531  0.65132250  1
  Al0+  Al78  1  0.43006914  0.32029584  0.31702344  1
  Al0+  Al79  1  0.82152380  0.57096497  0.34577405  1
  Al0+  Al80  1  0.32241704  0.57233566  0.01625514  1
  Al0+  Al81  1  0.56942967  0.68215167  0.32198456  1
  Al0+  Al82  1  0.42783953  0.31780619  0.98356767  1
  Al0+  Al83  1  0.31919876  0.57196255  0.67775555  1
  Al0+  Al84  1  0.06985397  0.17927843  0.65546353  1
  Al0+  Al85  1  0.82163760  0.07107177  0.01463565  1
  Al0+  Al86  1  0.42920182  0.82124052  0.65459368  1
  Al0+  Al87  1  0.82140548  0.07004365  0.34916411  1
  Al0+  Al88  1  0.07186977  0.67755706  0.98553466  1
  Al0+  Al89  1  0.42826119  0.32231276  0.65185452  1
  Al0+  Al90  1  0.57310823  0.17867299  0.65297840  1
  Al0+  Al91  1  0.82194878  0.06898719  0.68005124  1
  Al0+  Al92  1  0.07083807  0.67592206  0.65162793  1
  Al0+  Al93  1  0.17734581  0.42972857  0.01614250  1
  Al0+  Al94  1  0.82291230  0.57364016  0.68318040  1
  Al0+  Al95  1  0.57143273  0.67897313  0.98393441  1
  Si0+  Si96  1  0.57419157  0.17710207  0.31545259  1
  Si0+  Si97  1  0.92627229  0.32070413  0.98542666  1
  Si0+  Si98  1  0.17786904  0.92819565  0.01817858  1
  Si0+  Si99  1  0.17832772  0.42598056  0.68100261  1
  Si0+  Si100  1  0.17906295  0.92781858  0.68303602  1
  Si0+  Si101  1  0.67879661  0.42996946  0.01656555  1
  Si0+  Si102  1  0.67415598  0.43001247  0.34918018  1
  Si0+  Si103  1  0.67662707  0.92855084  0.35183645  1
  Si0+  Si104  1  0.06880123  0.17850820  0.98550372  1
  Si0+  Si105  1  0.92984101  0.82292107  0.98363456  1
  Si0+  Si106  1  0.92669577  0.32124013  0.31791771  1
  Si0+  Si107  1  0.67596329  0.92773737  0.68435549  1
  Si0+  Si108  1  0.17968979  0.42821337  0.34924553  1
  Si0+  Si109  1  0.42634207  0.82508713  0.31546872  1
  Si0+  Si110  1  0.57398880  0.17762828  0.98636328  1
  Si0+  Si111  1  0.67895219  0.92590578  0.01863199  1
  Si0+  Si112  1  0.42893891  0.82466902  0.98496549  1
  Si0+  Si113  1  0.32048787  0.57155985  0.34676402  1
  Si0+  Si114  1  0.31977015  0.07304219  0.34852819  1
  Si0+  Si115  1  0.92840891  0.82101287  0.31548401  1
  Si0+  Si116  1  0.18128503  0.92785009  0.34958839  1
  Si0+  Si117  1  0.57175810  0.67742479  0.65076468  1
  Si0+  Si118  1  0.82002704  0.57132360  0.01321411  1
  Si0+  Si119  1  0.92608776  0.32138040  0.65027226  1
  O2-  O120  1  0.24824511  -0.00404608  0.06200203  1
  O2-  O121  1  0.25325274  -0.00164046  0.39128722  1
  O2-  O122  1  0.24809574  -0.00363157  0.72695670  1
  O2-  O123  1  0.24797851  0.50295783  0.06734786  1
  O2-  O124  1  0.24859149  0.50188895  0.38997964  1
  O2-  O125  1  0.24306070  0.49863089  0.72383066  1
  O2-  O126  1  0.74708188  -0.00369721  0.06143505  1
  O2-  O127  1  0.74315532  -0.00073470  0.39564317  1
  O2-  O128  1  0.74641872  -0.00445732  0.72795086  1
  O2-  O129  1  0.74730555  0.50369449  0.05858700  1
  O2-  O130  1  0.74576475  0.49671857  0.39141254  1
  O2-  O131  1  0.74924964  0.50340993  0.73359531  1
  O2-  O132  1  -0.00981161  0.24889922  0.27096429  1
  O2-  O133  1  -0.00672961  0.25096098  0.60653395  1
  O2-  O134  1  -0.00393795  0.24782051  0.94389795  1
  O2-  O135  1  -0.00852754  0.74710231  0.27092220  1
  O2-  O136  1  -0.00695856  0.74204780  0.60147541  1
  O2-  O137  1  -0.00315046  0.75256838  0.94050414  1
  O2-  O138  1  0.50535608  0.24521318  0.27074745  1
  O2-  O139  1  0.50077574  0.25022473  0.60251796  1
  O2-  O140  1  0.50085806  0.23975039  0.94050364  1
  O2-  O141  1  0.49580266  0.75687183  0.27233895  1
  O2-  O142  1  0.50271682  0.74594961  0.60681269  1
  O2-  O143  1  0.49316602  0.75185630  0.94091233  1
  O2-  O144  1  0.06725167  0.17848922  0.09083110  1
  O2-  O145  1  0.07107946  0.17875817  0.43025629  1
  O2-  O146  1  0.07067948  0.18123477  0.76900187  1
  O2-  O147  1  0.06807746  0.67813169  0.09918391  1
  O2-  O148  1  0.07301198  0.67842900  0.43042755  1
  O2-  O149  1  0.07315404  0.67956344  0.76518627  1
  O2-  O150  1  0.57536280  0.18222651  0.09229568  1
  O2-  O151  1  0.57346152  0.17534386  0.42047117  1
  O2-  O152  1  0.57207017  0.17869088  0.76702709  1
  O2-  O153  1  0.57433479  0.68114217  0.09756042  1
  O2-  O154  1  0.56668492  0.68230433  0.43473381  1
  O2-  O155  1  0.57020479  0.67882645  0.75649197  1
  O2-  O156  1  0.17899965  0.42784060  0.24437260  1
  O2-  O157  1  0.17996399  0.42396945  0.57494446  1
  O2-  O158  1  0.17703056  0.42792609  0.90277069  1
  O2-  O159  1  0.18284727  0.92736447  0.24425998  1
  O2-  O160  1  0.18063319  0.92879604  0.57693491  1
  O2-  O161  1  0.17401384  0.93073313  0.91308914  1
  O2-  O162  1  0.67465127  0.43133411  0.24292434  1
  O2-  O163  1  0.67881857  0.43284505  0.56876815  1
  O2-  O164  1  0.68149685  0.42702081  0.91211965  1
  O2-  O165  1  0.67780605  0.92785836  0.24595414  1
  O2-  O166  1  0.67510861  0.92812391  0.57867970  1
  O2-  O167  1  0.67627836  0.92515031  0.91368501  1
  O2-  O168  1  0.43023199  0.31775822  0.09726330  1
  O2-  O169  1  0.42959554  0.32106553  0.42958137  1
  O2-  O170  1  0.42674280  0.32001268  0.76522546  1
  O2-  O171  1  0.43188696  0.82620461  0.09089291  1
  O2-  O172  1  0.42513596  0.82507414  0.42089674  1
  O2-  O173  1  0.43149708  0.82226696  0.76764648  1
  O2-  O174  1  0.92530338  0.32148456  0.09062367  1
  O2-  O175  1  0.93028328  0.32238222  0.42303197  1
  O2-  O176  1  0.92749039  0.32045018  0.75642814  1
  O2-  O177  1  0.93019486  0.82317616  0.08959627  1
  O2-  O178  1  0.93097237  0.82243368  0.42048044  1
  O2-  O179  1  0.93400775  0.82353191  0.76512364  1
  O2-  O180  1  0.31751933  0.07159693  0.24304435  1
  O2-  O181  1  0.31784889  0.07065863  0.56378788  1
  O2-  O182  1  0.32120762  0.07108712  0.90097095  1
  O2-  O183  1  0.32076517  0.57060223  0.24193192  1
  O2-  O184  1  0.31924741  0.57142241  0.56371050  1
  O2-  O185  1  0.32130005  0.57128235  0.90282670  1
  O2-  O186  1  0.82060339  0.06705865  0.23552860  1
  O2-  O187  1  0.82252318  0.06695677  0.56703509  1
  O2-  O188  1  0.82293418  0.07082067  0.90195537  1
  O2-  O189  1  0.82057644  0.56850789  0.23174235  1
  O2-  O190  1  0.82123687  0.57085149  0.56912670  1
  O2-  O191  1  0.81963145  0.56877646  0.90873875  1
  O2-  O192  1  0.04179696  0.08027000  0.26279502  1
  O2-  O193  1  0.04234418  0.08242810  0.60088687  1
  O2-  O194  1  0.04270939  0.08556852  0.94010876  1
  O2-  O195  1  0.04210054  0.57835661  0.26551155  1
  O2-  O196  1  0.04851169  0.57523866  0.60030281  1
  O2-  O197  1  0.04040334  0.58110049  0.93261138  1
  O2-  O198  1  0.54996450  0.08293686  0.26862684  1
  O2-  O199  1  0.54726626  0.08105373  0.59781798  1
  O2-  O200  1  0.55655715  0.07999892  0.94662389  1
  O2-  O201  1  0.53910682  0.58712861  0.26436255  1
  O2-  O202  1  0.54595402  0.58432893  0.60525075  1
  O2-  O203  1  0.54339279  0.58233369  0.93023997  1
  O2-  O204  1  0.16307548  0.21282105  0.26154637  1
  O2-  O205  1  0.16366495  0.21215205  0.59723275  1
  O2-  O206  1  0.16033792  0.20810963  0.93972495  1
  O2-  O207  1  0.16539369  0.71229525  0.26297543  1
  O2-  O208  1  0.16605081  0.71103213  0.59607137  1
  O2-  O209  1  0.16974070  0.70915737  0.93521628  1
  O2-  O210  1  0.66877911  0.20292392  0.27063661  1
  O2-  O211  1  0.67139388  0.20908943  0.60063051  1
  O2-  O212  1  0.66680807  0.20812765  0.94126812  1
  O2-  O213  1  0.66642997  0.71309924  0.26681072  1
  O2-  O214  1  0.66559126  0.70366182  0.60617286  1
  O2-  O215  1  0.66700134  0.71194498  0.92885522  1
  O2-  O216  1  0.07723876  0.45543330  0.06927668  1
  O2-  O217  1  0.08738868  0.45211055  0.39709336  1
  O2-  O218  1  0.08296420  0.44449863  0.72607620  1
  O2-  O219  1  0.08631085  0.95577503  0.06837903  1
  O2-  O220  1  0.08971831  0.95669810  0.39575979  1
  O2-  O221  1  0.08616052  0.95369974  0.72916403  1
  O2-  O222  1  0.58635852  0.45714682  0.06213693  1
  O2-  O223  1  0.58157267  0.46000410  0.39427690  1
  O2-  O224  1  0.58073509  0.45762699  0.73744856  1
  O2-  O225  1  0.58699918  0.94897752  0.06979954  1
  O2-  O226  1  0.58101210  0.95153862  0.39572365  1
  O2-  O227  1  0.58344074  0.95487989  0.73159995  1
  O2-  O228  1  0.20615875  0.33204195  0.07124934  1
  O2-  O229  1  0.21094520  0.33639226  0.39496719  1
  O2-  O230  1  0.20750580  0.33439047  0.72904936  1
  O2-  O231  1  0.20354961  0.83517825  0.06582359  1
  O2-  O232  1  0.20867902  0.83589964  0.39754946  1
  O2-  O233  1  0.20517774  0.83465440  0.72859570  1
  O2-  O234  1  0.70889108  0.34041579  0.06799840  1
  O2-  O235  1  0.69557391  0.33536509  0.39444560  1
  O2-  O236  1  0.70855040  0.33323977  0.73876253  1
  O2-  O237  1  0.70924084  0.83320944  0.06567625  1
  O2-  O238  1  0.70305052  0.83605031  0.39927662  1
  O2-  O239  1  0.69887428  0.83389104  0.73115889  1
  O2-  O240  1  0.46056410  0.41596824  0.26057123  1
  O2-  O241  1  0.45886605  0.42049300  0.59880605  1
  O2-  O242  1  0.46080671  0.41356541  0.93098160  1
  O2-  O243  1  0.45134685  0.91957503  0.26988140  1
  O2-  O244  1  0.46036514  0.91579478  0.59655990  1
  O2-  O245  1  0.46064512  0.91745492  0.93962266  1
  O2-  O246  1  0.95723386  0.41231617  0.26881924  1
  O2-  O247  1  0.95284000  0.41395618  0.60305743  1
  O2-  O248  1  0.95485694  0.41073335  0.93548960  1
  O2-  O249  1  0.96196994  0.91136078  0.26682802  1
  O2-  O250  1  0.96281664  0.91491598  0.59461570  1
  O2-  O251  1  0.95909794  0.91628845  0.93859518  1
  O2-  O252  1  0.33468822  0.28779558  0.26161160  1
  O2-  O253  1  0.33157383  0.29261247  0.59636990  1
  O2-  O254  1  0.32930910  0.28864025  0.93365276  1
  O2-  O255  1  0.33343250  0.79987141  0.26821423  1
  O2-  O256  1  0.33351587  0.79234312  0.59783656  1
  O2-  O257  1  0.33313114  0.80722028  0.94131386  1
  O2-  O258  1  0.83015298  0.30183815  0.27422816  1
  O2-  O259  1  0.83204648  0.29889751  0.60548864  1
  O2-  O260  1  0.83382265  0.29324496  0.93931365  1
  O2-  O261  1  0.83234457  0.80321948  0.27141579  1
  O2-  O262  1  0.82600623  0.80223061  0.60061673  1
  O2-  O263  1  0.83557730  0.80189286  0.93788796  1
  O2-  O264  1  0.41855643  0.04299851  0.07067203  1
  O2-  O265  1  0.41456750  0.05090213  0.39220131  1
  O2-  O266  1  0.41809103  0.04064685  0.73029828  1
  O2-  O267  1  0.42116522  0.53933289  0.06731637  1
  O2-  O268  1  0.41232305  0.54205730  0.39292968  1
  O2-  O269  1  0.41519991  0.54304569  0.73251369  1
  O2-  O270  1  0.91743287  0.03851887  0.07038247  1
  O2-  O271  1  0.91905426  0.03611804  0.39904823  1
  O2-  O272  1  0.91865917  0.03574378  0.73364566  1
  O2-  O273  1  0.91073646  0.53943337  0.06054139  1
  O2-  O274  1  0.91749886  0.53784349  0.39969202  1
  O2-  O275  1  0.92107206  0.54138830  0.73522095  1
  O2-  O276  1  0.28610527  0.16514330  0.07013418  1
  O2-  O277  1  0.28728502  0.16428380  0.39321598  1
  O2-  O278  1  0.28707766  0.16690632  0.73118007  1
  O2-  O279  1  0.30020230  0.67319146  0.06795591  1
  O2-  O280  1  0.29435442  0.66542451  0.39127371  1
  O2-  O281  1  0.29011816  0.66897437  0.73186346  1
  O2-  O282  1  0.79157861  0.16716986  0.07135398  1
  O2-  O283  1  0.79611960  0.16905691  0.40122132  1
  O2-  O284  1  0.79471590  0.16626528  0.73415892  1
  O2-  O285  1  0.79576840  0.66534581  0.05820727  1
  O2-  O286  1  0.79316123  0.66895853  0.39753779  1
  O2-  O287  1  0.79819891  0.67338221  0.73482481  1
