# generated using pymatgen
data_Ca2Al2SiO7
_symmetry_space_group_name_H-M   'P 1'
_cell_length_a   15.45882848
_cell_length_b   15.45968967
_cell_length_c   15.28473614
_cell_angle_alpha   90.00466859
_cell_angle_beta   90.00752079
_cell_angle_gamma   90.00139431
_symmetry_Int_Tables_number   1
_chemical_formula_structural   Ca2Al2SiO7
_chemical_formula_sum   'Ca48 Al48 Si24 O168'
_cell_volume   3652.87903723
_cell_formula_units_Z   24
loop_
 _symmetry_equiv_pos_site_id
 _symmetry_equiv_pos_as_xyz
  1  'x, y, z'
loop_
 _atom_type_symbol
 _atom_type_oxidation_number
  Ca2+  2.0
  Al0+  0.0
  Si0+  0.0
  O2-  -2.0
loop_
 _atom_site_type_symbol
 _atom_site_label
 _atom_site_symmetry_multiplicity
 _atom_site_fract_x
 _atom_site_fract_y
 _atom_site_fract_z
 _atom_site_occupancy
  Ca2+  Ca0  1  0.17398293  0.07432306  0.17118560  1
  Ca2+  Ca1  1  0.16490950  0.07357857  0.50740741  1
  Ca2+  Ca2  1  0.17528892  0.07965453  0.83627679  1
  Ca2+  Ca3  1  0.16334184  0.58022749  0.17051806  1
  Ca2+  Ca4  1  0.16512020  0.58539135  0.50047409  1
  Ca2+  Ca5  1  0.16911344  0.57310337  0.84070475  1
  Ca2+  Ca6  1  0.66464723  0.08812638  0.17155149  1
  Ca2+  Ca7  1  0.67070316  0.07789580  0.50575040  1
  Ca2+  Ca8  1  0.66969839  0.08528559  0.83439291  1
  Ca2+  Ca9  1  0.66489046  0.57334700  0.17712990  1
  Ca2+  Ca10  1  0.67667777  0.58943477  0.50129527  1
  Ca2+  Ca11  1  0.67124919  0.57721504  0.83833481  1
  Ca2+  Ca12  1  0.08586164  0.32888954  0.16302513  1
  Ca2+  Ca13  1  0.08164510  0.31723192  0.49496650  1
  Ca2+  Ca14  1  0.08877412  0.32592327  0.82536546  1
  Ca2+  Ca15  1  0.07701587  0.83590482  0.16444403  1
  Ca2+  Ca16  1  0.07865655  0.83350101  0.48815804  1
  Ca2+  Ca17  1  0.08125579  0.84413296  0.83295588  1
  Ca2+  Ca18  1  0.58610531  0.32714953  0.15849850  1
  Ca2+  Ca19  1  0.58111006  0.32807167  0.49332676  1
  Ca2+  Ca20  1  0.57542847  0.33084251  0.83322206  1
  Ca2+  Ca21  1  0.57118174  0.83019480  0.16342207  1
  Ca2+  Ca22  1  0.57982629  0.83224030  0.49024271  1
  Ca2+  Ca23  1  0.57702810  0.84096824  0.83135766  1
  Ca2+  Ca24  1  0.33160227  0.41197837  0.16470277  1
  Ca2+  Ca25  1  0.33621096  0.41675431  0.50391266  1
  Ca2+  Ca26  1  0.33317328  0.41147496  0.84139471  1
  Ca2+  Ca27  1  0.32773321  0.91213461  0.17121711  1
  Ca2+  Ca28  1  0.32359825  0.92007139  0.50684923  1
  Ca2+  Ca29  1  0.32565618  0.92737984  0.84349033  1
  Ca2+  Ca30  1  0.82026413  0.42128961  0.17674963  1
  Ca2+  Ca31  1  0.82888121  0.42828228  0.50105506  1
  Ca2+  Ca32  1  0.83055063  0.42380294  0.84120474  1
  Ca2+  Ca33  1  0.83699081  0.91252123  0.16959997  1
  Ca2+  Ca34  1  0.82828592  0.91782114  0.50695894  1
  Ca2+  Ca35  1  0.82965052  0.92057135  0.83357978  1
  Ca2+  Ca36  1  0.42943608  0.16769886  0.15646475  1
  Ca2+  Ca37  1  0.41843453  0.16833470  0.49782450  1
  Ca2+  Ca38  1  0.40891355  0.17336028  0.83084934  1
  Ca2+  Ca39  1  0.41652116  0.67706086  0.16714652  1
  Ca2+  Ca40  1  0.42484673  0.67646642  0.48869555  1
  Ca2+  Ca41  1  0.41544973  0.67408176  0.83307009  1
  Ca2+  Ca42  1  0.92610486  0.16377654  0.16506497  1
  Ca2+  Ca43  1  0.92712497  0.15545215  0.49740497  1
  Ca2+  Ca44  1  0.92327547  0.16572688  0.82508194  1
  Ca2+  Ca45  1  0.91489520  0.67528726  0.16741102  1
  Ca2+  Ca46  1  0.91844023  0.67009974  0.48969472  1
  Ca2+  Ca47  1  0.91507170  0.67109849  0.83073144  1
  Al0+  Al48  1  0.00011619  -0.00048699  -0.00179941  1
  Al0+  Al49  1  0.00167890  -0.00010307  0.32807921  1
  Al0+  Al50  1  -0.00216800  -0.00093995  0.66895871  1
  Al0+  Al51  1  0.00078988  0.50142104  0.00500567  1
  Al0+  Al52  1  -0.00103841  0.49886780  0.33472355  1
  Al0+  Al53  1  -0.00085522  0.50055569  0.67008849  1
  Al0+  Al54  1  0.50340630  -0.00056483  -0.00494341  1
  Al0+  Al55  1  0.49900258  0.00347638  0.32691596  1
  Al0+  Al56  1  0.49825318  0.00198342  0.67193299  1
  Al0+  Al57  1  0.50105824  0.49937905  0.00111440  1
  Al0+  Al58  1  0.49746384  0.49889506  0.33527341  1
  Al0+  Al59  1  0.50005782  0.50117572  0.66203110  1
  Al0+  Al60  1  0.25180938  0.24876058  0.00629463  1
  Al0+  Al61  1  0.25022885  0.24890942  0.33010412  1
  Al0+  Al62  1  0.24894336  0.24968041  0.65794341  1
  Al0+  Al63  1  0.24929200  0.74841806  -0.00188882  1
  Al0+  Al64  1  0.24748601  0.74869921  0.33137430  1
  Al0+  Al65  1  0.24901959  0.74819213  0.67044975  1
  Al0+  Al66  1  0.75222882  0.25055502  -0.00065878  1
  Al0+  Al67  1  0.75024507  0.25049643  0.33689130  1
  Al0+  Al68  1  0.74888510  0.25209020  0.66863007  1
  Al0+  Al69  1  0.75250708  0.75185249  -0.00498536  1
  Al0+  Al70  1  0.74910925  0.74941511  0.32894079  1
  Al0+  Al71  1  0.74993478  0.74870251  0.67611472  1
  Al0+  Al72  1  0.07099409  0.67605586  0.31861004  1
  Al0+  Al73  1  0.42786883  0.82269638  0.32060688  1
  Al0+  Al74  1  0.67766698  0.92838129  0.68108478  1
  Al0+  Al75  1  0.92822521  0.82158681  0.32003601  1
  Al0+  Al76  1  0.17851032  0.92874334  0.01748421  1
  Al0+  Al77  1  0.82088086  0.07258612  0.68081384  1
  Al0+  Al78  1  0.32413273  0.07058432  0.01719921  1
  Al0+  Al79  1  0.06802156  0.17853440  0.65319110  1
  Al0+  Al80  1  0.82155127  0.56962155  0.68300134  1
  Al0+  Al81  1  0.17969155  0.92903422  0.34713696  1
  Al0+  Al82  1  0.17818594  0.92632531  0.68174502  1
  Al0+  Al83  1  0.42965935  0.31977949  0.98571184  1
  Al0+  Al84  1  0.81975432  0.57237492  0.34798034  1
  Al0+  Al85  1  0.42788578  0.82012028  0.98422678  1
  Al0+  Al86  1  0.57190618  0.18142164  0.32143577  1
  Al0+  Al87  1  0.57158752  0.67766805  0.31932213  1
  Al0+  Al88  1  0.93033275  0.82123284  0.98168577  1
  Al0+  Al89  1  0.31964511  0.07335066  0.68055310  1
  Al0+  Al90  1  0.07173885  0.17797197  0.31745214  1
  Al0+  Al91  1  0.68061053  0.42976429  0.01323563  1
  Al0+  Al92  1  0.67586678  0.42700964  0.35119261  1
  Al0+  Al93  1  0.57526891  0.17819556  0.98189819  1
  Al0+  Al94  1  0.17907393  0.42794679  0.01345424  1
  Al0+  Al95  1  0.42933667  0.32123647  0.65122421  1
  Si0+  Si96  1  0.57087188  0.68063494  0.65283911  1
  Si0+  Si97  1  0.82220289  0.57428034  0.01875928  1
  Si0+  Si98  1  0.82205647  0.07061270  0.34599217  1
  Si0+  Si99  1  0.92897467  0.81841236  0.65290583  1
  Si0+  Si100  1  0.32308171  0.57120277  0.68088175  1
  Si0+  Si101  1  0.82122740  0.07099540  0.01586579  1
  Si0+  Si102  1  0.93048881  0.32248348  0.98680589  1
  Si0+  Si103  1  0.42764328  0.82172129  0.65337131  1
  Si0+  Si104  1  0.42702236  0.32279835  0.31580057  1
  Si0+  Si105  1  0.67545817  0.42918834  0.68411488  1
  Si0+  Si106  1  0.32311264  0.07244363  0.35046590  1
  Si0+  Si107  1  0.31899267  0.57070860  0.34921031  1
  Si0+  Si108  1  0.17841150  0.42635171  0.35015483  1
  Si0+  Si109  1  0.57228852  0.67820856  0.98246431  1
  Si0+  Si110  1  0.92915829  0.32098645  0.31740230  1
  Si0+  Si111  1  0.92642743  0.32516669  0.65063362  1
  Si0+  Si112  1  0.57344570  0.17765604  0.64920531  1
  Si0+  Si113  1  0.18100236  0.43031887  0.67776006  1
  Si0+  Si114  1  0.07149464  0.67578990  0.98098938  1
  Si0+  Si115  1  0.07123939  0.67637994  0.65310550  1
  Si0+  Si116  1  0.68050686  0.92820015  0.01648681  1
  Si0+  Si117  1  0.32271790  0.57192895  0.01737706  1
  Si0+  Si118  1  0.67719224  0.93049458  0.34352421  1
  Si0+  Si119  1  0.07086286  0.18076365  0.98525699  1
  O2-  O120  1  0.25523394  -0.00443923  0.06758668  1
  O2-  O121  1  0.25464308  0.00322540  0.39432639  1
  O2-  O122  1  0.25112846  -0.00210609  0.73018602  1
  O2-  O123  1  0.25387454  0.50247537  0.06039755  1
  O2-  O124  1  0.24854848  0.49856435  0.39215289  1
  O2-  O125  1  0.25314157  0.49878920  0.72207401  1
  O2-  O126  1  0.74905357  0.00169355  0.05877003  1
  O2-  O127  1  0.75048566  -0.00089944  0.38640710  1
  O2-  O128  1  0.74687650  0.00333546  0.73166441  1
  O2-  O129  1  0.75277226  0.50611143  0.06121911  1
  O2-  O130  1  0.74516287  0.50308572  0.39928172  1
  O2-  O131  1  0.74870206  0.49289726  0.72889938  1
  O2-  O132  1  -0.00202214  0.25376383  0.27095223  1
  O2-  O133  1  -0.01072803  0.25068757  0.60679645  1
  O2-  O134  1  0.00405450  0.25569257  0.94241520  1
  O2-  O135  1  -0.00051865  0.74863743  0.26983302  1
  O2-  O136  1  0.00324245  0.75042367  0.61155828  1
  O2-  O137  1  0.00590391  0.74670312  0.93537316  1
  O2-  O138  1  0.49970321  0.25768540  0.27408514  1
  O2-  O139  1  0.50462240  0.24675571  0.60551371  1
  O2-  O140  1  0.49889917  0.24661013  0.93317663  1
  O2-  O141  1  0.50067602  0.75103475  0.27065280  1
  O2-  O142  1  0.50188655  0.75401104  0.61074624  1
  O2-  O143  1  0.50395332  0.74641237  0.93654853  1
  O2-  O144  1  0.06725264  0.18108296  0.09035956  1
  O2-  O145  1  0.06947552  0.17783028  0.43074385  1
  O2-  O146  1  0.06929224  0.18354256  0.76656547  1
  O2-  O147  1  0.06904779  0.67243514  0.08604240  1
  O2-  O148  1  0.07075052  0.67745890  0.43308553  1
  O2-  O149  1  0.07055542  0.67139904  0.75782568  1
  O2-  O150  1  0.57795591  0.18249789  0.09567981  1
  O2-  O151  1  0.57066864  0.17895628  0.43461793  1
  O2-  O152  1  0.57556758  0.18007245  0.75419251  1
  O2-  O153  1  0.57168432  0.67956221  0.08772258  1
  O2-  O154  1  0.57094923  0.68219932  0.43380136  1
  O2-  O155  1  0.56767856  0.67750624  0.75785287  1
  O2-  O156  1  0.17994592  0.42582247  0.24518098  1
  O2-  O157  1  0.18057894  0.43326612  0.57261137  1
  O2-  O158  1  0.17823402  0.42914727  0.89958045  1
  O2-  O159  1  0.17939971  0.93037972  0.23457296  1
  O2-  O160  1  0.17878542  0.92439403  0.56786372  1
  O2-  O161  1  0.17740994  0.93380847  0.90381333  1
  O2-  O162  1  0.67935722  0.42596570  0.23747992  1
  O2-  O163  1  0.67479590  0.43227977  0.57887252  1
  O2-  O164  1  0.68363970  0.43215509  0.89972574  1
  O2-  O165  1  0.67672098  0.93271772  0.23852096  1
  O2-  O166  1  0.67950111  0.92595511  0.56666431  1
  O2-  O167  1  0.68303067  0.92678991  0.91143497  1
  O2-  O168  1  0.43158591  0.32067167  0.09903947  1
  O2-  O169  1  0.42485065  0.32072938  0.42182208  1
  O2-  O170  1  0.42858301  0.32409678  0.76370225  1
  O2-  O171  1  0.42921467  0.81728956  0.09710169  1
  O2-  O172  1  0.42994814  0.82196389  0.43506215  1
  O2-  O173  1  0.42734839  0.81711102  0.75829604  1
  O2-  O174  1  0.93036429  0.31946242  0.09171610  1
  O2-  O175  1  0.93155284  0.32036969  0.42316623  1
  O2-  O176  1  0.93149861  0.32824093  0.75653539  1
  O2-  O177  1  0.92855942  0.81998983  0.09425988  1
  O2-  O178  1  0.92804574  0.82289934  0.43420242  1
  O2-  O179  1  0.92939070  0.81691551  0.75801599  1
  O2-  O180  1  0.32281651  0.07259547  0.24534750  1
  O2-  O181  1  0.31920878  0.07136112  0.56664639  1
  O2-  O182  1  0.31770346  0.07329381  0.90357457  1
  O2-  O183  1  0.31928683  0.56991453  0.24440984  1
  O2-  O184  1  0.32202728  0.57332772  0.57578112  1
  O2-  O185  1  0.32164287  0.57176719  0.91106942  1
  O2-  O186  1  0.82169842  0.07217552  0.24073227  1
  O2-  O187  1  0.82189138  0.06758960  0.56677697  1
  O2-  O188  1  0.82223282  0.07082096  0.91085272  1
  O2-  O189  1  0.81991808  0.56903369  0.23463472  1
  O2-  O190  1  0.82170056  0.57177199  0.57041387  1
  O2-  O191  1  0.82268218  0.57149985  0.91256246  1
  O2-  O192  1  0.03801908  0.08465527  0.26067497  1
  O2-  O193  1  0.03674769  0.08135450  0.59946407  1
  O2-  O194  1  0.03804835  0.09117140  0.93755349  1
  O2-  O195  1  0.04455574  0.57650024  0.26672159  1
  O2-  O196  1  0.04124482  0.58566401  0.60418471  1
  O2-  O197  1  0.04250232  0.58244659  0.93397605  1
  O2-  O198  1  0.54158716  0.08693787  0.26339986  1
  O2-  O199  1  0.54756081  0.08310411  0.60457956  1
  O2-  O200  1  0.55564490  0.07733243  0.93170171  1
  O2-  O201  1  0.53987860  0.57943799  0.26858946  1
  O2-  O202  1  0.54186188  0.59073631  0.60267556  1
  O2-  O203  1  0.54585943  0.58484419  0.93612436  1
  O2-  O204  1  0.16764298  0.20987242  0.26370047  1
  O2-  O205  1  0.16105678  0.21307864  0.59500251  1
  O2-  O206  1  0.16368461  0.20738487  0.94068582  1
  O2-  O207  1  0.16919396  0.70085730  0.26501453  1
  O2-  O208  1  0.16524082  0.69961747  0.60711901  1
  O2-  O209  1  0.16670486  0.69555062  0.93596275  1
  O2-  O210  1  0.67017853  0.20863302  0.26844439  1
  O2-  O211  1  0.66777357  0.20265402  0.60291610  1
  O2-  O212  1  0.67303015  0.21133966  0.92901346  1
  O2-  O213  1  0.66877077  0.70262565  0.26429618  1
  O2-  O214  1  0.66439621  0.70786554  0.60869518  1
  O2-  O215  1  0.66607545  0.70365434  0.93634801  1
  O2-  O216  1  0.08308730  0.45865875  0.06967281  1
  O2-  O217  1  0.08623044  0.45184708  0.39759215  1
  O2-  O218  1  0.09034565  0.45851199  0.72723457  1
  O2-  O219  1  0.08013216  0.96170141  0.06805823  1
  O2-  O220  1  0.08246700  0.96247994  0.39949581  1
  O2-  O221  1  0.07982469  0.95541455  0.73268167  1
  O2-  O222  1  0.58357604  0.45826400  0.06705952  1
  O2-  O223  1  0.57496363  0.44982881  0.40136760  1
  O2-  O224  1  0.58372601  0.46191113  0.73027365  1
  O2-  O225  1  0.58757724  0.95200837  0.06241558  1
  O2-  O226  1  0.58648537  0.96089764  0.39213912  1
  O2-  O227  1  0.57904949  0.95381763  0.73420563  1
  O2-  O228  1  0.20847633  0.33311137  0.07060081  1
  O2-  O229  1  0.20843586  0.33476523  0.39749739  1
  O2-  O230  1  0.20751816  0.33784969  0.72314606  1
  O2-  O231  1  0.20095849  0.82620135  0.06389583  1
  O2-  O232  1  0.20674480  0.83052510  0.39978869  1
  O2-  O233  1  0.20381088  0.82712170  0.73539849  1
  O2-  O234  1  0.71562467  0.33417882  0.06664374  1
  O2-  O235  1  0.70999709  0.33065476  0.40624530  1
  O2-  O236  1  0.69473089  0.33385443  0.72812073  1
  O2-  O237  1  0.71193152  0.83675825  0.06250014  1
  O2-  O238  1  0.70202493  0.83770093  0.39014343  1
  O2-  O239  1  0.70811746  0.83273081  0.73838287  1
  O2-  O240  1  0.44593761  0.41815590  0.27203386  1
  O2-  O241  1  0.45888901  0.41875617  0.59636121  1
  O2-  O242  1  0.45698181  0.41968490  0.93346911  1
  O2-  O243  1  0.45556489  0.91959452  0.26567108  1
  O2-  O244  1  0.45071034  0.91559474  0.60864721  1
  O2-  O245  1  0.46057724  0.91555469  0.92978499  1
  O2-  O246  1  0.95418988  0.41393942  0.27074330  1
  O2-  O247  1  0.95915388  0.41616242  0.60285437  1
  O2-  O248  1  0.95427391  0.41654627  0.94145392  1
  O2-  O249  1  0.95748199  0.91809956  0.26400022  1
  O2-  O250  1  0.95209574  0.91148266  0.60644124  1
  O2-  O251  1  0.96044572  0.91868491  0.92814835  1
  O2-  O252  1  0.33444770  0.29557976  0.26914588  1
  O2-  O253  1  0.33352184  0.29235474  0.59415358  1
  O2-  O254  1  0.32882785  0.29322043  0.93492020  1
  O2-  O255  1  0.33179373  0.78901920  0.26754900  1
  O2-  O256  1  0.33672812  0.78887031  0.60659177  1
  O2-  O257  1  0.33198581  0.78716189  0.92938183  1
  O2-  O258  1  0.83583270  0.29372012  0.27245425  1
  O2-  O259  1  0.82988139  0.30774625  0.60814848  1
  O2-  O260  1  0.84123043  0.29204477  0.93649847  1
  O2-  O261  1  0.83044340  0.79522182  0.26483542  1
  O2-  O262  1  0.83674412  0.78723065  0.60832650  1
  O2-  O263  1  0.83417735  0.79000653  0.92603600  1
  O2-  O264  1  0.42624681  0.04605675  0.06369944  1
  O2-  O265  1  0.41745048  0.04778484  0.39599859  1
  O2-  O266  1  0.41887642  0.05178535  0.73360267  1
  O2-  O267  1  0.41601253  0.54713027  0.06350641  1
  O2-  O268  1  0.41007817  0.54367735  0.39919011  1
  O2-  O269  1  0.41518943  0.54502004  0.72791074  1
  O2-  O270  1  0.91227450  0.04068859  0.06322201  1
  O2-  O271  1  0.91347259  0.04114103  0.39288242  1
  O2-  O272  1  0.91697026  0.04163245  0.73648526  1
  O2-  O273  1  0.91568871  0.54927113  0.06398041  1
  O2-  O274  1  0.91783188  0.54075741  0.40190253  1
  O2-  O275  1  0.91802750  0.53930183  0.73885136  1
  O2-  O276  1  0.29418543  0.16734374  0.07211754  1
  O2-  O277  1  0.29662916  0.16681513  0.39508952  1
  O2-  O278  1  0.28601601  0.17170775  0.73103152  1
  O2-  O279  1  0.29505367  0.66440275  0.06369968  1
  O2-  O280  1  0.29024028  0.66137507  0.39866908  1
  O2-  O281  1  0.29351429  0.66067157  0.73178269  1
  O2-  O282  1  0.79665262  0.16353315  0.06320681  1
  O2-  O283  1  0.79615292  0.16142641  0.39574909  1
  O2-  O284  1  0.79860624  0.17353292  0.73262759  1
  O2-  O285  1  0.79696998  0.66916202  0.06078526  1
  O2-  O286  1  0.79255705  0.67204995  0.40089997  1
  O2-  O287  1  0.78861108  0.66338075  0.74049936  1
