# generated using pymatgen
data_Ca2Al2SiO7
_symmetry_space_group_name_H-M   'P 1'
_cell_length_a   15.45676252
_cell_length_b   15.45679909
_cell_length_c   15.28343204
_cell_angle_alpha   90.00029119
_cell_angle_beta   90.00378416
_cell_angle_gamma   89.98108637
_symmetry_Int_Tables_number   1
_chemical_formula_structural   Ca2Al2SiO7
_chemical_formula_sum   'Ca48 Al48 Si24 O168'
_cell_volume   3651.39622151
_cell_formula_units_Z   24
loop_
 _symmetry_equiv_pos_site_id
 _symmetry_equiv_pos_as_xyz
  1  'x, y, z'
loop_
 _atom_type_symbol
 _atom_type_oxidation_number
  Ca2+  2.0
  Al0+  0.0
  Si0+  0.0
  O2-  -2.0
loop_
 _atom_site_type_symbol
 _atom_site_label
 _atom_site_symmetry_multiplicity
 _atom_site_fract_x
 _atom_site_fract_y
 _atom_site_fract_z
 _atom_site_occupancy
  Ca2+  Ca0  1  0.16857248  0.08623610  0.16738700  1
  Ca2+  Ca1  1  0.16592664  0.07856374  0.50570463  1
  Ca2+  Ca2  1  0.16979864  0.07320111  0.84357229  1
  Ca2+  Ca3  1  0.17566797  0.57205649  0.17830075  1
  Ca2+  Ca4  1  0.17201959  0.58334953  0.50187059  1
  Ca2+  Ca5  1  0.16708288  0.58472217  0.83719638  1
  Ca2+  Ca6  1  0.66766798  0.08485835  0.17839939  1
  Ca2+  Ca7  1  0.66579428  0.08088436  0.49731465  1
  Ca2+  Ca8  1  0.66585861  0.08300365  0.83986841  1
  Ca2+  Ca9  1  0.66373065  0.58151412  0.16561634  1
  Ca2+  Ca10  1  0.66177580  0.58761219  0.50320596  1
  Ca2+  Ca11  1  0.66903249  0.58033078  0.84475261  1
  Ca2+  Ca12  1  0.08345277  0.32315037  0.16023319  1
  Ca2+  Ca13  1  0.07852860  0.33034453  0.49246652  1
  Ca2+  Ca14  1  0.07292802  0.33048520  0.83118719  1
  Ca2+  Ca15  1  0.08260962  0.83457167  0.16177402  1
  Ca2+  Ca16  1  0.08400400  0.83372487  0.50266796  1
  Ca2+  Ca17  1  0.08275552  0.83215457  0.82484876  1
  Ca2+  Ca18  1  0.58162294  0.32442808  0.15655149  1
  Ca2+  Ca19  1  0.57638624  0.32885139  0.49636405  1
  Ca2+  Ca20  1  0.57518511  0.33350516  0.83503222  1
  Ca2+  Ca21  1  0.58189233  0.82775705  0.16618222  1
  Ca2+  Ca22  1  0.57547758  0.82736036  0.49041435  1
  Ca2+  Ca23  1  0.58019088  0.82065654  0.82567137  1
  Ca2+  Ca24  1  0.33327210  0.41938029  0.17430324  1
  Ca2+  Ca25  1  0.33119208  0.41890292  0.50199224  1
  Ca2+  Ca26  1  0.33796939  0.41348549  0.83800670  1
  Ca2+  Ca27  1  0.33234811  0.91982435  0.16810344  1
  Ca2+  Ca28  1  0.33365594  0.91321995  0.50726076  1
  Ca2+  Ca29  1  0.32425022  0.91624633  0.83941545  1
  Ca2+  Ca30  1  0.83082436  0.41661023  0.16415046  1
  Ca2+  Ca31  1  0.83125204  0.41560862  0.50626065  1
  Ca2+  Ca32  1  0.83064466  0.42032870  0.84427355  1
  Ca2+  Ca33  1  0.82292711  0.92567663  0.17714556  1
  Ca2+  Ca34  1  0.83091597  0.92027878  0.50123892  1
  Ca2+  Ca35  1  0.83463595  0.91513800  0.83708840  1
  Ca2+  Ca36  1  0.42574373  0.16838667  0.15696760  1
  Ca2+  Ca37  1  0.41866883  0.17154359  0.49415249  1
  Ca2+  Ca38  1  0.41401146  0.17309451  0.83682650  1
  Ca2+  Ca39  1  0.42381814  0.66676092  0.16662696  1
  Ca2+  Ca40  1  0.42230940  0.67589463  0.49293749  1
  Ca2+  Ca41  1  0.42894323  0.66881893  0.82566277  1
  Ca2+  Ca42  1  0.92596550  0.16659642  0.16082321  1
  Ca2+  Ca43  1  0.92046698  0.16873775  0.49297481  1
  Ca2+  Ca44  1  0.91809300  0.17782929  0.83287342  1
  Ca2+  Ca45  1  0.91419032  0.66677256  0.16105577  1
  Ca2+  Ca46  1  0.92195037  0.67234005  0.50248686  1
  Ca2+  Ca47  1  0.92171944  0.67024509  0.82540630  1
  Al0+  Al48  1  -0.00074496  -0.00158605  0.00049994  1
  Al0+  Al49  1  -0.00059502  0.00154424  0.33312401  1
  Al0+  Al50  1  -0.00014635  0.00065424  0.66944556  1
  Al0+  Al51  1  0.00052125  0.50156149  0.00215728  1
  Al0+  Al52  1  -0.00125139  0.50042359  0.33752459  1
  Al0+  Al53  1  -0.00009398  0.49926287  0.65948584  1
  Al0+  Al54  1  0.49775054  -0.00084436  -0.00145371  1
  Al0+  Al55  1  0.49881618  -0.00063306  0.33091055  1
  Al0+  Al56  1  0.50180444  0.00064813  0.66779023  1
  Al0+  Al57  1  0.50170679  0.50009346  -0.00231956  1
  Al0+  Al58  1  0.50008360  0.50252703  0.33553827  1
  Al0+  Al59  1  0.49991244  0.49697287  0.65995406  1
  Al0+  Al60  1  0.25022235  0.24753196  -0.00434240  1
  Al0+  Al61  1  0.24699062  0.24917718  0.33494697  1
  Al0+  Al62  1  0.25027202  0.25078266  0.66464732  1
  Al0+  Al63  1  0.24879338  0.74987428  0.00571340  1
  Al0+  Al64  1  0.24996954  0.74974890  0.33259803  1
  Al0+  Al65  1  0.25129011  0.74846629  0.66611371  1
  Al0+  Al66  1  0.74978101  0.25048215  -0.00308724  1
  Al0+  Al67  1  0.75080476  0.25224749  0.33557504  1
  Al0+  Al68  1  0.75033322  0.25045819  0.66464097  1
  Al0+  Al69  1  0.75071683  0.75020454  0.00047567  1
  Al0+  Al70  1  0.74933855  0.75005534  0.33429927  1
  Al0+  Al71  1  0.75277162  0.75020962  0.66078688  1
  Al0+  Al72  1  0.18062869  0.92887165  0.68009726  1
  Al0+  Al73  1  0.07151288  0.17628060  0.98304082  1
  Al0+  Al74  1  0.42878544  0.32177830  0.98733655  1
  Al0+  Al75  1  0.67848417  0.42863498  0.01500956  1
  Al0+  Al76  1  0.42816211  0.31909797  0.65079445  1
  Al0+  Al77  1  0.42965278  0.82210102  0.65392520  1
  Al0+  Al78  1  0.57210290  0.67807915  0.65148933  1
  Al0+  Al79  1  0.17841468  0.42691323  0.34953805  1
  Al0+  Al80  1  0.57058603  0.18101593  0.32162912  1
  Al0+  Al81  1  0.32082754  0.07153693  0.01625361  1
  Al0+  Al82  1  0.57264809  0.67835684  0.31517525  1
  Al0+  Al83  1  0.92835485  0.32051784  0.65189696  1
  Al0+  Al84  1  0.67721185  0.92905565  0.34912405  1
  Al0+  Al85  1  0.57095376  0.68105469  0.98601187  1
  Al0+  Al86  1  0.57246400  0.17572834  0.98501786  1
  Al0+  Al87  1  0.92966259  0.82414202  0.65090349  1
  Al0+  Al88  1  0.06997881  0.17871022  0.31962833  1
  Al0+  Al89  1  0.07270830  0.67807668  0.65159985  1
  Al0+  Al90  1  0.17738697  0.92817001  0.01766043  1
  Al0+  Al91  1  0.93005424  0.32276450  0.98635983  1
  Al0+  Al92  1  0.82161932  0.07275483  0.34887389  1
  Al0+  Al93  1  0.82226071  0.57238918  0.01445549  1
  Al0+  Al94  1  0.42621412  0.82199574  0.31544346  1
  Al0+  Al95  1  0.32194375  0.57141172  0.35037433  1
  Si0+  Si96  1  0.57349668  0.17756425  0.64931905  1
  Si0+  Si97  1  0.82062334  0.07222530  0.68377816  1
  Si0+  Si98  1  0.67856960  0.42852100  0.68156239  1
  Si0+  Si99  1  0.92745302  0.32455374  0.31582153  1
  Si0+  Si100  1  0.32195584  0.57053484  0.01336513  1
  Si0+  Si101  1  0.68016114  0.92837697  0.68237323  1
  Si0+  Si102  1  0.81963578  0.07120793  0.01343309  1
  Si0+  Si103  1  0.32060801  0.07054383  0.34847330  1
  Si0+  Si104  1  0.42540941  0.82079556  0.98284820  1
  Si0+  Si105  1  0.67961350  0.42972062  0.34968416  1
  Si0+  Si106  1  0.92916432  0.82003509  0.98732665  1
  Si0+  Si107  1  0.32147895  0.56837597  0.68266508  1
  Si0+  Si108  1  0.82157196  0.57032432  0.68005735  1
  Si0+  Si109  1  0.42733109  0.32151700  0.31834771  1
  Si0+  Si110  1  0.07084390  0.17902721  0.65084040  1
  Si0+  Si111  1  0.17782599  0.42845780  0.68301463  1
  Si0+  Si112  1  0.17787727  0.92891205  0.34897699  1
  Si0+  Si113  1  0.32399308  0.07447095  0.68352881  1
  Si0+  Si114  1  0.92995241  0.82075985  0.31787305  1
  Si0+  Si115  1  0.17845087  0.42900130  0.01221790  1
  Si0+  Si116  1  0.82171039  0.57263889  0.35143652  1
  Si0+  Si117  1  0.06998452  0.67840915  0.31754079  1
  Si0+  Si118  1  0.67864586  0.92821515  0.01278381  1
  Si0+  Si119  1  0.07214888  0.67935222  0.98823996  1
  O2-  O120  1  0.24804794  0.00085911  0.06793951  1
  O2-  O121  1  0.25062722  -0.00177139  0.39093154  1
  O2-  O122  1  0.25711583  0.00262190  0.72554651  1
  O2-  O123  1  0.25310771  0.49642072  0.05404089  1
  O2-  O124  1  0.25064240  0.49824416  0.40060465  1
  O2-  O125  1  0.24917960  0.49874683  0.72663801  1
  O2-  O126  1  0.74335553  0.00533580  0.05467157  1
  O2-  O127  1  0.74847212  0.00219167  0.39975310  1
  O2-  O128  1  0.75069855  -0.00027420  0.72613701  1
  O2-  O129  1  0.75117261  0.50023742  0.06561141  1
  O2-  O130  1  0.74953009  0.50216000  0.39245220  1
  O2-  O131  1  0.74795453  0.50217546  0.72234221  1
  O2-  O132  1  -0.00356844  0.25530584  0.27388526  1
  O2-  O133  1  0.00311640  0.24710342  0.60461200  1
  O2-  O134  1  0.00085650  0.25043794  0.93461122  1
  O2-  O135  1  -0.00035409  0.74924394  0.27402082  1
  O2-  O136  1  0.00363170  0.75348578  0.60177307  1
  O2-  O137  1  0.00126422  0.74998392  0.94593309  1
  O2-  O138  1  0.49633268  0.25460314  0.27336699  1
  O2-  O139  1  0.50072380  0.24205959  0.60563913  1
  O2-  O140  1  0.50034018  0.24874220  0.93702432  1
  O2-  O141  1  0.49977313  0.75048524  0.26683780  1
  O2-  O142  1  0.50262026  0.75246592  0.60251890  1
  O2-  O143  1  0.49554258  0.75402544  0.93838016  1
  O2-  O144  1  0.06912411  0.17753471  0.09679536  1
  O2-  O145  1  0.06861865  0.17772231  0.43303709  1
  O2-  O146  1  0.06917618  0.18057633  0.75610314  1
  O2-  O147  1  0.07192758  0.67946790  0.09344240  1
  O2-  O148  1  0.06879464  0.67951988  0.42236145  1
  O2-  O149  1  0.06972558  0.67594980  0.76585409  1
  O2-  O150  1  0.57298101  0.17674545  0.09867131  1
  O2-  O151  1  0.56801185  0.18354275  0.43510278  1
  O2-  O152  1  0.57653737  0.17874641  0.75454510  1
  O2-  O153  1  0.57056594  0.68265660  0.09844547  1
  O2-  O154  1  0.57230307  0.67978332  0.42861902  1
  O2-  O155  1  0.57195816  0.67770782  0.76550618  1
  O2-  O156  1  0.17924604  0.42843110  0.23526407  1
  O2-  O157  1  0.17875072  0.42804344  0.57832611  1
  O2-  O158  1  0.17572129  0.43380779  0.90675588  1
  O2-  O159  1  0.17580243  0.92964925  0.24424299  1
  O2-  O160  1  0.17990218  0.93266295  0.56655006  1
  O2-  O161  1  0.17836928  0.92477158  0.90399341  1
  O2-  O162  1  0.68107611  0.42768326  0.24514476  1
  O2-  O163  1  0.68040558  0.42707671  0.57606084  1
  O2-  O164  1  0.67846720  0.43168251  0.90083380  1
  O2-  O165  1  0.68104519  0.92931996  0.23492074  1
  O2-  O166  1  0.67991151  0.93030969  0.57789047  1
  O2-  O167  1  0.68361876  0.92576637  0.90720179  1
  O2-  O168  1  0.42935255  0.32278766  0.10092116  1
  O2-  O169  1  0.42847106  0.31871310  0.42433837  1
  O2-  O170  1  0.42961702  0.32073831  0.76337357  1
  O2-  O171  1  0.42521075  0.81897334  0.08812528  1
  O2-  O172  1  0.42570808  0.82131993  0.42911455  1
  O2-  O173  1  0.43120804  0.81896119  0.76779409  1
  O2-  O174  1  0.93292176  0.32238584  0.09985671  1
  O2-  O175  1  0.92790163  0.32422820  0.42183437  1
  O2-  O176  1  0.92834007  0.32090552  0.76459645  1
  O2-  O177  1  0.92865814  0.81973542  0.09261706  1
  O2-  O178  1  0.93221692  0.82048070  0.42268793  1
  O2-  O179  1  0.92806624  0.82122137  0.76502004  1
  O2-  O180  1  0.31925391  0.07227023  0.24400057  1
  O2-  O181  1  0.32252445  0.07647164  0.57751221  1
  O2-  O182  1  0.31982506  0.06845295  0.90230119  1
  O2-  O183  1  0.31982431  0.56891572  0.23589555  1
  O2-  O184  1  0.32024988  0.56663910  0.57809722  1
  O2-  O185  1  0.31941381  0.57291206  0.90785441  1
  O2-  O186  1  0.82216235  0.06994778  0.23487421  1
  O2-  O187  1  0.82003512  0.07328731  0.57909646  1
  O2-  O188  1  0.82096029  0.06764735  0.90779064  1
  O2-  O189  1  0.82509173  0.57233930  0.24667710  1
  O2-  O190  1  0.82168637  0.56819192  0.57472377  1
  O2-  O191  1  0.82269299  0.57410711  0.90053890  1
  O2-  O192  1  0.03818753  0.08292192  0.26441995  1
  O2-  O193  1  0.04423292  0.08568020  0.60576228  1
  O2-  O194  1  0.03973678  0.07805452  0.93145989  1
  O2-  O195  1  0.04080440  0.58615828  0.27145901  1
  O2-  O196  1  0.04055852  0.58265072  0.59529352  1
  O2-  O197  1  0.04561969  0.58822181  0.93942196  1
  O2-  O198  1  0.54245033  0.08413058  0.26874310  1
  O2-  O199  1  0.55234157  0.08243490  0.60512469  1
  O2-  O200  1  0.54433894  0.07728554  0.93069003  1
  O2-  O201  1  0.54347375  0.57890974  0.26421927  1
  O2-  O202  1  0.54303519  0.58044981  0.59867508  1
  O2-  O203  1  0.54148970  0.58458180  0.93208096  1
  O2-  O204  1  0.16675694  0.20889548  0.26557542  1
  O2-  O205  1  0.16462083  0.20357450  0.60502421  1
  O2-  O206  1  0.16953152  0.20205494  0.92977461  1
  O2-  O207  1  0.16155642  0.70520824  0.27011466  1
  O2-  O208  1  0.17127424  0.70342550  0.59922074  1
  O2-  O209  1  0.16381022  0.70668359  0.93996813  1
  O2-  O210  1  0.66817926  0.21163269  0.26984258  1
  O2-  O211  1  0.66475366  0.20787662  0.60150891  1
  O2-  O212  1  0.67051665  0.20270633  0.93099769  1
  O2-  O213  1  0.67246034  0.70595350  0.26421916  1
  O2-  O214  1  0.67134324  0.70313643  0.59995289  1
  O2-  O215  1  0.66775803  0.71331127  0.93251259  1
  O2-  O216  1  0.08987994  0.46058462  0.06325735  1
  O2-  O217  1  0.07984736  0.45718643  0.40207250  1
  O2-  O218  1  0.08526140  0.45801126  0.72844884  1
  O2-  O219  1  0.07743925  0.95442649  0.06945093  1
  O2-  O220  1  0.08693144  0.95901201  0.39667515  1
  O2-  O221  1  0.08332277  0.95930334  0.73441805  1
  O2-  O222  1  0.58060238  0.45859245  0.06848577  1
  O2-  O223  1  0.58738514  0.45591415  0.39742833  1
  O2-  O224  1  0.58532926  0.45437701  0.72678532  1
  O2-  O225  1  0.58399652  0.94766635  0.05667436  1
  O2-  O226  1  0.57835169  0.95735473  0.40131035  1
  O2-  O227  1  0.58850690  0.95527742  0.73160288  1
  O2-  O228  1  0.20188989  0.33513428  0.05613931  1
  O2-  O229  1  0.20473042  0.32846406  0.40406168  1
  O2-  O230  1  0.20539006  0.33610307  0.72989290  1
  O2-  O231  1  0.20553536  0.82968409  0.07227270  1
  O2-  O232  1  0.20278553  0.83591123  0.39494368  1
  O2-  O233  1  0.20810108  0.83040155  0.73343919  1
  O2-  O234  1  0.70694524  0.32940280  0.06697583  1
  O2-  O235  1  0.70911984  0.33986174  0.40066919  1
  O2-  O236  1  0.70855675  0.33712883  0.72853272  1
  O2-  O237  1  0.71348332  0.84028517  0.06281094  1
  O2-  O238  1  0.70913547  0.83137848  0.40167739  1
  O2-  O239  1  0.71033706  0.83611308  0.72860026  1
  O2-  O240  1  0.45139197  0.41653811  0.27625033  1
  O2-  O241  1  0.46151347  0.41295097  0.59382991  1
  O2-  O242  1  0.45790420  0.41894969  0.93137208  1
  O2-  O243  1  0.45385545  0.92041402  0.26286369  1
  O2-  O244  1  0.45460719  0.92241939  0.60303017  1
  O2-  O245  1  0.44797797  0.91486367  0.93772452  1
  O2-  O246  1  0.95211242  0.41912754  0.27159661  1
  O2-  O247  1  0.95807174  0.41558470  0.59554590  1
  O2-  O248  1  0.95998432  0.42150675  0.93352437  1
  O2-  O249  1  0.95851729  0.91205785  0.27020674  1
  O2-  O250  1  0.95622521  0.92330514  0.59918463  1
  O2-  O251  1  0.95515872  0.91118958  0.93826295  1
  O2-  O252  1  0.33304457  0.29636497  0.27482708  1
  O2-  O253  1  0.33073968  0.29154093  0.59633442  1
  O2-  O254  1  0.33114511  0.29488007  0.93154252  1
  O2-  O255  1  0.32750630  0.79274666  0.26264604  1
  O2-  O256  1  0.33206479  0.79317720  0.60121206  1
  O2-  O257  1  0.33156967  0.79198674  0.93858575  1
  O2-  O258  1  0.83360603  0.29979612  0.27132303  1
  O2-  O259  1  0.83227716  0.28929647  0.59712793  1
  O2-  O260  1  0.83219295  0.29504815  0.93259283  1
  O2-  O261  1  0.83813047  0.79280883  0.27122774  1
  O2-  O262  1  0.83386626  0.79337883  0.59493356  1
  O2-  O263  1  0.83874065  0.79208118  0.93759367  1
  O2-  O264  1  0.41990040  0.04231795  0.06865881  1
  O2-  O265  1  0.41230581  0.04447949  0.39671145  1
  O2-  O266  1  0.41934819  0.05340897  0.72834393  1
  O2-  O267  1  0.41373800  0.54435280  0.06031884  1
  O2-  O268  1  0.42067962  0.54556985  0.40381418  1
  O2-  O269  1  0.41352810  0.53695815  0.72839110  1
  O2-  O270  1  0.90914762  0.03786995  0.06178862  1
  O2-  O271  1  0.91876928  0.04009207  0.40283003  1
  O2-  O272  1  0.91232508  0.04584300  0.73216109  1
  O2-  O273  1  0.92096897  0.54581656  0.06944939  1
  O2-  O274  1  0.91256751  0.54432714  0.40090221  1
  O2-  O275  1  0.91345253  0.54007114  0.72630688  1
  O2-  O276  1  0.29417660  0.17126980  0.06798625  1
  O2-  O277  1  0.29122932  0.16145472  0.39754867  1
  O2-  O278  1  0.29489018  0.16736892  0.72973802  1
  O2-  O279  1  0.29127479  0.65995576  0.06335757  1
  O2-  O280  1  0.28871916  0.66917351  0.40215943  1
  O2-  O281  1  0.29533576  0.66024172  0.73088393  1
  O2-  O282  1  0.79858641  0.16464203  0.05932057  1
  O2-  O283  1  0.79584623  0.17208038  0.40187729  1
  O2-  O284  1  0.79008269  0.16377162  0.73116525  1
  O2-  O285  1  0.79334078  0.67064316  0.06861812  1
  O2-  O286  1  0.79534810  0.66460317  0.39889701  1
  O2-  O287  1  0.79902251  0.66459517  0.72537692  1
