# generated using pymatgen
data_Ca2Al2SiO7
_symmetry_space_group_name_H-M   'P 1'
_cell_length_a   15.46088691
_cell_length_b   15.46002300
_cell_length_c   15.28526169
_cell_angle_alpha   89.99640376
_cell_angle_beta   90.00293405
_cell_angle_gamma   89.99547674
_symmetry_Int_Tables_number   1
_chemical_formula_structural   Ca2Al2SiO7
_chemical_formula_sum   'Ca48 Al48 Si24 O168'
_cell_volume   3653.56984933
_cell_formula_units_Z   24
loop_
 _symmetry_equiv_pos_site_id
 _symmetry_equiv_pos_as_xyz
  1  'x, y, z'
loop_
 _atom_type_symbol
 _atom_type_oxidation_number
  Ca2+  2.0
  Al0+  0.0
  Si0+  0.0
  O2-  -2.0
loop_
 _atom_site_type_symbol
 _atom_site_label
 _atom_site_symmetry_multiplicity
 _atom_site_fract_x
 _atom_site_fract_y
 _atom_site_fract_z
 _atom_site_occupancy
  Ca2+  Ca0  1  0.16055585  0.07857051  0.17178589  1
  Ca2+  Ca1  1  0.17290341  0.08784817  0.50460965  1
  Ca2+  Ca2  1  0.17436103  0.07890894  0.83670747  1
  Ca2+  Ca3  1  0.17575909  0.59013905  0.17240759  1
  Ca2+  Ca4  1  0.17100357  0.57918928  0.50131616  1
  Ca2+  Ca5  1  0.17289684  0.57882370  0.84166010  1
  Ca2+  Ca6  1  0.67686309  0.08153140  0.17893354  1
  Ca2+  Ca7  1  0.65629471  0.07529097  0.50221123  1
  Ca2+  Ca8  1  0.66454007  0.08073670  0.83576255  1
  Ca2+  Ca9  1  0.67215546  0.57682831  0.18250687  1
  Ca2+  Ca10  1  0.65992336  0.57498188  0.50073759  1
  Ca2+  Ca11  1  0.66035004  0.57717826  0.83081220  1
  Ca2+  Ca12  1  0.07487401  0.32722911  0.16378887  1
  Ca2+  Ca13  1  0.08442945  0.32988787  0.49430412  1
  Ca2+  Ca14  1  0.07592023  0.34015404  0.82888247  1
  Ca2+  Ca15  1  0.08005328  0.82555844  0.16444522  1
  Ca2+  Ca16  1  0.07314835  0.82784109  0.48646655  1
  Ca2+  Ca17  1  0.08950059  0.83030300  0.83564003  1
  Ca2+  Ca18  1  0.57618013  0.33874534  0.16688843  1
  Ca2+  Ca19  1  0.57722620  0.33122101  0.49315909  1
  Ca2+  Ca20  1  0.57204473  0.32869855  0.82283940  1
  Ca2+  Ca21  1  0.59099846  0.82726450  0.17143499  1
  Ca2+  Ca22  1  0.59227750  0.82565133  0.49450665  1
  Ca2+  Ca23  1  0.58692398  0.82659487  0.82300045  1
  Ca2+  Ca24  1  0.33979834  0.42374198  0.17206671  1
  Ca2+  Ca25  1  0.33372958  0.41498650  0.50274864  1
  Ca2+  Ca26  1  0.33298643  0.41673416  0.83618823  1
  Ca2+  Ca27  1  0.32464418  0.91457692  0.16945718  1
  Ca2+  Ca28  1  0.33566629  0.92686375  0.50473357  1
  Ca2+  Ca29  1  0.33390056  0.92694238  0.83785658  1
  Ca2+  Ca30  1  0.82932194  0.41994063  0.17553486  1
  Ca2+  Ca31  1  0.81934283  0.41925525  0.49972705  1
  Ca2+  Ca32  1  0.82471364  0.41053110  0.83698701  1
  Ca2+  Ca33  1  0.83325271  0.92584579  0.17723680  1
  Ca2+  Ca34  1  0.82527686  0.91761016  0.49659103  1
  Ca2+  Ca35  1  0.82654098  0.92443247  0.83734912  1
  Ca2+  Ca36  1  0.42397572  0.17996939  0.16563679  1
  Ca2+  Ca37  1  0.42410080  0.17506640  0.49548083  1
  Ca2+  Ca38  1  0.41747412  0.17543368  0.82218487  1
  Ca2+  Ca39  1  0.42095923  0.65733972  0.16579816  1
  Ca2+  Ca40  1  0.42738097  0.66221734  0.49410729  1
  Ca2+  Ca41  1  0.41912521  0.66774709  0.83017398  1
  Ca2+  Ca42  1  0.91350128  0.16596732  0.16380592  1
  Ca2+  Ca43  1  0.92459103  0.16263284  0.49059106  1
  Ca2+  Ca44  1  0.91317292  0.16866361  0.83712483  1
  Ca2+  Ca45  1  0.92397620  0.66596099  0.16627242  1
  Ca2+  Ca46  1  0.91954394  0.67090561  0.48631387  1
  Ca2+  Ca47  1  0.92507853  0.66577338  0.82984201  1
  Al0+  Al48  1  -0.00070324  -0.00096050  0.00486361  1
  Al0+  Al49  1  -0.00017284  -0.00153469  0.33048330  1
  Al0+  Al50  1  -0.00124981  -0.00024644  0.66789747  1
  Al0+  Al51  1  0.00001634  0.49914481  -0.00881019  1
  Al0+  Al52  1  0.00215466  0.49902968  0.33313951  1
  Al0+  Al53  1  0.00060760  0.50061074  0.66832204  1
  Al0+  Al54  1  0.49994767  -0.00192947  0.00325771  1
  Al0+  Al55  1  0.49893904  0.00092701  0.33085265  1
  Al0+  Al56  1  0.49929190  -0.00000526  0.67505789  1
  Al0+  Al57  1  0.49947002  0.49876072  -0.00232149  1
  Al0+  Al58  1  0.49855323  0.50190669  0.33414375  1
  Al0+  Al59  1  0.49989268  0.50134232  0.66480568  1
  Al0+  Al60  1  0.24969243  0.25016490  -0.00278212  1
  Al0+  Al61  1  0.24930799  0.25019292  0.32254541  1
  Al0+  Al62  1  0.24795949  0.25097007  0.67338353  1
  Al0+  Al63  1  0.25169455  0.74974573  0.00217163  1
  Al0+  Al64  1  0.25040719  0.75006267  0.33772745  1
  Al0+  Al65  1  0.24946587  0.74956994  0.66485198  1
  Al0+  Al66  1  0.74951571  0.24877707  -0.00019451  1
  Al0+  Al67  1  0.75134572  0.24955406  0.33957320  1
  Al0+  Al68  1  0.75058737  0.25072294  0.66735876  1
  Al0+  Al69  1  0.75176493  0.74879394  -0.00269900  1
  Al0+  Al70  1  0.75109998  0.75219669  0.32962254  1
  Al0+  Al71  1  0.75196525  0.75129258  0.66831932  1
  Al0+  Al72  1  0.92808202  0.82014351  0.31672203  1
  Al0+  Al73  1  0.56977423  0.68060769  0.32000583  1
  Al0+  Al74  1  0.82400807  0.57183081  0.34595022  1
  Al0+  Al75  1  0.07089203  0.17882235  0.32037674  1
  Al0+  Al76  1  0.67759717  0.42924300  0.34812275  1
  Al0+  Al77  1  0.57093138  0.68110287  0.65299055  1
  Al0+  Al78  1  0.32023631  0.56804415  0.01344719  1
  Al0+  Al79  1  0.57203627  0.17725061  0.65263160  1
  Al0+  Al80  1  0.42985059  0.32194515  0.31743019  1
  Al0+  Al81  1  0.68041776  0.92943701  0.68124857  1
  Al0+  Al82  1  0.57337558  0.17734020  0.31819999  1
  Al0+  Al83  1  0.07251572  0.68065009  0.98463157  1
  Al0+  Al84  1  0.32009765  0.07052185  0.67959833  1
  Al0+  Al85  1  0.67710349  0.93059351  0.34806663  1
  Al0+  Al86  1  0.07323361  0.67677907  0.31897501  1
  Al0+  Al87  1  0.42936746  0.32131255  0.98362098  1
  Al0+  Al88  1  0.18137666  0.93016958  0.01425872  1
  Al0+  Al89  1  0.42648191  0.32111017  0.65105209  1
  Al0+  Al90  1  0.81739982  0.07031542  0.01395527  1
  Al0+  Al91  1  0.67832451  0.42897919  0.68187698  1
  Al0+  Al92  1  0.32032013  0.57178803  0.34864727  1
  Al0+  Al93  1  0.92865139  0.31973892  0.98602380  1
  Al0+  Al94  1  0.82312657  0.07191287  0.35029734  1
  Al0+  Al95  1  0.17832326  0.43013757  0.68066129  1
  Si0+  Si96  1  0.32171033  0.57325564  0.68376943  1
  Si0+  Si97  1  0.32329820  0.07444907  0.01940475  1
  Si0+  Si98  1  0.17495852  0.42706402  0.01731200  1
  Si0+  Si99  1  0.92839427  0.82267310  0.98038815  1
  Si0+  Si100  1  0.42646635  0.82391655  0.31690023  1
  Si0+  Si101  1  0.92769760  0.32210545  0.31925945  1
  Si0+  Si102  1  0.17594590  0.92719626  0.68158919  1
  Si0+  Si103  1  0.82200705  0.57199827  0.68457500  1
  Si0+  Si104  1  0.17928129  0.42561957  0.34723152  1
  Si0+  Si105  1  0.42935702  0.82094292  0.98557818  1
  Si0+  Si106  1  0.06860186  0.17917489  0.65464519  1
  Si0+  Si107  1  0.07161633  0.67795915  0.65083293  1
  Si0+  Si108  1  0.82325379  0.57126923  0.01272984  1
  Si0+  Si109  1  0.82557515  0.07261125  0.68469647  1
  Si0+  Si110  1  0.68005751  0.43111831  0.01335583  1
  Si0+  Si111  1  0.57104775  0.17714752  0.98407716  1
  Si0+  Si112  1  0.93077943  0.82116045  0.65228662  1
  Si0+  Si113  1  0.67700558  0.92405783  0.01752078  1
  Si0+  Si114  1  0.57242409  0.67914216  0.98500199  1
  Si0+  Si115  1  0.42622168  0.82286537  0.65154186  1
  Si0+  Si116  1  0.17941678  0.92929254  0.34929097  1
  Si0+  Si117  1  0.07140489  0.17542210  0.98170650  1
  Si0+  Si118  1  0.31910369  0.07262067  0.34559904  1
  Si0+  Si119  1  0.92827699  0.32313299  0.65063300  1
  O2-  O120  1  0.25244904  0.00759864  0.06312334  1
  O2-  O121  1  0.24937722  0.00130748  0.39054690  1
  O2-  O122  1  0.24719730  -0.00721663  0.72563124  1
  O2-  O123  1  0.24552005  0.49340130  0.06113458  1
  O2-  O124  1  0.24583126  0.49567312  0.39257379  1
  O2-  O125  1  0.25338922  0.50426663  0.72770131  1
  O2-  O126  1  0.74373425  -0.00538943  0.05966512  1
  O2-  O127  1  0.74605085  0.00504198  0.39954833  1
  O2-  O128  1  0.75132897  0.00848963  0.72709731  1
  O2-  O129  1  0.75152528  0.50176133  0.05501994  1
  O2-  O130  1  0.74938576  0.50325395  0.39671935  1
  O2-  O131  1  0.75367596  0.50337489  0.73002125  1
  O2-  O132  1  -0.00702992  0.25018755  0.27468930  1
  O2-  O133  1  -0.00242280  0.24917444  0.61073153  1
  O2-  O134  1  0.00561438  0.24710989  0.93748891  1
  O2-  O135  1  -0.00148033  0.74541293  0.26852233  1
  O2-  O136  1  0.00268462  0.75102444  0.61032630  1
  O2-  O137  1  -0.00305012  0.75400690  0.93529730  1
  O2-  O138  1  0.50593322  0.25351022  0.26786313  1
  O2-  O139  1  0.50185735  0.25144187  0.60319931  1
  O2-  O140  1  0.49871725  0.24094448  0.93863272  1
  O2-  O141  1  0.49517070  0.75529674  0.27234085  1
  O2-  O142  1  0.49550402  0.75577143  0.60720516  1
  O2-  O143  1  0.50500815  0.75441053  0.94382651  1
  O2-  O144  1  0.06981467  0.17541762  0.08713406  1
  O2-  O145  1  0.07414776  0.18126232  0.43421527  1
  O2-  O146  1  0.06639475  0.17709078  0.75965525  1
  O2-  O147  1  0.07145444  0.68150050  0.09690265  1
  O2-  O148  1  0.07335159  0.68085239  0.43322642  1
  O2-  O149  1  0.07200374  0.67892291  0.75622459  1
  O2-  O150  1  0.57174238  0.17927774  0.08918768  1
  O2-  O151  1  0.56614774  0.17448779  0.43133392  1
  O2-  O152  1  0.56941334  0.17817118  0.76703887  1
  O2-  O153  1  0.57327719  0.67808982  0.08972096  1
  O2-  O154  1  0.56819422  0.68085872  0.43296489  1
  O2-  O155  1  0.56876154  0.68220257  0.76715143  1
  O2-  O156  1  0.17898418  0.42414905  0.24182036  1
  O2-  O157  1  0.17530690  0.43164631  0.56774409  1
  O2-  O158  1  0.17468408  0.43014224  0.91145083  1
  O2-  O159  1  0.18100778  0.92845896  0.24409336  1
  O2-  O160  1  0.17385016  0.92893173  0.57625147  1
  O2-  O161  1  0.18527413  0.93147344  0.90051241  1
  O2-  O162  1  0.67928668  0.43138128  0.23350984  1
  O2-  O163  1  0.67938484  0.42980065  0.56970131  1
  O2-  O164  1  0.68011632  0.43285270  0.90804958  1
  O2-  O165  1  0.67844165  0.93087522  0.23409900  1
  O2-  O166  1  0.68272558  0.92591125  0.56924076  1
  O2-  O167  1  0.67759799  0.92241886  0.91166999  1
  O2-  O168  1  0.43380023  0.32441862  0.09611738  1
  O2-  O169  1  0.42518286  0.31848410  0.43062185  1
  O2-  O170  1  0.42721567  0.31941686  0.76514176  1
  O2-  O171  1  0.42781318  0.82118921  0.09036131  1
  O2-  O172  1  0.42495831  0.82508266  0.42247930  1
  O2-  O173  1  0.42411933  0.82023918  0.75760849  1
  O2-  O174  1  0.92877076  0.32000760  0.09873571  1
  O2-  O175  1  0.93199200  0.32386175  0.42498957  1
  O2-  O176  1  0.92950192  0.32328253  0.75603768  1
  O2-  O177  1  0.92717859  0.82112356  0.08514227  1
  O2-  O178  1  0.93219952  0.82164577  0.43116970  1
  O2-  O179  1  0.93226088  0.82128534  0.75766251  1
  O2-  O180  1  0.31659937  0.07015930  0.24049552  1
  O2-  O181  1  0.31666308  0.07018089  0.56622611  1
  O2-  O182  1  0.32365506  0.07174750  0.91363738  1
  O2-  O183  1  0.31980669  0.57143189  0.23525883  1
  O2-  O184  1  0.31893563  0.57635848  0.57862425  1
  O2-  O185  1  0.32017242  0.56878297  0.90011205  1
  O2-  O186  1  0.82385246  0.06890861  0.23646783  1
  O2-  O187  1  0.83589489  0.06804657  0.58059160  1
  O2-  O188  1  0.81531860  0.06913017  0.90025474  1
  O2-  O189  1  0.82366671  0.56725955  0.23147048  1
  O2-  O190  1  0.82423895  0.57134900  0.57957221  1
  O2-  O191  1  0.82157349  0.57239072  0.90745504  1
  O2-  O192  1  0.04311436  0.08199233  0.26641539  1
  O2-  O193  1  0.04272280  0.08666373  0.60653178  1
  O2-  O194  1  0.04259584  0.08251365  0.93554831  1
  O2-  O195  1  0.05050012  0.57691022  0.26667868  1
  O2-  O196  1  0.04179055  0.58690228  0.60407144  1
  O2-  O197  1  0.04180431  0.58474004  0.92850458  1
  O2-  O198  1  0.54053900  0.08104308  0.26254878  1
  O2-  O199  1  0.54024099  0.07785969  0.60416069  1
  O2-  O200  1  0.54987994  0.08003528  0.94158283  1
  O2-  O201  1  0.53795936  0.58525610  0.26457578  1
  O2-  O202  1  0.53967543  0.58543537  0.59913064  1
  O2-  O203  1  0.53994073  0.58940970  0.93645982  1
  O2-  O204  1  0.16353412  0.21007579  0.25953061  1
  O2-  O205  1  0.16017614  0.20790436  0.60853623  1
  O2-  O206  1  0.16673394  0.19697903  0.93730117  1
  O2-  O207  1  0.17060852  0.71126297  0.26759753  1
  O2-  O208  1  0.16448237  0.70264572  0.60411984  1
  O2-  O209  1  0.16865724  0.71465902  0.93046948  1
  O2-  O210  1  0.67520924  0.20077413  0.27080035  1
  O2-  O211  1  0.67352302  0.19919875  0.60390957  1
  O2-  O212  1  0.66300980  0.20580320  0.93679210  1
  O2-  O213  1  0.66571311  0.71020724  0.26407817  1
  O2-  O214  1  0.66890470  0.71162671  0.60256338  1
  O2-  O215  1  0.66507633  0.70325334  0.93614521  1
  O2-  O216  1  0.08062827  0.45383344  0.06073040  1
  O2-  O217  1  0.08579637  0.44865456  0.39479858  1
  O2-  O218  1  0.08246233  0.46304082  0.73670920  1
  O2-  O219  1  0.08382789  0.95686040  0.06771289  1
  O2-  O220  1  0.08800398  0.95721142  0.39618810  1
  O2-  O221  1  0.08429133  0.95568760  0.73067353  1
  O2-  O222  1  0.58917600  0.46117266  0.06005521  1
  O2-  O223  1  0.58038828  0.45999871  0.40091491  1
  O2-  O224  1  0.58209338  0.46307789  0.73596950  1
  O2-  O225  1  0.58173773  0.94466053  0.06213449  1
  O2-  O226  1  0.57637647  0.95477368  0.39969821  1
  O2-  O227  1  0.58315979  0.95405847  0.73806643  1
  O2-  O228  1  0.19632347  0.33071904  0.05939201  1
  O2-  O229  1  0.20723235  0.33208457  0.39304727  1
  O2-  O230  1  0.20392804  0.33403407  0.73808422  1
  O2-  O231  1  0.21613661  0.83559100  0.06877439  1
  O2-  O232  1  0.20775985  0.83923613  0.39945413  1
  O2-  O233  1  0.19933152  0.83209494  0.72640937  1
  O2-  O234  1  0.70735557  0.33893696  0.05889505  1
  O2-  O235  1  0.70604187  0.33221777  0.40274556  1
  O2-  O236  1  0.71041463  0.33255700  0.73704472  1
  O2-  O237  1  0.70481068  0.83002845  0.06184950  1
  O2-  O238  1  0.70884799  0.83244578  0.39924339  1
  O2-  O239  1  0.71622935  0.83473921  0.73803884  1
  O2-  O240  1  0.45734001  0.42087817  0.26552985  1
  O2-  O241  1  0.45141813  0.42123949  0.60162820  1
  O2-  O242  1  0.46445493  0.41622946  0.92821700  1
  O2-  O243  1  0.44948993  0.91673909  0.26816003  1
  O2-  O244  1  0.44996239  0.91779440  0.60919786  1
  O2-  O245  1  0.45283989  0.91480249  0.93840404  1
  O2-  O246  1  0.95701029  0.41334446  0.27018274  1
  O2-  O247  1  0.95974270  0.41401627  0.60408428  1
  O2-  O248  1  0.95653019  0.41529398  0.92744444  1
  O2-  O249  1  0.96265491  0.91589080  0.26260520  1
  O2-  O250  1  0.95870946  0.91294277  0.60491618  1
  O2-  O251  1  0.95557505  0.91631778  0.93498611  1
  O2-  O252  1  0.33427403  0.29015945  0.26022446  1
  O2-  O253  1  0.32668150  0.29076335  0.60206662  1
  O2-  O254  1  0.32958736  0.29615994  0.93237078  1
  O2-  O255  1  0.33285329  0.79679198  0.27178626  1
  O2-  O256  1  0.33222484  0.79923282  0.60401038  1
  O2-  O257  1  0.34043029  0.78918550  0.93561445  1
  O2-  O258  1  0.83323097  0.30069892  0.27420125  1
  O2-  O259  1  0.83594221  0.29878821  0.60434160  1
  O2-  O260  1  0.83288789  0.28567598  0.93035650  1
  O2-  O261  1  0.83035642  0.79739294  0.26115205  1
  O2-  O262  1  0.83989694  0.79235800  0.60531404  1
  O2-  O263  1  0.83480810  0.79579575  0.93310269  1
  O2-  O264  1  0.41620920  0.04570695  0.06518853  1
  O2-  O265  1  0.41020234  0.04449985  0.39323893  1
  O2-  O266  1  0.41371635  0.03999625  0.73984983  1
  O2-  O267  1  0.41774923  0.53715031  0.06627303  1
  O2-  O268  1  0.41591243  0.54141070  0.40308197  1
  O2-  O269  1  0.41543946  0.54937268  0.72955541  1
  O2-  O270  1  0.91504683  0.04206863  0.06623134  1
  O2-  O271  1  0.92094326  0.03733619  0.40242379  1
  O2-  O272  1  0.91590054  0.04025882  0.73608045  1
  O2-  O273  1  0.91531961  0.54208412  0.05768883  1
  O2-  O274  1  0.92218136  0.54291466  0.40015684  1
  O2-  O275  1  0.91560632  0.54553061  0.73125738  1
  O2-  O276  1  0.29938060  0.16937525  0.06279470  1
  O2-  O277  1  0.28767858  0.16384458  0.39126233  1
  O2-  O278  1  0.28457070  0.16351301  0.73754765  1
  O2-  O279  1  0.29150023  0.66509001  0.06673186  1
  O2-  O280  1  0.29043255  0.66785198  0.40494012  1
  O2-  O281  1  0.29480705  0.66741776  0.73031693  1
  O2-  O282  1  0.78789681  0.16708822  0.06824544  1
  O2-  O283  1  0.80607495  0.17246340  0.40218135  1
  O2-  O284  1  0.80550663  0.16840444  0.72811822  1
  O2-  O285  1  0.79768624  0.66422414  0.05886516  1
  O2-  O286  1  0.80030883  0.67242583  0.39453391  1
  O2-  O287  1  0.79735946  0.66542433  0.73191531  1
