# generated using pymatgen
data_Ca2Al2SiO7
_symmetry_space_group_name_H-M   'P 1'
_cell_length_a   15.45577647
_cell_length_b   15.45546797
_cell_length_c   15.28145481
_cell_angle_alpha   90.01407045
_cell_angle_beta   90.00900338
_cell_angle_gamma   89.98808173
_symmetry_Int_Tables_number   1
_chemical_formula_structural   Ca2Al2SiO7
_chemical_formula_sum   'Ca48 Al48 Si24 O168'
_cell_volume   3650.37651151
_cell_formula_units_Z   24
loop_
 _symmetry_equiv_pos_site_id
 _symmetry_equiv_pos_as_xyz
  1  'x, y, z'
loop_
 _atom_type_symbol
 _atom_type_oxidation_number
  Ca2+  2.0
  Al0+  0.0
  Si0+  0.0
  O2-  -2.0
loop_
 _atom_site_type_symbol
 _atom_site_label
 _atom_site_symmetry_multiplicity
 _atom_site_fract_x
 _atom_site_fract_y
 _atom_site_fract_z
 _atom_site_occupancy
  Ca2+  Ca0  1  0.16376859  0.07595933  0.17490467  1
  Ca2+  Ca1  1  0.15904245  0.07608101  0.50461648  1
  Ca2+  Ca2  1  0.16191508  0.08018447  0.83048240  1
  Ca2+  Ca3  1  0.16196526  0.58044597  0.17049386  1
  Ca2+  Ca4  1  0.16600278  0.58070232  0.50517076  1
  Ca2+  Ca5  1  0.16136549  0.56941100  0.83773654  1
  Ca2+  Ca6  1  0.66904920  0.07615126  0.16864054  1
  Ca2+  Ca7  1  0.66855121  0.07716305  0.50896293  1
  Ca2+  Ca8  1  0.66087140  0.07094621  0.83601140  1
  Ca2+  Ca9  1  0.67300246  0.58530772  0.16835017  1
  Ca2+  Ca10  1  0.67076965  0.57396706  0.51014879  1
  Ca2+  Ca11  1  0.67494913  0.59048811  0.83467797  1
  Ca2+  Ca12  1  0.07337095  0.33422623  0.16060193  1
  Ca2+  Ca13  1  0.08203145  0.32402682  0.49297530  1
  Ca2+  Ca14  1  0.08251513  0.33383072  0.82822857  1
  Ca2+  Ca15  1  0.07613098  0.82998944  0.16683875  1
  Ca2+  Ca16  1  0.07473247  0.83396398  0.49017373  1
  Ca2+  Ca17  1  0.06938933  0.83627434  0.82479716  1
  Ca2+  Ca18  1  0.58114553  0.33841870  0.16802196  1
  Ca2+  Ca19  1  0.58758018  0.33280250  0.49400864  1
  Ca2+  Ca20  1  0.58547717  0.32736388  0.82219510  1
  Ca2+  Ca21  1  0.57399150  0.83185848  0.15441088  1
  Ca2+  Ca22  1  0.58286918  0.82703596  0.49925075  1
  Ca2+  Ca23  1  0.59078792  0.82462054  0.82937205  1
  Ca2+  Ca24  1  0.32965941  0.41688965  0.17185494  1
  Ca2+  Ca25  1  0.32902134  0.41415834  0.50474917  1
  Ca2+  Ca26  1  0.32103962  0.41431300  0.83608511  1
  Ca2+  Ca27  1  0.33125524  0.91252985  0.17601194  1
  Ca2+  Ca28  1  0.31936585  0.90900939  0.50173195  1
  Ca2+  Ca29  1  0.32863173  0.91444458  0.83639006  1
  Ca2+  Ca30  1  0.83371833  0.41969091  0.17245629  1
  Ca2+  Ca31  1  0.82895175  0.42182717  0.50634510  1
  Ca2+  Ca32  1  0.83434263  0.43010506  0.83964642  1
  Ca2+  Ca33  1  0.83070833  0.90737002  0.16732962  1
  Ca2+  Ca34  1  0.83435768  0.91472035  0.50818929  1
  Ca2+  Ca35  1  0.82396130  0.90762449  0.83629865  1
  Ca2+  Ca36  1  0.41422545  0.17338766  0.16739846  1
  Ca2+  Ca37  1  0.42369205  0.17265443  0.49884678  1
  Ca2+  Ca38  1  0.42345432  0.16699086  0.82751793  1
  Ca2+  Ca39  1  0.42303541  0.67798908  0.16027642  1
  Ca2+  Ca40  1  0.42293705  0.66904932  0.49558555  1
  Ca2+  Ca41  1  0.42951192  0.66998023  0.83121536  1
  Ca2+  Ca42  1  0.91880944  0.17817471  0.16734799  1
  Ca2+  Ca43  1  0.92816158  0.17040365  0.49347571  1
  Ca2+  Ca44  1  0.91991424  0.17613080  0.82764620  1
  Ca2+  Ca45  1  0.91754747  0.67217551  0.16400113  1
  Ca2+  Ca46  1  0.91756028  0.67517932  0.49892964  1
  Ca2+  Ca47  1  0.90441047  0.67418447  0.83100192  1
  Al0+  Al48  1  0.00027487  0.00124210  -0.00303382  1
  Al0+  Al49  1  -0.00133748  -0.00014377  0.32834739  1
  Al0+  Al50  1  -0.00054792  0.00198446  0.66447007  1
  Al0+  Al51  1  -0.00178436  0.49923332  0.00625451  1
  Al0+  Al52  1  -0.00006454  0.50069963  0.33050117  1
  Al0+  Al53  1  -0.00017745  0.50264843  0.67487115  1
  Al0+  Al54  1  0.49738315  0.00152910  0.00266648  1
  Al0+  Al55  1  0.49991266  0.00070261  0.33219264  1
  Al0+  Al56  1  0.49872768  0.00152606  0.66490282  1
  Al0+  Al57  1  0.49821968  0.49971085  -0.00550723  1
  Al0+  Al58  1  0.50027472  0.49882768  0.33294289  1
  Al0+  Al59  1  0.49902996  0.50077196  0.66683348  1
  Al0+  Al60  1  0.24955703  0.24848544  0.00497810  1
  Al0+  Al61  1  0.25354126  0.24774844  0.32701293  1
  Al0+  Al62  1  0.25043142  0.24883688  0.66702902  1
  Al0+  Al63  1  0.25021439  0.74852196  -0.00457924  1
  Al0+  Al64  1  0.25113828  0.74894113  0.33081833  1
  Al0+  Al65  1  0.24934043  0.75026067  0.67448523  1
  Al0+  Al66  1  0.75096328  0.24954876  -0.00460609  1
  Al0+  Al67  1  0.75069608  0.24760380  0.33358747  1
  Al0+  Al68  1  0.75034126  0.24963948  0.66405091  1
  Al0+  Al69  1  0.74974570  0.74944688  0.00493890  1
  Al0+  Al70  1  0.75030597  0.74827264  0.33304107  1
  Al0+  Al71  1  0.74850476  0.75045853  0.66202280  1
  Al0+  Al72  1  0.68020329  0.93060312  0.01438205  1
  Al0+  Al73  1  0.81831861  0.57052049  0.01724523  1
  Al0+  Al74  1  0.43079537  0.82053576  0.32226949  1
  Al0+  Al75  1  0.92973716  0.81964088  0.65335568  1
  Al0+  Al76  1  0.42673373  0.82439058  0.98272114  1
  Al0+  Al77  1  0.67979534  0.42958815  0.34600346  1
  Al0+  Al78  1  0.92823506  0.32100583  0.32024981  1
  Al0+  Al79  1  0.17670172  0.92893882  0.68070141  1
  Al0+  Al80  1  0.18020764  0.42918337  0.01692504  1
  Al0+  Al81  1  0.07282476  0.67838544  0.31983576  1
  Al0+  Al82  1  0.57258839  0.17860997  0.65314790  1
  Al0+  Al83  1  0.18072116  0.42878310  0.67780676  1
  Al0+  Al84  1  0.07102654  0.18142686  0.65325470  1
  Al0+  Al85  1  0.81942628  0.57122446  0.68176201  1
  Al0+  Al86  1  0.67906310  0.93110981  0.67814833  1
  Al0+  Al87  1  0.57119925  0.67985984  0.98490886  1
  Al0+  Al88  1  0.43120536  0.32129279  0.32000248  1
  Al0+  Al89  1  0.57020442  0.67940904  0.65070763  1
  Al0+  Al90  1  0.07247980  0.17815070  0.31730241  1
  Al0+  Al91  1  0.18000184  0.92969444  0.34548817  1
  Al0+  Al92  1  0.67757211  0.42661753  0.68179804  1
  Al0+  Al93  1  0.93100096  0.82045412  0.98550853  1
  Al0+  Al94  1  0.92877140  0.32208219  0.98456535  1
  Al0+  Al95  1  0.92708481  0.82118523  0.31747291  1
  Si0+  Si96  1  0.57033568  0.17998463  0.98626244  1
  Si0+  Si97  1  0.32069859  0.07027366  0.01727306  1
  Si0+  Si98  1  0.82343144  0.07428670  0.01675841  1
  Si0+  Si99  1  0.07434095  0.67718413  0.65304492  1
  Si0+  Si100  1  0.07213868  0.67668198  0.98224124  1
  Si0+  Si101  1  0.57140839  0.67713222  0.31732338  1
  Si0+  Si102  1  0.32106018  0.56994744  0.34762120  1
  Si0+  Si103  1  0.42551329  0.82266135  0.64968060  1
  Si0+  Si104  1  0.17932221  0.42730839  0.34696990  1
  Si0+  Si105  1  0.82373542  0.57286450  0.35213416  1
  Si0+  Si106  1  0.67724530  0.92813962  0.34834247  1
  Si0+  Si107  1  0.32091895  0.07130322  0.68340262  1
  Si0+  Si108  1  0.32432299  0.07366676  0.35249451  1
  Si0+  Si109  1  0.32334313  0.57147448  0.01754282  1
  Si0+  Si110  1  0.42694804  0.32020719  0.98461965  1
  Si0+  Si111  1  0.42841607  0.32140463  0.65174552  1
  Si0+  Si112  1  0.81999177  0.06971040  0.34839159  1
  Si0+  Si113  1  0.92904371  0.32586320  0.65105905  1
  Si0+  Si114  1  0.67602622  0.42438194  0.01537342  1
  Si0+  Si115  1  0.57340627  0.17696897  0.31511969  1
  Si0+  Si116  1  0.82359812  0.07277566  0.68294818  1
  Si0+  Si117  1  0.07331692  0.17943663  0.98194061  1
  Si0+  Si118  1  0.32356420  0.57408490  0.68518112  1
  Si0+  Si119  1  0.17795397  0.92836063  0.01430659  1
  O2-  O120  1  0.25197574  -0.00392084  0.05720364  1
  O2-  O121  1  0.25374017  0.00563585  0.39422264  1
  O2-  O122  1  0.25328330  0.00176359  0.72806963  1
  O2-  O123  1  0.25358834  0.50511752  0.06404872  1
  O2-  O124  1  0.24925880  0.49914728  0.38989172  1
  O2-  O125  1  0.25325372  0.50510696  0.72657959  1
  O2-  O126  1  0.75678780  0.00351660  0.06176707  1
  O2-  O127  1  0.75108037  -0.00388051  0.39035624  1
  O2-  O128  1  0.75236107  0.00650451  0.72679319  1
  O2-  O129  1  0.74269313  0.49420241  0.06053395  1
  O2-  O130  1  0.75522382  0.50261842  0.39367034  1
  O2-  O131  1  0.74911591  0.49759720  0.73316861  1
  O2-  O132  1  0.00496525  0.25463956  0.26837784  1
  O2-  O133  1  -0.00187457  0.25763863  0.60689425  1
  O2-  O134  1  0.00466685  0.24819240  0.93837220  1
  O2-  O135  1  -0.00067087  0.74854768  0.26932383  1
  O2-  O136  1  0.00857220  0.74820976  0.60873677  1
  O2-  O137  1  0.00629782  0.74732443  0.93713970  1
  O2-  O138  1  0.50579135  0.24713537  0.27148214  1
  O2-  O139  1  0.50360740  0.25955782  0.60790337  1
  O2-  O140  1  0.50314828  0.25464439  0.94357808  1
  O2-  O141  1  0.50924328  0.75167314  0.27352119  1
  O2-  O142  1  0.49318956  0.75300291  0.60542900  1
  O2-  O143  1  0.50130612  0.75450365  0.93450039  1
  O2-  O144  1  0.07420531  0.17893723  0.08728117  1
  O2-  O145  1  0.07040823  0.17884170  0.43110289  1
  O2-  O146  1  0.07030796  0.18280775  0.76659045  1
  O2-  O147  1  0.07310481  0.67920180  0.08788355  1
  O2-  O148  1  0.07386399  0.67834728  0.43367123  1
  O2-  O149  1  0.07461522  0.67686753  0.75856094  1
  O2-  O150  1  0.56889743  0.17946394  0.09146902  1
  O2-  O151  1  0.57267172  0.17565699  0.42054051  1
  O2-  O152  1  0.56681704  0.17583818  0.76666464  1
  O2-  O153  1  0.56837134  0.68052231  0.09903862  1
  O2-  O154  1  0.56873145  0.67665938  0.42300794  1
  O2-  O155  1  0.57065629  0.68191724  0.76341591  1
  O2-  O156  1  0.18173657  0.42857411  0.24193416  1
  O2-  O157  1  0.18301926  0.42831366  0.56429486  1
  O2-  O158  1  0.18316677  0.42711144  0.90351712  1
  O2-  O159  1  0.18297598  0.93045591  0.23192142  1
  O2-  O160  1  0.17757686  0.92913156  0.56758218  1
  O2-  O161  1  0.17736720  0.93260225  0.90918106  1
  O2-  O162  1  0.67835617  0.43244166  0.23262418  1
  O2-  O163  1  0.67987091  0.42807632  0.56785581  1
  O2-  O164  1  0.67753050  0.42134866  0.91025304  1
  O2-  O165  1  0.67536944  0.93125047  0.24316018  1
  O2-  O166  1  0.68009575  0.93205980  0.56456674  1
  O2-  O167  1  0.67972034  0.93213933  0.90130330  1
  O2-  O168  1  0.42644421  0.31885076  0.08977646  1
  O2-  O169  1  0.43059391  0.32027431  0.43293500  1
  O2-  O170  1  0.42533400  0.31668346  0.75765572  1
  O2-  O171  1  0.42765952  0.82340351  0.09677936  1
  O2-  O172  1  0.42975391  0.81698762  0.43531261  1
  O2-  O173  1  0.42569404  0.82255490  0.75508525  1
  O2-  O174  1  0.92882219  0.31946775  0.09756667  1
  O2-  O175  1  0.92950825  0.31904385  0.43392280  1
  O2-  O176  1  0.93075160  0.32421062  0.75687685  1
  O2-  O177  1  0.93328453  0.82003706  0.09833371  1
  O2-  O178  1  0.92715390  0.82137942  0.43120278  1
  O2-  O179  1  0.92880188  0.81890583  0.76656313  1
  O2-  O180  1  0.32644486  0.07283874  0.24658860  1
  O2-  O181  1  0.32124677  0.07326407  0.57822281  1
  O2-  O182  1  0.32127423  0.07443282  0.91231783  1
  O2-  O183  1  0.32248600  0.56845739  0.24261324  1
  O2-  O184  1  0.32351643  0.57480755  0.57913922  1
  O2-  O185  1  0.32319573  0.56771633  0.91207666  1
  O2-  O186  1  0.81663174  0.07235219  0.24322137  1
  O2-  O187  1  0.82372540  0.07082825  0.57694311  1
  O2-  O188  1  0.82121298  0.07652565  0.91137100  1
  O2-  O189  1  0.82203021  0.57440741  0.24652857  1
  O2-  O190  1  0.82016672  0.57018126  0.56802362  1
  O2-  O191  1  0.81779281  0.57133317  0.90447536  1
  O2-  O192  1  0.03869497  0.08299149  0.26202308  1
  O2-  O193  1  0.03810949  0.08624069  0.59813237  1
  O2-  O194  1  0.04752745  0.08611245  0.93533017  1
  O2-  O195  1  0.04655921  0.58008998  0.26549810  1
  O2-  O196  1  0.04713019  0.58377340  0.60713058  1
  O2-  O197  1  0.04389440  0.58267479  0.93969034  1
  O2-  O198  1  0.54519040  0.08463648  0.26750466  1
  O2-  O199  1  0.53594014  0.08499338  0.59615278  1
  O2-  O200  1  0.53621483  0.09041872  0.93867817  1
  O2-  O201  1  0.53983563  0.58653966  0.26990839  1
  O2-  O202  1  0.53935351  0.58189825  0.59753722  1
  O2-  O203  1  0.54208942  0.58146790  0.93101377  1
  O2-  O204  1  0.17310967  0.19839826  0.26602785  1
  O2-  O205  1  0.16856650  0.20923947  0.59960524  1
  O2-  O206  1  0.16744725  0.20575200  0.93702034  1
  O2-  O207  1  0.17001262  0.70638349  0.26405233  1
  O2-  O208  1  0.16996226  0.69897834  0.60919158  1
  O2-  O209  1  0.16712799  0.69636482  0.93647762  1
  O2-  O210  1  0.66652111  0.20116557  0.26832647  1
  O2-  O211  1  0.67050993  0.20216215  0.59783219  1
  O2-  O212  1  0.66271361  0.20167182  0.93781824  1
  O2-  O213  1  0.66701974  0.69712077  0.27424210  1
  O2-  O214  1  0.66356371  0.71367982  0.59339298  1
  O2-  O215  1  0.66945744  0.71002948  0.93413439  1
  O2-  O216  1  0.08402995  0.45951932  0.07095387  1
  O2-  O217  1  0.08675380  0.45307355  0.39346310  1
  O2-  O218  1  0.08550766  0.45817149  0.73541276  1
  O2-  O219  1  0.08721530  0.95984800  0.06202947  1
  O2-  O220  1  0.08161272  0.95991549  0.39653739  1
  O2-  O221  1  0.08192736  0.96511474  0.73522935  1
  O2-  O222  1  0.57954325  0.44768632  0.05749718  1
  O2-  O223  1  0.58271865  0.45987683  0.40024825  1
  O2-  O224  1  0.57656967  0.45062916  0.73152029  1
  O2-  O225  1  0.58345182  0.96489576  0.06779202  1
  O2-  O226  1  0.58643336  0.95860821  0.39642880  1
  O2-  O227  1  0.58186673  0.96175830  0.73146723  1
  O2-  O228  1  0.21288541  0.33278031  0.07063847  1
  O2-  O229  1  0.21031416  0.33489635  0.39152677  1
  O2-  O230  1  0.21454632  0.33366800  0.73390910  1
  O2-  O231  1  0.20227910  0.83398823  0.05797333  1
  O2-  O232  1  0.21326985  0.83312331  0.39893500  1
  O2-  O233  1  0.20422046  0.83277410  0.73754342  1
  O2-  O234  1  0.70219571  0.33059477  0.06169547  1
  O2-  O235  1  0.70695382  0.33038711  0.39728895  1
  O2-  O236  1  0.70195599  0.32564507  0.73173364  1
  O2-  O237  1  0.70933710  0.83520377  0.07060863  1
  O2-  O238  1  0.70143668  0.83418156  0.39323089  1
  O2-  O239  1  0.71226792  0.83538752  0.73086376  1
  O2-  O240  1  0.46104357  0.41709961  0.26353390  1
  O2-  O241  1  0.44402343  0.41761916  0.60814010  1
  O2-  O242  1  0.44644239  0.41317549  0.93669167  1
  O2-  O243  1  0.45639447  0.91884443  0.26857171  1
  O2-  O244  1  0.45037619  0.91616115  0.60397178  1
  O2-  O245  1  0.45041511  0.92558758  0.93379015  1
  O2-  O246  1  0.95165235  0.42036345  0.26803872  1
  O2-  O247  1  0.95463966  0.42026057  0.60755419  1
  O2-  O248  1  0.96097087  0.41912743  0.93340444  1
  O2-  O249  1  0.95357390  0.91882938  0.26334435  1
  O2-  O250  1  0.95810046  0.91741274  0.60083606  1
  O2-  O251  1  0.95907056  0.91849807  0.93199477  1
  O2-  O252  1  0.33692563  0.28954513  0.26165722  1
  O2-  O253  1  0.33843172  0.28785725  0.60292044  1
  O2-  O254  1  0.33728452  0.28471264  0.93771032  1
  O2-  O255  1  0.33708794  0.78634834  0.26589854  1
  O2-  O256  1  0.33075312  0.79540597  0.60615266  1
  O2-  O257  1  0.32889647  0.79433627  0.92917086  1
  O2-  O258  1  0.83219711  0.28631432  0.26552824  1
  O2-  O259  1  0.83550293  0.30014832  0.60556136  1
  O2-  O260  1  0.83302759  0.29052231  0.92902099  1
  O2-  O261  1  0.82805773  0.79221035  0.26512078  1
  O2-  O262  1  0.83532171  0.78734280  0.59687047  1
  O2-  O263  1  0.83324116  0.78826877  0.93590737  1
  O2-  O264  1  0.41214270  0.04659625  0.06781183  1
  O2-  O265  1  0.41836230  0.04787767  0.39827745  1
  O2-  O266  1  0.41402427  0.04549491  0.73089883  1
  O2-  O267  1  0.41639973  0.54332112  0.06399344  1
  O2-  O268  1  0.41169905  0.54018008  0.39663607  1
  O2-  O269  1  0.41579125  0.54648275  0.73244595  1
  O2-  O270  1  0.91845310  0.05095122  0.06104180  1
  O2-  O271  1  0.91250407  0.04335861  0.39470246  1
  O2-  O272  1  0.91574193  0.04667490  0.73084351  1
  O2-  O273  1  0.91439642  0.53974674  0.07204232  1
  O2-  O274  1  0.91804132  0.54826319  0.39724985  1
  O2-  O275  1  0.91796402  0.54792602  0.73775448  1
  O2-  O276  1  0.29016641  0.16029349  0.06754461  1
  O2-  O277  1  0.30102899  0.16852599  0.39724291  1
  O2-  O278  1  0.29415749  0.16361804  0.73233211  1
  O2-  O279  1  0.29969802  0.66708451  0.06106759  1
  O2-  O280  1  0.29355551  0.66092390  0.39643245  1
  O2-  O281  1  0.30040646  0.66676013  0.73393690  1
  O2-  O282  1  0.79313403  0.16643141  0.06418323  1
  O2-  O283  1  0.79057236  0.15968338  0.39867928  1
  O2-  O284  1  0.80084162  0.16765090  0.72716114  1
  O2-  O285  1  0.78628484  0.66527851  0.07414691  1
  O2-  O286  1  0.79636552  0.66612808  0.39869319  1
  O2-  O287  1  0.78520972  0.66876234  0.73276164  1
