# generated using pymatgen
data_Ca2Al2SiO7
_symmetry_space_group_name_H-M   'P 1'
_cell_length_a   15.45774277
_cell_length_b   15.45752534
_cell_length_c   15.28366930
_cell_angle_alpha   90.00476683
_cell_angle_beta   90.00720920
_cell_angle_gamma   89.98751361
_symmetry_Int_Tables_number   1
_chemical_formula_structural   Ca2Al2SiO7
_chemical_formula_sum   'Ca48 Al48 Si24 O168'
_cell_volume   3651.85613498
_cell_formula_units_Z   24
loop_
 _symmetry_equiv_pos_site_id
 _symmetry_equiv_pos_as_xyz
  1  'x, y, z'
loop_
 _atom_type_symbol
 _atom_type_oxidation_number
  Ca2+  2.0
  Al0+  0.0
  Si0+  0.0
  O2-  -2.0
loop_
 _atom_site_type_symbol
 _atom_site_label
 _atom_site_symmetry_multiplicity
 _atom_site_fract_x
 _atom_site_fract_y
 _atom_site_fract_z
 _atom_site_occupancy
  Ca2+  Ca0  1  0.17031383  0.07304505  0.17647115  1
  Ca2+  Ca1  1  0.15871980  0.07916666  0.50309223  1
  Ca2+  Ca2  1  0.15961879  0.07151670  0.83616512  1
  Ca2+  Ca3  1  0.17099459  0.58784259  0.17602261  1
  Ca2+  Ca4  1  0.17125963  0.58916085  0.49627524  1
  Ca2+  Ca5  1  0.16567857  0.58366024  0.84166404  1
  Ca2+  Ca6  1  0.66184074  0.07342845  0.17451139  1
  Ca2+  Ca7  1  0.66369717  0.07836871  0.49786635  1
  Ca2+  Ca8  1  0.67084199  0.07561574  0.84185262  1
  Ca2+  Ca9  1  0.67443981  0.58878463  0.16798025  1
  Ca2+  Ca10  1  0.67291406  0.57562063  0.51239131  1
  Ca2+  Ca11  1  0.67633769  0.58999079  0.83544783  1
  Ca2+  Ca12  1  0.07590399  0.32936471  0.16516349  1
  Ca2+  Ca13  1  0.07935023  0.32182881  0.49034106  1
  Ca2+  Ca14  1  0.07549957  0.32755565  0.83012307  1
  Ca2+  Ca15  1  0.09105667  0.82605710  0.16396738  1
  Ca2+  Ca16  1  0.07396642  0.83570281  0.49237078  1
  Ca2+  Ca17  1  0.08338214  0.83046639  0.82773866  1
  Ca2+  Ca18  1  0.57241249  0.32729032  0.16533385  1
  Ca2+  Ca19  1  0.58251422  0.32835471  0.49072360  1
  Ca2+  Ca20  1  0.57830043  0.34097658  0.83089884  1
  Ca2+  Ca21  1  0.57770041  0.83461667  0.15661823  1
  Ca2+  Ca22  1  0.58732083  0.82571753  0.49427704  1
  Ca2+  Ca23  1  0.58889236  0.82405678  0.83364214  1
  Ca2+  Ca24  1  0.34034073  0.42242612  0.17399741  1
  Ca2+  Ca25  1  0.33809585  0.42067521  0.49798848  1
  Ca2+  Ca26  1  0.33217795  0.41695276  0.83853415  1
  Ca2+  Ca27  1  0.32544210  0.91603313  0.17538102  1
  Ca2+  Ca28  1  0.31799643  0.92366494  0.50016427  1
  Ca2+  Ca29  1  0.32288664  0.91219119  0.84086281  1
  Ca2+  Ca30  1  0.84238963  0.42018583  0.16934478  1
  Ca2+  Ca31  1  0.83099144  0.42098525  0.50835451  1
  Ca2+  Ca32  1  0.83104938  0.42744494  0.84154974  1
  Ca2+  Ca33  1  0.82000240  0.90806748  0.17215443  1
  Ca2+  Ca34  1  0.83332887  0.90905302  0.50084895  1
  Ca2+  Ca35  1  0.83164126  0.91404822  0.83807517  1
  Ca2+  Ca36  1  0.41307909  0.17008200  0.16742340  1
  Ca2+  Ca37  1  0.42099303  0.17094906  0.48686821  1
  Ca2+  Ca38  1  0.41492493  0.17226121  0.83353060  1
  Ca2+  Ca39  1  0.42178275  0.67197830  0.15769858  1
  Ca2+  Ca40  1  0.42208808  0.66426528  0.49606209  1
  Ca2+  Ca41  1  0.42839970  0.67347696  0.83359112  1
  Ca2+  Ca42  1  0.91730284  0.17650605  0.16759348  1
  Ca2+  Ca43  1  0.92647534  0.17069661  0.49138594  1
  Ca2+  Ca44  1  0.91954291  0.17032530  0.82921518  1
  Ca2+  Ca45  1  0.92807102  0.66949125  0.16351845  1
  Ca2+  Ca46  1  0.91838221  0.67511242  0.49442862  1
  Ca2+  Ca47  1  0.91580080  0.66927557  0.83089087  1
  Al0+  Al48  1  -0.00013958  0.00003065  0.00783851  1
  Al0+  Al49  1  -0.00533660  0.00018088  0.32687294  1
  Al0+  Al50  1  -0.00069914  -0.00094072  0.66448739  1
  Al0+  Al51  1  -0.00007363  0.49958662  -0.00394161  1
  Al0+  Al52  1  0.00198589  0.50212777  0.33063782  1
  Al0+  Al53  1  0.00155901  0.50102533  0.67012508  1
  Al0+  Al54  1  0.49807123  0.00180730  -0.00208017  1
  Al0+  Al55  1  0.49953752  -0.00226134  0.34080658  1
  Al0+  Al56  1  0.49736516  0.00113800  0.66795362  1
  Al0+  Al57  1  0.50154037  0.49914093  -0.00799703  1
  Al0+  Al58  1  0.50184249  0.49956592  0.33481320  1
  Al0+  Al59  1  0.49942139  0.50081665  0.66681207  1
  Al0+  Al60  1  0.24933126  0.24894843  -0.00514799  1
  Al0+  Al61  1  0.25003371  0.25192295  0.32884795  1
  Al0+  Al62  1  0.25080793  0.25028253  0.66355294  1
  Al0+  Al63  1  0.25096300  0.74843528  -0.00481639  1
  Al0+  Al64  1  0.25175818  0.75023220  0.34228365  1
  Al0+  Al65  1  0.25128749  0.75080913  0.67039260  1
  Al0+  Al66  1  0.74959683  0.25180777  -0.00375672  1
  Al0+  Al67  1  0.74815261  0.24847083  0.32519673  1
  Al0+  Al68  1  0.74725884  0.24948416  0.67147299  1
  Al0+  Al69  1  0.75213901  0.74907805  0.00630586  1
  Al0+  Al70  1  0.75134187  0.74819766  0.33527916  1
  Al0+  Al71  1  0.74968976  0.74875554  0.66208402  1
  Al0+  Al72  1  0.92865832  0.32112296  0.98380686  1
  Al0+  Al73  1  0.92613765  0.82127262  0.31587924  1
  Al0+  Al74  1  0.92819513  0.32246270  0.32034929  1
  Al0+  Al75  1  0.31984080  0.07332655  0.34800258  1
  Al0+  Al76  1  0.67976681  0.93045296  0.01220735  1
  Al0+  Al77  1  0.57428832  0.68016234  0.98582163  1
  Al0+  Al78  1  0.07261318  0.17653619  0.31631058  1
  Al0+  Al79  1  0.07151866  0.67997072  0.98574044  1
  Al0+  Al80  1  0.42868934  0.32033732  0.98440457  1
  Al0+  Al81  1  0.82183370  0.56962311  0.01706823  1
  Al0+  Al82  1  0.17812523  0.93089573  0.68149707  1
  Al0+  Al83  1  0.93017586  0.81891490  0.65451558  1
  Al0+  Al84  1  0.18002172  0.92685459  0.01438186  1
  Al0+  Al85  1  0.67921236  0.92739623  0.34884023  1
  Al0+  Al86  1  0.56918135  0.68110208  0.65123968  1
  Al0+  Al87  1  0.06914949  0.18015270  0.65432790  1
  Al0+  Al88  1  0.67795442  0.42739939  0.68260955  1
  Al0+  Al89  1  0.42919832  0.32269243  0.31938140  1
  Al0+  Al90  1  0.17536313  0.92968964  0.34926803  1
  Al0+  Al91  1  0.32345312  0.57083268  0.34640193  1
  Al0+  Al92  1  0.82212302  0.57186594  0.68201989  1
  Al0+  Al93  1  0.56959958  0.17536697  0.31835476  1
  Al0+  Al94  1  0.42802455  0.82347773  0.98587140  1
  Al0+  Al95  1  0.07317545  0.68268013  0.32013292  1
  Si0+  Si96  1  0.42978652  0.32073033  0.65040871  1
  Si0+  Si97  1  0.82195988  0.07540015  0.01787337  1
  Si0+  Si98  1  0.81909388  0.07455702  0.34976064  1
  Si0+  Si99  1  0.67653830  0.42742088  0.01904772  1
  Si0+  Si100  1  0.32195723  0.07410740  0.68510744  1
  Si0+  Si101  1  0.17932160  0.42771593  0.01350197  1
  Si0+  Si102  1  0.32064541  0.07385320  0.01577905  1
  Si0+  Si103  1  0.92670943  0.32287143  0.65251900  1
  Si0+  Si104  1  0.18062349  0.42707261  0.68152909  1
  Si0+  Si105  1  0.42612543  0.82358847  0.64764657  1
  Si0+  Si106  1  0.57166082  0.67762567  0.31947233  1
  Si0+  Si107  1  0.17680945  0.42931408  0.34927536  1
  Si0+  Si108  1  0.82309348  0.56930358  0.34912637  1
  Si0+  Si109  1  0.43080548  0.81887902  0.32240612  1
  Si0+  Si110  1  0.57190633  0.17774062  0.98137628  1
  Si0+  Si111  1  0.67749024  0.92884475  0.68069415  1
  Si0+  Si112  1  0.32170468  0.56819952  0.01238299  1
  Si0+  Si113  1  0.07569621  0.67596986  0.65018837  1
  Si0+  Si114  1  0.92890260  0.82237449  0.98533230  1
  Si0+  Si115  1  0.68019862  0.42875117  0.34562064  1
  Si0+  Si116  1  0.82052512  0.07027710  0.68045530  1
  Si0+  Si117  1  0.32115323  0.57088581  0.68420162  1
  Si0+  Si118  1  0.57153845  0.17694158  0.65234229  1
  Si0+  Si119  1  0.07077936  0.17671183  0.98274506  1
  O2-  O120  1  0.25595917  0.00135827  0.05883398  1
  O2-  O121  1  0.24119078  0.00863664  0.39877253  1
  O2-  O122  1  0.25414278  0.00462188  0.72894060  1
  O2-  O123  1  0.25164079  0.49715391  0.05586529  1
  O2-  O124  1  0.24841660  0.49581366  0.39335944  1
  O2-  O125  1  0.24717612  0.50203016  0.72525096  1
  O2-  O126  1  0.75243796  0.00660643  0.06012833  1
  O2-  O127  1  0.75396955  0.00257197  0.39538972  1
  O2-  O128  1  0.74796805  0.00041821  0.72262128  1
  O2-  O129  1  0.74630467  0.49467141  0.06386742  1
  O2-  O130  1  0.75486685  0.49480085  0.38940950  1
  O2-  O131  1  0.75190815  0.49760202  0.73214481  1
  O2-  O132  1  0.00077076  0.25101919  0.26981922  1
  O2-  O133  1  -0.00423402  0.25593365  0.60733779  1
  O2-  O134  1  0.00014849  0.24312089  0.93768133  1
  O2-  O135  1  0.00466215  0.75591906  0.26716211  1
  O2-  O136  1  0.00504853  0.74353137  0.60869128  1
  O2-  O137  1  -0.00025156  0.75739271  0.93922882  1
  O2-  O138  1  0.49510508  0.24528178  0.26942646  1
  O2-  O139  1  0.50238710  0.25029590  0.61088142  1
  O2-  O140  1  0.50445660  0.24744800  0.93613703  1
  O2-  O141  1  0.50191804  0.74932522  0.27775102  1
  O2-  O142  1  0.49634660  0.75673527  0.60272490  1
  O2-  O143  1  0.50464226  0.75546813  0.93655982  1
  O2-  O144  1  0.07273821  0.17933875  0.08767019  1
  O2-  O145  1  0.06953507  0.17970732  0.43065202  1
  O2-  O146  1  0.06640995  0.18123470  0.76763524  1
  O2-  O147  1  0.07440163  0.67896962  0.09827374  1
  O2-  O148  1  0.07052720  0.68050449  0.43399747  1
  O2-  O149  1  0.07716869  0.67648386  0.75587556  1
  O2-  O150  1  0.57083576  0.17694714  0.08645212  1
  O2-  O151  1  0.57145680  0.17946933  0.43274277  1
  O2-  O152  1  0.57020791  0.17401385  0.75724349  1
  O2-  O153  1  0.57097020  0.67936004  0.09986248  1
  O2-  O154  1  0.57060383  0.67717976  0.42474410  1
  O2-  O155  1  0.56961568  0.68380361  0.76399440  1
  O2-  O156  1  0.17475488  0.43222411  0.24360148  1
  O2-  O157  1  0.18272679  0.42459900  0.57685096  1
  O2-  O158  1  0.18127918  0.42865276  0.90766188  1
  O2-  O159  1  0.18353684  0.92511279  0.23592488  1
  O2-  O160  1  0.17702347  0.93264975  0.56902251  1
  O2-  O161  1  0.17838251  0.92929798  0.90074776  1
  O2-  O162  1  0.67736722  0.43303941  0.24088526  1
  O2-  O163  1  0.67915697  0.42642783  0.56832581  1
  O2-  O164  1  0.67765355  0.42802596  0.91340523  1
  O2-  O165  1  0.67755781  0.92662583  0.23577679  1
  O2-  O166  1  0.67706190  0.93010839  0.57578926  1
  O2-  O167  1  0.68380797  0.93134071  0.89822021  1
  O2-  O168  1  0.42865121  0.32114272  0.09669524  1
  O2-  O169  1  0.43595296  0.32598953  0.43332497  1
  O2-  O170  1  0.42801461  0.31972743  0.75569591  1
  O2-  O171  1  0.42755587  0.81989083  0.09996296  1
  O2-  O172  1  0.43289639  0.81605542  0.42759278  1
  O2-  O173  1  0.42628452  0.82204076  0.75315011  1
  O2-  O174  1  0.93228590  0.32081762  0.09653201  1
  O2-  O175  1  0.92805310  0.32203650  0.43458311  1
  O2-  O176  1  0.92861579  0.32072308  0.75804338  1
  O2-  O177  1  0.92802638  0.81934288  0.09031841  1
  O2-  O178  1  0.92398993  0.81548792  0.42979176  1
  O2-  O179  1  0.93027255  0.82047183  0.76786145  1
  O2-  O180  1  0.32209471  0.06735012  0.23432478  1
  O2-  O181  1  0.32336041  0.07528795  0.58012928  1
  O2-  O182  1  0.31777489  0.07671744  0.90982058  1
  O2-  O183  1  0.32556173  0.57081179  0.23312693  1
  O2-  O184  1  0.32268361  0.56925074  0.57908025  1
  O2-  O185  1  0.31990861  0.56624205  0.90690127  1
  O2-  O186  1  0.81468631  0.07755699  0.24446728  1
  O2-  O187  1  0.81929525  0.07244220  0.57576285  1
  O2-  O188  1  0.82211400  0.07438984  0.91132839  1
  O2-  O189  1  0.82205079  0.57018793  0.24410626  1
  O2-  O190  1  0.82046197  0.56976922  0.56793276  1
  O2-  O191  1  0.82131986  0.57023005  0.90401629  1
  O2-  O192  1  0.04289705  0.07993269  0.26202021  1
  O2-  O193  1  0.03570245  0.08540684  0.60001295  1
  O2-  O194  1  0.04399786  0.08199630  0.93886995  1
  O2-  O195  1  0.04509157  0.58449425  0.26691660  1
  O2-  O196  1  0.05382482  0.58055465  0.60575534  1
  O2-  O197  1  0.04028893  0.58399985  0.93076817  1
  O2-  O198  1  0.54220883  0.07528869  0.26910636  1
  O2-  O199  1  0.54236918  0.08572169  0.60401450  1
  O2-  O200  1  0.54521618  0.08548464  0.93259830  1
  O2-  O201  1  0.54335819  0.58692452  0.27173476  1
  O2-  O202  1  0.53622768  0.58401354  0.59856053  1
  O2-  O203  1  0.54401430  0.58360721  0.93065990  1
  O2-  O204  1  0.17063826  0.20432685  0.26348263  1
  O2-  O205  1  0.16630007  0.21029180  0.60097892  1
  O2-  O206  1  0.16266162  0.20410506  0.93391270  1
  O2-  O207  1  0.17449975  0.70730125  0.27072614  1
  O2-  O208  1  0.16988889  0.70219034  0.60574778  1
  O2-  O209  1  0.16779687  0.70699557  0.92921466  1
  O2-  O210  1  0.66524799  0.20492186  0.26188348  1
  O2-  O211  1  0.66431392  0.20263245  0.60559240  1
  O2-  O212  1  0.66599576  0.20144940  0.93508312  1
  O2-  O213  1  0.66398923  0.70408252  0.27394261  1
  O2-  O214  1  0.66514828  0.71007941  0.59554260  1
  O2-  O215  1  0.67304080  0.71000134  0.93410063  1
  O2-  O216  1  0.08797590  0.45611994  0.05961294  1
  O2-  O217  1  0.08522330  0.45804681  0.39877768  1
  O2-  O218  1  0.08761661  0.45042615  0.72937598  1
  O2-  O219  1  0.08348703  0.95581873  0.06912687  1
  O2-  O220  1  0.07244715  0.95226697  0.39541343  1
  O2-  O221  1  0.08174330  0.96347951  0.73575211  1
  O2-  O222  1  0.58181473  0.45386265  0.06219546  1
  O2-  O223  1  0.59137314  0.46033813  0.39695411  1
  O2-  O224  1  0.57892112  0.45741357  0.73368311  1
  O2-  O225  1  0.58094271  0.95957085  0.06334621  1
  O2-  O226  1  0.58420167  0.95658382  0.40679309  1
  O2-  O227  1  0.58522705  0.95625486  0.72788412  1
  O2-  O228  1  0.20572543  0.33473111  0.05854334  1
  O2-  O229  1  0.20037385  0.33500483  0.39437487  1
  O2-  O230  1  0.21310320  0.33730356  0.73113674  1
  O2-  O231  1  0.21296455  0.82952210  0.06535725  1
  O2-  O232  1  0.21109960  0.83500738  0.40604767  1
  O2-  O233  1  0.20894557  0.83336664  0.73481640  1
  O2-  O234  1  0.69997196  0.33200358  0.06226613  1
  O2-  O235  1  0.70317179  0.33434648  0.39024837  1
  O2-  O236  1  0.69990139  0.32757225  0.73694179  1
  O2-  O237  1  0.71013754  0.83514327  0.06831220  1
  O2-  O238  1  0.71206618  0.83073986  0.40337488  1
  O2-  O239  1  0.70723181  0.83729516  0.72625662  1
  O2-  O240  1  0.46548147  0.41860282  0.26502758  1
  O2-  O241  1  0.45563785  0.41336052  0.60439804  1
  O2-  O242  1  0.45855846  0.41570728  0.92694770  1
  O2-  O243  1  0.45776256  0.91054995  0.27600589  1
  O2-  O244  1  0.44922445  0.91911796  0.60470530  1
  O2-  O245  1  0.44857484  0.92374048  0.93296325  1
  O2-  O246  1  0.95794375  0.42007238  0.26701057  1
  O2-  O247  1  0.95162360  0.41757411  0.60868748  1
  O2-  O248  1  0.96406812  0.41486704  0.92780355  1
  O2-  O249  1  0.93850951  0.92304307  0.26617587  1
  O2-  O250  1  0.95937046  0.91512857  0.59912242  1
  O2-  O251  1  0.94958908  0.91902799  0.94274593  1
  O2-  O252  1  0.32887729  0.30543938  0.26719174  1
  O2-  O253  1  0.33874094  0.29277454  0.60216479  1
  O2-  O254  1  0.33260652  0.28866592  0.92784518  1
  O2-  O255  1  0.33925838  0.78994532  0.27647777  1
  O2-  O256  1  0.33327583  0.79422004  0.60223898  1
  O2-  O257  1  0.33428042  0.78730702  0.92844015  1
  O2-  O258  1  0.83125494  0.29467786  0.26427417  1
  O2-  O259  1  0.83193400  0.29660382  0.60951698  1
  O2-  O260  1  0.83076811  0.29438771  0.92976884  1
  O2-  O261  1  0.83013106  0.78361572  0.26308579  1
  O2-  O262  1  0.83413198  0.78981380  0.59845765  1
  O2-  O263  1  0.83636763  0.79341733  0.93919781  1
  O2-  O264  1  0.41661612  0.05515876  0.05889387  1
  O2-  O265  1  0.41525661  0.03938321  0.40486399  1
  O2-  O266  1  0.41599223  0.04983929  0.73245506  1
  O2-  O267  1  0.41453658  0.54041393  0.05769228  1
  O2-  O268  1  0.41884090  0.53736732  0.40345155  1
  O2-  O269  1  0.41116989  0.53915668  0.73234094  1
  O2-  O270  1  0.91517620  0.05219792  0.06480579  1
  O2-  O271  1  0.91426347  0.05264835  0.39372653  1
  O2-  O272  1  0.91050319  0.04032011  0.72985715  1
  O2-  O273  1  0.91896699  0.53575933  0.06852564  1
  O2-  O274  1  0.91571115  0.54470183  0.39641430  1
  O2-  O275  1  0.92252136  0.54857831  0.73438760  1
  O2-  O276  1  0.29112202  0.16645113  0.06230675  1
  O2-  O277  1  0.30184362  0.17644480  0.39638323  1
  O2-  O278  1  0.29593948  0.16829911  0.73071418  1
  O2-  O279  1  0.29430782  0.66018002  0.05853105  1
  O2-  O280  1  0.29355781  0.66456861  0.40667384  1
  O2-  O281  1  0.29678110  0.66344253  0.73152153  1
  O2-  O282  1  0.79598826  0.16973894  0.06177379  1
  O2-  O283  1  0.79001375  0.16714586  0.39750642  1
  O2-  O284  1  0.79324086  0.16134034  0.73077440  1
  O2-  O285  1  0.79150713  0.66506003  0.07309757  1
  O2-  O286  1  0.79054716  0.65884111  0.39767956  1
  O2-  O287  1  0.78866596  0.66973963  0.73401374  1
