# generated using pymatgen
data_Ca2Al2SiO7
_symmetry_space_group_name_H-M   'P 1'
_cell_length_a   15.47132409
_cell_length_b   15.46729288
_cell_length_c   15.29301456
_cell_angle_alpha   89.99115310
_cell_angle_beta   90.00906816
_cell_angle_gamma   90.00912242
_symmetry_Int_Tables_number   1
_chemical_formula_structural   Ca2Al2SiO7
_chemical_formula_sum   'Ca48 Al48 Si24 O168'
_cell_volume   3659.61061640
_cell_formula_units_Z   24
loop_
 _symmetry_equiv_pos_site_id
 _symmetry_equiv_pos_as_xyz
  1  'x, y, z'
loop_
 _atom_type_symbol
 _atom_type_oxidation_number
  Ca2+  2.0
  Al0+  0.0
  Si0+  0.0
  O2-  -2.0
loop_
 _atom_site_type_symbol
 _atom_site_label
 _atom_site_symmetry_multiplicity
 _atom_site_fract_x
 _atom_site_fract_y
 _atom_site_fract_z
 _atom_site_occupancy
  Ca2+  Ca0  1  0.16732620  0.07331301  0.17330538  1
  Ca2+  Ca1  1  0.17197285  0.08210311  0.50341068  1
  Ca2+  Ca2  1  0.18024436  0.07887182  0.83517471  1
  Ca2+  Ca3  1  0.18354038  0.58533730  0.17241316  1
  Ca2+  Ca4  1  0.17970379  0.57877898  0.51074878  1
  Ca2+  Ca5  1  0.17756845  0.58411610  0.83112656  1
  Ca2+  Ca6  1  0.67126183  0.08772659  0.17121206  1
  Ca2+  Ca7  1  0.66543534  0.08388901  0.51327355  1
  Ca2+  Ca8  1  0.66988542  0.08216018  0.83232164  1
  Ca2+  Ca9  1  0.65263772  0.57464565  0.17120975  1
  Ca2+  Ca10  1  0.65486174  0.57550056  0.50399711  1
  Ca2+  Ca11  1  0.64573685  0.57220981  0.83379099  1
  Ca2+  Ca12  1  0.08466265  0.32435901  0.16481460  1
  Ca2+  Ca13  1  0.08480517  0.32969970  0.49559183  1
  Ca2+  Ca14  1  0.07835869  0.33858511  0.82333912  1
  Ca2+  Ca15  1  0.08711195  0.83891301  0.16141286  1
  Ca2+  Ca16  1  0.08704052  0.82992044  0.49878290  1
  Ca2+  Ca17  1  0.08522429  0.83040463  0.82886540  1
  Ca2+  Ca18  1  0.58404519  0.33655548  0.16985464  1
  Ca2+  Ca19  1  0.57768283  0.32985607  0.49679395  1
  Ca2+  Ca20  1  0.58169950  0.33120741  0.82346507  1
  Ca2+  Ca21  1  0.57490620  0.81762390  0.15539215  1
  Ca2+  Ca22  1  0.57921729  0.82731253  0.49854492  1
  Ca2+  Ca23  1  0.57557913  0.82411715  0.82079984  1
  Ca2+  Ca24  1  0.34318247  0.42818780  0.17302612  1
  Ca2+  Ca25  1  0.33842152  0.42262960  0.50752266  1
  Ca2+  Ca26  1  0.34355815  0.43081851  0.83101760  1
  Ca2+  Ca27  1  0.32344126  0.90692096  0.16846282  1
  Ca2+  Ca28  1  0.33325831  0.92170719  0.50739503  1
  Ca2+  Ca29  1  0.33743216  0.91513154  0.83554775  1
  Ca2+  Ca30  1  0.82002144  0.41913433  0.17047255  1
  Ca2+  Ca31  1  0.81832298  0.41397489  0.50487397  1
  Ca2+  Ca32  1  0.81862101  0.41802069  0.83562296  1
  Ca2+  Ca33  1  0.83227214  0.92185044  0.16838202  1
  Ca2+  Ca34  1  0.82208813  0.92428871  0.50971357  1
  Ca2+  Ca35  1  0.82455953  0.92395042  0.83113979  1
  Ca2+  Ca36  1  0.42071766  0.17485116  0.16785153  1
  Ca2+  Ca37  1  0.42205318  0.17582301  0.49749925  1
  Ca2+  Ca38  1  0.42102606  0.17349366  0.81794501  1
  Ca2+  Ca39  1  0.42119588  0.66342134  0.16135441  1
  Ca2+  Ca40  1  0.42166810  0.66272513  0.50116455  1
  Ca2+  Ca41  1  0.41638784  0.67477853  0.82960392  1
  Ca2+  Ca42  1  0.92063922  0.16246117  0.16366404  1
  Ca2+  Ca43  1  0.92169408  0.16350809  0.49603775  1
  Ca2+  Ca44  1  0.91496515  0.15977301  0.83010570  1
  Ca2+  Ca45  1  0.92170930  0.66871031  0.16285770  1
  Ca2+  Ca46  1  0.92606596  0.66256811  0.49989516  1
  Ca2+  Ca47  1  0.92806128  0.66340110  0.82364590  1
  Al0+  Al48  1  0.00088533  -0.00013857  0.00514003  1
  Al0+  Al49  1  -0.00029819  -0.00057539  0.33399925  1
  Al0+  Al50  1  -0.00101450  -0.00028358  0.66932436  1
  Al0+  Al51  1  -0.00164254  0.49757197  0.00080259  1
  Al0+  Al52  1  -0.00008804  0.50120793  0.32922233  1
  Al0+  Al53  1  -0.00052629  0.49923451  0.66276544  1
  Al0+  Al54  1  0.50065462  0.00138580  -0.00018721  1
  Al0+  Al55  1  0.49893305  0.00019150  0.32673818  1
  Al0+  Al56  1  0.49965932  -0.00069572  0.66840531  1
  Al0+  Al57  1  0.49842961  0.49801356  0.00560588  1
  Al0+  Al58  1  0.50052665  0.50052535  0.33581411  1
  Al0+  Al59  1  0.49790361  0.50113200  0.66882505  1
  Al0+  Al60  1  0.24930060  0.24820257  -0.00114144  1
  Al0+  Al61  1  0.24909016  0.24975833  0.32173205  1
  Al0+  Al62  1  0.24703445  0.24856470  0.67083713  1
  Al0+  Al63  1  0.25006242  0.74890923  0.00432160  1
  Al0+  Al64  1  0.24927106  0.74933880  0.34350477  1
  Al0+  Al65  1  0.24856547  0.74881946  0.66108967  1
  Al0+  Al66  1  0.75183449  0.25128758  0.00882416  1
  Al0+  Al67  1  0.75130800  0.25168622  0.33427484  1
  Al0+  Al68  1  0.75242414  0.25206111  0.67144202  1
  Al0+  Al69  1  0.75212480  0.74831552  -0.00562179  1
  Al0+  Al70  1  0.75220444  0.75055690  0.32827644  1
  Al0+  Al71  1  0.75202661  0.75084439  0.66644937  1
  Al0+  Al72  1  0.43011117  0.32195259  0.31790171  1
  Al0+  Al73  1  0.82135014  0.07237497  0.68063856  1
  Al0+  Al74  1  0.17695283  0.42748963  0.67986030  1
  Al0+  Al75  1  0.32131444  0.07073817  0.67764828  1
  Al0+  Al76  1  0.06957218  0.17820618  0.31880021  1
  Al0+  Al77  1  0.42733300  0.82096004  0.98617129  1
  Al0+  Al78  1  0.57092264  0.67626031  0.98391113  1
  Al0+  Al79  1  0.57368648  0.17728124  0.31796282  1
  Al0+  Al80  1  0.68130396  0.43115449  0.34976906  1
  Al0+  Al81  1  0.68010546  0.43227887  0.01511055  1
  Al0+  Al82  1  0.17863222  0.93047630  0.34959242  1
  Al0+  Al83  1  0.67638475  0.92677076  0.68071604  1
  Al0+  Al84  1  0.57065321  0.68138879  0.31965371  1
  Al0+  Al85  1  0.57196077  0.67899138  0.65099459  1
  Al0+  Al86  1  0.57340318  0.18021200  0.65536406  1
  Al0+  Al87  1  0.42730415  0.82258344  0.65005221  1
  Al0+  Al88  1  0.32099773  0.57175528  0.68349926  1
  Al0+  Al89  1  0.81867748  0.06813272  0.01602608  1
  Al0+  Al90  1  0.42654268  0.32111997  0.65386313  1
  Al0+  Al91  1  0.32085258  0.56881613  0.34978914  1
  Al0+  Al92  1  0.31724076  0.56780870  0.01493821  1
  Al0+  Al93  1  0.67878384  0.43222344  0.67957368  1
  Al0+  Al94  1  0.18336943  0.93147823  0.01190914  1
  Al0+  Al95  1  0.07012473  0.67843593  0.65221636  1
  Si0+  Si96  1  0.17776654  0.92803616  0.68222780  1
  Si0+  Si97  1  0.06976799  0.17694244  0.65343493  1
  Si0+  Si98  1  0.06987672  0.67851352  0.98714109  1
  Si0+  Si99  1  0.92778872  0.32325246  0.31488880  1
  Si0+  Si100  1  0.57438641  0.18074573  0.98635367  1
  Si0+  Si101  1  0.17591159  0.42644856  0.34670837  1
  Si0+  Si102  1  0.92918397  0.32126814  0.65134981  1
  Si0+  Si103  1  0.06981809  0.17733997  0.98285944  1
  Si0+  Si104  1  0.17376484  0.42526028  0.01777944  1
  Si0+  Si105  1  0.42541342  0.82276043  0.31695468  1
  Si0+  Si106  1  0.82496359  0.57510916  0.35002231  1
  Si0+  Si107  1  0.82700648  0.57344861  0.01643875  1
  Si0+  Si108  1  0.93072548  0.82082997  0.31692957  1
  Si0+  Si109  1  0.07246279  0.67963145  0.31714013  1
  Si0+  Si110  1  0.81961867  0.07012495  0.34781502  1
  Si0+  Si111  1  0.32522873  0.07605933  0.01860800  1
  Si0+  Si112  1  0.32232979  0.07412548  0.34799997  1
  Si0+  Si113  1  0.92935757  0.82410029  0.64908336  1
  Si0+  Si114  1  0.82365329  0.57221461  0.68135108  1
  Si0+  Si115  1  0.67691501  0.92486052  0.01704064  1
  Si0+  Si116  1  0.92989811  0.82329447  0.98407818  1
  Si0+  Si117  1  0.67873070  0.92788303  0.34409340  1
  Si0+  Si118  1  0.92932994  0.31920459  0.98441239  1
  Si0+  Si119  1  0.42867415  0.31874966  0.98500888  1
  O2-  O120  1  0.26055342  0.00240537  0.06090118  1
  O2-  O121  1  0.25493702  0.00431814  0.39294631  1
  O2-  O122  1  0.25043546  -0.00781056  0.72557538  1
  O2-  O123  1  0.24330780  0.49186721  0.06248875  1
  O2-  O124  1  0.24570314  0.49189708  0.39185203  1
  O2-  O125  1  0.25036565  0.49644605  0.73159014  1
  O2-  O126  1  0.74357247  -0.00531694  0.06400121  1
  O2-  O127  1  0.74188521  0.00604775  0.38769739  1
  O2-  O128  1  0.74606703  0.00303290  0.72876920  1
  O2-  O129  1  0.75115474  0.51267079  0.05953130  1
  O2-  O130  1  0.75629668  0.50735170  0.39416448  1
  O2-  O131  1  0.74847195  0.51219565  0.72685279  1
  O2-  O132  1  -0.00296705  0.25486374  0.27068879  1
  O2-  O133  1  0.00015117  0.24925066  0.61096268  1
  O2-  O134  1  0.00276335  0.25169023  0.94024638  1
  O2-  O135  1  0.00228830  0.75072414  0.27344509  1
  O2-  O136  1  -0.00386330  0.75386747  0.60447571  1
  O2-  O137  1  -0.00387735  0.74668002  0.94417485  1
  O2-  O138  1  0.50226678  0.24959478  0.26730170  1
  O2-  O139  1  0.50009998  0.25013306  0.60487030  1
  O2-  O140  1  0.49725505  0.24478327  0.94435182  1
  O2-  O141  1  0.49597594  0.75612702  0.27308038  1
  O2-  O142  1  0.50091226  0.75185409  0.60069947  1
  O2-  O143  1  0.50507832  0.75511366  0.93653601  1
  O2-  O144  1  0.06755473  0.17746742  0.08801849  1
  O2-  O145  1  0.06698139  0.17786502  0.43199034  1
  O2-  O146  1  0.06728946  0.17503558  0.75860681  1
  O2-  O147  1  0.06820833  0.68009036  0.09258204  1
  O2-  O148  1  0.06903760  0.67863877  0.42169031  1
  O2-  O149  1  0.06812857  0.67993769  0.76604445  1
  O2-  O150  1  0.57516117  0.18331949  0.09143321  1
  O2-  O151  1  0.57500637  0.17613312  0.43080219  1
  O2-  O152  1  0.57398876  0.18364527  0.76969377  1
  O2-  O153  1  0.56789147  0.67629977  0.09803317  1
  O2-  O154  1  0.57292938  0.68354920  0.43193720  1
  O2-  O155  1  0.56969993  0.67946092  0.76437088  1
  O2-  O156  1  0.17291367  0.43042839  0.24083624  1
  O2-  O157  1  0.17387758  0.42868696  0.56617499  1
  O2-  O158  1  0.16932649  0.42682450  0.91291208  1
  O2-  O159  1  0.17788451  0.93050324  0.23612978  1
  O2-  O160  1  0.17391243  0.93273698  0.57673550  1
  O2-  O161  1  0.18067735  0.93359184  0.89921753  1
  O2-  O162  1  0.68390439  0.43241301  0.23639586  1
  O2-  O163  1  0.68186663  0.42966832  0.56681888  1
  O2-  O164  1  0.68188987  0.42960848  0.90227043  1
  O2-  O165  1  0.68508028  0.92634971  0.23906119  1
  O2-  O166  1  0.68057494  0.92658739  0.56630120  1
  O2-  O167  1  0.67930811  0.92628480  0.91216760  1
  O2-  O168  1  0.42882346  0.31893996  0.09004973  1
  O2-  O169  1  0.42902540  0.31992524  0.43088278  1
  O2-  O170  1  0.42916137  0.31997812  0.76825355  1
  O2-  O171  1  0.42548824  0.81634982  0.10013152  1
  O2-  O172  1  0.42695042  0.82560215  0.42194373  1
  O2-  O173  1  0.42597757  0.82054548  0.76370490  1
  O2-  O174  1  0.93085802  0.31817365  0.08946292  1
  O2-  O175  1  0.92783624  0.32278445  0.42033839  1
  O2-  O176  1  0.92964824  0.32316615  0.75662972  1
  O2-  O177  1  0.93151350  0.82441837  0.08964444  1
  O2-  O178  1  0.93021466  0.82071559  0.42149797  1
  O2-  O179  1  0.93279692  0.82549269  0.75487584  1
  O2-  O180  1  0.32024183  0.07325581  0.24216015  1
  O2-  O181  1  0.31631364  0.07317463  0.56458564  1
  O2-  O182  1  0.32146788  0.08148376  0.91346097  1
  O2-  O183  1  0.31844666  0.57018926  0.23612884  1
  O2-  O184  1  0.31940289  0.57027840  0.57016954  1
  O2-  O185  1  0.31534811  0.56900418  0.90270251  1
  O2-  O186  1  0.82235392  0.06695786  0.24249703  1
  O2-  O187  1  0.82512239  0.06983040  0.56674188  1
  O2-  O188  1  0.81928149  0.06737901  0.90363388  1
  O2-  O189  1  0.82852358  0.57450249  0.24430876  1
  O2-  O190  1  0.82848851  0.56672300  0.57593186  1
  O2-  O191  1  0.83936872  0.56753113  0.91213052  1
  O2-  O192  1  0.03374725  0.08280814  0.26420148  1
  O2-  O193  1  0.03964328  0.08630057  0.60458661  1
  O2-  O194  1  0.03666417  0.08698430  0.93677368  1
  O2-  O195  1  0.04478908  0.58844807  0.26741062  1
  O2-  O196  1  0.03562549  0.58388432  0.59587819  1
  O2-  O197  1  0.04343752  0.58539994  0.94150596  1
  O2-  O198  1  0.54688183  0.07915155  0.26138747  1
  O2-  O199  1  0.54886240  0.08043339  0.60548073  1
  O2-  O200  1  0.55523236  0.08547320  0.94250039  1
  O2-  O201  1  0.53758440  0.58509542  0.26764386  1
  O2-  O202  1  0.54020836  0.58112989  0.59955259  1
  O2-  O203  1  0.53462850  0.57864775  0.93504795  1
  O2-  O204  1  0.16424948  0.20520250  0.25904794  1
  O2-  O205  1  0.16086914  0.20310533  0.60511557  1
  O2-  O206  1  0.16375217  0.20041702  0.93746396  1
  O2-  O207  1  0.16451243  0.70938297  0.27211128  1
  O2-  O208  1  0.16414653  0.70859722  0.59486883  1
  O2-  O209  1  0.15979604  0.71003578  0.94021031  1
  O2-  O210  1  0.67311646  0.20687537  0.26609428  1
  O2-  O211  1  0.67270025  0.20890635  0.60412240  1
  O2-  O212  1  0.66526540  0.21437191  0.94133866  1
  O2-  O213  1  0.66861308  0.70925006  0.26472679  1
  O2-  O214  1  0.67365874  0.70221867  0.60137151  1
  O2-  O215  1  0.67447550  0.69250545  0.93593545  1
  O2-  O216  1  0.08020894  0.44991901  0.06518700  1
  O2-  O217  1  0.08164763  0.45258979  0.39170188  1
  O2-  O218  1  0.07887544  0.46014401  0.73293566  1
  O2-  O219  1  0.08815471  0.96487733  0.06846222  1
  O2-  O220  1  0.08171941  0.96215469  0.40243030  1
  O2-  O221  1  0.08604108  0.95706994  0.73031011  1
  O2-  O222  1  0.58356117  0.45901014  0.07086118  1
  O2-  O223  1  0.58528719  0.46180060  0.40214839  1
  O2-  O224  1  0.58202977  0.45834088  0.73470190  1
  O2-  O225  1  0.58238444  0.94835515  0.06238643  1
  O2-  O226  1  0.58316309  0.94730990  0.38637513  1
  O2-  O227  1  0.57890111  0.95141090  0.73530537  1
  O2-  O228  1  0.19836303  0.32971373  0.06079368  1
  O2-  O229  1  0.19681223  0.32965719  0.38709946  1
  O2-  O230  1  0.19563709  0.32764663  0.73351306  1
  O2-  O231  1  0.20874456  0.83433326  0.06848605  1
  O2-  O232  1  0.20542472  0.83403521  0.40448985  1
  O2-  O233  1  0.19756860  0.83227414  0.72457849  1
  O2-  O234  1  0.71761631  0.33913482  0.07175488  1
  O2-  O235  1  0.71499500  0.33455862  0.40252716  1
  O2-  O236  1  0.71639247  0.33899660  0.73590047  1
  O2-  O237  1  0.70603303  0.83082626  0.06150650  1
  O2-  O238  1  0.71525495  0.83942148  0.39222863  1
  O2-  O239  1  0.71193942  0.83098409  0.73596675  1
  O2-  O240  1  0.46308355  0.41891967  0.26462679  1
  O2-  O241  1  0.45371567  0.41974255  0.60329675  1
  O2-  O242  1  0.45995884  0.40986719  0.93982070  1
  O2-  O243  1  0.44525329  0.91671514  0.26877676  1
  O2-  O244  1  0.45372809  0.92184106  0.59797639  1
  O2-  O245  1  0.44679634  0.92426508  0.93885202  1
  O2-  O246  1  0.95177185  0.41721759  0.26749214  1
  O2-  O247  1  0.95700360  0.41094392  0.60043839  1
  O2-  O248  1  0.95425042  0.41199250  0.93694004  1
  O2-  O249  1  0.95927782  0.91205264  0.26845716  1
  O2-  O250  1  0.95795811  0.91644541  0.60134403  1
  O2-  O251  1  0.96521032  0.91258946  0.93723050  1
  O2-  O252  1  0.33205599  0.29644614  0.26077945  1
  O2-  O253  1  0.32717879  0.29174347  0.60350301  1
  O2-  O254  1  0.33504929  0.29469186  0.93913965  1
  O2-  O255  1  0.33100208  0.79258444  0.27469964  1
  O2-  O256  1  0.32862730  0.79606741  0.59694171  1
  O2-  O257  1  0.32962672  0.78805220  0.93403158  1
  O2-  O258  1  0.83579780  0.29515172  0.26754063  1
  O2-  O259  1  0.83877218  0.29205156  0.60297539  1
  O2-  O260  1  0.83800633  0.28803758  0.93859433  1
  O2-  O261  1  0.84091454  0.79284049  0.26517385  1
  O2-  O262  1  0.83566327  0.80125331  0.60295615  1
  O2-  O263  1  0.83713207  0.80198790  0.93625818  1
  O2-  O264  1  0.42119522  0.05754135  0.06236230  1
  O2-  O265  1  0.41732969  0.05010827  0.39144024  1
  O2-  O266  1  0.41745683  0.04547798  0.73411432  1
  O2-  O267  1  0.41235483  0.53488106  0.07039861  1
  O2-  O268  1  0.41668508  0.53844248  0.40301516  1
  O2-  O269  1  0.41809582  0.54412639  0.73857525  1
  O2-  O270  1  0.91472303  0.03499489  0.07080026  1
  O2-  O271  1  0.90872019  0.03557022  0.39576466  1
  O2-  O272  1  0.91767199  0.03870949  0.73633849  1
  O2-  O273  1  0.91641223  0.54052974  0.06898820  1
  O2-  O274  1  0.91923913  0.54831486  0.39512353  1
  O2-  O275  1  0.91363706  0.53816000  0.73004841  1
  O2-  O276  1  0.29236062  0.16686748  0.06712734  1
  O2-  O277  1  0.29272163  0.16782022  0.39085647  1
  O2-  O278  1  0.28488760  0.16312145  0.73690345  1
  O2-  O279  1  0.28380235  0.66262219  0.07100247  1
  O2-  O280  1  0.28765647  0.66341371  0.40495312  1
  O2-  O281  1  0.28565509  0.66944471  0.73386557  1
  O2-  O282  1  0.79111389  0.16479219  0.07182075  1
  O2-  O283  1  0.80187677  0.16493931  0.39234530  1
  O2-  O284  1  0.79933093  0.17095583  0.73545160  1
  O2-  O285  1  0.81098304  0.67118261  0.05761298  1
  O2-  O286  1  0.80240404  0.67013284  0.39390265  1
  O2-  O287  1  0.81136294  0.66950216  0.72345284  1
