# generated using pymatgen
data_Ca2Al2SiO7
_symmetry_space_group_name_H-M   'P 1'
_cell_length_a   15.46512127
_cell_length_b   15.46531058
_cell_length_c   15.28871843
_cell_angle_alpha   89.99743436
_cell_angle_beta   89.99815758
_cell_angle_gamma   90.00173431
_symmetry_Int_Tables_number   1
_chemical_formula_structural   Ca2Al2SiO7
_chemical_formula_sum   'Ca48 Al48 Si24 O168'
_cell_volume   3656.64717307
_cell_formula_units_Z   24
loop_
 _symmetry_equiv_pos_site_id
 _symmetry_equiv_pos_as_xyz
  1  'x, y, z'
loop_
 _atom_type_symbol
 _atom_type_oxidation_number
  Ca2+  2.0
  Al0+  0.0
  Si0+  0.0
  O2-  -2.0
loop_
 _atom_site_type_symbol
 _atom_site_label
 _atom_site_symmetry_multiplicity
 _atom_site_fract_x
 _atom_site_fract_y
 _atom_site_fract_z
 _atom_site_occupancy
  Ca2+  Ca0  1  0.17613306  0.07702756  0.17144100  1
  Ca2+  Ca1  1  0.16622753  0.07807329  0.50536124  1
  Ca2+  Ca2  1  0.17715096  0.08836811  0.83592275  1
  Ca2+  Ca3  1  0.17443670  0.58118786  0.17601264  1
  Ca2+  Ca4  1  0.16414619  0.58419651  0.49318542  1
  Ca2+  Ca5  1  0.17223908  0.57627650  0.84675207  1
  Ca2+  Ca6  1  0.66695893  0.08086393  0.17798938  1
  Ca2+  Ca7  1  0.67683003  0.08100029  0.49454865  1
  Ca2+  Ca8  1  0.67262661  0.08492880  0.83839897  1
  Ca2+  Ca9  1  0.65627100  0.57411837  0.17217939  1
  Ca2+  Ca10  1  0.66004911  0.57861900  0.49762645  1
  Ca2+  Ca11  1  0.66734284  0.57704731  0.84433783  1
  Ca2+  Ca12  1  0.07330376  0.34730873  0.16525194  1
  Ca2+  Ca13  1  0.08041456  0.32556501  0.49018655  1
  Ca2+  Ca14  1  0.08213563  0.33131984  0.83114441  1
  Ca2+  Ca15  1  0.08477949  0.83316171  0.17217061  1
  Ca2+  Ca16  1  0.07515279  0.83425752  0.48790678  1
  Ca2+  Ca17  1  0.07742561  0.83296452  0.82767175  1
  Ca2+  Ca18  1  0.59194212  0.32405237  0.16224267  1
  Ca2+  Ca19  1  0.58363738  0.32681642  0.48861142  1
  Ca2+  Ca20  1  0.58522250  0.32905936  0.83719640  1
  Ca2+  Ca21  1  0.57560423  0.82624806  0.16348578  1
  Ca2+  Ca22  1  0.57713310  0.83054126  0.48500550  1
  Ca2+  Ca23  1  0.57716110  0.82936660  0.83669849  1
  Ca2+  Ca24  1  0.32607510  0.42932638  0.17436735  1
  Ca2+  Ca25  1  0.33118153  0.42342897  0.49667665  1
  Ca2+  Ca26  1  0.32433944  0.42184182  0.84727507  1
  Ca2+  Ca27  1  0.33763391  0.91605119  0.17269696  1
  Ca2+  Ca28  1  0.32850996  0.91681852  0.49812652  1
  Ca2+  Ca29  1  0.33773599  0.92615901  0.84017841  1
  Ca2+  Ca30  1  0.82632692  0.41069618  0.17336597  1
  Ca2+  Ca31  1  0.83061932  0.41261887  0.49419049  1
  Ca2+  Ca32  1  0.82934486  0.41567224  0.84308357  1
  Ca2+  Ca33  1  0.82555517  0.92398598  0.18087328  1
  Ca2+  Ca34  1  0.83657096  0.92190296  0.50250897  1
  Ca2+  Ca35  1  0.83776079  0.92226106  0.83327986  1
  Ca2+  Ca36  1  0.43007096  0.16124599  0.16049328  1
  Ca2+  Ca37  1  0.42160280  0.16523805  0.49365107  1
  Ca2+  Ca38  1  0.42018837  0.15887819  0.83172272  1
  Ca2+  Ca39  1  0.41856242  0.67095227  0.16388571  1
  Ca2+  Ca40  1  0.42027046  0.67287689  0.48514613  1
  Ca2+  Ca41  1  0.41791577  0.66373434  0.83756817  1
  Ca2+  Ca42  1  0.91245369  0.17729701  0.16513658  1
  Ca2+  Ca43  1  0.91643519  0.16564078  0.49315532  1
  Ca2+  Ca44  1  0.92326852  0.17152322  0.82728129  1
  Ca2+  Ca45  1  0.92064756  0.66911355  0.16910977  1
  Ca2+  Ca46  1  0.92083739  0.68098459  0.48939164  1
  Ca2+  Ca47  1  0.91822716  0.67310700  0.82761731  1
  Al0+  Al48  1  0.00120913  0.00272688  -0.00052916  1
  Al0+  Al49  1  0.00269219  0.00234465  0.33443871  1
  Al0+  Al50  1  -0.00074188  0.00091567  0.66540737  1
  Al0+  Al51  1  -0.00309727  0.50205493  -0.00378435  1
  Al0+  Al52  1  -0.00069959  0.49980229  0.33192969  1
  Al0+  Al53  1  -0.00188446  0.49971928  0.66730159  1
  Al0+  Al54  1  0.50215141  -0.00071867  -0.00605937  1
  Al0+  Al55  1  0.50264379  0.00073954  0.33147036  1
  Al0+  Al56  1  0.50108055  -0.00190590  0.66865412  1
  Al0+  Al57  1  0.50022147  0.49801216  0.00328015  1
  Al0+  Al58  1  0.49841645  0.49891669  0.34024837  1
  Al0+  Al59  1  0.49874551  0.49792083  0.66835870  1
  Al0+  Al60  1  0.24915737  0.24783596  0.01107253  1
  Al0+  Al61  1  0.25067024  0.25183109  0.33565023  1
  Al0+  Al62  1  0.25042508  0.25017915  0.66582301  1
  Al0+  Al63  1  0.24826694  0.75171024  -0.00344900  1
  Al0+  Al64  1  0.24970956  0.75219232  0.33535256  1
  Al0+  Al65  1  0.25111606  0.74850773  0.66827576  1
  Al0+  Al66  1  0.75205197  0.25093674  -0.00733662  1
  Al0+  Al67  1  0.75049641  0.24998030  0.33508356  1
  Al0+  Al68  1  0.74906478  0.24859917  0.67102670  1
  Al0+  Al69  1  0.74958596  0.75113838  -0.00514040  1
  Al0+  Al70  1  0.74873350  0.74896582  0.32877067  1
  Al0+  Al71  1  0.74896266  0.74807065  0.66448620  1
  Al0+  Al72  1  0.17531136  0.42839909  0.01554474  1
  Al0+  Al73  1  0.68159476  0.42879168  0.01353732  1
  Al0+  Al74  1  0.92778503  0.82516266  0.31696262  1
  Al0+  Al75  1  0.07020819  0.68027911  0.31832185  1
  Al0+  Al76  1  0.67957598  0.42932392  0.34706866  1
  Al0+  Al77  1  0.82098455  0.07015624  0.68272090  1
  Al0+  Al78  1  0.57168002  0.67535366  0.31922338  1
  Al0+  Al79  1  0.07173938  0.18177302  0.65332286  1
  Al0+  Al80  1  0.93089077  0.32151726  0.98509332  1
  Al0+  Al81  1  0.18066179  0.93092360  0.34652090  1
  Al0+  Al82  1  0.32337999  0.06882746  0.01459370  1
  Al0+  Al83  1  0.57058991  0.67600534  0.98384131  1
  Al0+  Al84  1  0.42712627  0.82060530  0.98273385  1
  Al0+  Al85  1  0.32078252  0.57277784  0.01586173  1
  Al0+  Al86  1  0.82152303  0.07138885  0.34623526  1
  Al0+  Al87  1  0.67845431  0.92659615  0.34640938  1
  Al0+  Al88  1  0.32130468  0.07034564  0.67945937  1
  Al0+  Al89  1  0.42899968  0.82182639  0.31957383  1
  Al0+  Al90  1  0.31987417  0.57214496  0.35011027  1
  Al0+  Al91  1  0.57131309  0.17907775  0.98428561  1
  Al0+  Al92  1  0.17575724  0.42886190  0.35089284  1
  Al0+  Al93  1  0.56956628  0.18186200  0.32152151  1
  Al0+  Al94  1  0.93091837  0.31834820  0.32093956  1
  Al0+  Al95  1  0.92952876  0.82011005  0.65327759  1
  Si0+  Si96  1  0.67842525  0.92514122  0.68538031  1
  Si0+  Si97  1  0.07306677  0.67632301  0.65104208  1
  Si0+  Si98  1  0.07649296  0.17750054  0.31499855  1
  Si0+  Si99  1  0.42624433  0.31954849  0.98586401  1
  Si0+  Si100  1  0.32451950  0.07279011  0.34926383  1
  Si0+  Si101  1  0.32166344  0.57042187  0.68334159  1
  Si0+  Si102  1  0.17846099  0.42960734  0.68122201  1
  Si0+  Si103  1  0.81985257  0.57105827  0.68138209  1
  Si0+  Si104  1  0.57183624  0.17828094  0.65112856  1
  Si0+  Si105  1  0.68097471  0.92904124  0.01331174  1
  Si0+  Si106  1  0.06927240  0.68036169  0.98409024  1
  Si0+  Si107  1  0.82110014  0.57578209  0.01625600  1
  Si0+  Si108  1  0.42968343  0.32111074  0.65224811  1
  Si0+  Si109  1  0.82284020  0.57259386  0.35003542  1
  Si0+  Si110  1  0.42965158  0.82088336  0.65119083  1
  Si0+  Si111  1  0.67795705  0.42883598  0.68303736  1
  Si0+  Si112  1  0.07307930  0.17653761  0.98365764  1
  Si0+  Si113  1  0.92852384  0.82421874  0.98463665  1
  Si0+  Si114  1  0.92596638  0.32259590  0.64912136  1
  Si0+  Si115  1  0.17819351  0.92726603  0.68345516  1
  Si0+  Si116  1  0.82186937  0.07081019  0.01346636  1
  Si0+  Si117  1  0.17559710  0.92861068  0.01545185  1
  Si0+  Si118  1  0.42609729  0.32283409  0.31657265  1
  Si0+  Si119  1  0.56866408  0.67619002  0.65194836  1
  O2-  O120  1  0.24977164  -0.00806132  0.05816294  1
  O2-  O121  1  0.25345508  0.00720157  0.39404957  1
  O2-  O122  1  0.24731651  -0.00474307  0.72794228  1
  O2-  O123  1  0.24812236  0.50028990  0.06349398  1
  O2-  O124  1  0.24747376  0.50069150  0.40174242  1
  O2-  O125  1  0.24629427  0.50340554  0.72410245  1
  O2-  O126  1  0.75199151  -0.00037778  0.05524493  1
  O2-  O127  1  0.75581705  -0.00687753  0.39657574  1
  O2-  O128  1  0.74716852  -0.00577678  0.72996997  1
  O2-  O129  1  0.75187289  0.50775463  0.05936590  1
  O2-  O130  1  0.75084588  0.50695268  0.39505961  1
  O2-  O131  1  0.75059470  0.49860114  0.72443622  1
  O2-  O132  1  0.00823838  0.24731412  0.27236725  1
  O2-  O133  1  -0.00503692  0.25426796  0.60622168  1
  O2-  O134  1  0.00879745  0.24972865  0.93950797  1
  O2-  O135  1  -0.00151596  0.75197933  0.26666558  1
  O2-  O136  1  0.00677674  0.74749035  0.60835867  1
  O2-  O137  1  -0.00081134  0.75273307  0.94205105  1
  O2-  O138  1  0.49381293  0.25375584  0.27257371  1
  O2-  O139  1  0.49984533  0.24891935  0.61034273  1
  O2-  O140  1  0.49319615  0.25089421  0.93724197  1
  O2-  O141  1  0.50083085  0.74900485  0.27111921  1
  O2-  O142  1  0.49921078  0.74826099  0.61012590  1
  O2-  O143  1  0.49635596  0.74530528  0.93222114  1
  O2-  O144  1  0.06839557  0.16824344  0.08806565  1
  O2-  O145  1  0.07695606  0.17834589  0.42108405  1
  O2-  O146  1  0.07322436  0.18623613  0.76668847  1
  O2-  O147  1  0.06862038  0.67945827  0.08827574  1
  O2-  O148  1  0.06707430  0.68210268  0.43257824  1
  O2-  O149  1  0.07139489  0.67534483  0.75715137  1
  O2-  O150  1  0.57376597  0.17907978  0.09677801  1
  O2-  O151  1  0.56836169  0.18297161  0.43545547  1
  O2-  O152  1  0.57229721  0.18006572  0.75636785  1
  O2-  O153  1  0.57358604  0.67902542  0.09605004  1
  O2-  O154  1  0.56823957  0.67592431  0.43411645  1
  O2-  O155  1  0.56717465  0.67375197  0.75687213  1
  O2-  O156  1  0.17700925  0.43140007  0.23786825  1
  O2-  O157  1  0.17883536  0.42995944  0.57692131  1
  O2-  O158  1  0.17726913  0.43037337  0.90033091  1
  O2-  O159  1  0.18134195  0.93279988  0.23335799  1
  O2-  O160  1  0.17999625  0.92667798  0.57831974  1
  O2-  O161  1  0.17090126  0.93162892  0.90950915  1
  O2-  O162  1  0.68250157  0.42663577  0.23446173  1
  O2-  O163  1  0.67626271  0.42909636  0.57832821  1
  O2-  O164  1  0.68459572  0.42897836  0.89929359  1
  O2-  O165  1  0.67698252  0.93140923  0.23249825  1
  O2-  O166  1  0.67713258  0.92448721  0.58047680  1
  O2-  O167  1  0.68382149  0.92911704  0.90750691  1
  O2-  O168  1  0.42876997  0.31750287  0.09071666  1
  O2-  O169  1  0.42743262  0.32073240  0.42323352  1
  O2-  O170  1  0.43072334  0.32425563  0.75722773  1
  O2-  O171  1  0.43027201  0.82293085  0.09527741  1
  O2-  O172  1  0.43009643  0.82168045  0.43431304  1
  O2-  O173  1  0.42988469  0.82100363  0.75606968  1
  O2-  O174  1  0.92791867  0.31884268  0.09760122  1
  O2-  O175  1  0.93016460  0.31561892  0.43451888  1
  O2-  O176  1  0.92720100  0.32383658  0.75487534  1
  O2-  O177  1  0.92771495  0.82571198  0.08868837  1
  O2-  O178  1  0.93020135  0.82365613  0.43096976  1
  O2-  O179  1  0.93116151  0.81720785  0.76732653  1
  O2-  O180  1  0.32471020  0.07138656  0.24374427  1
  O2-  O181  1  0.32247014  0.06920294  0.56694430  1
  O2-  O182  1  0.32076738  0.06924262  0.90082125  1
  O2-  O183  1  0.32007517  0.57067343  0.23705063  1
  O2-  O184  1  0.32514506  0.57030132  0.57918681  1
  O2-  O185  1  0.31734525  0.56939897  0.90067706  1
  O2-  O186  1  0.81720625  0.07380480  0.23224383  1
  O2-  O187  1  0.81850997  0.07269205  0.57048570  1
  O2-  O188  1  0.82249609  0.06806352  0.90787070  1
  O2-  O189  1  0.82572052  0.56978333  0.24468679  1
  O2-  O190  1  0.81956821  0.57205236  0.57705025  1
  O2-  O191  1  0.82131092  0.57525893  0.90960672  1
  O2-  O192  1  0.05160196  0.08457762  0.26886291  1
  O2-  O193  1  0.04343718  0.08390733  0.60157109  1
  O2-  O194  1  0.04274778  0.08591193  0.93213180  1
  O2-  O195  1  0.04145199  0.58222045  0.26591734  1
  O2-  O196  1  0.04493061  0.58319400  0.60566586  1
  O2-  O197  1  0.03910009  0.59063876  0.93279956  1
  O2-  O198  1  0.54102025  0.08592415  0.26631513  1
  O2-  O199  1  0.54486423  0.08528684  0.60649402  1
  O2-  O200  1  0.54339043  0.08316627  0.92725096  1
  O2-  O201  1  0.54070488  0.57638784  0.26989277  1
  O2-  O202  1  0.53967064  0.58410425  0.60528456  1
  O2-  O203  1  0.54427857  0.57593811  0.93104975  1
  O2-  O204  1  0.17098917  0.20165918  0.27028755  1
  O2-  O205  1  0.16760963  0.21281029  0.59796116  1
  O2-  O206  1  0.16904791  0.19969768  0.94116410  1
  O2-  O207  1  0.16784874  0.71075548  0.26684509  1
  O2-  O208  1  0.16860412  0.69813241  0.60761418  1
  O2-  O209  1  0.16019128  0.70655548  0.93346617  1
  O2-  O210  1  0.66499995  0.21474033  0.26796154  1
  O2-  O211  1  0.66322280  0.20875484  0.60500980  1
  O2-  O212  1  0.66558181  0.21404786  0.92709460  1
  O2-  O213  1  0.67092469  0.69603944  0.26626453  1
  O2-  O214  1  0.66181044  0.70050314  0.60655267  1
  O2-  O215  1  0.66857160  0.70825707  0.92818154  1
  O2-  O216  1  0.07607123  0.45996102  0.06332535  1
  O2-  O217  1  0.07734435  0.45709368  0.40424827  1
  O2-  O218  1  0.08472778  0.45405932  0.72814216  1
  O2-  O219  1  0.08446663  0.95953856  0.06384215  1
  O2-  O220  1  0.08489589  0.96144511  0.40264054  1
  O2-  O221  1  0.08452776  0.95280252  0.72896228  1
  O2-  O222  1  0.58316178  0.45157753  0.06577065  1
  O2-  O223  1  0.58313080  0.45538113  0.40467305  1
  O2-  O224  1  0.58656000  0.45819168  0.73115434  1
  O2-  O225  1  0.58913538  0.95733754  0.05772025  1
  O2-  O226  1  0.58316388  0.96222742  0.40245012  1
  O2-  O227  1  0.58547835  0.95267619  0.73233561  1
  O2-  O228  1  0.19671007  0.32915120  0.06799900  1
  O2-  O229  1  0.20591857  0.33011553  0.40381211  1
  O2-  O230  1  0.20999010  0.33939777  0.72919685  1
  O2-  O231  1  0.19458737  0.83281659  0.05776764  1
  O2-  O232  1  0.21017171  0.83614718  0.40422559  1
  O2-  O233  1  0.20257667  0.83251785  0.72958307  1
  O2-  O234  1  0.71745238  0.33233040  0.06417910  1
  O2-  O235  1  0.71513723  0.33565223  0.40428202  1
  O2-  O236  1  0.70395782  0.33675263  0.73076068  1
  O2-  O237  1  0.70854058  0.83689605  0.05903648  1
  O2-  O238  1  0.69873640  0.82530368  0.39697971  1
  O2-  O239  1  0.70435429  0.83099897  0.73136640  1
  O2-  O240  1  0.45245734  0.41645573  0.27379898  1
  O2-  O241  1  0.45989894  0.41190846  0.60328333  1
  O2-  O242  1  0.45260248  0.41268986  0.93839612  1
  O2-  O243  1  0.45833319  0.91952098  0.26687206  1
  O2-  O244  1  0.45850266  0.91232497  0.60415986  1
  O2-  O245  1  0.46324922  0.91589847  0.92649143  1
  O2-  O246  1  0.95673796  0.41593673  0.26715740  1
  O2-  O247  1  0.94958987  0.41748766  0.60474805  1
  O2-  O248  1  0.95564196  0.41967160  0.92900963  1
  O2-  O249  1  0.95846386  0.92339309  0.26518606  1
  O2-  O250  1  0.95685059  0.91755260  0.60119671  1
  O2-  O251  1  0.95896143  0.91544885  0.93598736  1
  O2-  O252  1  0.33182832  0.30046828  0.27132852  1
  O2-  O253  1  0.33833408  0.29460478  0.60426622  1
  O2-  O254  1  0.33077399  0.29506558  0.94193801  1
  O2-  O255  1  0.33044390  0.79596677  0.26815004  1
  O2-  O256  1  0.33618487  0.79429097  0.60628864  1
  O2-  O257  1  0.32680853  0.79837569  0.92879952  1
  O2-  O258  1  0.83551478  0.28487509  0.26681429  1
  O2-  O259  1  0.83104896  0.29636854  0.60651863  1
  O2-  O260  1  0.83778349  0.28684278  0.92620124  1
  O2-  O261  1  0.82933234  0.79760065  0.26485042  1
  O2-  O262  1  0.83295525  0.78743524  0.60054466  1
  O2-  O263  1  0.83789544  0.79688732  0.93414568  1
  O2-  O264  1  0.42186981  0.03899072  0.06437875  1
  O2-  O265  1  0.41677930  0.04512143  0.39639624  1
  O2-  O266  1  0.41820358  0.03901429  0.73403926  1
  O2-  O267  1  0.41935751  0.54523160  0.06638692  1
  O2-  O268  1  0.41576305  0.53974612  0.40730249  1
  O2-  O269  1  0.41171579  0.53744498  0.73202427  1
  O2-  O270  1  0.91398124  0.04481811  0.06015607  1
  O2-  O271  1  0.92202179  0.05070198  0.39760852  1
  O2-  O272  1  0.91821875  0.04009350  0.73706960  1
  O2-  O273  1  0.91466117  0.55005316  0.06036395  1
  O2-  O274  1  0.91370124  0.54272535  0.39921713  1
  O2-  O275  1  0.91245375  0.54528570  0.73028908  1
  O2-  O276  1  0.29385392  0.16330536  0.07205081  1
  O2-  O277  1  0.30269530  0.16779829  0.39417444  1
  O2-  O278  1  0.29119698  0.16788509  0.73333709  1
  O2-  O279  1  0.29174315  0.67258276  0.06358743  1
  O2-  O280  1  0.29110817  0.66987769  0.40404169  1
  O2-  O281  1  0.29792137  0.66364212  0.73068540  1
  O2-  O282  1  0.79303615  0.16328885  0.05650628  1
  O2-  O283  1  0.78569136  0.16552053  0.40312399  1
  O2-  O284  1  0.78884546  0.16657535  0.73824194  1
  O2-  O285  1  0.79865200  0.67073135  0.05997750  1
  O2-  O286  1  0.80003161  0.66734481  0.39471803  1
  O2-  O287  1  0.79085611  0.66189672  0.73101579  1
