# generated using pymatgen
data_Ca2Al2SiO7
_symmetry_space_group_name_H-M   'P 1'
_cell_length_a   15.45819411
_cell_length_b   15.45783377
_cell_length_c   15.28330668
_cell_angle_alpha   90.01047119
_cell_angle_beta   89.99527223
_cell_angle_gamma   90.01316209
_symmetry_Int_Tables_number   1
_chemical_formula_structural   Ca2Al2SiO7
_chemical_formula_sum   'Ca48 Al48 Si24 O168'
_cell_volume   3651.94894218
_cell_formula_units_Z   24
loop_
 _symmetry_equiv_pos_site_id
 _symmetry_equiv_pos_as_xyz
  1  'x, y, z'
loop_
 _atom_type_symbol
 _atom_type_oxidation_number
  Ca2+  2.0
  Al0+  0.0
  Si0+  0.0
  O2-  -2.0
loop_
 _atom_site_type_symbol
 _atom_site_label
 _atom_site_symmetry_multiplicity
 _atom_site_fract_x
 _atom_site_fract_y
 _atom_site_fract_z
 _atom_site_occupancy
  Ca2+  Ca0  1  0.16335397  0.07507143  0.17106581  1
  Ca2+  Ca1  1  0.16820050  0.08092736  0.50118351  1
  Ca2+  Ca2  1  0.17400488  0.07564247  0.83698518  1
  Ca2+  Ca3  1  0.18069470  0.57293755  0.17261855  1
  Ca2+  Ca4  1  0.16758122  0.57318508  0.50385689  1
  Ca2+  Ca5  1  0.16901538  0.57553957  0.83990683  1
  Ca2+  Ca6  1  0.66507003  0.07553770  0.17241713  1
  Ca2+  Ca7  1  0.65766133  0.07866824  0.49915397  1
  Ca2+  Ca8  1  0.67439920  0.07519070  0.84390607  1
  Ca2+  Ca9  1  0.66471673  0.58204124  0.16237116  1
  Ca2+  Ca10  1  0.67460786  0.58368643  0.50405519  1
  Ca2+  Ca11  1  0.67585389  0.58588204  0.84257939  1
  Ca2+  Ca12  1  0.09335922  0.33028185  0.16462108  1
  Ca2+  Ca13  1  0.09130782  0.32985534  0.49333608  1
  Ca2+  Ca14  1  0.08732594  0.33804220  0.82927803  1
  Ca2+  Ca15  1  0.07915765  0.84026960  0.16213829  1
  Ca2+  Ca16  1  0.07273560  0.83230830  0.49263218  1
  Ca2+  Ca17  1  0.07897050  0.82449985  0.82383205  1
  Ca2+  Ca18  1  0.57343899  0.33730688  0.15880752  1
  Ca2+  Ca19  1  0.56986757  0.32671584  0.48965178  1
  Ca2+  Ca20  1  0.57149758  0.34162051  0.83192964  1
  Ca2+  Ca21  1  0.58621971  0.83007931  0.16029845  1
  Ca2+  Ca22  1  0.57698196  0.83582499  0.49644771  1
  Ca2+  Ca23  1  0.58399536  0.82834484  0.83139615  1
  Ca2+  Ca24  1  0.33635950  0.42264855  0.17051081  1
  Ca2+  Ca25  1  0.32820238  0.41291520  0.50197542  1
  Ca2+  Ca26  1  0.32633343  0.41650414  0.84048194  1
  Ca2+  Ca27  1  0.31806773  0.91226956  0.17287133  1
  Ca2+  Ca28  1  0.32996314  0.92284053  0.50722716  1
  Ca2+  Ca29  1  0.33401764  0.91993169  0.83602741  1
  Ca2+  Ca30  1  0.82879339  0.42195026  0.16560300  1
  Ca2+  Ca31  1  0.83201376  0.42244359  0.50861744  1
  Ca2+  Ca32  1  0.82794893  0.43089274  0.84221980  1
  Ca2+  Ca33  1  0.82334611  0.91750983  0.17011891  1
  Ca2+  Ca34  1  0.83164468  0.90875435  0.49916104  1
  Ca2+  Ca35  1  0.83143356  0.91924783  0.84147003  1
  Ca2+  Ca36  1  0.41869779  0.17910029  0.16473992  1
  Ca2+  Ca37  1  0.41287303  0.17558637  0.49401922  1
  Ca2+  Ca38  1  0.41176170  0.17722110  0.82750614  1
  Ca2+  Ca39  1  0.41900823  0.66073161  0.15789715  1
  Ca2+  Ca40  1  0.41199451  0.67103135  0.49682856  1
  Ca2+  Ca41  1  0.42023306  0.66819372  0.83302368  1
  Ca2+  Ca42  1  0.92256824  0.16183019  0.16378797  1
  Ca2+  Ca43  1  0.92597300  0.16979845  0.49099631  1
  Ca2+  Ca44  1  0.91647545  0.16626744  0.83327052  1
  Ca2+  Ca45  1  0.91562646  0.67118966  0.16244183  1
  Ca2+  Ca46  1  0.92183503  0.67082794  0.50091206  1
  Ca2+  Ca47  1  0.91924321  0.66710620  0.82378830  1
  Al0+  Al48  1  0.00046843  0.00108247  0.00305167  1
  Al0+  Al49  1  -0.00226591  0.00064048  0.32953175  1
  Al0+  Al50  1  -0.00115330  -0.00034468  0.66324562  1
  Al0+  Al51  1  0.00036155  0.49939329  0.00803874  1
  Al0+  Al52  1  0.00073665  0.50157809  0.33598886  1
  Al0+  Al53  1  -0.00103475  0.49953410  0.67026320  1
  Al0+  Al54  1  0.49974604  0.00203267  0.00294111  1
  Al0+  Al55  1  0.49982038  -0.00117624  0.33254991  1
  Al0+  Al56  1  0.49999028  -0.00054567  0.66976197  1
  Al0+  Al57  1  0.50118399  0.50202360  -0.00587258  1
  Al0+  Al58  1  0.50181206  0.50207963  0.33600735  1
  Al0+  Al59  1  0.49869417  0.49932137  0.65932268  1
  Al0+  Al60  1  0.24963125  0.24712410  -0.00336552  1
  Al0+  Al61  1  0.25004048  0.24971235  0.32545740  1
  Al0+  Al62  1  0.25045176  0.24883973  0.67109770  1
  Al0+  Al63  1  0.24856484  0.74967051  0.00544698  1
  Al0+  Al64  1  0.24783457  0.74906306  0.34179001  1
  Al0+  Al65  1  0.25020900  0.74737247  0.65829140  1
  Al0+  Al66  1  0.75230666  0.25074700  0.00551456  1
  Al0+  Al67  1  0.75105623  0.24913913  0.33105115  1
  Al0+  Al68  1  0.74921924  0.24792148  0.66707098  1
  Al0+  Al69  1  0.75018470  0.75196270  0.00168625  1
  Al0+  Al70  1  0.74982448  0.75218208  0.33407278  1
  Al0+  Al71  1  0.75044029  0.75006140  0.66654441  1
  Al0+  Al72  1  0.18087255  0.92912609  0.01089552  1
  Al0+  Al73  1  0.43011837  0.32002278  0.98341994  1
  Al0+  Al74  1  0.82250336  0.57343058  0.01643778  1
  Al0+  Al75  1  0.92870174  0.82199942  0.65154596  1
  Al0+  Al76  1  0.67767710  0.92965239  0.01475894  1
  Al0+  Al77  1  0.17504976  0.92960633  0.34908151  1
  Al0+  Al78  1  0.32462277  0.57090733  0.35155789  1
  Al0+  Al79  1  0.32140181  0.57072779  0.01175257  1
  Al0+  Al80  1  0.42801463  0.31997274  0.65211756  1
  Al0+  Al81  1  0.43035970  0.32238101  0.31610918  1
  Al0+  Al82  1  0.92944173  0.81883021  0.31638806  1
  Al0+  Al83  1  0.07010177  0.18077035  0.31897573  1
  Al0+  Al84  1  0.07158371  0.67497985  0.65141503  1
  Al0+  Al85  1  0.18052025  0.42762459  0.34892299  1
  Al0+  Al86  1  0.67883360  0.92970436  0.34976441  1
  Al0+  Al87  1  0.17903699  0.42626539  0.01533117  1
  Al0+  Al88  1  0.32060835  0.06939926  0.67989702  1
  Al0+  Al89  1  0.82234857  0.07199752  0.01606956  1
  Al0+  Al90  1  0.81881805  0.57035465  0.67968599  1
  Al0+  Al91  1  0.57104427  0.68181627  0.98605234  1
  Al0+  Al92  1  0.18122986  0.42973890  0.68106826  1
  Al0+  Al93  1  0.67805026  0.43035464  0.01325605  1
  Al0+  Al94  1  0.57187936  0.17679285  0.31718731  1
  Al0+  Al95  1  0.42979264  0.82181874  0.65376397  1
  Si0+  Si96  1  0.92724566  0.31989720  0.65464497  1
  Si0+  Si97  1  0.57270218  0.67878476  0.64876029  1
  Si0+  Si98  1  0.82019907  0.57172428  0.34921997  1
  Si0+  Si99  1  0.32077554  0.06963984  0.34782260  1
  Si0+  Si100  1  0.93080371  0.82119474  0.98529424  1
  Si0+  Si101  1  0.57479613  0.17717572  0.98270157  1
  Si0+  Si102  1  0.07014684  0.17949943  0.65364871  1
  Si0+  Si103  1  0.92883325  0.32285659  0.98475219  1
  Si0+  Si104  1  0.07099344  0.67799247  0.98744760  1
  Si0+  Si105  1  0.57122894  0.68120831  0.31941362  1
  Si0+  Si106  1  0.17652025  0.92649980  0.68063754  1
  Si0+  Si107  1  0.67942241  0.92993110  0.68169330  1
  Si0+  Si108  1  0.68003192  0.42748602  0.34899528  1
  Si0+  Si109  1  0.32445111  0.57419135  0.68374821  1
  Si0+  Si110  1  0.07273045  0.67711287  0.31420642  1
  Si0+  Si111  1  0.92697535  0.32569436  0.31652760  1
  Si0+  Si112  1  0.82135985  0.07260130  0.35218127  1
  Si0+  Si113  1  0.57335833  0.17734416  0.65176342  1
  Si0+  Si114  1  0.42443098  0.82376653  0.98605767  1
  Si0+  Si115  1  0.32247674  0.07274569  0.01755421  1
  Si0+  Si116  1  0.42659470  0.82040310  0.31939942  1
  Si0+  Si117  1  0.06957109  0.17795486  0.98173837  1
  Si0+  Si118  1  0.67646607  0.42621578  0.68080590  1
  Si0+  Si119  1  0.82326058  0.07229987  0.68053236  1
  O2-  O120  1  0.25854555  -0.00082773  0.06004969  1
  O2-  O121  1  0.25198852  0.00229204  0.39460139  1
  O2-  O122  1  0.24843815  -0.00885076  0.72587201  1
  O2-  O123  1  0.25364756  0.49585200  0.06321813  1
  O2-  O124  1  0.25288664  0.49796337  0.40051918  1
  O2-  O125  1  0.25525945  0.50555711  0.72693578  1
  O2-  O126  1  0.74620238  0.00460118  0.06507907  1
  O2-  O127  1  0.75022806  0.00720990  0.39794954  1
  O2-  O128  1  0.75298053  -0.00013420  0.72144075  1
  O2-  O129  1  0.74979747  0.50165549  0.06550786  1
  O2-  O130  1  0.75389962  0.49581979  0.39144026  1
  O2-  O131  1  0.74266983  0.49678301  0.72519759  1
  O2-  O132  1  -0.00273553  0.25827987  0.27301569  1
  O2-  O133  1  -0.00142743  0.25003987  0.61158027  1
  O2-  O134  1  0.00064269  0.25224226  0.94114311  1
  O2-  O135  1  0.00641696  0.74739812  0.26822682  1
  O2-  O136  1  0.00326055  0.75192982  0.60255781  1
  O2-  O137  1  -0.00086569  0.74775270  0.94334967  1
  O2-  O138  1  0.50510661  0.25260672  0.26645801  1
  O2-  O139  1  0.50611186  0.24725492  0.60788609  1
  O2-  O140  1  0.50660797  0.24547244  0.93684925  1
  O2-  O141  1  0.49478659  0.74666774  0.27788676  1
  O2-  O142  1  0.50160757  0.74501868  0.60475092  1
  O2-  O143  1  0.49628752  0.75828637  0.94162537  1
  O2-  O144  1  0.06869157  0.17563341  0.08656525  1
  O2-  O145  1  0.06840735  0.18093528  0.43299055  1
  O2-  O146  1  0.06757870  0.17748039  0.75876798  1
  O2-  O147  1  0.07040234  0.68087401  0.09228772  1
  O2-  O148  1  0.06853982  0.67597872  0.41970834  1
  O2-  O149  1  0.06917239  0.67621781  0.76594150  1
  O2-  O150  1  0.57194143  0.17661027  0.08789226  1
  O2-  O151  1  0.56903890  0.17867341  0.43157047  1
  O2-  O152  1  0.57648981  0.17749617  0.75709124  1
  O2-  O153  1  0.57049509  0.68268586  0.09951503  1
  O2-  O154  1  0.57399807  0.68343670  0.42474282  1
  O2-  O155  1  0.57506419  0.68057145  0.75409652  1
  O2-  O156  1  0.18096893  0.42945616  0.23592341  1
  O2-  O157  1  0.18148365  0.42613943  0.56841448  1
  O2-  O158  1  0.17822989  0.42933354  0.90132685  1
  O2-  O159  1  0.17680904  0.93124705  0.23573934  1
  O2-  O160  1  0.17487901  0.93227731  0.57534119  1
  O2-  O161  1  0.18005778  0.93050071  0.89744335  1
  O2-  O162  1  0.67950901  0.42982535  0.24428868  1
  O2-  O163  1  0.68079782  0.42487985  0.57477693  1
  O2-  O164  1  0.68059595  0.43215197  0.89920172  1
  O2-  O165  1  0.68031216  0.92760238  0.23736221  1
  O2-  O166  1  0.67759769  0.93089432  0.57666577  1
  O2-  O167  1  0.68085428  0.92917330  0.90036568  1
  O2-  O168  1  0.43027156  0.31915818  0.09610646  1
  O2-  O169  1  0.42984752  0.31918371  0.43012118  1
  O2-  O170  1  0.42831838  0.31915994  0.76522165  1
  O2-  O171  1  0.42236166  0.82175289  0.09170150  1
  O2-  O172  1  0.42999514  0.82235732  0.42467620  1
  O2-  O173  1  0.43342183  0.82332733  0.76693082  1
  O2-  O174  1  0.92906056  0.32276002  0.08963535  1
  O2-  O175  1  0.92474634  0.32400418  0.42287689  1
  O2-  O176  1  0.92543774  0.31771599  0.75955976  1
  O2-  O177  1  0.93216924  0.82165527  0.09029571  1
  O2-  O178  1  0.92844632  0.81524571  0.42950165  1
  O2-  O179  1  0.92907628  0.82403124  0.76555096  1
  O2-  O180  1  0.32027970  0.06600196  0.24223315  1
  O2-  O181  1  0.31780238  0.07029089  0.56680509  1
  O2-  O182  1  0.31997232  0.07324371  0.91148670  1
  O2-  O183  1  0.32589585  0.57126677  0.23806344  1
  O2-  O184  1  0.32530154  0.57237854  0.57843060  1
  O2-  O185  1  0.31821251  0.57350353  0.89805643  1
  O2-  O186  1  0.82216450  0.07024461  0.24699883  1
  O2-  O187  1  0.82432320  0.07675168  0.57616077  1
  O2-  O188  1  0.82398506  0.06823322  0.90134523  1
  O2-  O189  1  0.81821692  0.57228423  0.24445419  1
  O2-  O190  1  0.81740658  0.56807066  0.56598166  1
  O2-  O191  1  0.82310716  0.57258413  0.90262337  1
  O2-  O192  1  0.03510274  0.08618101  0.26344768  1
  O2-  O193  1  0.04257256  0.08857479  0.60419787  1
  O2-  O194  1  0.03733185  0.08759999  0.93284611  1
  O2-  O195  1  0.04428503  0.58396735  0.26853897  1
  O2-  O196  1  0.03573134  0.57874505  0.59767350  1
  O2-  O197  1  0.04377102  0.58498454  0.94189878  1
  O2-  O198  1  0.54080177  0.07890087  0.26448611  1
  O2-  O199  1  0.54601344  0.08398322  0.60665124  1
  O2-  O200  1  0.54952978  0.08262611  0.93653606  1
  O2-  O201  1  0.54935995  0.58750785  0.27356581  1
  O2-  O202  1  0.55173957  0.58423227  0.60210512  1
  O2-  O203  1  0.54214452  0.58713128  0.92763960  1
  O2-  O204  1  0.16589573  0.20609506  0.26127716  1
  O2-  O205  1  0.16133222  0.20841809  0.60691765  1
  O2-  O206  1  0.16189657  0.20187742  0.93327824  1
  O2-  O207  1  0.16834387  0.70144568  0.27240937  1
  O2-  O208  1  0.17093168  0.69526572  0.59791375  1
  O2-  O209  1  0.16220431  0.70754441  0.93944126  1
  O2-  O210  1  0.67353058  0.19831035  0.26839179  1
  O2-  O211  1  0.66751799  0.19983390  0.60359176  1
  O2-  O212  1  0.67067647  0.20041707  0.93946888  1
  O2-  O213  1  0.66049024  0.71412115  0.27088474  1
  O2-  O214  1  0.66472757  0.70800873  0.60119404  1
  O2-  O215  1  0.66778833  0.71446317  0.93129016  1
  O2-  O216  1  0.08193570  0.45334678  0.06972158  1
  O2-  O217  1  0.08031342  0.45527210  0.40110285  1
  O2-  O218  1  0.08304712  0.45730733  0.73406846  1
  O2-  O219  1  0.08689269  0.96489504  0.06600768  1
  O2-  O220  1  0.07901558  0.96397185  0.40144650  1
  O2-  O221  1  0.08393220  0.95630074  0.72744762  1
  O2-  O222  1  0.58112235  0.46197108  0.06574755  1
  O2-  O223  1  0.59053901  0.45869780  0.39864728  1
  O2-  O224  1  0.58119355  0.45060178  0.72292079  1
  O2-  O225  1  0.57760714  0.95270984  0.06702765  1
  O2-  O226  1  0.58096191  0.95903851  0.40331343  1
  O2-  O227  1  0.58962752  0.95885781  0.73172782  1
  O2-  O228  1  0.20345626  0.32501351  0.06259496  1
  O2-  O229  1  0.20738224  0.32665825  0.39812801  1
  O2-  O230  1  0.21111214  0.33338655  0.73626991  1
  O2-  O231  1  0.20630603  0.83360609  0.06908316  1
  O2-  O232  1  0.20227886  0.83282566  0.40319167  1
  O2-  O233  1  0.19839304  0.83012647  0.72175338  1
  O2-  O234  1  0.70539127  0.33264478  0.06719555  1
  O2-  O235  1  0.70571205  0.33460217  0.39587162  1
  O2-  O236  1  0.70259273  0.33288962  0.72707865  1
  O2-  O237  1  0.70991759  0.83377117  0.06890048  1
  O2-  O238  1  0.71299362  0.83422170  0.40473745  1
  O2-  O239  1  0.70636909  0.83772320  0.72815313  1
  O2-  O240  1  0.46154562  0.42206444  0.26725344  1
  O2-  O241  1  0.45501639  0.41659465  0.59601861  1
  O2-  O242  1  0.46061429  0.41633200  0.92855391  1
  O2-  O243  1  0.45594327  0.91064478  0.27082764  1
  O2-  O244  1  0.46390034  0.91760809  0.59915685  1
  O2-  O245  1  0.44659404  0.91961591  0.94222994  1
  O2-  O246  1  0.94971001  0.42054742  0.27220626  1
  O2-  O247  1  0.95309453  0.41175613  0.60741406  1
  O2-  O248  1  0.95703545  0.41538768  0.93795676  1
  O2-  O249  1  0.95705918  0.91656849  0.26406076  1
  O2-  O250  1  0.95378138  0.92114649  0.59685761  1
  O2-  O251  1  0.96124842  0.91277216  0.93831234  1
  O2-  O252  1  0.33380145  0.29196784  0.26183406  1
  O2-  O253  1  0.33257810  0.28299579  0.59964411  1
  O2-  O254  1  0.33360637  0.28511291  0.92988764  1
  O2-  O255  1  0.33239861  0.79537029  0.27554070  1
  O2-  O256  1  0.33290415  0.79656030  0.59773706  1
  O2-  O257  1  0.33195268  0.79550571  0.93825139  1
  O2-  O258  1  0.83409200  0.29941761  0.26969005  1
  O2-  O259  1  0.83606377  0.29151492  0.60487644  1
  O2-  O260  1  0.83715591  0.29485636  0.93627224  1
  O2-  O261  1  0.83286766  0.78531039  0.26377545  1
  O2-  O262  1  0.83049802  0.79172712  0.59882640  1
  O2-  O263  1  0.83811869  0.79643740  0.93864870  1
  O2-  O264  1  0.41780660  0.05558767  0.06197542  1
  O2-  O265  1  0.41349956  0.04324022  0.39505042  1
  O2-  O266  1  0.41718717  0.04061679  0.73580678  1
  O2-  O267  1  0.42112204  0.54575227  0.06182174  1
  O2-  O268  1  0.42448426  0.54704099  0.40487170  1
  O2-  O269  1  0.41990581  0.54893482  0.72661245  1
  O2-  O270  1  0.91864070  0.03961142  0.06980663  1
  O2-  O271  1  0.91366362  0.04322175  0.39849456  1
  O2-  O272  1  0.91506211  0.04524988  0.72903401  1
  O2-  O273  1  0.91839830  0.54328367  0.07241973  1
  O2-  O274  1  0.91318064  0.54831914  0.39623263  1
  O2-  O275  1  0.91349250  0.53780469  0.73536955  1
  O2-  O276  1  0.28945385  0.16299572  0.06437448  1
  O2-  O277  1  0.29433731  0.16405753  0.39092406  1
  O2-  O278  1  0.28515729  0.16240461  0.73748073  1
  O2-  O279  1  0.29225355  0.66728790  0.06812834  1
  O2-  O280  1  0.29482728  0.66877928  0.40505677  1
  O2-  O281  1  0.30114203  0.66949761  0.72753507  1
  O2-  O282  1  0.80349469  0.17211023  0.06794113  1
  O2-  O283  1  0.80143487  0.16864461  0.39704917  1
  O2-  O284  1  0.79470161  0.16313406  0.73076293  1
  O2-  O285  1  0.79388956  0.67133500  0.06844890  1
  O2-  O286  1  0.78554055  0.66081814  0.39714341  1
  O2-  O287  1  0.78931254  0.66746973  0.73361193  1
