# generated using pymatgen
data_Ca2Al2SiO7
_symmetry_space_group_name_H-M   'P 1'
_cell_length_a   15.46572564
_cell_length_b   15.46710832
_cell_length_c   15.28907568
_cell_angle_alpha   89.98782439
_cell_angle_beta   90.00253705
_cell_angle_gamma   89.99966069
_symmetry_Int_Tables_number   1
_chemical_formula_structural   Ca2Al2SiO7
_chemical_formula_sum   'Ca48 Al48 Si24 O168'
_cell_volume   3657.30052947
_cell_formula_units_Z   24
loop_
 _symmetry_equiv_pos_site_id
 _symmetry_equiv_pos_as_xyz
  1  'x, y, z'
loop_
 _atom_type_symbol
 _atom_type_oxidation_number
  Ca2+  2.0
  Al0+  0.0
  Si0+  0.0
  O2-  -2.0
loop_
 _atom_site_type_symbol
 _atom_site_label
 _atom_site_symmetry_multiplicity
 _atom_site_fract_x
 _atom_site_fract_y
 _atom_site_fract_z
 _atom_site_occupancy
  Ca2+  Ca0  1  0.16550404  0.08182456  0.17478469  1
  Ca2+  Ca1  1  0.16775247  0.07929078  0.50864399  1
  Ca2+  Ca2  1  0.16814938  0.08235066  0.82873439  1
  Ca2+  Ca3  1  0.17495877  0.58432763  0.17587886  1
  Ca2+  Ca4  1  0.16674178  0.58321512  0.50081831  1
  Ca2+  Ca5  1  0.17168176  0.58830036  0.83842755  1
  Ca2+  Ca6  1  0.67555476  0.07284958  0.17414880  1
  Ca2+  Ca7  1  0.66722750  0.07920772  0.49900847  1
  Ca2+  Ca8  1  0.67213319  0.07595901  0.84454619  1
  Ca2+  Ca9  1  0.66766015  0.58580512  0.18031779  1
  Ca2+  Ca10  1  0.67322945  0.58441185  0.49866352  1
  Ca2+  Ca11  1  0.67213305  0.58636873  0.83636234  1
  Ca2+  Ca12  1  0.08655754  0.33098643  0.17039901  1
  Ca2+  Ca13  1  0.08235137  0.32412955  0.49445709  1
  Ca2+  Ca14  1  0.07566035  0.32561686  0.82070623  1
  Ca2+  Ca15  1  0.08165544  0.81977374  0.16528142  1
  Ca2+  Ca16  1  0.08850173  0.82218901  0.49587236  1
  Ca2+  Ca17  1  0.08824967  0.82341887  0.82717278  1
  Ca2+  Ca18  1  0.57613413  0.34695273  0.16938954  1
  Ca2+  Ca19  1  0.57292513  0.33806693  0.49300162  1
  Ca2+  Ca20  1  0.57476050  0.33029417  0.82575194  1
  Ca2+  Ca21  1  0.58625402  0.82771662  0.16613988  1
  Ca2+  Ca22  1  0.57248532  0.83242007  0.48977609  1
  Ca2+  Ca23  1  0.58151773  0.83065697  0.83032792  1
  Ca2+  Ca24  1  0.33026381  0.42967609  0.17860946  1
  Ca2+  Ca25  1  0.33292563  0.41823842  0.49852069  1
  Ca2+  Ca26  1  0.33188488  0.42163156  0.83838050  1
  Ca2+  Ca27  1  0.33390893  0.91603192  0.17275174  1
  Ca2+  Ca28  1  0.33077898  0.91687105  0.51080460  1
  Ca2+  Ca29  1  0.33063088  0.91364070  0.82677788  1
  Ca2+  Ca30  1  0.82283300  0.42444047  0.17953921  1
  Ca2+  Ca31  1  0.83691558  0.42678393  0.50249451  1
  Ca2+  Ca32  1  0.83837819  0.41948493  0.83050464  1
  Ca2+  Ca33  1  0.82340380  0.92082684  0.17428289  1
  Ca2+  Ca34  1  0.82867907  0.91664693  0.49796206  1
  Ca2+  Ca35  1  0.82754863  0.92349796  0.84351383  1
  Ca2+  Ca36  1  0.41842543  0.17515799  0.16878964  1
  Ca2+  Ca37  1  0.40782133  0.17727736  0.49615530  1
  Ca2+  Ca38  1  0.41563657  0.17122863  0.82180694  1
  Ca2+  Ca39  1  0.42466847  0.66391357  0.16671675  1
  Ca2+  Ca40  1  0.41756069  0.67814527  0.48825337  1
  Ca2+  Ca41  1  0.42227561  0.66896884  0.83022226  1
  Ca2+  Ca42  1  0.91525394  0.16038333  0.16686199  1
  Ca2+  Ca43  1  0.92660651  0.16456691  0.49237994  1
  Ca2+  Ca44  1  0.91859006  0.17118536  0.82343228  1
  Ca2+  Ca45  1  0.92843268  0.65406472  0.16608535  1
  Ca2+  Ca46  1  0.92453373  0.65826598  0.49575280  1
  Ca2+  Ca47  1  0.92813555  0.66443373  0.82443670  1
  Al0+  Al48  1  0.00200241  0.00030255  0.00187506  1
  Al0+  Al49  1  0.00156536  -0.00072765  0.33167698  1
  Al0+  Al50  1  -0.00105501  -0.00330078  0.66946779  1
  Al0+  Al51  1  0.00093811  0.49648610  -0.00511425  1
  Al0+  Al52  1  0.00077462  0.49605984  0.33439623  1
  Al0+  Al53  1  0.00053500  0.49938507  0.66512795  1
  Al0+  Al54  1  0.49884139  0.00066918  0.00317681  1
  Al0+  Al55  1  0.49931937  0.00329654  0.33221073  1
  Al0+  Al56  1  0.49990323  -0.00039983  0.66906803  1
  Al0+  Al57  1  0.49894036  0.50281036  -0.00339603  1
  Al0+  Al58  1  0.49846677  0.50280401  0.33476423  1
  Al0+  Al59  1  0.50158066  0.49889463  0.66443604  1
  Al0+  Al60  1  0.24849190  0.24998589  -0.00082923  1
  Al0+  Al61  1  0.24937678  0.25057366  0.32579103  1
  Al0+  Al62  1  0.24971958  0.25000642  0.66463101  1
  Al0+  Al63  1  0.25133498  0.75086570  0.00052618  1
  Al0+  Al64  1  0.24922001  0.75076484  0.32759578  1
  Al0+  Al65  1  0.25139337  0.74950063  0.66450575  1
  Al0+  Al66  1  0.74906354  0.25092544  0.00253371  1
  Al0+  Al67  1  0.75033449  0.24929686  0.34088034  1
  Al0+  Al68  1  0.74800409  0.25184634  0.66389413  1
  Al0+  Al69  1  0.75087429  0.74978327  -0.00064028  1
  Al0+  Al70  1  0.74975444  0.75254571  0.34009634  1
  Al0+  Al71  1  0.75254330  0.74810948  0.67310188  1
  Al0+  Al72  1  0.92717221  0.32127446  0.64963062  1
  Al0+  Al73  1  0.07112290  0.67852115  0.98562089  1
  Al0+  Al74  1  0.82254613  0.57193486  0.34770762  1
  Al0+  Al75  1  0.43203176  0.81936426  0.65442927  1
  Al0+  Al76  1  0.42844502  0.32142432  0.65307342  1
  Al0+  Al77  1  0.57134722  0.68179424  0.32074211  1
  Al0+  Al78  1  0.67785124  0.92682269  0.01600643  1
  Al0+  Al79  1  0.57228214  0.67929180  0.98499968  1
  Al0+  Al80  1  0.06968147  0.17826613  0.31767514  1
  Al0+  Al81  1  0.17790476  0.92611158  0.68176631  1
  Al0+  Al82  1  0.07140734  0.68023136  0.65264086  1
  Al0+  Al83  1  0.32057549  0.07199720  0.68084103  1
  Al0+  Al84  1  0.31933669  0.57346677  0.35002641  1
  Al0+  Al85  1  0.32042792  0.57114198  0.01300460  1
  Al0+  Al86  1  0.42732092  0.82475055  0.31708016  1
  Al0+  Al87  1  0.06910112  0.17649572  0.65172574  1
  Al0+  Al88  1  0.67656002  0.92973178  0.35104983  1
  Al0+  Al89  1  0.43018315  0.32161793  0.31845491  1
  Al0+  Al90  1  0.82197569  0.07294346  0.01458353  1
  Al0+  Al91  1  0.82346176  0.06981025  0.35079754  1
  Al0+  Al92  1  0.67616867  0.42917237  0.34920286  1
  Al0+  Al93  1  0.17985131  0.42709094  0.34901284  1
  Al0+  Al94  1  0.82196617  0.56901932  0.68315144  1
  Al0+  Al95  1  0.06888852  0.67612756  0.31936032  1
  Si0+  Si96  1  0.57156849  0.17685821  0.65101821  1
  Si0+  Si97  1  0.67882782  0.92903160  0.68286966  1
  Si0+  Si98  1  0.42825389  0.82496030  0.98149158  1
  Si0+  Si99  1  0.57432266  0.17885126  0.31587212  1
  Si0+  Si100  1  0.18001018  0.42918579  0.68189085  1
  Si0+  Si101  1  0.42877274  0.32127077  0.98494001  1
  Si0+  Si102  1  0.67638274  0.42782523  0.68593854  1
  Si0+  Si103  1  0.57503801  0.67792572  0.65026314  1
  Si0+  Si104  1  0.32031268  0.07442138  0.01647024  1
  Si0+  Si105  1  0.18055107  0.92924770  0.34619486  1
  Si0+  Si106  1  0.81994815  0.07190147  0.68119097  1
  Si0+  Si107  1  0.07187971  0.17745388  0.98345475  1
  Si0+  Si108  1  0.92646820  0.32038090  0.31514419  1
  Si0+  Si109  1  0.92549170  0.82137889  0.65115363  1
  Si0+  Si110  1  0.17739769  0.42647356  0.01564261  1
  Si0+  Si111  1  0.56942652  0.17955338  0.98660969  1
  Si0+  Si112  1  0.67839446  0.43049801  0.01263924  1
  Si0+  Si113  1  0.32026166  0.07225511  0.34553921  1
  Si0+  Si114  1  0.92978276  0.82271112  0.98391899  1
  Si0+  Si115  1  0.92722777  0.31902909  0.98508610  1
  Si0+  Si116  1  0.32254194  0.57086513  0.68152047  1
  Si0+  Si117  1  0.82313578  0.56916492  0.01277755  1
  Si0+  Si118  1  0.18053270  0.92962498  0.01627119  1
  Si0+  Si119  1  0.92904897  0.82224470  0.31762365  1
  O2-  O120  1  0.25057243  0.00211867  0.05827146  1
  O2-  O121  1  0.25522775  -0.00359187  0.38718707  1
  O2-  O122  1  0.24818859  0.00057120  0.73217943  1
  O2-  O123  1  0.24397471  0.49743544  0.05809523  1
  O2-  O124  1  0.24770273  0.50163451  0.40090999  1
  O2-  O125  1  0.25187584  0.49940749  0.72474330  1
  O2-  O126  1  0.75200187  -0.00154732  0.06292541  1
  O2-  O127  1  0.74911307  0.00110302  0.40166456  1
  O2-  O128  1  0.74939847  0.00104795  0.72477625  1
  O2-  O129  1  0.74788829  0.50290103  0.05456342  1
  O2-  O130  1  0.74988044  0.50014222  0.39762805  1
  O2-  O131  1  0.74629976  0.49504827  0.73087112  1
  O2-  O132  1  -0.00683334  0.25038361  0.26917521  1
  O2-  O133  1  -0.00474247  0.24547228  0.60077268  1
  O2-  O134  1  -0.00243781  0.24622794  0.94391898  1
  O2-  O135  1  -0.00987172  0.74688019  0.27244163  1
  O2-  O136  1  -0.00308827  0.75563356  0.60740670  1
  O2-  O137  1  -0.00430670  0.75210552  0.93812011  1
  O2-  O138  1  0.50989720  0.25192132  0.27104522  1
  O2-  O139  1  0.50145793  0.24438791  0.60799111  1
  O2-  O140  1  0.49749449  0.24853089  0.94208908  1
  O2-  O141  1  0.50049725  0.75366857  0.26790333  1
  O2-  O142  1  0.50652086  0.74620567  0.60698984  1
  O2-  O143  1  0.49913954  0.75678757  0.93959640  1
  O2-  O144  1  0.07548252  0.17825109  0.08815542  1
  O2-  O145  1  0.07059696  0.17687413  0.43011154  1
  O2-  O146  1  0.06767764  0.17966605  0.76640320  1
  O2-  O147  1  0.06962368  0.67834000  0.09838716  1
  O2-  O148  1  0.07025203  0.67977130  0.43218381  1
  O2-  O149  1  0.07127504  0.68068316  0.76641794  1
  O2-  O150  1  0.56830017  0.18121164  0.09107977  1
  O2-  O151  1  0.57005443  0.17609559  0.42133733  1
  O2-  O152  1  0.57221256  0.17888684  0.75753235  1
  O2-  O153  1  0.57167377  0.67513245  0.09705890  1
  O2-  O154  1  0.56993872  0.68342076  0.43437556  1
  O2-  O155  1  0.57379063  0.67900282  0.75661470  1
  O2-  O156  1  0.18255926  0.42765133  0.23464390  1
  O2-  O157  1  0.18028415  0.42879031  0.57747232  1
  O2-  O158  1  0.17899436  0.42314815  0.90978806  1
  O2-  O159  1  0.17968627  0.93149039  0.24037725  1
  O2-  O160  1  0.18083921  0.92459143  0.56834784  1
  O2-  O161  1  0.18058009  0.92958180  0.91145591  1
  O2-  O162  1  0.67842271  0.43148598  0.23422628  1
  O2-  O163  1  0.67265002  0.42888160  0.58143087  1
  O2-  O164  1  0.67922559  0.42804621  0.90758859  1
  O2-  O165  1  0.67790047  0.93093065  0.23749712  1
  O2-  O166  1  0.67847218  0.92976529  0.57843641  1
  O2-  O167  1  0.67835163  0.93085739  0.90147882  1
  O2-  O168  1  0.42954600  0.32115804  0.08963043  1
  O2-  O169  1  0.42834692  0.31715594  0.43120380  1
  O2-  O170  1  0.43074978  0.32159985  0.76736534  1
  O2-  O171  1  0.42668851  0.82682910  0.08644626  1
  O2-  O172  1  0.42700722  0.82491079  0.43082269  1
  O2-  O173  1  0.43361244  0.81729076  0.76804396  1
  O2-  O174  1  0.92646629  0.32182299  0.08954510  1
  O2-  O175  1  0.92894567  0.32032274  0.42019831  1
  O2-  O176  1  0.92947969  0.31862643  0.76466021  1
  O2-  O177  1  0.93233051  0.82364065  0.08917170  1
  O2-  O178  1  0.93474043  0.82588827  0.42306367  1
  O2-  O179  1  0.92358381  0.81936959  0.75710207  1
  O2-  O180  1  0.31760869  0.07278416  0.23960324  1
  O2-  O181  1  0.32034312  0.07156093  0.56746334  1
  O2-  O182  1  0.31942710  0.07922132  0.91191306  1
  O2-  O183  1  0.31863006  0.57168376  0.23591888  1
  O2-  O184  1  0.32209526  0.57113151  0.57720277  1
  O2-  O185  1  0.32083730  0.56767604  0.89905528  1
  O2-  O186  1  0.82281545  0.06604061  0.23704811  1
  O2-  O187  1  0.81928880  0.07045340  0.57680941  1
  O2-  O188  1  0.81896325  0.07381490  0.90020322  1
  O2-  O189  1  0.82317368  0.56832583  0.23303013  1
  O2-  O190  1  0.82094691  0.56963407  0.57099902  1
  O2-  O191  1  0.82429896  0.56543984  0.90772747  1
  O2-  O192  1  0.04031094  0.08145950  0.26215803  1
  O2-  O193  1  0.04448298  0.07561497  0.60289769  1
  O2-  O194  1  0.04820519  0.08436854  0.93671979  1
  O2-  O195  1  0.04144609  0.57835318  0.26522626  1
  O2-  O196  1  0.04051954  0.58379083  0.60082286  1
  O2-  O197  1  0.04281156  0.58056155  0.93185456  1
  O2-  O198  1  0.54223352  0.08876912  0.26622456  1
  O2-  O199  1  0.54832355  0.08276403  0.60647364  1
  O2-  O200  1  0.54264105  0.08741202  0.93885157  1
  O2-  O201  1  0.54287948  0.58347595  0.26748053  1
  O2-  O202  1  0.55118803  0.58356871  0.60702521  1
  O2-  O203  1  0.53863218  0.58414858  0.92750451  1
  O2-  O204  1  0.16407884  0.21127866  0.25988233  1
  O2-  O205  1  0.16730209  0.20616097  0.60101557  1
  O2-  O206  1  0.16272515  0.20831269  0.93490723  1
  O2-  O207  1  0.16254333  0.71265331  0.26324620  1
  O2-  O208  1  0.16758130  0.71000514  0.59891116  1
  O2-  O209  1  0.16782981  0.71225377  0.93309317  1
  O2-  O210  1  0.67037278  0.19871550  0.27298451  1
  O2-  O211  1  0.66401168  0.20266433  0.60395946  1
  O2-  O212  1  0.66087166  0.20934488  0.93859619  1
  O2-  O213  1  0.67170353  0.70868556  0.26960137  1
  O2-  O214  1  0.66969710  0.70346254  0.60823416  1
  O2-  O215  1  0.67036152  0.70697456  0.93056549  1
  O2-  O216  1  0.08233072  0.44896737  0.05975036  1
  O2-  O217  1  0.08011827  0.44912541  0.39994962  1
  O2-  O218  1  0.08885464  0.45763565  0.73052387  1
  O2-  O219  1  0.08898455  0.95693894  0.06416654  1
  O2-  O220  1  0.09075467  0.95998879  0.39405719  1
  O2-  O221  1  0.07843640  0.95009883  0.73631202  1
  O2-  O222  1  0.58559605  0.45715347  0.05777904  1
  O2-  O223  1  0.57866786  0.45798119  0.40201844  1
  O2-  O224  1  0.58342838  0.45539792  0.73448165  1
  O2-  O225  1  0.57950985  0.95693817  0.06731836  1
  O2-  O226  1  0.57838579  0.96269585  0.40258666  1
  O2-  O227  1  0.58791648  0.95661610  0.73225420  1
  O2-  O228  1  0.20438365  0.33333157  0.06243711  1
  O2-  O229  1  0.21245135  0.32871042  0.39915006  1
  O2-  O230  1  0.20752883  0.33764484  0.73059831  1
  O2-  O231  1  0.20926488  0.83868735  0.06441041  1
  O2-  O232  1  0.20494902  0.83676120  0.39227944  1
  O2-  O233  1  0.21326630  0.82966498  0.73690484  1
  O2-  O234  1  0.70593206  0.33967311  0.06156017  1
  O2-  O235  1  0.69884240  0.32942725  0.40082826  1
  O2-  O236  1  0.70030616  0.33298588  0.73218449  1
  O2-  O237  1  0.70643734  0.82791897  0.06754696  1
  O2-  O238  1  0.70459486  0.83315495  0.40682770  1
  O2-  O239  1  0.70758377  0.83775099  0.73122635  1
  O2-  O240  1  0.45856942  0.41892899  0.26471435  1
  O2-  O241  1  0.46050632  0.41711372  0.59893469  1
  O2-  O242  1  0.45816190  0.41157957  0.93583086  1
  O2-  O243  1  0.45260469  0.92492646  0.26538818  1
  O2-  O244  1  0.45979756  0.91754852  0.60277908  1
  O2-  O245  1  0.45202154  0.91975107  0.93558000  1
  O2-  O246  1  0.95426969  0.41254347  0.26692012  1
  O2-  O247  1  0.96005369  0.41780751  0.59849566  1
  O2-  O248  1  0.95740020  0.40867609  0.93383894  1
  O2-  O249  1  0.96298698  0.91129333  0.26730493  1
  O2-  O250  1  0.94634390  0.91613324  0.60671878  1
  O2-  O251  1  0.95756768  0.91621973  0.93723109  1
  O2-  O252  1  0.33733686  0.28516447  0.26049360  1
  O2-  O253  1  0.33237845  0.29230073  0.59915230  1
  O2-  O254  1  0.33590528  0.29398174  0.93864034  1
  O2-  O255  1  0.32976198  0.79651580  0.26225311  1
  O2-  O256  1  0.33607572  0.78920322  0.60074632  1
  O2-  O257  1  0.33536242  0.79643125  0.93549788  1
  O2-  O258  1  0.83121806  0.29650629  0.27100910  1
  O2-  O259  1  0.82585730  0.30125785  0.60078018  1
  O2-  O260  1  0.83490059  0.29311097  0.93667643  1
  O2-  O261  1  0.83215151  0.80495793  0.27664530  1
  O2-  O262  1  0.83291169  0.79297177  0.60484087  1
  O2-  O263  1  0.83517631  0.80048268  0.93851301  1
  O2-  O264  1  0.41240885  0.04854400  0.06363955  1
  O2-  O265  1  0.41381751  0.05358914  0.39178335  1
  O2-  O266  1  0.41915603  0.04366304  0.73593073  1
  O2-  O267  1  0.41660713  0.53746173  0.06577368  1
  O2-  O268  1  0.41721837  0.54572425  0.40212368  1
  O2-  O269  1  0.41514342  0.54276108  0.72846509  1
  O2-  O270  1  0.92254497  0.04834728  0.06444979  1
  O2-  O271  1  0.92141816  0.03689281  0.40212127  1
  O2-  O272  1  0.91131136  0.04478087  0.73017465  1
  O2-  O273  1  0.91375485  0.53584926  0.05954829  1
  O2-  O274  1  0.91962653  0.53957369  0.40040262  1
  O2-  O275  1  0.91841657  0.53552790  0.73761442  1
  O2-  O276  1  0.29067848  0.16562901  0.06499889  1
  O2-  O277  1  0.28654865  0.16201327  0.39156156  1
  O2-  O278  1  0.29181351  0.17056832  0.73546652  1
  O2-  O279  1  0.29247228  0.66850171  0.06572108  1
  O2-  O280  1  0.28960671  0.67289918  0.39964981  1
  O2-  O281  1  0.29316681  0.66148944  0.73005896  1
  O2-  O282  1  0.79125622  0.17041536  0.06825244  1
  O2-  O283  1  0.79994738  0.16905020  0.40293123  1
  O2-  O284  1  0.79198988  0.16471465  0.72759177  1
  O2-  O285  1  0.80266931  0.66340860  0.05678100  1
  O2-  O286  1  0.79942031  0.67076282  0.40098211  1
  O2-  O287  1  0.79280687  0.66546879  0.74018271  1
