# generated using pymatgen
data_Ca2Al2SiO7
_symmetry_space_group_name_H-M   'P 1'
_cell_length_a   15.45980630
_cell_length_b   15.46132861
_cell_length_c   15.28485975
_cell_angle_alpha   89.99787384
_cell_angle_beta   90.00128891
_cell_angle_gamma   89.99403109
_symmetry_Int_Tables_number   1
_chemical_formula_structural   Ca2Al2SiO7
_chemical_formula_sum   'Ca48 Al48 Si24 O168'
_cell_volume   3653.52694030
_cell_formula_units_Z   24
loop_
 _symmetry_equiv_pos_site_id
 _symmetry_equiv_pos_as_xyz
  1  'x, y, z'
loop_
 _atom_type_symbol
 _atom_type_oxidation_number
  Ca2+  2.0
  Al0+  0.0
  Si0+  0.0
  O2-  -2.0
loop_
 _atom_site_type_symbol
 _atom_site_label
 _atom_site_symmetry_multiplicity
 _atom_site_fract_x
 _atom_site_fract_y
 _atom_site_fract_z
 _atom_site_occupancy
  Ca2+  Ca0  1  0.17699726  0.09551780  0.17210726  1
  Ca2+  Ca1  1  0.16625252  0.08987236  0.49919942  1
  Ca2+  Ca2  1  0.16837960  0.08982504  0.84060146  1
  Ca2+  Ca3  1  0.16868013  0.56997693  0.17017101  1
  Ca2+  Ca4  1  0.16989145  0.58061815  0.50573409  1
  Ca2+  Ca5  1  0.17354491  0.58030304  0.84104071  1
  Ca2+  Ca6  1  0.66636331  0.08468951  0.16921024  1
  Ca2+  Ca7  1  0.66728861  0.08523927  0.50126201  1
  Ca2+  Ca8  1  0.67496037  0.07765403  0.84650336  1
  Ca2+  Ca9  1  0.67021971  0.57845517  0.17305751  1
  Ca2+  Ca10  1  0.66224653  0.57203667  0.50244382  1
  Ca2+  Ca11  1  0.67459328  0.57460495  0.83742398  1
  Ca2+  Ca12  1  0.08829699  0.32940246  0.16371416  1
  Ca2+  Ca13  1  0.07731531  0.32844286  0.49116655  1
  Ca2+  Ca14  1  0.08165961  0.32626225  0.82882762  1
  Ca2+  Ca15  1  0.07724673  0.83457191  0.16640307  1
  Ca2+  Ca16  1  0.07536104  0.82696706  0.49840084  1
  Ca2+  Ca17  1  0.07613481  0.82585495  0.82272140  1
  Ca2+  Ca18  1  0.58788468  0.32224562  0.16531205  1
  Ca2+  Ca19  1  0.57923331  0.33648703  0.49377125  1
  Ca2+  Ca20  1  0.57958441  0.33109152  0.82723270  1
  Ca2+  Ca21  1  0.58057888  0.83201080  0.16570490  1
  Ca2+  Ca22  1  0.57680789  0.82220280  0.48728028  1
  Ca2+  Ca23  1  0.58480883  0.83337367  0.83350432  1
  Ca2+  Ca24  1  0.32035082  0.41239067  0.16927843  1
  Ca2+  Ca25  1  0.32777606  0.41780852  0.50676777  1
  Ca2+  Ca26  1  0.32936292  0.42380891  0.83772968  1
  Ca2+  Ca27  1  0.33652267  0.92775523  0.17309436  1
  Ca2+  Ca28  1  0.33827654  0.92268236  0.49865724  1
  Ca2+  Ca29  1  0.32732115  0.92523815  0.84185664  1
  Ca2+  Ca30  1  0.83301651  0.42058703  0.17493891  1
  Ca2+  Ca31  1  0.82294563  0.40161254  0.50219546  1
  Ca2+  Ca32  1  0.83222219  0.41567294  0.83527678  1
  Ca2+  Ca33  1  0.83123858  0.92305354  0.16839033  1
  Ca2+  Ca34  1  0.83917295  0.91490866  0.50326511  1
  Ca2+  Ca35  1  0.83038479  0.92081589  0.84257011  1
  Ca2+  Ca36  1  0.42463038  0.15864037  0.16169489  1
  Ca2+  Ca37  1  0.42107949  0.17277512  0.49298488  1
  Ca2+  Ca38  1  0.41932347  0.17227555  0.83280206  1
  Ca2+  Ca39  1  0.41814196  0.66738516  0.16498834  1
  Ca2+  Ca40  1  0.41900342  0.66918048  0.49221576  1
  Ca2+  Ca41  1  0.41247060  0.66219271  0.82795449  1
  Ca2+  Ca42  1  0.92585741  0.17280874  0.16127309  1
  Ca2+  Ca43  1  0.92727598  0.17658607  0.49508532  1
  Ca2+  Ca44  1  0.92667905  0.16695893  0.82749446  1
  Ca2+  Ca45  1  0.90965291  0.67077105  0.16298253  1
  Ca2+  Ca46  1  0.91517560  0.67748096  0.49674369  1
  Ca2+  Ca47  1  0.92062234  0.66897738  0.82682403  1
  Al0+  Al48  1  -0.00160371  0.00019159  -0.00111806  1
  Al0+  Al49  1  0.00193924  -0.00008672  0.32678688  1
  Al0+  Al50  1  0.00121086  -0.00066042  0.66045706  1
  Al0+  Al51  1  -0.00045875  0.50076571  0.00681693  1
  Al0+  Al52  1  -0.00044867  0.50185841  0.33747757  1
  Al0+  Al53  1  -0.00140997  0.49906877  0.65952453  1
  Al0+  Al54  1  0.49939539  -0.00195464  0.00010331  1
  Al0+  Al55  1  0.50026172  -0.00027870  0.33343831  1
  Al0+  Al56  1  0.50009603  -0.00050117  0.66949353  1
  Al0+  Al57  1  0.50056332  0.50181201  0.00203196  1
  Al0+  Al58  1  0.50057615  0.50043240  0.33100011  1
  Al0+  Al59  1  0.49995313  0.49880488  0.67202162  1
  Al0+  Al60  1  0.25082622  0.25026058  0.00166631  1
  Al0+  Al61  1  0.25109535  0.25113776  0.34196788  1
  Al0+  Al62  1  0.25356852  0.25064505  0.66108589  1
  Al0+  Al63  1  0.25004656  0.75061918  0.00330111  1
  Al0+  Al64  1  0.24857968  0.75282110  0.32933598  1
  Al0+  Al65  1  0.25024437  0.75223384  0.66653386  1
  Al0+  Al66  1  0.75041250  0.24860611  -0.00209059  1
  Al0+  Al67  1  0.75082643  0.25006079  0.33057064  1
  Al0+  Al68  1  0.75017868  0.24598684  0.67146487  1
  Al0+  Al69  1  0.74715029  0.74903006  0.00536598  1
  Al0+  Al70  1  0.74969193  0.75066807  0.32648302  1
  Al0+  Al71  1  0.74795040  0.74881558  0.66398750  1
  Al0+  Al72  1  0.07395466  0.67747735  0.65298679  1
  Al0+  Al73  1  0.31887577  0.57173738  0.67868497  1
  Al0+  Al74  1  0.57005552  0.67661383  0.31663737  1
  Al0+  Al75  1  0.57151908  0.17755231  0.98477411  1
  Al0+  Al76  1  0.92589814  0.32085028  0.65293789  1
  Al0+  Al77  1  0.92838401  0.32245811  0.31712562  1
  Al0+  Al78  1  0.07324332  0.17955151  0.65098675  1
  Al0+  Al79  1  0.07286142  0.18155932  0.31649086  1
  Al0+  Al80  1  0.82040660  0.56932078  0.01246498  1
  Al0+  Al81  1  0.92719739  0.81961606  0.65359543  1
  Al0+  Al82  1  0.32299386  0.57383438  0.01685338  1
  Al0+  Al83  1  0.07162179  0.18009591  0.98617017  1
  Al0+  Al84  1  0.43219677  0.32213243  0.65367677  1
  Al0+  Al85  1  0.31883879  0.07002582  0.01198409  1
  Al0+  Al86  1  0.42783289  0.82143794  0.31731987  1
  Al0+  Al87  1  0.92928403  0.82087847  0.31646676  1
  Al0+  Al88  1  0.17991639  0.42914318  0.01336244  1
  Al0+  Al89  1  0.57049322  0.17994556  0.32129189  1
  Al0+  Al90  1  0.32226193  0.06981214  0.34957408  1
  Al0+  Al91  1  0.68039748  0.42864131  0.34617370  1
  Al0+  Al92  1  0.67988949  0.42733107  0.68117754  1
  Al0+  Al93  1  0.82296393  0.07247338  0.01616581  1
  Al0+  Al94  1  0.67856097  0.92904607  0.01690312  1
  Al0+  Al95  1  0.17852550  0.42983274  0.35093814  1
  Si0+  Si96  1  0.67787469  0.92705235  0.68015551  1
  Si0+  Si97  1  0.82215377  0.06745015  0.68043603  1
  Si0+  Si98  1  0.17602283  0.92724637  0.01581445  1
  Si0+  Si99  1  0.82126330  0.57443844  0.68111170  1
  Si0+  Si100  1  0.42823614  0.81977717  0.98254727  1
  Si0+  Si101  1  0.07077228  0.67891932  0.98691542  1
  Si0+  Si102  1  0.67750132  0.42656538  0.01612365  1
  Si0+  Si103  1  0.57105496  0.17583244  0.65175970  1
  Si0+  Si104  1  0.56932406  0.67907224  0.65396747  1
  Si0+  Si105  1  0.17640064  0.92753691  0.35193180  1
  Si0+  Si106  1  0.32258989  0.07194507  0.68287006  1
  Si0+  Si107  1  0.92824700  0.32467085  0.98381691  1
  Si0+  Si108  1  0.82114300  0.57485280  0.35214462  1
  Si0+  Si109  1  0.42763193  0.32278122  0.31698696  1
  Si0+  Si110  1  0.42910619  0.82310515  0.65328709  1
  Si0+  Si111  1  0.32087188  0.57374370  0.34910808  1
  Si0+  Si112  1  0.42929255  0.32304767  0.98396617  1
  Si0+  Si113  1  0.68035953  0.92908304  0.34973665  1
  Si0+  Si114  1  0.07231865  0.67783633  0.31474843  1
  Si0+  Si115  1  0.82267084  0.07013139  0.34898828  1
  Si0+  Si116  1  0.92731804  0.81930991  0.98528575  1
  Si0+  Si117  1  0.17924816  0.93079731  0.68094056  1
  Si0+  Si118  1  0.57120442  0.67837916  0.98187420  1
  Si0+  Si119  1  0.17656426  0.42664141  0.68188750  1
  O2-  O120  1  0.24127007  -0.00115732  0.05942622  1
  O2-  O121  1  0.24599408  -0.00425556  0.39602586  1
  O2-  O122  1  0.24741789  0.00446481  0.72392516  1
  O2-  O123  1  0.25302316  0.49987703  0.06478121  1
  O2-  O124  1  0.25327278  0.50601025  0.39567690  1
  O2-  O125  1  0.24090823  0.50015600  0.72562999  1
  O2-  O126  1  0.74789586  0.00356117  0.06666537  1
  O2-  O127  1  0.75226140  -0.00159022  0.39317075  1
  O2-  O128  1  0.75108826  -0.00455309  0.72173215  1
  O2-  O129  1  0.74895940  0.49224099  0.05946848  1
  O2-  O130  1  0.75494916  0.50325152  0.39530904  1
  O2-  O131  1  0.75862643  0.49979034  0.72523714  1
  O2-  O132  1  0.00313863  0.25483340  0.26556493  1
  O2-  O133  1  0.00386154  0.25516918  0.60325793  1
  O2-  O134  1  -0.00497668  0.25349611  0.94026647  1
  O2-  O135  1  0.00167750  0.74427659  0.26955017  1
  O2-  O136  1  -0.00262942  0.74568927  0.60401493  1
  O2-  O137  1  -0.00016119  0.74981140  0.94342414  1
  O2-  O138  1  0.49598939  0.25384427  0.27304670  1
  O2-  O139  1  0.50659375  0.24716305  0.60683409  1
  O2-  O140  1  0.49984760  0.25578962  0.93920192  1
  O2-  O141  1  0.49706901  0.74763254  0.26634818  1
  O2-  O142  1  0.49820995  0.75021481  0.61204074  1
  O2-  O143  1  0.49702561  0.74658732  0.93918774  1
  O2-  O144  1  0.07336438  0.18158124  0.09841663  1
  O2-  O145  1  0.06975957  0.18120593  0.43010162  1
  O2-  O146  1  0.07157336  0.17779798  0.76498951  1
  O2-  O147  1  0.06973253  0.68119549  0.09176423  1
  O2-  O148  1  0.07339890  0.68108153  0.42033323  1
  O2-  O149  1  0.07416559  0.68188681  0.76735615  1
  O2-  O150  1  0.56917551  0.17789945  0.09777363  1
  O2-  O151  1  0.56992732  0.17980492  0.43487639  1
  O2-  O152  1  0.56773753  0.17299013  0.75717436  1
  O2-  O153  1  0.57232837  0.67922976  0.08640699  1
  O2-  O154  1  0.56895853  0.67813656  0.43131825  1
  O2-  O155  1  0.57092985  0.68190204  0.75921256  1
  O2-  O156  1  0.18086493  0.42966613  0.23790954  1
  O2-  O157  1  0.18132564  0.42655877  0.57654741  1
  O2-  O158  1  0.17921043  0.43098463  0.89931923  1
  O2-  O159  1  0.17607438  0.92612462  0.24640251  1
  O2-  O160  1  0.18134049  0.92888437  0.57625939  1
  O2-  O161  1  0.17901762  0.92431518  0.90965946  1
  O2-  O162  1  0.68222907  0.42921665  0.23315301  1
  O2-  O163  1  0.67746209  0.42960925  0.56827366  1
  O2-  O164  1  0.67671506  0.42948954  0.91007513  1
  O2-  O165  1  0.68030300  0.93021074  0.24503511  1
  O2-  O166  1  0.67419810  0.92781862  0.57527562  1
  O2-  O167  1  0.68173214  0.92709087  0.90211126  1
  O2-  O168  1  0.42948327  0.32232092  0.08935337  1
  O2-  O169  1  0.43043785  0.32304565  0.42299200  1
  O2-  O170  1  0.43188615  0.32036141  0.76697285  1
  O2-  O171  1  0.42881567  0.82033688  0.08708003  1
  O2-  O172  1  0.43133450  0.82056264  0.43200460  1
  O2-  O173  1  0.43047369  0.82588195  0.75844329  1
  O2-  O174  1  0.92907624  0.32591538  0.08901598  1
  O2-  O175  1  0.92651229  0.31654096  0.43055293  1
  O2-  O176  1  0.92526756  0.31721021  0.76687536  1
  O2-  O177  1  0.92827379  0.81855400  0.09022171  1
  O2-  O178  1  0.92954134  0.81976350  0.42971157  1
  O2-  O179  1  0.92746094  0.81979087  0.76762400  1
  O2-  O180  1  0.32287781  0.06828352  0.23646201  1
  O2-  O181  1  0.32824900  0.06774690  0.57833548  1
  O2-  O182  1  0.31804502  0.06827829  0.89809288  1
  O2-  O183  1  0.31880467  0.57260361  0.24379382  1
  O2-  O184  1  0.32073276  0.57200347  0.56576514  1
  O2-  O185  1  0.31972074  0.57430936  0.90279386  1
  O2-  O186  1  0.82106078  0.06878925  0.24422655  1
  O2-  O187  1  0.81990850  0.06702618  0.57515156  1
  O2-  O188  1  0.82408339  0.06702646  0.90171391  1
  O2-  O189  1  0.81894325  0.57543348  0.24625087  1
  O2-  O190  1  0.81411659  0.58353936  0.57663586  1
  O2-  O191  1  0.81961397  0.57054318  0.89887273  1
  O2-  O192  1  0.04690684  0.08239816  0.26504276  1
  O2-  O193  1  0.04334832  0.08200827  0.59732626  1
  O2-  O194  1  0.04262110  0.08155952  0.93277977  1
  O2-  O195  1  0.04821164  0.58347215  0.27103308  1
  O2-  O196  1  0.05314714  0.57811403  0.60042243  1
  O2-  O197  1  0.04233846  0.58723132  0.94014362  1
  O2-  O198  1  0.54044234  0.08334049  0.26817220  1
  O2-  O199  1  0.54249953  0.08290339  0.60466515  1
  O2-  O200  1  0.53855076  0.08082921  0.93122605  1
  O2-  O201  1  0.54379180  0.57884161  0.26178562  1
  O2-  O202  1  0.54063043  0.58762458  0.60805291  1
  O2-  O203  1  0.54657084  0.58545680  0.93428397  1
  O2-  O204  1  0.17373683  0.21031527  0.26956978  1
  O2-  O205  1  0.17326007  0.20193391  0.59971687  1
  O2-  O206  1  0.16861787  0.21129906  0.93188162  1
  O2-  O207  1  0.16441045  0.70564888  0.26712342  1
  O2-  O208  1  0.16948781  0.71328540  0.59803548  1
  O2-  O209  1  0.16297811  0.70748849  0.93993632  1
  O2-  O210  1  0.66608417  0.20980785  0.26587501  1
  O2-  O211  1  0.66679766  0.19593518  0.60942336  1
  O2-  O212  1  0.66957421  0.20440177  0.93036254  1
  O2-  O213  1  0.66700399  0.70753065  0.26339297  1
  O2-  O214  1  0.65937745  0.70699707  0.60381376  1
  O2-  O215  1  0.66192313  0.71073010  0.93400033  1
  O2-  O216  1  0.08350066  0.45898638  0.06892904  1
  O2-  O217  1  0.08142398  0.46022027  0.40462551  1
  O2-  O218  1  0.07965803  0.44534241  0.72406342  1
  O2-  O219  1  0.08089875  0.94780150  0.05924666  1
  O2-  O220  1  0.08276895  0.95461885  0.39769711  1
  O2-  O221  1  0.08585708  0.95488518  0.72763973  1
  O2-  O222  1  0.58541623  0.45509266  0.06246696  1
  O2-  O223  1  0.58254003  0.45999145  0.39936417  1
  O2-  O224  1  0.58624442  0.46279281  0.73816043  1
  O2-  O225  1  0.57900254  0.95383982  0.06724644  1
  O2-  O226  1  0.58923681  0.95753068  0.39817514  1
  O2-  O227  1  0.58731565  0.95623534  0.73067461  1
  O2-  O228  1  0.21062897  0.33250976  0.06801944  1
  O2-  O229  1  0.21128327  0.33546807  0.40753556  1
  O2-  O230  1  0.20873364  0.33431767  0.72754554  1
  O2-  O231  1  0.20395678  0.83563687  0.06422258  1
  O2-  O232  1  0.20201353  0.83349194  0.39815457  1
  O2-  O233  1  0.21017391  0.84098440  0.73115417  1
  O2-  O234  1  0.69886852  0.33128719  0.05903376  1
  O2-  O235  1  0.71017475  0.33137727  0.40085274  1
  O2-  O236  1  0.70645308  0.32934478  0.73569235  1
  O2-  O237  1  0.70756426  0.83181893  0.07044153  1
  O2-  O238  1  0.70776791  0.83597653  0.39536222  1
  O2-  O239  1  0.70265780  0.83432933  0.72779587  1
  O2-  O240  1  0.45113960  0.41611240  0.27055942  1
  O2-  O241  1  0.46375339  0.41836762  0.59976274  1
  O2-  O242  1  0.45413348  0.41779723  0.93841656  1
  O2-  O243  1  0.46142282  0.91793565  0.26500940  1
  O2-  O244  1  0.45997494  0.91371127  0.60486419  1
  O2-  O245  1  0.45833209  0.90995541  0.93283540  1
  O2-  O246  1  0.95034036  0.42509384  0.27094687  1
  O2-  O247  1  0.94032428  0.42229732  0.60150189  1
  O2-  O248  1  0.95590762  0.41825179  0.93778091  1
  O2-  O249  1  0.96200514  0.91572652  0.26105004  1
  O2-  O250  1  0.95798330  0.91570293  0.59822397  1
  O2-  O251  1  0.95348991  0.91123359  0.93742877  1
  O2-  O252  1  0.33399271  0.29561143  0.27408302  1
  O2-  O253  1  0.33746523  0.29168572  0.59704199  1
  O2-  O254  1  0.33703176  0.29458793  0.93679470  1
  O2-  O255  1  0.32802067  0.79972743  0.26486302  1
  O2-  O256  1  0.33737846  0.79855366  0.60557632  1
  O2-  O257  1  0.33479452  0.79432003  0.93562487  1
  O2-  O258  1  0.83188348  0.29111611  0.26294868  1
  O2-  O259  1  0.82912601  0.28405059  0.60070248  1
  O2-  O260  1  0.83338004  0.30223527  0.93878962  1
  O2-  O261  1  0.83284839  0.79260141  0.26173636  1
  O2-  O262  1  0.82804671  0.79411642  0.59943749  1
  O2-  O263  1  0.83518600  0.78938478  0.93975346  1
  O2-  O264  1  0.41369874  0.03458210  0.06510160  1
  O2-  O265  1  0.41798760  0.03558991  0.40512357  1
  O2-  O266  1  0.41248772  0.03921884  0.73263702  1
  O2-  O267  1  0.42329537  0.55014998  0.06701409  1
  O2-  O268  1  0.41594298  0.54974905  0.39278454  1
  O2-  O269  1  0.41405131  0.53925373  0.73517173  1
  O2-  O270  1  0.91975836  0.03989559  0.06958227  1
  O2-  O271  1  0.91488245  0.04035388  0.39454660  1
  O2-  O272  1  0.91445781  0.03916487  0.72681839  1
  O2-  O273  1  0.91634989  0.54501223  0.07008653  1
  O2-  O274  1  0.91638727  0.55631659  0.39688876  1
  O2-  O275  1  0.91819156  0.55537598  0.72311276  1
  O2-  O276  1  0.29375800  0.16695560  0.06638885  1
  O2-  O277  1  0.29417331  0.16600706  0.40543512  1
  O2-  O278  1  0.29853133  0.16547112  0.72810945  1
  O2-  O279  1  0.29384528  0.67180174  0.06962206  1
  O2-  O280  1  0.29567913  0.66892840  0.39318466  1
  O2-  O281  1  0.29311828  0.67060026  0.73270613  1
  O2-  O282  1  0.79787782  0.17240259  0.06634144  1
  O2-  O283  1  0.79196203  0.16083174  0.39629089  1
  O2-  O284  1  0.79412718  0.15696706  0.73147386  1
  O2-  O285  1  0.78597805  0.66355485  0.06826624  1
  O2-  O286  1  0.79168205  0.66862673  0.39651955  1
  O2-  O287  1  0.78898591  0.66513525  0.73171206  1
