# generated using pymatgen
data_Ca2Al2SiO7
_symmetry_space_group_name_H-M   'P 1'
_cell_length_a   15.45450067
_cell_length_b   15.45434440
_cell_length_c   15.28089928
_cell_angle_alpha   90.00730026
_cell_angle_beta   89.99326843
_cell_angle_gamma   90.01165491
_symmetry_Int_Tables_number   1
_chemical_formula_structural   Ca2Al2SiO7
_chemical_formula_sum   'Ca48 Al48 Si24 O168'
_cell_volume   3649.67726246
_cell_formula_units_Z   24
loop_
 _symmetry_equiv_pos_site_id
 _symmetry_equiv_pos_as_xyz
  1  'x, y, z'
loop_
 _atom_type_symbol
 _atom_type_oxidation_number
  Ca2+  2.0
  Al0+  0.0
  Si0+  0.0
  O2-  -2.0
loop_
 _atom_site_type_symbol
 _atom_site_label
 _atom_site_symmetry_multiplicity
 _atom_site_fract_x
 _atom_site_fract_y
 _atom_site_fract_z
 _atom_site_occupancy
  Ca2+  Ca0  1  0.17428661  0.07558387  0.17222516  1
  Ca2+  Ca1  1  0.16555342  0.08709533  0.49802024  1
  Ca2+  Ca2  1  0.17194092  0.07954759  0.84182426  1
  Ca2+  Ca3  1  0.17244154  0.57171732  0.17505960  1
  Ca2+  Ca4  1  0.17538915  0.57700846  0.50100584  1
  Ca2+  Ca5  1  0.17124237  0.57706685  0.83641250  1
  Ca2+  Ca6  1  0.66340476  0.06955641  0.17083179  1
  Ca2+  Ca7  1  0.67026033  0.08223609  0.50572820  1
  Ca2+  Ca8  1  0.67130373  0.08234790  0.83534821  1
  Ca2+  Ca9  1  0.67280137  0.57820759  0.17746263  1
  Ca2+  Ca10  1  0.67566962  0.57497203  0.49934811  1
  Ca2+  Ca11  1  0.67250194  0.58869217  0.83132861  1
  Ca2+  Ca12  1  0.08992450  0.33218653  0.16653258  1
  Ca2+  Ca13  1  0.08152586  0.32358022  0.48802534  1
  Ca2+  Ca14  1  0.08647781  0.32653151  0.82950648  1
  Ca2+  Ca15  1  0.08268326  0.83630494  0.16106604  1
  Ca2+  Ca16  1  0.07736865  0.83505239  0.49498171  1
  Ca2+  Ca17  1  0.07305139  0.84158939  0.82925668  1
  Ca2+  Ca18  1  0.57021928  0.33889420  0.16454982  1
  Ca2+  Ca19  1  0.58316672  0.32911867  0.49191606  1
  Ca2+  Ca20  1  0.57567003  0.32614535  0.82830724  1
  Ca2+  Ca21  1  0.58098611  0.83544419  0.15944420  1
  Ca2+  Ca22  1  0.57800859  0.83450841  0.49681356  1
  Ca2+  Ca23  1  0.57063916  0.84229397  0.83178771  1
  Ca2+  Ca24  1  0.32781472  0.41477074  0.17609742  1
  Ca2+  Ca25  1  0.33604221  0.42304298  0.49899826  1
  Ca2+  Ca26  1  0.33035651  0.41897306  0.83996961  1
  Ca2+  Ca27  1  0.32963546  0.92577090  0.17319869  1
  Ca2+  Ca28  1  0.32737303  0.91991348  0.50145953  1
  Ca2+  Ca29  1  0.33095119  0.92058315  0.84432136  1
  Ca2+  Ca30  1  0.82817799  0.42146595  0.18040348  1
  Ca2+  Ca31  1  0.83870263  0.42218999  0.50127807  1
  Ca2+  Ca32  1  0.83418526  0.42328222  0.83494065  1
  Ca2+  Ca33  1  0.82276930  0.90999621  0.16984077  1
  Ca2+  Ca34  1  0.82798050  0.92004777  0.50633849  1
  Ca2+  Ca35  1  0.83299148  0.91858554  0.83777636  1
  Ca2+  Ca36  1  0.40381057  0.17429534  0.16562787  1
  Ca2+  Ca37  1  0.42150562  0.17049590  0.49175918  1
  Ca2+  Ca38  1  0.41884040  0.16765874  0.83097511  1
  Ca2+  Ca39  1  0.41655867  0.67037967  0.16222885  1
  Ca2+  Ca40  1  0.40758529  0.66917444  0.49664972  1
  Ca2+  Ca41  1  0.41149884  0.67930079  0.82679071  1
  Ca2+  Ca42  1  0.92277817  0.17081690  0.16948933  1
  Ca2+  Ca43  1  0.92641199  0.16640181  0.49259750  1
  Ca2+  Ca44  1  0.92475632  0.16303254  0.82146081  1
  Ca2+  Ca45  1  0.91736648  0.66949058  0.16156673  1
  Ca2+  Ca46  1  0.90813237  0.66880019  0.49696233  1
  Ca2+  Ca47  1  0.91640721  0.67846898  0.82750773  1
  Al0+  Al48  1  0.00015779  0.00158177  0.00000576  1
  Al0+  Al49  1  -0.00102205  -0.00069801  0.32880911  1
  Al0+  Al50  1  -0.00171333  -0.00048084  0.66077454  1
  Al0+  Al51  1  0.00091801  0.50010555  0.00159714  1
  Al0+  Al52  1  0.00125864  0.50222861  0.33710478  1
  Al0+  Al53  1  0.00012686  0.50056331  0.67375096  1
  Al0+  Al54  1  0.50280625  0.00126363  0.00363861  1
  Al0+  Al55  1  0.49913212  -0.00089426  0.34093335  1
  Al0+  Al56  1  0.49817623  0.00036600  0.65766235  1
  Al0+  Al57  1  0.50213624  0.49960623  -0.00809977  1
  Al0+  Al58  1  0.50305034  0.50097274  0.33658865  1
  Al0+  Al59  1  0.49930451  0.50192598  0.67334967  1
  Al0+  Al60  1  0.24977459  0.25127421  0.00016725  1
  Al0+  Al61  1  0.25117094  0.24810556  0.33350133  1
  Al0+  Al62  1  0.25014802  0.24901300  0.66247948  1
  Al0+  Al63  1  0.24961959  0.74798872  -0.00191901  1
  Al0+  Al64  1  0.24772903  0.75191756  0.33775931  1
  Al0+  Al65  1  0.24794786  0.74947523  0.66730184  1
  Al0+  Al66  1  0.75085245  0.25193638  -0.00004766  1
  Al0+  Al67  1  0.75037494  0.24739501  0.32968536  1
  Al0+  Al68  1  0.74948122  0.24922697  0.66864393  1
  Al0+  Al69  1  0.75208262  0.75064037  -0.00162883  1
  Al0+  Al70  1  0.74728423  0.74986631  0.34053084  1
  Al0+  Al71  1  0.74696321  0.74912779  0.66722172  1
  Al0+  Al72  1  0.07116262  0.17904894  0.65302958  1
  Al0+  Al73  1  0.68196569  0.93040001  0.01157907  1
  Al0+  Al74  1  0.32247237  0.07064962  0.01359977  1
  Al0+  Al75  1  0.92766379  0.81938905  0.65154868  1
  Al0+  Al76  1  0.43264542  0.32123222  0.32108306  1
  Al0+  Al77  1  0.17933050  0.42730464  0.34928598  1
  Al0+  Al78  1  0.82240369  0.57074123  0.34722317  1
  Al0+  Al79  1  0.92930683  0.32343801  0.31836218  1
  Al0+  Al80  1  0.07215135  0.17787555  0.31388626  1
  Al0+  Al81  1  0.57138535  0.18002368  0.65283885  1
  Al0+  Al82  1  0.32070398  0.57195182  0.68318271  1
  Al0+  Al83  1  0.42786751  0.32046499  0.98507559  1
  Al0+  Al84  1  0.17619378  0.92924938  0.34974918  1
  Al0+  Al85  1  0.42691422  0.82009830  0.65117733  1
  Al0+  Al86  1  0.42946477  0.82127240  0.98942466  1
  Al0+  Al87  1  0.32270789  0.57181795  0.34623890  1
  Al0+  Al88  1  0.18026849  0.43032400  0.01337386  1
  Al0+  Al89  1  0.82100943  0.06979300  0.67893394  1
  Al0+  Al90  1  0.82094258  0.57137027  0.68341730  1
  Al0+  Al91  1  0.32023921  0.07139131  0.35137801  1
  Al0+  Al92  1  0.67923768  0.42584612  0.34673155  1
  Al0+  Al93  1  0.67829869  0.92843884  0.34918458  1
  Al0+  Al94  1  0.93018030  0.82091803  0.98680621  1
  Al0+  Al95  1  0.17714306  0.92685869  0.01303256  1
  Si0+  Si96  1  0.32157181  0.07093258  0.68122833  1
  Si0+  Si97  1  0.17844483  0.92990582  0.68119922  1
  Si0+  Si98  1  0.67575260  0.92889276  0.68375591  1
  Si0+  Si99  1  0.57291130  0.17463229  0.31523415  1
  Si0+  Si100  1  0.81974786  0.57021130  0.01426713  1
  Si0+  Si101  1  0.07254280  0.68035414  0.31853552  1
  Si0+  Si102  1  0.42756556  0.82094396  0.31864458  1
  Si0+  Si103  1  0.07055621  0.67660316  0.64983214  1
  Si0+  Si104  1  0.57370804  0.67776588  0.98222925  1
  Si0+  Si105  1  0.92831945  0.32365724  0.65288807  1
  Si0+  Si106  1  0.82411456  0.07542169  0.01728253  1
  Si0+  Si107  1  0.67874492  0.42824232  0.01392219  1
  Si0+  Si108  1  0.07161820  0.67537205  0.98279187  1
  Si0+  Si109  1  0.57463756  0.17836613  0.98399605  1
  Si0+  Si110  1  0.57114099  0.68112061  0.31931138  1
  Si0+  Si111  1  0.32495287  0.57180309  0.01499314  1
  Si0+  Si112  1  0.82155591  0.07064153  0.34846083  1
  Si0+  Si113  1  0.67746063  0.42685369  0.68624271  1
  Si0+  Si114  1  0.17960758  0.42609157  0.68375929  1
  Si0+  Si115  1  0.92645755  0.81902654  0.31829789  1
  Si0+  Si116  1  0.92716217  0.32326649  0.98372524  1
  Si0+  Si117  1  0.42862414  0.32332182  0.65012534  1
  Si0+  Si118  1  0.57097550  0.67682513  0.64836392  1
  Si0+  Si119  1  0.06918661  0.18125540  0.98434572  1
  O2-  O120  1  0.25374330  -0.00571382  0.06188107  1
  O2-  O121  1  0.24601595  0.00174194  0.40173714  1
  O2-  O122  1  0.25037962  0.00012216  0.72361608  1
  O2-  O123  1  0.25733069  0.50277315  0.05933238  1
  O2-  O124  1  0.25361974  0.49774384  0.39768812  1
  O2-  O125  1  0.24857919  0.49424126  0.72879824  1
  O2-  O126  1  0.75624770  0.00500559  0.05991689  1
  O2-  O127  1  0.75129461  0.00466574  0.39411125  1
  O2-  O128  1  0.74616951  -0.00401057  0.72773626  1
  O2-  O129  1  0.74901856  0.49958704  0.05634317  1
  O2-  O130  1  0.75735006  0.49158036  0.39601485  1
  O2-  O131  1  0.74695040  0.49558951  0.73052591  1
  O2-  O132  1  0.00327422  0.25471159  0.26525235  1
  O2-  O133  1  -0.00333828  0.25515829  0.60904858  1
  O2-  O134  1  -0.00419373  0.25014972  0.94124640  1
  O2-  O135  1  -0.00104510  0.74944126  0.27629916  1
  O2-  O136  1  -0.00080988  0.74194783  0.60438166  1
  O2-  O137  1  0.00873213  0.75019419  0.93931068  1
  O2-  O138  1  0.50630993  0.24572166  0.27165763  1
  O2-  O139  1  0.49921496  0.25684259  0.60643180  1
  O2-  O140  1  0.50315867  0.24495493  0.94041528  1
  O2-  O141  1  0.49826056  0.74964914  0.27615692  1
  O2-  O142  1  0.50017036  0.74350680  0.60439774  1
  O2-  O143  1  0.50249760  0.74525152  0.94017712  1
  O2-  O144  1  0.06847497  0.18227990  0.08878619  1
  O2-  O145  1  0.06739787  0.17713855  0.42769266  1
  O2-  O146  1  0.07161943  0.17968283  0.76702907  1
  O2-  O147  1  0.06745528  0.67103395  0.08824731  1
  O2-  O148  1  0.07361877  0.68215455  0.42359682  1
  O2-  O149  1  0.07009131  0.67848571  0.75576654  1
  O2-  O150  1  0.57971709  0.18046644  0.08900710  1
  O2-  O151  1  0.57212593  0.17526230  0.42104862  1
  O2-  O152  1  0.56894170  0.17992034  0.76646450  1
  O2-  O153  1  0.57533965  0.67588982  0.08795629  1
  O2-  O154  1  0.57315554  0.68313611  0.42414870  1
  O2-  O155  1  0.57176490  0.67910975  0.75432641  1
  O2-  O156  1  0.18067648  0.43120730  0.23530668  1
  O2-  O157  1  0.17909445  0.42655632  0.57880954  1
  O2-  O158  1  0.17968639  0.43109979  0.89986059  1
  O2-  O159  1  0.17899684  0.92664658  0.23622970  1
  O2-  O160  1  0.17899007  0.92967384  0.57642916  1
  O2-  O161  1  0.17507387  0.93235938  0.89877473  1
  O2-  O162  1  0.67681526  0.43267567  0.23247676  1
  O2-  O163  1  0.67702170  0.42674119  0.58111526  1
  O2-  O164  1  0.68112515  0.42710552  0.90885806  1
  O2-  O165  1  0.67983468  0.92607916  0.23558996  1
  O2-  O166  1  0.67701234  0.92995134  0.57818280  1
  O2-  O167  1  0.68165004  0.93219434  0.89854485  1
  O2-  O168  1  0.42958499  0.32349673  0.09780840  1
  O2-  O169  1  0.43654832  0.32168517  0.43430999  1
  O2-  O170  1  0.42770938  0.32033060  0.75620394  1
  O2-  O171  1  0.43235116  0.81881024  0.10253516  1
  O2-  O172  1  0.42839764  0.81911741  0.42384934  1
  O2-  O173  1  0.42848198  0.82239564  0.76478786  1
  O2-  O174  1  0.92506535  0.32470477  0.08812496  1
  O2-  O175  1  0.92943161  0.32044346  0.43227966  1
  O2-  O176  1  0.93014423  0.32311180  0.75929166  1
  O2-  O177  1  0.92582879  0.81509658  0.09985163  1
  O2-  O178  1  0.92598484  0.81809423  0.42346229  1
  O2-  O179  1  0.93023265  0.82061804  0.76501991  1
  O2-  O180  1  0.32197446  0.06782169  0.23774634  1
  O2-  O181  1  0.32115945  0.07094477  0.57670970  1
  O2-  O182  1  0.32067490  0.07069723  0.89890785  1
  O2-  O183  1  0.32121404  0.57355058  0.23234287  1
  O2-  O184  1  0.31902646  0.57065022  0.57050907  1
  O2-  O185  1  0.32247628  0.57129322  0.90921525  1
  O2-  O186  1  0.82091833  0.06801511  0.24248991  1
  O2-  O187  1  0.82016107  0.06808956  0.56618519  1
  O2-  O188  1  0.82387670  0.07636168  0.91139376  1
  O2-  O189  1  0.81753037  0.57513436  0.23300312  1
  O2-  O190  1  0.81990394  0.56926185  0.57104492  1
  O2-  O191  1  0.81888820  0.56941126  0.90908316  1
  O2-  O192  1  0.03806306  0.08071302  0.25984746  1
  O2-  O193  1  0.03836822  0.08457449  0.59740052  1
  O2-  O194  1  0.04300412  0.08910956  0.93630733  1
  O2-  O195  1  0.04678399  0.58819885  0.27089675  1
  O2-  O196  1  0.04795062  0.58093291  0.60719370  1
  O2-  O197  1  0.03894635  0.58482227  0.93320165  1
  O2-  O198  1  0.54374015  0.08045682  0.27152182  1
  O2-  O199  1  0.54029145  0.08542770  0.59613166  1
  O2-  O200  1  0.55117136  0.08442672  0.93794737  1
  O2-  O201  1  0.54656895  0.58897305  0.27102762  1
  O2-  O202  1  0.54787740  0.58124944  0.60578929  1
  O2-  O203  1  0.55220282  0.58452723  0.93298153  1
  O2-  O204  1  0.17228721  0.20233851  0.26367305  1
  O2-  O205  1  0.16755352  0.20820280  0.59798198  1
  O2-  O206  1  0.15983221  0.21169790  0.93594335  1
  O2-  O207  1  0.16276451  0.71082335  0.26882243  1
  O2-  O208  1  0.16267597  0.70531773  0.60340380  1
  O2-  O209  1  0.16744793  0.69293467  0.93816107  1
  O2-  O210  1  0.66760482  0.19356643  0.26888821  1
  O2-  O211  1  0.66901301  0.20870080  0.59948841  1
  O2-  O212  1  0.66717730  0.20772417  0.93536510  1
  O2-  O213  1  0.66178020  0.71232416  0.27028337  1
  O2-  O214  1  0.66355474  0.70392068  0.60149348  1
  O2-  O215  1  0.66630323  0.70629755  0.93543407  1
  O2-  O216  1  0.08364082  0.46158323  0.06742273  1
  O2-  O217  1  0.08242160  0.45802459  0.40284928  1
  O2-  O218  1  0.08644786  0.45132882  0.73201334  1
  O2-  O219  1  0.07982531  0.95823416  0.06665797  1
  O2-  O220  1  0.07559217  0.95486089  0.39938312  1
  O2-  O221  1  0.08643415  0.95982569  0.72665861  1
  O2-  O222  1  0.58616819  0.45704564  0.05892104  1
  O2-  O223  1  0.58604575  0.46203777  0.40408011  1
  O2-  O224  1  0.58480116  0.45399166  0.73430894  1
  O2-  O225  1  0.58700421  0.96008468  0.06911719  1
  O2-  O226  1  0.58260750  0.95656689  0.40467653  1
  O2-  O227  1  0.58178691  0.95874849  0.72712915  1
  O2-  O228  1  0.20922804  0.33392533  0.06660567  1
  O2-  O229  1  0.20491850  0.32837567  0.39986121  1
  O2-  O230  1  0.20666376  0.33221856  0.72983057  1
  O2-  O231  1  0.19759217  0.82484700  0.06161423  1
  O2-  O232  1  0.20542203  0.83236289  0.40487553  1
  O2-  O233  1  0.20364655  0.83761209  0.72857253  1
  O2-  O234  1  0.70593749  0.33703424  0.06223859  1
  O2-  O235  1  0.69962285  0.32414537  0.39533721  1
  O2-  O236  1  0.70327883  0.33386941  0.73388428  1
  O2-  O237  1  0.71324083  0.83328403  0.06568467  1
  O2-  O238  1  0.71042005  0.83441678  0.40608030  1
  O2-  O239  1  0.69782172  0.83420540  0.72828990  1
  O2-  O240  1  0.46419817  0.41847601  0.26696453  1
  O2-  O241  1  0.45262893  0.41914003  0.60897457  1
  O2-  O242  1  0.46075395  0.41575882  0.92792023  1
  O2-  O243  1  0.45809668  0.91295178  0.27379457  1
  O2-  O244  1  0.45828577  0.91482423  0.59473874  1
  O2-  O245  1  0.46307535  0.91777656  0.93541806  1
  O2-  O246  1  0.95253115  0.42513350  0.26850384  1
  O2-  O247  1  0.95349533  0.41824615  0.60921442  1
  O2-  O248  1  0.95785000  0.41447208  0.93582883  1
  O2-  O249  1  0.95088646  0.91079442  0.26972088  1
  O2-  O250  1  0.96036235  0.91381985  0.59562465  1
  O2-  O251  1  0.95640198  0.91981724  0.93370839  1
  O2-  O252  1  0.33562708  0.29099382  0.26786987  1
  O2-  O253  1  0.33603395  0.29645064  0.60371498  1
  O2-  O254  1  0.33166273  0.29008799  0.92959562  1
  O2-  O255  1  0.33506030  0.79399864  0.27248561  1
  O2-  O256  1  0.32977821  0.78877922  0.59878537  1
  O2-  O257  1  0.33228385  0.79294540  0.93364842  1
  O2-  O258  1  0.83105498  0.29264035  0.26356800  1
  O2-  O259  1  0.83361349  0.30050860  0.60957537  1
  O2-  O260  1  0.83451879  0.29872245  0.93534327  1
  O2-  O261  1  0.83436765  0.78787704  0.27265754  1
  O2-  O262  1  0.82914602  0.79064604  0.60051496  1
  O2-  O263  1  0.83562221  0.78639538  0.93013107  1
  O2-  O264  1  0.42202139  0.04915614  0.06616691  1
  O2-  O265  1  0.41709031  0.04039492  0.40576690  1
  O2-  O266  1  0.41388786  0.04212219  0.72704790  1
  O2-  O267  1  0.42097764  0.54835887  0.05660707  1
  O2-  O268  1  0.42140573  0.54764302  0.39986730  1
  O2-  O269  1  0.41822900  0.54656424  0.73864035  1
  O2-  O270  1  0.91740697  0.05097225  0.06295343  1
  O2-  O271  1  0.91407685  0.04203802  0.39381007  1
  O2-  O272  1  0.91743041  0.03696373  0.73329532  1
  O2-  O273  1  0.91160953  0.54265477  0.06083412  1
  O2-  O274  1  0.92200360  0.55267910  0.40077086  1
  O2-  O275  1  0.91744582  0.54272629  0.74002816  1
  O2-  O276  1  0.28866994  0.16750219  0.06511674  1
  O2-  O277  1  0.29582260  0.17012432  0.40406924  1
  O2-  O278  1  0.29439704  0.16371330  0.72768929  1
  O2-  O279  1  0.30025009  0.66542871  0.06063513  1
  O2-  O280  1  0.28985209  0.66815267  0.40040833  1
  O2-  O281  1  0.28553531  0.66763999  0.73760282  1
  O2-  O282  1  0.79788695  0.16916978  0.06290663  1
  O2-  O283  1  0.79922917  0.16488031  0.39365383  1
  O2-  O284  1  0.79287455  0.16686068  0.73483733  1
  O2-  O285  1  0.79221527  0.66186877  0.06130440  1
  O2-  O286  1  0.78457776  0.66443690  0.40347745  1
  O2-  O287  1  0.78613299  0.66742753  0.73764284  1
