# generated using pymatgen
data_Ca2Al2SiO7
_symmetry_space_group_name_H-M   'P 1'
_cell_length_a   15.46052998
_cell_length_b   15.46094254
_cell_length_c   15.28574974
_cell_angle_alpha   89.99928442
_cell_angle_beta   90.01550135
_cell_angle_gamma   90.02513117
_symmetry_Int_Tables_number   1
_chemical_formula_structural   Ca2Al2SiO7
_chemical_formula_sum   'Ca48 Al48 Si24 O168'
_cell_volume   3653.81900702
_cell_formula_units_Z   24
loop_
 _symmetry_equiv_pos_site_id
 _symmetry_equiv_pos_as_xyz
  1  'x, y, z'
loop_
 _atom_type_symbol
 _atom_type_oxidation_number
  Ca2+  2.0
  Al0+  0.0
  Si0+  0.0
  O2-  -2.0
loop_
 _atom_site_type_symbol
 _atom_site_label
 _atom_site_symmetry_multiplicity
 _atom_site_fract_x
 _atom_site_fract_y
 _atom_site_fract_z
 _atom_site_occupancy
  Ca2+  Ca0  1  0.17291269  0.08050816  0.16969405  1
  Ca2+  Ca1  1  0.16657708  0.07548818  0.49896720  1
  Ca2+  Ca2  1  0.16658834  0.07262813  0.84422726  1
  Ca2+  Ca3  1  0.17262845  0.57883234  0.16600027  1
  Ca2+  Ca4  1  0.16620017  0.57890068  0.50998923  1
  Ca2+  Ca5  1  0.16615215  0.57431552  0.84126278  1
  Ca2+  Ca6  1  0.67156085  0.08010866  0.17765494  1
  Ca2+  Ca7  1  0.66479911  0.07905205  0.49582886  1
  Ca2+  Ca8  1  0.67687016  0.07262745  0.84590067  1
  Ca2+  Ca9  1  0.66077581  0.57431848  0.16210233  1
  Ca2+  Ca10  1  0.66219157  0.57961582  0.50203601  1
  Ca2+  Ca11  1  0.66998440  0.58634771  0.84641166  1
  Ca2+  Ca12  1  0.08606522  0.31975552  0.15756424  1
  Ca2+  Ca13  1  0.08231888  0.32815441  0.49254184  1
  Ca2+  Ca14  1  0.09264145  0.32890104  0.83362898  1
  Ca2+  Ca15  1  0.08387457  0.84131595  0.16174082  1
  Ca2+  Ca16  1  0.08444686  0.83872349  0.49836460  1
  Ca2+  Ca17  1  0.08052934  0.83164842  0.82519631  1
  Ca2+  Ca18  1  0.58339786  0.33064691  0.16031164  1
  Ca2+  Ca19  1  0.58187429  0.32695914  0.48864126  1
  Ca2+  Ca20  1  0.57561781  0.34034607  0.83548111  1
  Ca2+  Ca21  1  0.58138640  0.83650451  0.16047791  1
  Ca2+  Ca22  1  0.57854442  0.83081104  0.49042043  1
  Ca2+  Ca23  1  0.58891005  0.82196579  0.83133168  1
  Ca2+  Ca24  1  0.33760672  0.41877639  0.16070934  1
  Ca2+  Ca25  1  0.32559480  0.41729729  0.50575241  1
  Ca2+  Ca26  1  0.32544012  0.42126250  0.84423873  1
  Ca2+  Ca27  1  0.32775688  0.92504362  0.17507832  1
  Ca2+  Ca28  1  0.32857219  0.91868379  0.49825320  1
  Ca2+  Ca29  1  0.32005183  0.91941080  0.84159945  1
  Ca2+  Ca30  1  0.82459536  0.42086226  0.16766971  1
  Ca2+  Ca31  1  0.82574108  0.41409731  0.49988554  1
  Ca2+  Ca32  1  0.82553719  0.42783768  0.84449890  1
  Ca2+  Ca33  1  0.82066061  0.92592045  0.16625419  1
  Ca2+  Ca34  1  0.83498344  0.92016395  0.49860616  1
  Ca2+  Ca35  1  0.83217916  0.91662496  0.84162294  1
  Ca2+  Ca36  1  0.41748758  0.16574878  0.15978836  1
  Ca2+  Ca37  1  0.42051331  0.16565784  0.48940206  1
  Ca2+  Ca38  1  0.40914642  0.17067557  0.83888898  1
  Ca2+  Ca39  1  0.41910756  0.67420054  0.15888156  1
  Ca2+  Ca40  1  0.42030586  0.67442702  0.49483233  1
  Ca2+  Ca41  1  0.42736762  0.65819092  0.83409837  1
  Ca2+  Ca42  1  0.92595034  0.15244865  0.16251300  1
  Ca2+  Ca43  1  0.92237871  0.16477361  0.48930294  1
  Ca2+  Ca44  1  0.92122801  0.16289947  0.83663367  1
  Ca2+  Ca45  1  0.91538714  0.66796021  0.16000841  1
  Ca2+  Ca46  1  0.92428327  0.67362255  0.50155423  1
  Ca2+  Ca47  1  0.92007831  0.67225630  0.82538262  1
  Al0+  Al48  1  -0.00128389  -0.00108114  0.00019449  1
  Al0+  Al49  1  -0.00056541  -0.00119646  0.33505413  1
  Al0+  Al50  1  0.00056224  0.00131464  0.66650630  1
  Al0+  Al51  1  -0.00096445  0.49869395  0.00740712  1
  Al0+  Al52  1  -0.00040454  0.50110735  0.33318532  1
  Al0+  Al53  1  -0.00245597  0.49879622  0.66617644  1
  Al0+  Al54  1  0.49752590  -0.00104401  -0.00043975  1
  Al0+  Al55  1  0.49958033  0.00045672  0.33276254  1
  Al0+  Al56  1  0.50205633  0.00095432  0.66941377  1
  Al0+  Al57  1  0.49938038  0.50032278  -0.00155540  1
  Al0+  Al58  1  0.49991444  0.50102333  0.33878495  1
  Al0+  Al59  1  0.49867371  0.49785974  0.65991720  1
  Al0+  Al60  1  0.24985054  0.24858881  -0.00371170  1
  Al0+  Al61  1  0.24907692  0.25119124  0.33293106  1
  Al0+  Al62  1  0.25060707  0.25094551  0.66800081  1
  Al0+  Al63  1  0.24887553  0.74816466  0.00454034  1
  Al0+  Al64  1  0.25140823  0.74926977  0.33293128  1
  Al0+  Al65  1  0.25312561  0.74972845  0.66843726  1
  Al0+  Al66  1  0.75308975  0.25015561  0.00330590  1
  Al0+  Al67  1  0.74961702  0.25279528  0.33735907  1
  Al0+  Al68  1  0.75000422  0.24947490  0.66808827  1
  Al0+  Al69  1  0.75082483  0.75124187  0.00426465  1
  Al0+  Al70  1  0.75220982  0.74774296  0.33592593  1
  Al0+  Al71  1  0.75047967  0.74964681  0.65535242  1
  Al0+  Al72  1  0.06957323  0.17906246  0.31931986  1
  Al0+  Al73  1  0.57042907  0.67826536  0.65130421  1
  Al0+  Al74  1  0.82172891  0.57329160  0.01387811  1
  Al0+  Al75  1  0.17778521  0.92771924  0.01448072  1
  Al0+  Al76  1  0.17718535  0.42968220  0.67999813  1
  Al0+  Al77  1  0.17954185  0.92770888  0.34945702  1
  Al0+  Al78  1  0.06912559  0.17927629  0.98483107  1
  Al0+  Al79  1  0.43138779  0.31955795  0.98591729  1
  Al0+  Al80  1  0.32118152  0.07378761  0.34857377  1
  Al0+  Al81  1  0.32050143  0.07133142  0.01397592  1
  Al0+  Al82  1  0.67772453  0.92748458  0.34919840  1
  Al0+  Al83  1  0.82099262  0.07139702  0.01351800  1
  Al0+  Al84  1  0.67793946  0.92837529  0.01195266  1
  Al0+  Al85  1  0.82054183  0.07103150  0.34954760  1
  Al0+  Al86  1  0.56944099  0.68269393  0.98845529  1
  Al0+  Al87  1  0.67740137  0.42884348  0.01271338  1
  Al0+  Al88  1  0.42985580  0.82040461  0.31898500  1
  Al0+  Al89  1  0.57026451  0.18085338  0.32017059  1
  Al0+  Al90  1  0.07303637  0.67734813  0.65387264  1
  Al0+  Al91  1  0.17962551  0.92963862  0.68104765  1
  Al0+  Al92  1  0.32194116  0.57062115  0.01480332  1
  Al0+  Al93  1  0.93057091  0.82314294  0.64997030  1
  Al0+  Al94  1  0.17831717  0.42722776  0.01617884  1
  Al0+  Al95  1  0.67922348  0.43160255  0.34826435  1
  Si0+  Si96  1  0.82123449  0.07176053  0.68192664  1
  Si0+  Si97  1  0.82563885  0.57206117  0.35448576  1
  Si0+  Si98  1  0.42946476  0.82501166  0.65059807  1
  Si0+  Si99  1  0.92696302  0.32488403  0.98229443  1
  Si0+  Si100  1  0.32048754  0.57104033  0.35028004  1
  Si0+  Si101  1  0.42885136  0.31880287  0.64996027  1
  Si0+  Si102  1  0.07094257  0.18079488  0.65161649  1
  Si0+  Si103  1  0.92949782  0.81997347  0.31584962  1
  Si0+  Si104  1  0.07185074  0.67764212  0.31725456  1
  Si0+  Si105  1  0.81786958  0.57103454  0.67953241  1
  Si0+  Si106  1  0.32429295  0.07283340  0.68419500  1
  Si0+  Si107  1  0.92623560  0.32047312  0.65174852  1
  Si0+  Si108  1  0.57544642  0.17580107  0.98301239  1
  Si0+  Si109  1  0.67781904  0.42818974  0.68120423  1
  Si0+  Si110  1  0.07215403  0.67578831  0.98686709  1
  Si0+  Si111  1  0.42417388  0.82320986  0.98175355  1
  Si0+  Si112  1  0.17820833  0.43028964  0.34826027  1
  Si0+  Si113  1  0.93101447  0.81845983  0.98656960  1
  Si0+  Si114  1  0.67983592  0.92781065  0.68055744  1
  Si0+  Si115  1  0.32372357  0.57090380  0.68231090  1
  Si0+  Si116  1  0.42694502  0.32440737  0.31708330  1
  Si0+  Si117  1  0.57307735  0.17931163  0.65260674  1
  Si0+  Si118  1  0.92772713  0.32407928  0.31581153  1
  Si0+  Si119  1  0.57291577  0.67687529  0.31562987  1
  O2-  O120  1  0.25226912  -0.00345278  0.06379811  1
  O2-  O121  1  0.24998953  0.00144514  0.39946445  1
  O2-  O122  1  0.25560657  0.00351025  0.72652228  1
  O2-  O123  1  0.24976632  0.49941821  0.06623960  1
  O2-  O124  1  0.24901164  0.50033970  0.39248969  1
  O2-  O125  1  0.24855662  0.50841826  0.72479929  1
  O2-  O126  1  0.73858657  0.01047654  0.06102627  1
  O2-  O127  1  0.74867517  -0.00022248  0.40151735  1
  O2-  O128  1  0.75265345  -0.00257614  0.72225481  1
  O2-  O129  1  0.75089375  0.49946510  0.06216711  1
  O2-  O130  1  0.75385710  0.50560895  0.39737332  1
  O2-  O131  1  0.74434492  0.50308388  0.72279343  1
  O2-  O132  1  -0.00670421  0.25266227  0.27251436  1
  O2-  O133  1  -0.00016014  0.25208627  0.60965963  1
  O2-  O134  1  -0.00411896  0.25627633  0.93734126  1
  O2-  O135  1  0.00205811  0.74952314  0.27468465  1
  O2-  O136  1  0.00725976  0.75415248  0.60124499  1
  O2-  O137  1  0.00205421  0.74736804  0.94454216  1
  O2-  O138  1  0.49394455  0.25398578  0.27435001  1
  O2-  O139  1  0.49964988  0.24748477  0.60922673  1
  O2-  O140  1  0.50735636  0.24540182  0.93760571  1
  O2-  O141  1  0.50933927  0.75013431  0.27261944  1
  O2-  O142  1  0.49681005  0.75453483  0.60623587  1
  O2-  O143  1  0.49578012  0.75674834  0.93782973  1
  O2-  O144  1  0.06723766  0.17841697  0.09760664  1
  O2-  O145  1  0.06887238  0.18343512  0.43353414  1
  O2-  O146  1  0.06977866  0.18067898  0.75650517  1
  O2-  O147  1  0.07116545  0.67585435  0.09217008  1
  O2-  O148  1  0.07028451  0.67439463  0.42237307  1
  O2-  O149  1  0.06711531  0.67471107  0.76726500  1
  O2-  O150  1  0.57490642  0.17702749  0.08822958  1
  O2-  O151  1  0.56910096  0.18395731  0.43444468  1
  O2-  O152  1  0.57624698  0.18123847  0.75719516  1
  O2-  O153  1  0.56817794  0.68311689  0.10117121  1
  O2-  O154  1  0.56839541  0.67530643  0.42181249  1
  O2-  O155  1  0.57226596  0.67732046  0.76433507  1
  O2-  O156  1  0.17740953  0.43204033  0.24397880  1
  O2-  O157  1  0.18049060  0.42775608  0.56622095  1
  O2-  O158  1  0.17948221  0.43025461  0.90204822  1
  O2-  O159  1  0.18055921  0.92700916  0.23666002  1
  O2-  O160  1  0.17952838  0.93333201  0.56838845  1
  O2-  O161  1  0.17646015  0.92822180  0.90022593  1
  O2-  O162  1  0.67808586  0.43343635  0.23597540  1
  O2-  O163  1  0.68011273  0.42670165  0.57613270  1
  O2-  O164  1  0.67828504  0.43240349  0.89811525  1
  O2-  O165  1  0.67977994  0.92788618  0.23608719  1
  O2-  O166  1  0.67683430  0.93077083  0.57594045  1
  O2-  O167  1  0.68475669  0.92499124  0.89738090  1
  O2-  O168  1  0.43323948  0.31976700  0.09877697  1
  O2-  O169  1  0.42789312  0.32533711  0.42355463  1
  O2-  O170  1  0.42901371  0.32113870  0.75461214  1
  O2-  O171  1  0.42367184  0.82112458  0.08712817  1
  O2-  O172  1  0.42866427  0.81549527  0.43285259  1
  O2-  O173  1  0.43192517  0.82729547  0.75579700  1
  O2-  O174  1  0.92739110  0.32757466  0.08740454  1
  O2-  O175  1  0.93125811  0.32643032  0.42239480  1
  O2-  O176  1  0.92125730  0.31942152  0.75612250  1
  O2-  O177  1  0.93141511  0.81761379  0.09168965  1
  O2-  O178  1  0.92998675  0.81876040  0.42109111  1
  O2-  O179  1  0.92730469  0.82049231  0.76379837  1
  O2-  O180  1  0.31930992  0.07486335  0.23582123  1
  O2-  O181  1  0.32577577  0.07464089  0.57885894  1
  O2-  O182  1  0.31710855  0.06993084  0.89954875  1
  O2-  O183  1  0.32086253  0.57040675  0.24573927  1
  O2-  O184  1  0.32556426  0.56658429  0.57627027  1
  O2-  O185  1  0.32134352  0.56904544  0.90075523  1
  O2-  O186  1  0.82015549  0.06820500  0.23663860  1
  O2-  O187  1  0.81988665  0.07542087  0.57729808  1
  O2-  O188  1  0.82265430  0.06652111  0.89884838  1
  O2-  O189  1  0.82979716  0.57089458  0.24950070  1
  O2-  O190  1  0.81834629  0.56742480  0.57451807  1
  O2-  O191  1  0.82086600  0.57451583  0.89941373  1
  O2-  O192  1  0.03941126  0.08149961  0.26753907  1
  O2-  O193  1  0.04187485  0.08993325  0.60393198  1
  O2-  O194  1  0.03361242  0.08344307  0.93000145  1
  O2-  O195  1  0.04202581  0.58641619  0.26919858  1
  O2-  O196  1  0.03818299  0.58058030  0.59855110  1
  O2-  O197  1  0.04332905  0.58356788  0.94065805  1
  O2-  O198  1  0.54405899  0.08344444  0.26748428  1
  O2-  O199  1  0.54747693  0.08615825  0.60636847  1
  O2-  O200  1  0.54862056  0.08245686  0.93534218  1
  O2-  O201  1  0.54035324  0.58457683  0.27141037  1
  O2-  O202  1  0.53837857  0.58181395  0.59577124  1
  O2-  O203  1  0.53920462  0.58625385  0.93263111  1
  O2-  O204  1  0.16558219  0.21301055  0.26655174  1
  O2-  O205  1  0.16326290  0.20900578  0.60512893  1
  O2-  O206  1  0.16483142  0.20910311  0.92831310  1
  O2-  O207  1  0.16462639  0.70214644  0.27136755  1
  O2-  O208  1  0.17534258  0.69701005  0.60462131  1
  O2-  O209  1  0.16443063  0.70104105  0.93914504  1
  O2-  O210  1  0.66724811  0.21417689  0.26885692  1
  O2-  O211  1  0.66356633  0.21001920  0.60355297  1
  O2-  O212  1  0.67059512  0.19959809  0.93801134  1
  O2-  O213  1  0.67044187  0.69368997  0.27545687  1
  O2-  O214  1  0.66573512  0.70608903  0.59385500  1
  O2-  O215  1  0.66718737  0.71399611  0.93472556  1
  O2-  O216  1  0.08072660  0.45326401  0.07025329  1
  O2-  O217  1  0.08626459  0.45856988  0.39615230  1
  O2-  O218  1  0.07831904  0.45428929  0.73226580  1
  O2-  O219  1  0.08068180  0.95883529  0.06636330  1
  O2-  O220  1  0.08088296  0.95585059  0.40157383  1
  O2-  O221  1  0.08251514  0.96167122  0.73404439  1
  O2-  O222  1  0.58133565  0.46005066  0.06645315  1
  O2-  O223  1  0.58306119  0.46204829  0.40562937  1
  O2-  O224  1  0.58304537  0.45193370  0.72372650  1
  O2-  O225  1  0.57533490  0.94370181  0.05810406  1
  O2-  O226  1  0.57982268  0.95629259  0.40272142  1
  O2-  O227  1  0.58933360  0.95648532  0.73023405  1
  O2-  O228  1  0.20852904  0.32915929  0.06582196  1
  O2-  O229  1  0.20560366  0.33911495  0.39699780  1
  O2-  O230  1  0.21217264  0.33419483  0.73353823  1
  O2-  O231  1  0.19941482  0.82789822  0.06589854  1
  O2-  O232  1  0.20914407  0.82862057  0.40177579  1
  O2-  O233  1  0.20736619  0.83105334  0.73345038  1
  O2-  O234  1  0.70340071  0.33023898  0.06489378  1
  O2-  O235  1  0.71062562  0.33677243  0.40605853  1
  O2-  O236  1  0.70875169  0.33781219  0.72906256  1
  O2-  O237  1  0.71539230  0.83630763  0.06954609  1
  O2-  O238  1  0.70669066  0.82787824  0.40079581  1
  O2-  O239  1  0.70793784  0.83409756  0.72349449  1
  O2-  O240  1  0.45559405  0.41816024  0.27338271  1
  O2-  O241  1  0.45610036  0.40933903  0.59913341  1
  O2-  O242  1  0.46210753  0.41545022  0.92899301  1
  O2-  O243  1  0.45573320  0.91808367  0.26642817  1
  O2-  O244  1  0.45752442  0.91829267  0.60404829  1
  O2-  O245  1  0.44489198  0.91772996  0.93496947  1
  O2-  O246  1  0.95570675  0.41724658  0.27016266  1
  O2-  O247  1  0.95137700  0.41221615  0.60284311  1
  O2-  O248  1  0.95260109  0.41919697  0.93615569  1
  O2-  O249  1  0.95657364  0.91167736  0.26925160  1
  O2-  O250  1  0.95641215  0.92292202  0.59786335  1
  O2-  O251  1  0.95869246  0.90904253  0.93680139  1
  O2-  O252  1  0.33221451  0.30334351  0.27263985  1
  O2-  O253  1  0.33679986  0.29157031  0.60166647  1
  O2-  O254  1  0.33566840  0.28823100  0.92909133  1
  O2-  O255  1  0.33496176  0.78433806  0.26484096  1
  O2-  O256  1  0.33565360  0.79994952  0.60474168  1
  O2-  O257  1  0.33111902  0.79300584  0.93598749  1
  O2-  O258  1  0.83201938  0.30372800  0.27398285  1
  O2-  O259  1  0.83560771  0.28955327  0.60192455  1
  O2-  O260  1  0.83336265  0.29964647  0.93433213  1
  O2-  O261  1  0.83802187  0.78923295  0.26938471  1
  O2-  O262  1  0.83513262  0.79088600  0.59287731  1
  O2-  O263  1  0.83971566  0.79002003  0.93834513  1
  O2-  O264  1  0.42101992  0.04938589  0.06410834  1
  O2-  O265  1  0.41927681  0.04496772  0.40171610  1
  O2-  O266  1  0.41866549  0.04966022  0.73060437  1
  O2-  O267  1  0.41856710  0.54019773  0.06851598  1
  O2-  O268  1  0.41131643  0.54337806  0.40010009  1
  O2-  O269  1  0.41503623  0.53608948  0.72816199  1
  O2-  O270  1  0.91378286  0.03139493  0.06755735  1
  O2-  O271  1  0.91765884  0.03933209  0.40366324  1
  O2-  O272  1  0.91377308  0.04688392  0.72861659  1
  O2-  O273  1  0.91839354  0.54629527  0.07010040  1
  O2-  O274  1  0.91792501  0.54270709  0.40254267  1
  O2-  O275  1  0.90841881  0.54082510  0.72755694  1
  O2-  O276  1  0.29119136  0.16888559  0.06529231  1
  O2-  O277  1  0.29304572  0.17309707  0.40228930  1
  O2-  O278  1  0.29723538  0.16661573  0.72902299  1
  O2-  O279  1  0.29327452  0.66732751  0.06987316  1
  O2-  O280  1  0.29154324  0.66148921  0.39908089  1
  O2-  O281  1  0.30983614  0.66707575  0.72600278  1
  O2-  O282  1  0.80876939  0.17327444  0.06310270  1
  O2-  O283  1  0.79597811  0.17104051  0.40167840  1
  O2-  O284  1  0.79029130  0.16225630  0.73082343  1
  O2-  O285  1  0.79212904  0.66883146  0.07002541  1
  O2-  O286  1  0.80218079  0.66588086  0.40037275  1
  O2-  O287  1  0.79218847  0.66477664  0.72359747  1
