# generated using pymatgen
data_Ca2Al2SiO7
_symmetry_space_group_name_H-M   'P 1'
_cell_length_a   15.45723812
_cell_length_b   15.45672282
_cell_length_c   15.28274184
_cell_angle_alpha   90.01196539
_cell_angle_beta   90.00983836
_cell_angle_gamma   90.00126707
_symmetry_Int_Tables_number   1
_chemical_formula_structural   Ca2Al2SiO7
_chemical_formula_sum   'Ca48 Al48 Si24 O168'
_cell_volume   3651.32572705
_cell_formula_units_Z   24
loop_
 _symmetry_equiv_pos_site_id
 _symmetry_equiv_pos_as_xyz
  1  'x, y, z'
loop_
 _atom_type_symbol
 _atom_type_oxidation_number
  Ca2+  2.0
  Al0+  0.0
  Si0+  0.0
  O2-  -2.0
loop_
 _atom_site_type_symbol
 _atom_site_label
 _atom_site_symmetry_multiplicity
 _atom_site_fract_x
 _atom_site_fract_y
 _atom_site_fract_z
 _atom_site_occupancy
  Ca2+  Ca0  1  0.15759112  0.07353881  0.16881828  1
  Ca2+  Ca1  1  0.16715649  0.07172403  0.50130204  1
  Ca2+  Ca2  1  0.16117214  0.07584038  0.84047809  1
  Ca2+  Ca3  1  0.16043251  0.57139030  0.16747207  1
  Ca2+  Ca4  1  0.17462770  0.57748636  0.50522472  1
  Ca2+  Ca5  1  0.17079066  0.57729480  0.84234825  1
  Ca2+  Ca6  1  0.67500091  0.07884167  0.17051024  1
  Ca2+  Ca7  1  0.66664488  0.07683297  0.50451706  1
  Ca2+  Ca8  1  0.66504332  0.07971641  0.84201883  1
  Ca2+  Ca9  1  0.67048916  0.58211248  0.17178783  1
  Ca2+  Ca10  1  0.66062073  0.57851289  0.49744361  1
  Ca2+  Ca11  1  0.67611129  0.57908434  0.84148441  1
  Ca2+  Ca12  1  0.08822909  0.32727608  0.15661366  1
  Ca2+  Ca13  1  0.07804941  0.33581722  0.49519473  1
  Ca2+  Ca14  1  0.08063797  0.32957294  0.83304662  1
  Ca2+  Ca15  1  0.07377969  0.83512363  0.15714912  1
  Ca2+  Ca16  1  0.08085665  0.83715380  0.49120128  1
  Ca2+  Ca17  1  0.07889382  0.83746804  0.83372690  1
  Ca2+  Ca18  1  0.57405959  0.33273154  0.15994079  1
  Ca2+  Ca19  1  0.57423206  0.33182839  0.49240310  1
  Ca2+  Ca20  1  0.57854177  0.32033312  0.82736649  1
  Ca2+  Ca21  1  0.59339114  0.83227906  0.16462436  1
  Ca2+  Ca22  1  0.59098895  0.82862351  0.49276801  1
  Ca2+  Ca23  1  0.58636996  0.83763073  0.82973437  1
  Ca2+  Ca24  1  0.32544629  0.40708470  0.17033018  1
  Ca2+  Ca25  1  0.33528654  0.41672243  0.50211071  1
  Ca2+  Ca26  1  0.33702869  0.41708141  0.83723695  1
  Ca2+  Ca27  1  0.32085708  0.91753504  0.16887611  1
  Ca2+  Ca28  1  0.32155554  0.91180966  0.50603991  1
  Ca2+  Ca29  1  0.32201714  0.91886934  0.83907057  1
  Ca2+  Ca30  1  0.82964827  0.42580577  0.17196984  1
  Ca2+  Ca31  1  0.82623854  0.41245712  0.50368370  1
  Ca2+  Ca32  1  0.83902749  0.42081815  0.83975410  1
  Ca2+  Ca33  1  0.83345520  0.92465424  0.17096369  1
  Ca2+  Ca34  1  0.82698767  0.91988871  0.49862385  1
  Ca2+  Ca35  1  0.82215222  0.92182274  0.84530218  1
  Ca2+  Ca36  1  0.42176841  0.17635755  0.15683575  1
  Ca2+  Ca37  1  0.42092965  0.17411298  0.49667028  1
  Ca2+  Ca38  1  0.42517038  0.17454660  0.82914040  1
  Ca2+  Ca39  1  0.42441893  0.66709226  0.16647345  1
  Ca2+  Ca40  1  0.42073326  0.66548481  0.49503033  1
  Ca2+  Ca41  1  0.41471514  0.66653964  0.82937095  1
  Ca2+  Ca42  1  0.91793322  0.16181380  0.16004066  1
  Ca2+  Ca43  1  0.91421741  0.16786274  0.49834899  1
  Ca2+  Ca44  1  0.92004806  0.16464831  0.83377573  1
  Ca2+  Ca45  1  0.91774446  0.67933811  0.15703166  1
  Ca2+  Ca46  1  0.91928065  0.67761204  0.49114163  1
  Ca2+  Ca47  1  0.92112323  0.66872091  0.83757011  1
  Al0+  Al48  1  -0.00266053  0.00017374  -0.00301666  1
  Al0+  Al49  1  -0.00040559  0.00105663  0.33918112  1
  Al0+  Al50  1  -0.00217333  -0.00058957  0.66903550  1
  Al0+  Al51  1  0.00164542  0.50217214  0.00562410  1
  Al0+  Al52  1  0.00041240  0.50038184  0.33844232  1
  Al0+  Al53  1  0.00087459  0.50070670  0.66087473  1
  Al0+  Al54  1  0.49867108  -0.00116263  0.00131393  1
  Al0+  Al55  1  0.49970675  0.00030325  0.33547643  1
  Al0+  Al56  1  0.49774334  -0.00146742  0.66527181  1
  Al0+  Al57  1  0.49943420  0.50258190  -0.00411705  1
  Al0+  Al58  1  0.50039961  0.50091413  0.32677267  1
  Al0+  Al59  1  0.50096474  0.50016492  0.66917648  1
  Al0+  Al60  1  0.24969298  0.25057415  -0.00743340  1
  Al0+  Al61  1  0.24885095  0.24978016  0.33582661  1
  Al0+  Al62  1  0.24901852  0.24872367  0.66179432  1
  Al0+  Al63  1  0.25124392  0.74841554  0.00218839  1
  Al0+  Al64  1  0.25097241  0.74793336  0.33528910  1
  Al0+  Al65  1  0.24969927  0.74715773  0.67451381  1
  Al0+  Al66  1  0.74835277  0.25018859  0.00018138  1
  Al0+  Al67  1  0.75038604  0.25160254  0.34018225  1
  Al0+  Al68  1  0.75101974  0.24888884  0.65978006  1
  Al0+  Al69  1  0.75078433  0.74893276  0.00112067  1
  Al0+  Al70  1  0.75187796  0.75110845  0.32799286  1
  Al0+  Al71  1  0.75133649  0.75045585  0.66972016  1
  Al0+  Al72  1  0.57084603  0.17596370  0.64862313  1
  Al0+  Al73  1  0.82021272  0.07311855  0.01397094  1
  Al0+  Al74  1  0.67872368  0.92808158  0.34881694  1
  Al0+  Al75  1  0.06957251  0.17837425  0.98740055  1
  Al0+  Al76  1  0.17853214  0.92928378  0.01350608  1
  Al0+  Al77  1  0.82176931  0.07237077  0.35125614  1
  Al0+  Al78  1  0.57204670  0.17768802  0.98655816  1
  Al0+  Al79  1  0.07259467  0.67800342  0.98545366  1
  Al0+  Al80  1  0.18062178  0.92845808  0.34581027  1
  Al0+  Al81  1  0.67613633  0.92874154  0.01589912  1
  Al0+  Al82  1  0.93219568  0.82204059  0.31953098  1
  Al0+  Al83  1  0.17846881  0.42717918  0.34827563  1
  Al0+  Al84  1  0.57014344  0.68147699  0.31941488  1
  Al0+  Al85  1  0.32185570  0.56779343  0.68081096  1
  Al0+  Al86  1  0.67903863  0.92875328  0.68055900  1
  Al0+  Al87  1  0.42808559  0.32258827  0.98312263  1
  Al0+  Al88  1  0.17795867  0.92917333  0.68239118  1
  Al0+  Al89  1  0.82213782  0.56985191  0.01388708  1
  Al0+  Al90  1  0.67829046  0.43130609  0.34599341  1
  Al0+  Al91  1  0.42908305  0.31937117  0.31788225  1
  Al0+  Al92  1  0.18191161  0.42880160  0.01168717  1
  Al0+  Al93  1  0.93145069  0.32212894  0.65258788  1
  Al0+  Al94  1  0.92827843  0.82136006  0.98259389  1
  Al0+  Al95  1  0.42947016  0.32283644  0.64913879  1
  Si0+  Si96  1  0.07418729  0.67650962  0.31755656  1
  Si0+  Si97  1  0.32216991  0.07278594  0.34948539  1
  Si0+  Si98  1  0.82235456  0.57109853  0.68027528  1
  Si0+  Si99  1  0.42696014  0.81841801  0.65344253  1
  Si0+  Si100  1  0.82178901  0.57277190  0.35135445  1
  Si0+  Si101  1  0.92723587  0.32352330  0.31821795  1
  Si0+  Si102  1  0.42798804  0.82038514  0.98498733  1
  Si0+  Si103  1  0.17618144  0.42737937  0.68260380  1
  Si0+  Si104  1  0.32103689  0.07245264  0.68344742  1
  Si0+  Si105  1  0.92891462  0.81991464  0.65125637  1
  Si0+  Si106  1  0.32255875  0.57020344  0.34874211  1
  Si0+  Si107  1  0.06862431  0.18158503  0.32001905  1
  Si0+  Si108  1  0.68039699  0.42850876  0.68122903  1
  Si0+  Si109  1  0.92758918  0.32407157  0.98812582  1
  Si0+  Si110  1  0.07232742  0.67977798  0.65061839  1
  Si0+  Si111  1  0.57413660  0.17707488  0.31630620  1
  Si0+  Si112  1  0.82038589  0.07341999  0.68504072  1
  Si0+  Si113  1  0.67658726  0.42903687  0.01456247  1
  Si0+  Si114  1  0.42486094  0.82380025  0.31736870  1
  Si0+  Si115  1  0.32466772  0.57273118  0.01949751  1
  Si0+  Si116  1  0.57172836  0.68001752  0.98292255  1
  Si0+  Si117  1  0.07116256  0.17485914  0.64787093  1
  Si0+  Si118  1  0.57324809  0.68048193  0.65334311  1
  Si0+  Si119  1  0.32108324  0.07225259  0.01518385  1
  O2-  O120  1  0.25012788  0.00659712  0.06095894  1
  O2-  O121  1  0.25972161  -0.00216433  0.39377870  1
  O2-  O122  1  0.24969449  0.00680930  0.72835160  1
  O2-  O123  1  0.25751644  0.50180838  0.06113862  1
  O2-  O124  1  0.25282904  0.50289546  0.39347594  1
  O2-  O125  1  0.25028705  0.48975336  0.72655956  1
  O2-  O126  1  0.74814207  0.00133802  0.06375827  1
  O2-  O127  1  0.74651145  0.00291164  0.40034841  1
  O2-  O128  1  0.74908899  0.00708424  0.72755932  1
  O2-  O129  1  0.74735988  0.49493305  0.05953883  1
  O2-  O130  1  0.75427916  0.50355161  0.39656893  1
  O2-  O131  1  0.75415935  0.49734955  0.72297508  1
  O2-  O132  1  -0.00144180  0.25323167  0.27650776  1
  O2-  O133  1  0.00580909  0.24730547  0.60450087  1
  O2-  O134  1  -0.00640596  0.25335016  0.94285574  1
  O2-  O135  1  0.00808681  0.74735852  0.27451963  1
  O2-  O136  1  0.00316554  0.75237983  0.60800057  1
  O2-  O137  1  0.00354221  0.75154318  0.93279818  1
  O2-  O138  1  0.50398003  0.24445654  0.27227966  1
  O2-  O139  1  0.50057535  0.25022952  0.59875803  1
  O2-  O140  1  0.50171745  0.25110871  0.93581892  1
  O2-  O141  1  0.49877306  0.76039535  0.27353122  1
  O2-  O142  1  0.50199359  0.75148138  0.61103761  1
  O2-  O143  1  0.50154014  0.75204971  0.94152660  1
  O2-  O144  1  0.07071766  0.17940374  0.10081968  1
  O2-  O145  1  0.06824873  0.18255644  0.42531637  1
  O2-  O146  1  0.06960006  0.17353583  0.75335070  1
  O2-  O147  1  0.06986660  0.67773161  0.09904744  1
  O2-  O148  1  0.07341050  0.67679475  0.42393544  1
  O2-  O149  1  0.07068864  0.67701407  0.75514779  1
  O2-  O150  1  0.57023798  0.17955540  0.10028950  1
  O2-  O151  1  0.57181494  0.17824962  0.42199437  1
  O2-  O152  1  0.57019209  0.17723420  0.76211530  1
  O2-  O153  1  0.57013814  0.67746234  0.08785380  1
  O2-  O154  1  0.56725144  0.67995117  0.43330972  1
  O2-  O155  1  0.57450225  0.68112517  0.75841881  1
  O2-  O156  1  0.17802202  0.42604142  0.23540176  1
  O2-  O157  1  0.17386134  0.43232036  0.57691754  1
  O2-  O158  1  0.18066809  0.43055383  0.89850870  1
  O2-  O159  1  0.17940507  0.93043927  0.23307562  1
  O2-  O160  1  0.17956331  0.92810973  0.56881074  1
  O2-  O161  1  0.18165095  0.93037015  0.90025679  1
  O2-  O162  1  0.68041820  0.43363060  0.23300746  1
  O2-  O163  1  0.67918869  0.43258549  0.57605974  1
  O2-  O164  1  0.67742164  0.43189785  0.90845313  1
  O2-  O165  1  0.68090966  0.92849294  0.23603339  1
  O2-  O166  1  0.68368635  0.92330942  0.56799816  1
  O2-  O167  1  0.67633820  0.92939819  0.90177930  1
  O2-  O168  1  0.42855366  0.32144185  0.09707416  1
  O2-  O169  1  0.43016084  0.31927769  0.43094321  1
  O2-  O170  1  0.43321555  0.32307270  0.76222717  1
  O2-  O171  1  0.42555905  0.81798520  0.08995888  1
  O2-  O172  1  0.42007441  0.81907276  0.42312301  1
  O2-  O173  1  0.42619904  0.81623622  0.75860793  1
  O2-  O174  1  0.92931406  0.32503608  0.09379196  1
  O2-  O175  1  0.92945004  0.32404299  0.42351744  1
  O2-  O176  1  0.93384723  0.32546348  0.76568516  1
  O2-  O177  1  0.92962975  0.82110355  0.09618371  1
  O2-  O178  1  0.93354795  0.81950843  0.43378623  1
  O2-  O179  1  0.92791111  0.81704818  0.75572508  1
  O2-  O180  1  0.31880020  0.07440602  0.24403291  1
  O2-  O181  1  0.32018838  0.06918237  0.57757934  1
  O2-  O182  1  0.32150239  0.06827170  0.90950042  1
  O2-  O183  1  0.32236168  0.57159867  0.24355617  1
  O2-  O184  1  0.31994465  0.57102968  0.56760744  1
  O2-  O185  1  0.32535472  0.57338959  0.91369543  1
  O2-  O186  1  0.82412613  0.07234358  0.23823731  1
  O2-  O187  1  0.82296252  0.07069479  0.57956888  1
  O2-  O188  1  0.81960805  0.07281238  0.90016532  1
  O2-  O189  1  0.82204385  0.57053137  0.24593201  1
  O2-  O190  1  0.82026715  0.57340451  0.57528813  1
  O2-  O191  1  0.82053755  0.56739797  0.89977876  1
  O2-  O192  1  0.03984428  0.08951105  0.27434269  1
  O2-  O193  1  0.04060532  0.08245306  0.60087752  1
  O2-  O194  1  0.03817595  0.08413492  0.92966534  1
  O2-  O195  1  0.04577131  0.58266416  0.27330191  1
  O2-  O196  1  0.04336953  0.58954489  0.60016973  1
  O2-  O197  1  0.04011581  0.58044145  0.93178869  1
  O2-  O198  1  0.55045232  0.08197611  0.27245135  1
  O2-  O199  1  0.53945118  0.07757167  0.59574700  1
  O2-  O200  1  0.54105242  0.07929337  0.93434653  1
  O2-  O201  1  0.53619343  0.58793240  0.26140170  1
  O2-  O202  1  0.54487551  0.58855909  0.60680423  1
  O2-  O203  1  0.54286781  0.58952707  0.93269833  1
  O2-  O204  1  0.16060984  0.20799191  0.27298670  1
  O2-  O205  1  0.16602818  0.19502425  0.60206579  1
  O2-  O206  1  0.16422563  0.20862668  0.92936614  1
  O2-  O207  1  0.16949231  0.69690810  0.27347168  1
  O2-  O208  1  0.16514067  0.70713350  0.60483794  1
  O2-  O209  1  0.17348029  0.70135997  0.93492080  1
  O2-  O210  1  0.66836332  0.20514577  0.27384654  1
  O2-  O211  1  0.67016222  0.20214406  0.59694738  1
  O2-  O212  1  0.67011536  0.20587936  0.93154140  1
  O2-  O213  1  0.66733423  0.70763262  0.26469386  1
  O2-  O214  1  0.66487365  0.70812019  0.60485921  1
  O2-  O215  1  0.66372978  0.70499744  0.93501323  1
  O2-  O216  1  0.08674601  0.45992820  0.06859370  1
  O2-  O217  1  0.08227648  0.45841460  0.40412244  1
  O2-  O218  1  0.08447558  0.45992182  0.72847813  1
  O2-  O219  1  0.08139172  0.95991818  0.06455542  1
  O2-  O220  1  0.08762003  0.96445525  0.40303264  1
  O2-  O221  1  0.08013966  0.95834024  0.73443246  1
  O2-  O222  1  0.58417650  0.45997434  0.06002068  1
  O2-  O223  1  0.58257795  0.46654670  0.39955242  1
  O2-  O224  1  0.59098550  0.45965684  0.73046071  1
  O2-  O225  1  0.57620568  0.95191592  0.06848522  1
  O2-  O226  1  0.57676859  0.94892838  0.39984751  1
  O2-  O227  1  0.57840809  0.95200273  0.73005805  1
  O2-  O228  1  0.21106745  0.33089687  0.06462936  1
  O2-  O229  1  0.20852614  0.33158755  0.40431568  1
  O2-  O230  1  0.19348385  0.32955692  0.72263299  1
  O2-  O231  1  0.21246665  0.83346919  0.06679030  1
  O2-  O232  1  0.20769975  0.83022067  0.40009568  1
  O2-  O233  1  0.21118236  0.83378503  0.73625081  1
  O2-  O234  1  0.69716763  0.33481928  0.05995497  1
  O2-  O235  1  0.70726203  0.33615375  0.40316068  1
  O2-  O236  1  0.70745264  0.33534441  0.72533274  1
  O2-  O237  1  0.70419521  0.82904845  0.06493376  1
  O2-  O238  1  0.71119265  0.82934415  0.40008800  1
  O2-  O239  1  0.71269386  0.83293911  0.73580353  1
  O2-  O240  1  0.45909166  0.41569040  0.26376472  1
  O2-  O241  1  0.46023314  0.42221111  0.59806936  1
  O2-  O242  1  0.45526802  0.42237123  0.93187816  1
  O2-  O243  1  0.44292734  0.92009041  0.27428233  1
  O2-  O244  1  0.44737219  0.91137549  0.60591555  1
  O2-  O245  1  0.45191291  0.91273782  0.93706770  1
  O2-  O246  1  0.95401777  0.41701379  0.27334038  1
  O2-  O247  1  0.96081140  0.41819717  0.59466264  1
  O2-  O248  1  0.95707458  0.41617345  0.94119015  1
  O2-  O249  1  0.96413196  0.91929082  0.26842792  1
  O2-  O250  1  0.95382264  0.91327812  0.60567209  1
  O2-  O251  1  0.95506183  0.91912644  0.92826739  1
  O2-  O252  1  0.33109060  0.28723464  0.26704406  1
  O2-  O253  1  0.32854933  0.29749536  0.59855752  1
  O2-  O254  1  0.33153172  0.29391801  0.92732350  1
  O2-  O255  1  0.33392573  0.79180006  0.26825499  1
  O2-  O256  1  0.33660028  0.78474674  0.60576773  1
  O2-  O257  1  0.33822189  0.78898863  0.93522425  1
  O2-  O258  1  0.83432686  0.29795143  0.27279994  1
  O2-  O259  1  0.83518774  0.29286265  0.59691130  1
  O2-  O260  1  0.83286424  0.30388501  0.94192120  1
  O2-  O261  1  0.83726132  0.79009894  0.26457311  1
  O2-  O262  1  0.83884125  0.78656232  0.60305657  1
  O2-  O263  1  0.83096578  0.78717113  0.92981635  1
  O2-  O264  1  0.41223156  0.04324973  0.06405768  1
  O2-  O265  1  0.41747751  0.05440076  0.39489292  1
  O2-  O266  1  0.41294311  0.04306868  0.73016839  1
  O2-  O267  1  0.41976097  0.54954947  0.06403293  1
  O2-  O268  1  0.41561270  0.54310978  0.39460359  1
  O2-  O269  1  0.41979086  0.54279210  0.73631037  1
  O2-  O270  1  0.91853816  0.04389979  0.06626692  1
  O2-  O271  1  0.91810033  0.04078161  0.40754023  1
  O2-  O272  1  0.91351182  0.04523435  0.73077324  1
  O2-  O273  1  0.91676794  0.54095379  0.07144847  1
  O2-  O274  1  0.91551508  0.54898494  0.39864579  1
  O2-  O275  1  0.91550153  0.54435191  0.72551987  1
  O2-  O276  1  0.29796080  0.16738689  0.05767073  1
  O2-  O277  1  0.28865873  0.16207298  0.39958553  1
  O2-  O278  1  0.29833597  0.16785938  0.72723257  1
  O2-  O279  1  0.29955157  0.66557413  0.06685066  1
  O2-  O280  1  0.29881149  0.66375021  0.39717700  1
  O2-  O281  1  0.28871933  0.66197815  0.73823683  1
  O2-  O282  1  0.79566669  0.17282532  0.06744204  1
  O2-  O283  1  0.79763893  0.17184691  0.40443849  1
  O2-  O284  1  0.79956011  0.16940317  0.72802391  1
  O2-  O285  1  0.78876879  0.66476845  0.06801804  1
  O2-  O286  1  0.79437136  0.66596156  0.39638406  1
  O2-  O287  1  0.79166251  0.66061532  0.73011643  1
