# generated using pymatgen
data_Ca2Al2SiO7
_symmetry_space_group_name_H-M   'P 1'
_cell_length_a   15.45742639
_cell_length_b   15.45672772
_cell_length_c   15.28320283
_cell_angle_alpha   89.99820187
_cell_angle_beta   89.99867653
_cell_angle_gamma   89.97954634
_symmetry_Int_Tables_number   1
_chemical_formula_structural   Ca2Al2SiO7
_chemical_formula_sum   'Ca48 Al48 Si24 O168'
_cell_volume   3651.48139830
_cell_formula_units_Z   24
loop_
 _symmetry_equiv_pos_site_id
 _symmetry_equiv_pos_as_xyz
  1  'x, y, z'
loop_
 _atom_type_symbol
 _atom_type_oxidation_number
  Ca2+  2.0
  Al0+  0.0
  Si0+  0.0
  O2-  -2.0
loop_
 _atom_site_type_symbol
 _atom_site_label
 _atom_site_symmetry_multiplicity
 _atom_site_fract_x
 _atom_site_fract_y
 _atom_site_fract_z
 _atom_site_occupancy
  Ca2+  Ca0  1  0.16021270  0.08546425  0.17244495  1
  Ca2+  Ca1  1  0.15924659  0.07754776  0.50754852  1
  Ca2+  Ca2  1  0.15940328  0.08412962  0.83237393  1
  Ca2+  Ca3  1  0.17136932  0.58324772  0.17581939  1
  Ca2+  Ca4  1  0.17690033  0.59359589  0.50624570  1
  Ca2+  Ca5  1  0.17149070  0.58717954  0.83292059  1
  Ca2+  Ca6  1  0.67135979  0.08070980  0.17183757  1
  Ca2+  Ca7  1  0.68187013  0.08304378  0.50470169  1
  Ca2+  Ca8  1  0.67200192  0.08104124  0.84164735  1
  Ca2+  Ca9  1  0.67111872  0.57435946  0.17081354  1
  Ca2+  Ca10  1  0.65792383  0.58088567  0.50087636  1
  Ca2+  Ca11  1  0.67271566  0.57707513  0.84260522  1
  Ca2+  Ca12  1  0.07881917  0.32150897  0.15827243  1
  Ca2+  Ca13  1  0.07846202  0.32200851  0.49723986  1
  Ca2+  Ca14  1  0.07157555  0.32552023  0.82732289  1
  Ca2+  Ca15  1  0.07004267  0.82729376  0.16770674  1
  Ca2+  Ca16  1  0.08564509  0.82615461  0.49482801  1
  Ca2+  Ca17  1  0.07729784  0.83051648  0.82794740  1
  Ca2+  Ca18  1  0.58464259  0.33509485  0.16556827  1
  Ca2+  Ca19  1  0.57266359  0.33995523  0.49438218  1
  Ca2+  Ca20  1  0.58563627  0.33110980  0.83144126  1
  Ca2+  Ca21  1  0.58388456  0.83145806  0.16355349  1
  Ca2+  Ca22  1  0.57755536  0.81943177  0.49140094  1
  Ca2+  Ca23  1  0.58663626  0.82756484  0.82954629  1
  Ca2+  Ca24  1  0.33279280  0.42132654  0.17771670  1
  Ca2+  Ca25  1  0.33776928  0.42497269  0.50413928  1
  Ca2+  Ca26  1  0.33594765  0.41906172  0.83132558  1
  Ca2+  Ca27  1  0.33295243  0.91872030  0.17441576  1
  Ca2+  Ca28  1  0.32661891  0.91225986  0.50585279  1
  Ca2+  Ca29  1  0.32180672  0.91510958  0.83599656  1
  Ca2+  Ca30  1  0.82422596  0.41135021  0.16855440  1
  Ca2+  Ca31  1  0.82638598  0.41281927  0.50396507  1
  Ca2+  Ca32  1  0.83654276  0.42144508  0.84344413  1
  Ca2+  Ca33  1  0.83405096  0.91760508  0.17114328  1
  Ca2+  Ca34  1  0.84529871  0.92713293  0.50089588  1
  Ca2+  Ca35  1  0.83082705  0.92154914  0.83995474  1
  Ca2+  Ca36  1  0.42266151  0.17534664  0.16010489  1
  Ca2+  Ca37  1  0.41207869  0.18156813  0.49550266  1
  Ca2+  Ca38  1  0.42635578  0.17288132  0.82876491  1
  Ca2+  Ca39  1  0.42073203  0.66631561  0.17394166  1
  Ca2+  Ca40  1  0.42206189  0.66378988  0.49198953  1
  Ca2+  Ca41  1  0.42528757  0.66389642  0.82314566  1
  Ca2+  Ca42  1  0.92262110  0.16783863  0.16233112  1
  Ca2+  Ca43  1  0.92087084  0.16251168  0.49845648  1
  Ca2+  Ca44  1  0.91759568  0.17670346  0.82608558  1
  Ca2+  Ca45  1  0.90904239  0.67455183  0.16233981  1
  Ca2+  Ca46  1  0.93112384  0.67312553  0.49131543  1
  Ca2+  Ca47  1  0.91478053  0.67099414  0.82904266  1
  Al0+  Al48  1  0.00107437  -0.00416520  -0.00599357  1
  Al0+  Al49  1  0.00081467  -0.00071600  0.32997023  1
  Al0+  Al50  1  -0.00128531  0.00089955  0.67586594  1
  Al0+  Al51  1  0.00455007  0.50151613  0.00268887  1
  Al0+  Al52  1  -0.00053043  0.49702776  0.33125124  1
  Al0+  Al53  1  0.00018867  0.49989370  0.65839676  1
  Al0+  Al54  1  0.49820499  0.00086529  -0.00138672  1
  Al0+  Al55  1  0.50039783  0.00062823  0.33498503  1
  Al0+  Al56  1  0.49975645  -0.00005456  0.66678272  1
  Al0+  Al57  1  0.50011744  0.50180954  0.00404232  1
  Al0+  Al58  1  0.49892904  0.50027268  0.33170141  1
  Al0+  Al59  1  0.49995721  0.50007537  0.66595982  1
  Al0+  Al60  1  0.25156025  0.25060745  -0.00442597  1
  Al0+  Al61  1  0.24985544  0.25075510  0.32571719  1
  Al0+  Al62  1  0.24983728  0.25052101  0.66116657  1
  Al0+  Al63  1  0.25006039  0.75251457  0.00296848  1
  Al0+  Al64  1  0.25082852  0.75027270  0.32894737  1
  Al0+  Al65  1  0.25018272  0.75102955  0.67602968  1
  Al0+  Al66  1  0.74945373  0.24971476  -0.00270082  1
  Al0+  Al67  1  0.74940438  0.24927176  0.34465045  1
  Al0+  Al68  1  0.74924714  0.24942559  0.66826623  1
  Al0+  Al69  1  0.74876014  0.75083221  0.00229121  1
  Al0+  Al70  1  0.74931167  0.74862382  0.32845501  1
  Al0+  Al71  1  0.74929135  0.74916963  0.66029699  1
  Al0+  Al72  1  0.42921234  0.82315543  0.31909233  1
  Al0+  Al73  1  0.31677610  0.56974432  0.34739834  1
  Al0+  Al74  1  0.06916776  0.17997426  0.32003206  1
  Al0+  Al75  1  0.07270075  0.17754379  0.98297009  1
  Al0+  Al76  1  0.43109525  0.31985765  0.65344023  1
  Al0+  Al77  1  0.07242975  0.67606972  0.31821543  1
  Al0+  Al78  1  0.06873263  0.17772345  0.65094795  1
  Al0+  Al79  1  0.92719212  0.81740930  0.98406331  1
  Al0+  Al80  1  0.92578307  0.32254916  0.64937861  1
  Al0+  Al81  1  0.57057140  0.17840457  0.98771801  1
  Al0+  Al82  1  0.68048175  0.43125588  0.34963500  1
  Al0+  Al83  1  0.82400039  0.57173504  0.01408880  1
  Al0+  Al84  1  0.57107512  0.67758341  0.31490394  1
  Al0+  Al85  1  0.67719954  0.93023192  0.01348998  1
  Al0+  Al86  1  0.43023235  0.32038000  0.31853810  1
  Al0+  Al87  1  0.07229091  0.68035295  0.65502940  1
  Al0+  Al88  1  0.57099734  0.67969944  0.65441988  1
  Al0+  Al89  1  0.81931670  0.07055654  0.68386410  1
  Al0+  Al90  1  0.92904611  0.32229280  0.98713148  1
  Al0+  Al91  1  0.92978154  0.82048606  0.31943019  1
  Al0+  Al92  1  0.32079367  0.56921690  0.68136382  1
  Al0+  Al93  1  0.82125602  0.06794597  0.34618640  1
  Al0+  Al94  1  0.67899553  0.42719285  0.01489543  1
  Al0+  Al95  1  0.17999285  0.93002790  0.68144015  1
  Si0+  Si96  1  0.32304182  0.07419575  0.34710121  1
  Si0+  Si97  1  0.57276052  0.17533054  0.64871762  1
  Si0+  Si98  1  0.17850751  0.92894464  0.01880123  1
  Si0+  Si99  1  0.17624439  0.42433562  0.35017843  1
  Si0+  Si100  1  0.67862500  0.43093849  0.68160942  1
  Si0+  Si101  1  0.17652693  0.42666157  0.68279690  1
  Si0+  Si102  1  0.32132554  0.57295077  0.01643490  1
  Si0+  Si103  1  0.82281831  0.57142765  0.67820620  1
  Si0+  Si104  1  0.56838515  0.67988052  0.98500793  1
  Si0+  Si105  1  0.82391485  0.57422137  0.35178425  1
  Si0+  Si106  1  0.32361230  0.07529909  0.68347295  1
  Si0+  Si107  1  0.18177209  0.93182371  0.34646797  1
  Si0+  Si108  1  0.67685702  0.92597029  0.68165397  1
  Si0+  Si109  1  0.92748901  0.82189862  0.65107894  1
  Si0+  Si110  1  0.18195587  0.42799358  0.01444150  1
  Si0+  Si111  1  0.42900792  0.32477186  0.98281426  1
  Si0+  Si112  1  0.57393100  0.17854924  0.31948349  1
  Si0+  Si113  1  0.82290560  0.07051573  0.01621126  1
  Si0+  Si114  1  0.31974498  0.07139097  0.01458852  1
  Si0+  Si115  1  0.67589768  0.92530595  0.35124096  1
  Si0+  Si116  1  0.92399064  0.32072154  0.31742223  1
  Si0+  Si117  1  0.42728671  0.82230337  0.98351398  1
  Si0+  Si118  1  0.07572263  0.67897140  0.98301474  1
  Si0+  Si119  1  0.42700906  0.82264443  0.65359206  1
  O2-  O120  1  0.24540216  0.00492803  0.05914797  1
  O2-  O121  1  0.25395100  0.00155492  0.38944207  1
  O2-  O122  1  0.25476329  0.00637610  0.72763754  1
  O2-  O123  1  0.25165369  0.50031560  0.05728627  1
  O2-  O124  1  0.23907250  0.49830909  0.39500587  1
  O2-  O125  1  0.24475730  0.49590278  0.72875700  1
  O2-  O126  1  0.75260570  0.00361698  0.06101501  1
  O2-  O127  1  0.74753840  -0.00836209  0.39423840  1
  O2-  O128  1  0.74245962  -0.00372332  0.72774896  1
  O2-  O129  1  0.75545649  0.49557956  0.06342322  1
  O2-  O130  1  0.75518715  0.50598020  0.39738757  1
  O2-  O131  1  0.75393286  0.49849693  0.72179137  1
  O2-  O132  1  -0.00357006  0.25607591  0.27349202  1
  O2-  O133  1  -0.00336943  0.24878383  0.60036055  1
  O2-  O134  1  -0.00214929  0.24779635  0.93572391  1
  O2-  O135  1  -0.00621484  0.74105320  0.26882512  1
  O2-  O136  1  -0.00254794  0.75426543  0.60798292  1
  O2-  O137  1  0.00108237  0.74090752  0.93874694  1
  O2-  O138  1  0.50396644  0.24457355  0.27302245  1
  O2-  O139  1  0.50278279  0.24282534  0.60531626  1
  O2-  O140  1  0.50041230  0.25790975  0.94071855  1
  O2-  O141  1  0.50388027  0.75554183  0.26638315  1
  O2-  O142  1  0.49710018  0.75615874  0.60978127  1
  O2-  O143  1  0.49726868  0.75051149  0.94135942  1
  O2-  O144  1  0.07341973  0.17985539  0.09686341  1
  O2-  O145  1  0.06930705  0.17742482  0.43261287  1
  O2-  O146  1  0.06729159  0.18056399  0.76423670  1
  O2-  O147  1  0.08154540  0.68333660  0.08803241  1
  O2-  O148  1  0.07585706  0.68269175  0.43189338  1
  O2-  O149  1  0.07021923  0.68143683  0.76834579  1
  O2-  O150  1  0.56611057  0.17567549  0.10067116  1
  O2-  O151  1  0.57170568  0.17978120  0.42509050  1
  O2-  O152  1  0.57165535  0.17545453  0.75462920  1
  O2-  O153  1  0.56591398  0.67937026  0.08944223  1
  O2-  O154  1  0.56650122  0.67747666  0.42883076  1
  O2-  O155  1  0.57136648  0.67989283  0.76819406  1
  O2-  O156  1  0.18104156  0.42250848  0.24414330  1
  O2-  O157  1  0.17868451  0.42598177  0.57750894  1
  O2-  O158  1  0.18372786  0.42794193  0.90942549  1
  O2-  O159  1  0.18201110  0.93412330  0.24115089  1
  O2-  O160  1  0.18210899  0.92854347  0.56788749  1
  O2-  O161  1  0.18203343  0.92439365  0.91393450  1
  O2-  O162  1  0.68233938  0.42886896  0.23678697  1
  O2-  O163  1  0.67606496  0.43318934  0.57656527  1
  O2-  O164  1  0.67410912  0.43234814  0.90098664  1
  O2-  O165  1  0.67344678  0.92943891  0.24561885  1
  O2-  O166  1  0.67632699  0.92658829  0.57642850  1
  O2-  O167  1  0.67763800  0.93039530  0.89999320  1
  O2-  O168  1  0.42597155  0.32329690  0.08822043  1
  O2-  O169  1  0.42985058  0.32013500  0.43168993  1
  O2-  O170  1  0.43466879  0.31996156  0.76690942  1
  O2-  O171  1  0.42585702  0.82271761  0.08813344  1
  O2-  O172  1  0.42780597  0.82233332  0.43294864  1
  O2-  O173  1  0.42793076  0.82171651  0.75971453  1
  O2-  O174  1  0.93095521  0.31964014  0.10098033  1
  O2-  O175  1  0.92409264  0.31895973  0.42284037  1
  O2-  O176  1  0.92651673  0.32452456  0.76303149  1
  O2-  O177  1  0.92963954  0.81959729  0.09683819  1
  O2-  O178  1  0.93663329  0.82364878  0.43318393  1
  O2-  O179  1  0.92482995  0.81840820  0.75680893  1
  O2-  O180  1  0.32262473  0.07368404  0.24170686  1
  O2-  O181  1  0.32509279  0.07387103  0.57785151  1
  O2-  O182  1  0.32117453  0.06837901  0.90964605  1
  O2-  O183  1  0.31651449  0.56748944  0.23364147  1
  O2-  O184  1  0.32141334  0.56988311  0.56873603  1
  O2-  O185  1  0.32222853  0.57359696  0.91123188  1
  O2-  O186  1  0.81987303  0.06907330  0.23301685  1
  O2-  O187  1  0.82066400  0.06778798  0.57046356  1
  O2-  O188  1  0.82028659  0.06863835  0.91062597  1
  O2-  O189  1  0.82263037  0.57243509  0.24632600  1
  O2-  O190  1  0.82134750  0.57282720  0.57351554  1
  O2-  O191  1  0.82000261  0.57292750  0.89947636  1
  O2-  O192  1  0.03804503  0.08462916  0.26439410  1
  O2-  O193  1  0.03958477  0.07748469  0.60211635  1
  O2-  O194  1  0.05041141  0.07673853  0.93375432  1
  O2-  O195  1  0.05374589  0.57376408  0.26915591  1
  O2-  O196  1  0.04632335  0.58447550  0.59869962  1
  O2-  O197  1  0.05997409  0.58229793  0.94065556  1
  O2-  O198  1  0.55142994  0.08379511  0.27495879  1
  O2-  O199  1  0.55003932  0.08062379  0.60339452  1
  O2-  O200  1  0.53395489  0.08473805  0.93039757  1
  O2-  O201  1  0.53523351  0.58255342  0.26101128  1
  O2-  O202  1  0.53707004  0.58494487  0.60039838  1
  O2-  O203  1  0.53906909  0.58821227  0.93734258  1
  O2-  O204  1  0.16534779  0.20843647  0.26356883  1
  O2-  O205  1  0.16849140  0.20274246  0.59913110  1
  O2-  O206  1  0.17120322  0.20751178  0.93047903  1
  O2-  O207  1  0.16714183  0.71129860  0.26283204  1
  O2-  O208  1  0.16955412  0.71448799  0.60459581  1
  O2-  O209  1  0.16702600  0.71271760  0.93533684  1
  O2-  O210  1  0.66700602  0.20702890  0.27483629  1
  O2-  O211  1  0.66563348  0.20257408  0.60380936  1
  O2-  O212  1  0.66715737  0.20436678  0.93196186  1
  O2-  O213  1  0.67101782  0.69944218  0.26338396  1
  O2-  O214  1  0.66611114  0.70787773  0.59622288  1
  O2-  O215  1  0.65983845  0.70839987  0.93808377  1
  O2-  O216  1  0.09105528  0.45344977  0.06451792  1
  O2-  O217  1  0.07923515  0.44049709  0.39258230  1
  O2-  O218  1  0.08240438  0.45390164  0.72733257  1
  O2-  O219  1  0.08493640  0.95275227  0.06407250  1
  O2-  O220  1  0.09099738  0.96104462  0.39422051  1
  O2-  O221  1  0.08448076  0.95867652  0.73853150  1
  O2-  O222  1  0.58134664  0.45957465  0.06877090  1
  O2-  O223  1  0.58328098  0.46413218  0.40151583  1
  O2-  O224  1  0.58918968  0.46268486  0.73091298  1
  O2-  O225  1  0.57965712  0.96049224  0.06647246  1
  O2-  O226  1  0.58307429  0.95244474  0.39932317  1
  O2-  O227  1  0.58140395  0.94730573  0.72754616  1
  O2-  O228  1  0.21180934  0.33635685  0.06220918  1
  O2-  O229  1  0.20857931  0.33245008  0.39610622  1
  O2-  O230  1  0.20490096  0.33356065  0.72911766  1
  O2-  O231  1  0.21225901  0.83964052  0.06806610  1
  O2-  O232  1  0.20991885  0.83975042  0.39292320  1
  O2-  O233  1  0.21306291  0.83687776  0.74187999  1
  O2-  O234  1  0.70226022  0.32676111  0.06692118  1
  O2-  O235  1  0.70844847  0.33528813  0.40707562  1
  O2-  O236  1  0.70064738  0.33682099  0.72689115  1
  O2-  O237  1  0.70615113  0.83386796  0.06767680  1
  O2-  O238  1  0.69781677  0.82941788  0.39378563  1
  O2-  O239  1  0.70512478  0.83226007  0.72734875  1
  O2-  O240  1  0.46154278  0.41539141  0.26379576  1
  O2-  O241  1  0.46483673  0.41498557  0.59917277  1
  O2-  O242  1  0.45241480  0.41983068  0.93865143  1
  O2-  O243  1  0.45293062  0.92400198  0.26721744  1
  O2-  O244  1  0.44716775  0.91774231  0.60779954  1
  O2-  O245  1  0.45399074  0.91342638  0.93494090  1
  O2-  O246  1  0.94316823  0.41599059  0.27277247  1
  O2-  O247  1  0.95359076  0.41964372  0.59403791  1
  O2-  O248  1  0.96093610  0.42120902  0.93578854  1
  O2-  O249  1  0.96597427  0.91464811  0.26301954  1
  O2-  O250  1  0.95460952  0.91636668  0.61000083  1
  O2-  O251  1  0.96071859  0.91220232  0.92845245  1
  O2-  O252  1  0.33512672  0.28978939  0.26163928  1
  O2-  O253  1  0.33435752  0.29287184  0.59817570  1
  O2-  O254  1  0.33757473  0.29612159  0.93433277  1
  O2-  O255  1  0.33311937  0.79270316  0.26280290  1
  O2-  O256  1  0.33368220  0.79542114  0.60958676  1
  O2-  O257  1  0.33506795  0.79344869  0.93689316  1
  O2-  O258  1  0.83143807  0.28909578  0.27339024  1
  O2-  O259  1  0.82623170  0.29390468  0.59901965  1
  O2-  O260  1  0.82949337  0.29925736  0.93428956  1
  O2-  O261  1  0.82895750  0.80094115  0.26819447  1
  O2-  O262  1  0.83525879  0.79731796  0.60224203  1
  O2-  O263  1  0.82957184  0.78912288  0.93023787  1
  O2-  O264  1  0.40940101  0.03966502  0.06369393  1
  O2-  O265  1  0.41546090  0.05105476  0.39594210  1
  O2-  O266  1  0.41785908  0.05001290  0.73018987  1
  O2-  O267  1  0.41280149  0.54650160  0.06454938  1
  O2-  O268  1  0.41318884  0.53622826  0.39941491  1
  O2-  O269  1  0.41649466  0.53496970  0.73674160  1
  O2-  O270  1  0.91701920  0.04147742  0.05936597  1
  O2-  O271  1  0.91791892  0.03483939  0.40018365  1
  O2-  O272  1  0.91376893  0.03998445  0.74096788  1
  O2-  O273  1  0.92578250  0.55358620  0.06471860  1
  O2-  O274  1  0.91905639  0.54911182  0.39592045  1
  O2-  O275  1  0.91560123  0.54607188  0.72529001  1
  O2-  O276  1  0.29726741  0.16581279  0.06016205  1
  O2-  O277  1  0.29254687  0.16577419  0.39314953  1
  O2-  O278  1  0.29838223  0.16910648  0.72940161  1
  O2-  O279  1  0.29227987  0.66472296  0.06339759  1
  O2-  O280  1  0.28985636  0.66884462  0.39925430  1
  O2-  O281  1  0.29232202  0.66508241  0.73871464  1
  O2-  O282  1  0.79878248  0.16495166  0.06027296  1
  O2-  O283  1  0.78960396  0.16184484  0.40518504  1
  O2-  O284  1  0.78749404  0.16757333  0.73737284  1
  O2-  O285  1  0.78838709  0.66735425  0.06773422  1
  O2-  O286  1  0.80002899  0.66917770  0.39627971  1
  O2-  O287  1  0.79270497  0.66347483  0.72521471  1
