# generated using pymatgen
data_Ca2Al2SiO7
_symmetry_space_group_name_H-M   'P 1'
_cell_length_a   15.45449456
_cell_length_b   15.45529579
_cell_length_c   15.28148881
_cell_angle_alpha   90.00608064
_cell_angle_beta   90.00286541
_cell_angle_gamma   89.99252229
_symmetry_Int_Tables_number   1
_chemical_formula_structural   Ca2Al2SiO7
_chemical_formula_sum   'Ca48 Al48 Si24 O168'
_cell_volume   3650.04138101
_cell_formula_units_Z   24
loop_
 _symmetry_equiv_pos_site_id
 _symmetry_equiv_pos_as_xyz
  1  'x, y, z'
loop_
 _atom_type_symbol
 _atom_type_oxidation_number
  Ca2+  2.0
  Al0+  0.0
  Si0+  0.0
  O2-  -2.0
loop_
 _atom_site_type_symbol
 _atom_site_label
 _atom_site_symmetry_multiplicity
 _atom_site_fract_x
 _atom_site_fract_y
 _atom_site_fract_z
 _atom_site_occupancy
  Ca2+  Ca0  1  0.16809573  0.08206296  0.16722712  1
  Ca2+  Ca1  1  0.16599672  0.07769846  0.50670000  1
  Ca2+  Ca2  1  0.17503326  0.06873969  0.84098421  1
  Ca2+  Ca3  1  0.16941517  0.57929186  0.17332729  1
  Ca2+  Ca4  1  0.17049471  0.57561415  0.50556005  1
  Ca2+  Ca5  1  0.16082554  0.58290398  0.83563311  1
  Ca2+  Ca6  1  0.66404687  0.07349632  0.16792572  1
  Ca2+  Ca7  1  0.67074603  0.07541179  0.50921992  1
  Ca2+  Ca8  1  0.66100075  0.07601600  0.83724866  1
  Ca2+  Ca9  1  0.67374355  0.59375236  0.16593325  1
  Ca2+  Ca10  1  0.66837299  0.58220042  0.50245643  1
  Ca2+  Ca11  1  0.67246056  0.58519966  0.84450142  1
  Ca2+  Ca12  1  0.08593202  0.32917643  0.16481782  1
  Ca2+  Ca13  1  0.09102619  0.32837698  0.49481937  1
  Ca2+  Ca14  1  0.07813775  0.33591894  0.83011446  1
  Ca2+  Ca15  1  0.07134240  0.83038711  0.15555715  1
  Ca2+  Ca16  1  0.08043145  0.83142121  0.49515280  1
  Ca2+  Ca17  1  0.08969514  0.82591919  0.82897003  1
  Ca2+  Ca18  1  0.57690514  0.32677202  0.15891032  1
  Ca2+  Ca19  1  0.57271295  0.32798324  0.49761735  1
  Ca2+  Ca20  1  0.57821034  0.31790944  0.82439189  1
  Ca2+  Ca21  1  0.58127199  0.83497743  0.16213122  1
  Ca2+  Ca22  1  0.57452680  0.84356539  0.49717640  1
  Ca2+  Ca23  1  0.58302571  0.83526631  0.83065117  1
  Ca2+  Ca24  1  0.33100707  0.42480247  0.18032322  1
  Ca2+  Ca25  1  0.32881299  0.41524632  0.50258540  1
  Ca2+  Ca26  1  0.32825821  0.41107499  0.83370118  1
  Ca2+  Ca27  1  0.33121086  0.92023571  0.16772357  1
  Ca2+  Ca28  1  0.33125923  0.91255718  0.50751072  1
  Ca2+  Ca29  1  0.32622610  0.91340656  0.83852877  1
  Ca2+  Ca30  1  0.83754406  0.42110868  0.16376744  1
  Ca2+  Ca31  1  0.83250222  0.41907208  0.50506797  1
  Ca2+  Ca32  1  0.83496206  0.42273074  0.84292346  1
  Ca2+  Ca33  1  0.82310450  0.90309220  0.17012703  1
  Ca2+  Ca34  1  0.82399666  0.91835120  0.50656089  1
  Ca2+  Ca35  1  0.82411244  0.91972006  0.83856506  1
  Ca2+  Ca36  1  0.41746260  0.16986469  0.16079515  1
  Ca2+  Ca37  1  0.41718225  0.17514230  0.49790223  1
  Ca2+  Ca38  1  0.42545542  0.16077145  0.82956805  1
  Ca2+  Ca39  1  0.41906401  0.67027406  0.16457188  1
  Ca2+  Ca40  1  0.41282663  0.67827316  0.49502064  1
  Ca2+  Ca41  1  0.42354824  0.67278907  0.82849325  1
  Ca2+  Ca42  1  0.92315312  0.17277162  0.16262297  1
  Ca2+  Ca43  1  0.92364573  0.16020156  0.49596012  1
  Ca2+  Ca44  1  0.91016168  0.17089289  0.83019718  1
  Ca2+  Ca45  1  0.91994758  0.67432917  0.15586021  1
  Ca2+  Ca46  1  0.92447164  0.67342228  0.49652477  1
  Ca2+  Ca47  1  0.92402733  0.67246641  0.83591073  1
  Al0+  Al48  1  -0.00167453  0.00137714  -0.00052773  1
  Al0+  Al49  1  -0.00048546  0.00088896  0.32291677  1
  Al0+  Al50  1  -0.00121512  0.00003527  0.67623918  1
  Al0+  Al51  1  -0.00099847  0.50023338  -0.00117474  1
  Al0+  Al52  1  -0.00038139  0.49899470  0.33888533  1
  Al0+  Al53  1  0.00169808  0.50059863  0.66472487  1
  Al0+  Al54  1  0.49910358  0.00141951  0.00515264  1
  Al0+  Al55  1  0.49946121  -0.00048959  0.33368202  1
  Al0+  Al56  1  0.50123270  -0.00034477  0.66136774  1
  Al0+  Al57  1  0.49898653  0.49966918  -0.00435875  1
  Al0+  Al58  1  0.50127620  0.50126125  0.33424931  1
  Al0+  Al59  1  0.50007244  0.50030420  0.66350531  1
  Al0+  Al60  1  0.24889741  0.24984303  0.00303284  1
  Al0+  Al61  1  0.25057297  0.24939535  0.32786711  1
  Al0+  Al62  1  0.24822120  0.25115806  0.66997724  1
  Al0+  Al63  1  0.24891661  0.74856120  0.00227085  1
  Al0+  Al64  1  0.25107650  0.74994508  0.33152371  1
  Al0+  Al65  1  0.25107239  0.74660239  0.66218529  1
  Al0+  Al66  1  0.74840396  0.24960222  -0.00648220  1
  Al0+  Al67  1  0.75124477  0.24984964  0.33347450  1
  Al0+  Al68  1  0.75017544  0.25168059  0.66363390  1
  Al0+  Al69  1  0.75078874  0.74936200  -0.00033033  1
  Al0+  Al70  1  0.74964778  0.75041320  0.33882966  1
  Al0+  Al71  1  0.75159884  0.74999472  0.66990511  1
  Al0+  Al72  1  0.17695613  0.92608720  0.01700555  1
  Al0+  Al73  1  0.32308805  0.57326575  0.34995680  1
  Al0+  Al74  1  0.92713985  0.82368569  0.98286788  1
  Al0+  Al75  1  0.56861038  0.17848114  0.98711550  1
  Al0+  Al76  1  0.92882061  0.81948023  0.32099748  1
  Al0+  Al77  1  0.07202859  0.67967200  0.98585176  1
  Al0+  Al78  1  0.07124482  0.17945803  0.31981629  1
  Al0+  Al79  1  0.67736569  0.92915118  0.68327203  1
  Al0+  Al80  1  0.43063654  0.81925908  0.65477339  1
  Al0+  Al81  1  0.17954696  0.42801443  0.34880477  1
  Al0+  Al82  1  0.42657996  0.32128412  0.65141527  1
  Al0+  Al83  1  0.82139758  0.07299465  0.68224802  1
  Al0+  Al84  1  0.57242128  0.17776873  0.64874367  1
  Al0+  Al85  1  0.67917110  0.92953698  0.34850203  1
  Al0+  Al86  1  0.32038111  0.07057566  0.01599925  1
  Al0+  Al87  1  0.43043505  0.32148780  0.31862691  1
  Al0+  Al88  1  0.07056484  0.67881106  0.65027856  1
  Al0+  Al89  1  0.42795236  0.82223661  0.31777939  1
  Al0+  Al90  1  0.17974615  0.42915245  0.68266896  1
  Al0+  Al91  1  0.57066573  0.67899721  0.98784833  1
  Al0+  Al92  1  0.93095490  0.31941688  0.98677390  1
  Al0+  Al93  1  0.17990210  0.92609437  0.67778253  1
  Al0+  Al94  1  0.68105529  0.92979721  0.01512964  1
  Al0+  Al95  1  0.82007906  0.56938987  0.01362043  1
  Si0+  Si96  1  0.82158787  0.56966091  0.68194803  1
  Si0+  Si97  1  0.92605298  0.32413168  0.31746713  1
  Si0+  Si98  1  0.82053391  0.57101033  0.35002813  1
  Si0+  Si99  1  0.57275815  0.67856831  0.31789044  1
  Si0+  Si100  1  0.32100989  0.07251825  0.68042388  1
  Si0+  Si101  1  0.07123566  0.67668428  0.31763617  1
  Si0+  Si102  1  0.32304754  0.57164770  0.68501511  1
  Si0+  Si103  1  0.67937243  0.42648763  0.34797047  1
  Si0+  Si104  1  0.57299426  0.17870810  0.31598916  1
  Si0+  Si105  1  0.17722034  0.93030505  0.34630643  1
  Si0+  Si106  1  0.06912536  0.17832120  0.65529558  1
  Si0+  Si107  1  0.32043662  0.07043767  0.34921898  1
  Si0+  Si108  1  0.67679564  0.42697072  0.01509758  1
  Si0+  Si109  1  0.07409488  0.17814231  0.98043242  1
  Si0+  Si110  1  0.57572052  0.67746362  0.64980813  1
  Si0+  Si111  1  0.42861268  0.82171569  0.98528445  1
  Si0+  Si112  1  0.17856427  0.43038733  0.01516701  1
  Si0+  Si113  1  0.82145119  0.07621838  0.01827037  1
  Si0+  Si114  1  0.32372246  0.57035275  0.01424992  1
  Si0+  Si115  1  0.42576247  0.32294968  0.98336845  1
  Si0+  Si116  1  0.82322591  0.07331976  0.34748096  1
  Si0+  Si117  1  0.92977270  0.32256257  0.65091764  1
  Si0+  Si118  1  0.92846359  0.82318586  0.65056516  1
  Si0+  Si119  1  0.67780287  0.43021439  0.68130686  1
  O2-  O120  1  0.24736996  -0.00012554  0.06723243  1
  O2-  O121  1  0.24998083  -0.00154993  0.39117614  1
  O2-  O122  1  0.25646166  -0.00047225  0.72353551  1
  O2-  O123  1  0.25239696  0.49897669  0.05594598  1
  O2-  O124  1  0.25101881  0.50043970  0.39911593  1
  O2-  O125  1  0.25623410  0.50146903  0.73029753  1
  O2-  O126  1  0.75832400  0.00255245  0.06284478  1
  O2-  O127  1  0.75420882  0.00562947  0.39202587  1
  O2-  O128  1  0.74746039  0.00341997  0.73245197  1
  O2-  O129  1  0.74303073  0.49682809  0.06175663  1
  O2-  O130  1  0.75133282  0.49709329  0.39077456  1
  O2-  O131  1  0.74690720  0.50243544  0.72397141  1
  O2-  O132  1  -0.00264492  0.25716277  0.27590865  1
  O2-  O133  1  -0.00221537  0.24821596  0.61041730  1
  O2-  O134  1  0.00238283  0.24377644  0.93634737  1
  O2-  O135  1  0.00347968  0.74539608  0.27337387  1
  O2-  O136  1  -0.00113653  0.75697279  0.60459176  1
  O2-  O137  1  0.00607843  0.75733928  0.93523614  1
  O2-  O138  1  0.50599131  0.24850270  0.27103087  1
  O2-  O139  1  0.49821045  0.24906398  0.60086003  1
  O2-  O140  1  0.49344963  0.25310767  0.94060016  1
  O2-  O141  1  0.50273222  0.74596233  0.27428498  1
  O2-  O142  1  0.50857022  0.74762756  0.60668434  1
  O2-  O143  1  0.49720464  0.75354521  0.94016629  1
  O2-  O144  1  0.07518771  0.18232728  0.08624763  1
  O2-  O145  1  0.06949392  0.17666311  0.43363348  1
  O2-  O146  1  0.06901867  0.18130909  0.75987358  1
  O2-  O147  1  0.06959944  0.67591343  0.09968233  1
  O2-  O148  1  0.06883071  0.67748572  0.42348344  1
  O2-  O149  1  0.06785789  0.67730302  0.76293090  1
  O2-  O150  1  0.56858244  0.18159605  0.10054727  1
  O2-  O151  1  0.57314088  0.18099682  0.42134855  1
  O2-  O152  1  0.57110780  0.17885112  0.76250375  1
  O2-  O153  1  0.56813658  0.67839892  0.10096870  1
  O2-  O154  1  0.57510458  0.67809819  0.42356821  1
  O2-  O155  1  0.57516999  0.67484103  0.75529787  1
  O2-  O156  1  0.17908121  0.43047290  0.23465172  1
  O2-  O157  1  0.17872495  0.42865157  0.57002855  1
  O2-  O158  1  0.17874661  0.43004972  0.90995038  1
  O2-  O159  1  0.17755266  0.93256267  0.24177325  1
  O2-  O160  1  0.17816750  0.92997923  0.56388684  1
  O2-  O161  1  0.18281719  0.92479159  0.90306245  1
  O2-  O162  1  0.68047739  0.42436590  0.24322198  1
  O2-  O163  1  0.68037432  0.43144313  0.57557082  1
  O2-  O164  1  0.67885481  0.42863023  0.90937682  1
  O2-  O165  1  0.67979121  0.92855221  0.23542806  1
  O2-  O166  1  0.68020667  0.92868623  0.56935539  1
  O2-  O167  1  0.67879142  0.93121448  0.90249399  1
  O2-  O168  1  0.42764541  0.32514057  0.08905249  1
  O2-  O169  1  0.43064327  0.31845925  0.43144874  1
  O2-  O170  1  0.42901071  0.32010425  0.76510791  1
  O2-  O171  1  0.42939583  0.81994211  0.09102978  1
  O2-  O172  1  0.42849377  0.82292681  0.43097330  1
  O2-  O173  1  0.42956977  0.81622789  0.76790671  1
  O2-  O174  1  0.93391243  0.31992901  0.10015607  1
  O2-  O175  1  0.92247942  0.32383134  0.42313904  1
  O2-  O176  1  0.93052615  0.32538801  0.75580534  1
  O2-  O177  1  0.92560688  0.81654601  0.09687401  1
  O2-  O178  1  0.93077620  0.81854406  0.43453139  1
  O2-  O179  1  0.92697533  0.82025478  0.75547360  1
  O2-  O180  1  0.32043957  0.07025128  0.24444382  1
  O2-  O181  1  0.31644245  0.07489462  0.57436106  1
  O2-  O182  1  0.32035194  0.06927836  0.90206193  1
  O2-  O183  1  0.32233321  0.57150214  0.23562022  1
  O2-  O184  1  0.32155615  0.57215316  0.57966671  1
  O2-  O185  1  0.32597634  0.56940748  0.90931433  1
  O2-  O186  1  0.82144379  0.07747905  0.24239424  1
  O2-  O187  1  0.82466175  0.06999621  0.56799264  1
  O2-  O188  1  0.81679184  0.07914872  0.91297344  1
  O2-  O189  1  0.82061109  0.57149753  0.24527099  1
  O2-  O190  1  0.82053687  0.56751801  0.57608001  1
  O2-  O191  1  0.81978580  0.56638489  0.90034532  1
  O2-  O192  1  0.03897870  0.08659629  0.25966807  1
  O2-  O193  1  0.04157680  0.08592499  0.60812216  1
  O2-  O194  1  0.05277099  0.08289944  0.93733250  1
  O2-  O195  1  0.04425629  0.58213466  0.27417319  1
  O2-  O196  1  0.03460552  0.58398714  0.59496858  1
  O2-  O197  1  0.03753332  0.58335736  0.93210266  1
  O2-  O198  1  0.54439081  0.08574689  0.27145916  1
  O2-  O199  1  0.54630238  0.07995320  0.59472804  1
  O2-  O200  1  0.53574518  0.08247588  0.93332557  1
  O2-  O201  1  0.55145854  0.58424470  0.27144510  1
  O2-  O202  1  0.54999600  0.58419093  0.60247060  1
  O2-  O203  1  0.54131666  0.58239987  0.93140266  1
  O2-  O204  1  0.16600149  0.20967693  0.26237140  1
  O2-  O205  1  0.16043142  0.20683701  0.60721355  1
  O2-  O206  1  0.16654826  0.20788727  0.93436902  1
  O2-  O207  1  0.16551255  0.69979927  0.27310495  1
  O2-  O208  1  0.16776699  0.70498254  0.59619532  1
  O2-  O209  1  0.17261814  0.70153000  0.93307107  1
  O2-  O210  1  0.66757891  0.20352458  0.27105012  1
  O2-  O211  1  0.66994145  0.21074032  0.59534442  1
  O2-  O212  1  0.66333718  0.20969086  0.93050899  1
  O2-  O213  1  0.66601163  0.70683846  0.27256732  1
  O2-  O214  1  0.67077734  0.69980488  0.60453004  1
  O2-  O215  1  0.66704383  0.70715980  0.93368123  1
  O2-  O216  1  0.08806026  0.46019081  0.06304406  1
  O2-  O217  1  0.07955723  0.45213787  0.40222062  1
  O2-  O218  1  0.08271597  0.46254160  0.73508108  1
  O2-  O219  1  0.07671254  0.95444946  0.06672535  1
  O2-  O220  1  0.08523042  0.96097636  0.39213610  1
  O2-  O221  1  0.08539359  0.95679232  0.73464443  1
  O2-  O222  1  0.58158423  0.45026759  0.05919418  1
  O2-  O223  1  0.58928898  0.45644203  0.39724232  1
  O2-  O224  1  0.58519029  0.45517464  0.72801208  1
  O2-  O225  1  0.58499599  0.96214461  0.06961496  1
  O2-  O226  1  0.58224517  0.96145132  0.40131824  1
  O2-  O227  1  0.57728583  0.95572153  0.73378706  1
  O2-  O228  1  0.20306484  0.33761214  0.06218342  1
  O2-  O229  1  0.20932725  0.32836489  0.39884221  1
  O2-  O230  1  0.20722898  0.33238231  0.73897859  1
  O2-  O231  1  0.20501936  0.82756764  0.07050527  1
  O2-  O232  1  0.20221460  0.83686613  0.39171595  1
  O2-  O233  1  0.21172339  0.82918678  0.73002875  1
  O2-  O234  1  0.70518082  0.33424015  0.06131420  1
  O2-  O235  1  0.70775179  0.33554954  0.39780788  1
  O2-  O236  1  0.70734547  0.33887962  0.72767809  1
  O2-  O237  1  0.71030906  0.83221955  0.06827449  1
  O2-  O238  1  0.71004192  0.83367552  0.40447365  1
  O2-  O239  1  0.70623331  0.82963854  0.73464546  1
  O2-  O240  1  0.46120616  0.41911896  0.26626632  1
  O2-  O241  1  0.45619684  0.41982195  0.59846678  1
  O2-  O242  1  0.45049882  0.41551560  0.93510959  1
  O2-  O243  1  0.45968958  0.91870318  0.26416816  1
  O2-  O244  1  0.45597612  0.91612650  0.59836684  1
  O2-  O245  1  0.45372004  0.91560138  0.94127192  1
  O2-  O246  1  0.94968314  0.41904185  0.27300813  1
  O2-  O247  1  0.96067353  0.41212743  0.60088068  1
  O2-  O248  1  0.96345399  0.41466601  0.93143084  1
  O2-  O249  1  0.95559115  0.91513966  0.26428075  1
  O2-  O250  1  0.95281160  0.91833860  0.60732640  1
  O2-  O251  1  0.94485069  0.92617130  0.93475014  1
  O2-  O252  1  0.33517883  0.29025966  0.26325124  1
  O2-  O253  1  0.32715470  0.29259387  0.60014967  1
  O2-  O254  1  0.33099650  0.29823575  0.93953919  1
  O2-  O255  1  0.33137350  0.79236607  0.26293401  1
  O2-  O256  1  0.33640833  0.78553228  0.59732186  1
  O2-  O257  1  0.33524103  0.79409685  0.94049460  1
  O2-  O258  1  0.83363482  0.29723056  0.26905499  1
  O2-  O259  1  0.83696774  0.30013061  0.60283573  1
  O2-  O260  1  0.83351041  0.29325068  0.93164462  1
  O2-  O261  1  0.83222096  0.78483167  0.26966478  1
  O2-  O262  1  0.83564733  0.79318694  0.60388096  1
  O2-  O263  1  0.83227043  0.78666994  0.92918572  1
  O2-  O264  1  0.41713861  0.04291657  0.07242987  1
  O2-  O265  1  0.41228244  0.04389987  0.39690257  1
  O2-  O266  1  0.41660999  0.05000630  0.72200372  1
  O2-  O267  1  0.41504940  0.54178100  0.06313354  1
  O2-  O268  1  0.42293933  0.54737395  0.40150634  1
  O2-  O269  1  0.41872565  0.54864682  0.72899829  1
  O2-  O270  1  0.91860365  0.05941995  0.06008470  1
  O2-  O271  1  0.91758116  0.04592627  0.39139446  1
  O2-  O272  1  0.91800227  0.04631904  0.73968279  1
  O2-  O273  1  0.91488551  0.53440045  0.06921805  1
  O2-  O274  1  0.91175065  0.54426594  0.39981165  1
  O2-  O275  1  0.91145416  0.53619604  0.72817111  1
  O2-  O276  1  0.29202911  0.16997787  0.06942597  1
  O2-  O277  1  0.29058752  0.16205845  0.39526751  1
  O2-  O278  1  0.29211865  0.16329345  0.72981140  1
  O2-  O279  1  0.29692323  0.66164582  0.06268573  1
  O2-  O280  1  0.29344570  0.67208940  0.40210122  1
  O2-  O281  1  0.29475551  0.66379523  0.73174210  1
  O2-  O282  1  0.79077404  0.16859665  0.06514281  1
  O2-  O283  1  0.80084529  0.16764414  0.39544915  1
  O2-  O284  1  0.79719170  0.17485038  0.73078963  1
  O2-  O285  1  0.78864971  0.66468435  0.06916279  1
  O2-  O286  1  0.78928808  0.65978042  0.40136907  1
  O2-  O287  1  0.79840646  0.66238384  0.72881239  1
