# generated using pymatgen
data_Ca2Al2SiO7
_symmetry_space_group_name_H-M   'P 1'
_cell_length_a   15.46523903
_cell_length_b   15.46502253
_cell_length_c   15.28816964
_cell_angle_alpha   90.01496583
_cell_angle_beta   90.01305229
_cell_angle_gamma   89.97935406
_symmetry_Int_Tables_number   1
_chemical_formula_structural   Ca2Al2SiO7
_chemical_formula_sum   'Ca48 Al48 Si24 O168'
_cell_volume   3656.47520336
_cell_formula_units_Z   24
loop_
 _symmetry_equiv_pos_site_id
 _symmetry_equiv_pos_as_xyz
  1  'x, y, z'
loop_
 _atom_type_symbol
 _atom_type_oxidation_number
  Ca2+  2.0
  Al0+  0.0
  Si0+  0.0
  O2-  -2.0
loop_
 _atom_site_type_symbol
 _atom_site_label
 _atom_site_symmetry_multiplicity
 _atom_site_fract_x
 _atom_site_fract_y
 _atom_site_fract_z
 _atom_site_occupancy
  Ca2+  Ca0  1  0.16864026  0.07603013  0.17439905  1
  Ca2+  Ca1  1  0.16442666  0.07221015  0.50969883  1
  Ca2+  Ca2  1  0.16350023  0.08093162  0.83163034  1
  Ca2+  Ca3  1  0.17979581  0.58567454  0.17432892  1
  Ca2+  Ca4  1  0.17666171  0.59088130  0.50563996  1
  Ca2+  Ca5  1  0.18034375  0.59440048  0.83369204  1
  Ca2+  Ca6  1  0.66332825  0.08784098  0.17084496  1
  Ca2+  Ca7  1  0.66481105  0.07875799  0.50654149  1
  Ca2+  Ca8  1  0.65809135  0.07433428  0.83616227  1
  Ca2+  Ca9  1  0.65800042  0.57258517  0.16963713  1
  Ca2+  Ca10  1  0.65497046  0.57601464  0.50420585  1
  Ca2+  Ca11  1  0.65648818  0.57551263  0.83646599  1
  Ca2+  Ca12  1  0.07392658  0.33553979  0.15957460  1
  Ca2+  Ca13  1  0.08615400  0.32574339  0.49883327  1
  Ca2+  Ca14  1  0.07693661  0.33119599  0.82686692  1
  Ca2+  Ca15  1  0.08330880  0.82968455  0.16627746  1
  Ca2+  Ca16  1  0.09114630  0.82465262  0.50042373  1
  Ca2+  Ca17  1  0.07342938  0.83207089  0.82272660  1
  Ca2+  Ca18  1  0.57761202  0.33360779  0.16167514  1
  Ca2+  Ca19  1  0.57555170  0.33878428  0.49458257  1
  Ca2+  Ca20  1  0.57548074  0.34014393  0.83060712  1
  Ca2+  Ca21  1  0.58421880  0.81719284  0.16044199  1
  Ca2+  Ca22  1  0.58361202  0.82271482  0.49801890  1
  Ca2+  Ca23  1  0.57895652  0.82032199  0.82117518  1
  Ca2+  Ca24  1  0.34509350  0.42402942  0.16833455  1
  Ca2+  Ca25  1  0.34356592  0.42666546  0.50426180  1
  Ca2+  Ca26  1  0.34045468  0.42563570  0.83653206  1
  Ca2+  Ca27  1  0.32774020  0.91921439  0.17510585  1
  Ca2+  Ca28  1  0.32495971  0.91235156  0.50887453  1
  Ca2+  Ca29  1  0.32734085  0.90755655  0.83272480  1
  Ca2+  Ca30  1  0.82091994  0.41067301  0.16984794  1
  Ca2+  Ca31  1  0.81814669  0.41911261  0.50640222  1
  Ca2+  Ca32  1  0.82149696  0.41491728  0.83983414  1
  Ca2+  Ca33  1  0.83461691  0.91618279  0.16719056  1
  Ca2+  Ca34  1  0.82739629  0.91475874  0.50942897  1
  Ca2+  Ca35  1  0.83166164  0.91028150  0.83352645  1
  Ca2+  Ca36  1  0.42778228  0.17784956  0.16077254  1
  Ca2+  Ca37  1  0.42131324  0.18103964  0.49253909  1
  Ca2+  Ca38  1  0.41863812  0.18046831  0.82936049  1
  Ca2+  Ca39  1  0.42416161  0.65517932  0.16619266  1
  Ca2+  Ca40  1  0.42053571  0.66440059  0.50078553  1
  Ca2+  Ca41  1  0.42325217  0.66243362  0.82660529  1
  Ca2+  Ca42  1  0.91717540  0.17363271  0.16124792  1
  Ca2+  Ca43  1  0.92174410  0.16265279  0.50327597  1
  Ca2+  Ca44  1  0.91979000  0.17304611  0.83158449  1
  Ca2+  Ca45  1  0.92488704  0.67001229  0.16128352  1
  Ca2+  Ca46  1  0.92788811  0.66958505  0.49843232  1
  Ca2+  Ca47  1  0.92160411  0.67660290  0.82411707  1
  Al0+  Al48  1  -0.00142107  -0.00151681  -0.00066811  1
  Al0+  Al49  1  -0.00097095  -0.00002573  0.33733075  1
  Al0+  Al50  1  -0.00105793  0.00192672  0.66534405  1
  Al0+  Al51  1  0.00096893  0.50021747  -0.00598983  1
  Al0+  Al52  1  0.00081428  0.50114626  0.32898695  1
  Al0+  Al53  1  -0.00129015  0.50016171  0.66243086  1
  Al0+  Al54  1  0.49821241  -0.00104531  0.00038261  1
  Al0+  Al55  1  0.49992395  0.00087604  0.33173582  1
  Al0+  Al56  1  0.49893124  0.00138680  0.66954972  1
  Al0+  Al57  1  0.50039406  0.49947560  0.00133309  1
  Al0+  Al58  1  0.49981938  0.50118145  0.33443377  1
  Al0+  Al59  1  0.49883250  0.49958322  0.66762446  1
  Al0+  Al60  1  0.25078220  0.24847121  -0.00074792  1
  Al0+  Al61  1  0.24988383  0.25070668  0.32725616  1
  Al0+  Al62  1  0.24900372  0.25076949  0.65796726  1
  Al0+  Al63  1  0.25036942  0.74963330  0.00874414  1
  Al0+  Al64  1  0.24922443  0.75014009  0.33607103  1
  Al0+  Al65  1  0.25016717  0.75124069  0.67111369  1
  Al0+  Al66  1  0.75169972  0.24653819  -0.00359665  1
  Al0+  Al67  1  0.75097614  0.24907896  0.33829280  1
  Al0+  Al68  1  0.74965546  0.25032394  0.67242921  1
  Al0+  Al69  1  0.75095347  0.74871679  -0.00590688  1
  Al0+  Al70  1  0.75133399  0.75042056  0.32823355  1
  Al0+  Al71  1  0.75045309  0.74906742  0.66262028  1
  Al0+  Al72  1  0.06953499  0.18122822  0.65328618  1
  Al0+  Al73  1  0.67922983  0.43094120  0.68197291  1
  Al0+  Al74  1  0.17978656  0.93137014  0.34873428  1
  Al0+  Al75  1  0.07271600  0.67949437  0.31796466  1
  Al0+  Al76  1  0.31947575  0.56905692  0.01547962  1
  Al0+  Al77  1  0.68207606  0.42897791  0.01437616  1
  Al0+  Al78  1  0.92809090  0.82206976  0.64973390  1
  Al0+  Al79  1  0.67798304  0.92800582  0.67989133  1
  Al0+  Al80  1  0.43021692  0.32070003  0.65190328  1
  Al0+  Al81  1  0.57267046  0.17593387  0.98298845  1
  Al0+  Al82  1  0.42804887  0.82341677  0.65312004  1
  Al0+  Al83  1  0.31822465  0.56933589  0.68082306  1
  Al0+  Al84  1  0.57315241  0.17786603  0.32005258  1
  Al0+  Al85  1  0.43026219  0.32087560  0.98307133  1
  Al0+  Al86  1  0.92901046  0.32201349  0.98662347  1
  Al0+  Al87  1  0.31955606  0.56800261  0.34888955  1
  Al0+  Al88  1  0.42943007  0.32276373  0.31656814  1
  Al0+  Al89  1  0.56902772  0.67907182  0.98635588  1
  Al0+  Al90  1  0.93081993  0.82026313  0.98626165  1
  Al0+  Al91  1  0.57127578  0.68065881  0.31808768  1
  Al0+  Al92  1  0.56968479  0.67828128  0.65099978  1
  Al0+  Al93  1  0.07219732  0.67877851  0.65245300  1
  Al0+  Al94  1  0.68127771  0.43067907  0.34733838  1
  Al0+  Al95  1  0.17983169  0.93067057  0.68282839  1
  Si0+  Si96  1  0.82476860  0.57200518  0.68301165  1
  Si0+  Si97  1  0.07169005  0.17702439  0.98576327  1
  Si0+  Si98  1  0.42601161  0.82275075  0.98613713  1
  Si0+  Si99  1  0.92933237  0.32042996  0.32062574  1
  Si0+  Si100  1  0.82078427  0.07096188  0.34929285  1
  Si0+  Si101  1  0.82499217  0.57426248  0.34863191  1
  Si0+  Si102  1  0.92477067  0.32248116  0.64870761  1
  Si0+  Si103  1  0.67822494  0.92678141  0.01510988  1
  Si0+  Si104  1  0.67900780  0.92734716  0.34571307  1
  Si0+  Si105  1  0.42716642  0.82258662  0.31725955  1
  Si0+  Si106  1  0.32187078  0.07279713  0.01660521  1
  Si0+  Si107  1  0.17585394  0.42477395  0.01516420  1
  Si0+  Si108  1  0.92863503  0.82312215  0.31565444  1
  Si0+  Si109  1  0.57336668  0.17774778  0.65138866  1
  Si0+  Si110  1  0.82482935  0.57373573  0.01578021  1
  Si0+  Si111  1  0.82162946  0.06799932  0.01578577  1
  Si0+  Si112  1  0.17366063  0.42607153  0.34906772  1
  Si0+  Si113  1  0.17811947  0.93141538  0.01629749  1
  Si0+  Si114  1  0.07503850  0.67886943  0.98394650  1
  Si0+  Si115  1  0.06956293  0.17709042  0.31844221  1
  Si0+  Si116  1  0.17543899  0.42563374  0.68138244  1
  Si0+  Si117  1  0.82156344  0.07195595  0.68649378  1
  Si0+  Si118  1  0.32103953  0.07575557  0.68350653  1
  Si0+  Si119  1  0.32267594  0.07389815  0.35008759  1
  O2-  O120  1  0.25038737  0.00119343  0.05835836  1
  O2-  O121  1  0.25478695  0.00562061  0.39560447  1
  O2-  O122  1  0.25634535  0.00375217  0.73008439  1
  O2-  O123  1  0.24417602  0.49295123  0.06034422  1
  O2-  O124  1  0.24432854  0.49196594  0.39319035  1
  O2-  O125  1  0.24073552  0.49622979  0.72691964  1
  O2-  O126  1  0.74767956  -0.00024305  0.05825218  1
  O2-  O127  1  0.74756447  0.00096283  0.38789062  1
  O2-  O128  1  0.75220836  0.00309211  0.72903225  1
  O2-  O129  1  0.75834423  0.50341172  0.06122747  1
  O2-  O130  1  0.75443935  0.50792464  0.39317688  1
  O2-  O131  1  0.75522830  0.50480612  0.72794781  1
  O2-  O132  1  0.00323884  0.25238800  0.27674236  1
  O2-  O133  1  -0.00411461  0.25626533  0.60447752  1
  O2-  O134  1  0.00880858  0.25116339  0.94252667  1
  O2-  O135  1  -0.00323771  0.75373719  0.27196747  1
  O2-  O136  1  0.00130212  0.75128400  0.60081286  1
  O2-  O137  1  0.00339162  0.74410347  0.94035739  1
  O2-  O138  1  0.50219329  0.24975942  0.26922907  1
  O2-  O139  1  0.50568362  0.24608108  0.60637182  1
  O2-  O140  1  0.50356475  0.25007502  0.93296415  1
  O2-  O141  1  0.49695179  0.75615418  0.27147414  1
  O2-  O142  1  0.50152804  0.75443615  0.60148244  1
  O2-  O143  1  0.49545247  0.75565570  0.94243335  1
  O2-  O144  1  0.06825895  0.17434078  0.09186968  1
  O2-  O145  1  0.06707360  0.17553501  0.42308963  1
  O2-  O146  1  0.06777817  0.18275791  0.76669665  1
  O2-  O147  1  0.07514626  0.68148373  0.08984870  1
  O2-  O148  1  0.07197373  0.68061186  0.43030873  1
  O2-  O149  1  0.07075898  0.68125297  0.76639010  1
  O2-  O150  1  0.57081394  0.17539580  0.09654543  1
  O2-  O151  1  0.57245704  0.17618083  0.43345041  1
  O2-  O152  1  0.57210567  0.17795230  0.75678555  1
  O2-  O153  1  0.56884410  0.67969527  0.09989426  1
  O2-  O154  1  0.57267544  0.68208769  0.43038870  1
  O2-  O155  1  0.56725508  0.67766918  0.76469917  1
  O2-  O156  1  0.16845543  0.42717287  0.24344888  1
  O2-  O157  1  0.17653293  0.42403476  0.57577456  1
  O2-  O158  1  0.17443035  0.42291287  0.90995188  1
  O2-  O159  1  0.17873020  0.93464314  0.23461015  1
  O2-  O160  1  0.18026381  0.93237203  0.56986724  1
  O2-  O161  1  0.17698677  0.93199613  0.91165717  1
  O2-  O162  1  0.68392405  0.42828153  0.23410254  1
  O2-  O163  1  0.68054919  0.43029345  0.56861967  1
  O2-  O164  1  0.68210496  0.43108871  0.90159203  1
  O2-  O165  1  0.68227472  0.92627969  0.24032465  1
  O2-  O166  1  0.67986344  0.93127247  0.56612322  1
  O2-  O167  1  0.67938660  0.92713634  0.91046685  1
  O2-  O168  1  0.43111181  0.31949088  0.09642435  1
  O2-  O169  1  0.43046097  0.32164621  0.43015508  1
  O2-  O170  1  0.42958823  0.32052960  0.76475884  1
  O2-  O171  1  0.42664801  0.82542461  0.09199827  1
  O2-  O172  1  0.42851388  0.82370509  0.42234132  1
  O2-  O173  1  0.42880349  0.82023409  0.76719830  1
  O2-  O174  1  0.92919164  0.31778109  0.10048788  1
  O2-  O175  1  0.92956235  0.31782594  0.42536978  1
  O2-  O176  1  0.92535281  0.32041341  0.75435057  1
  O2-  O177  1  0.93395424  0.82273308  0.09971346  1
  O2-  O178  1  0.92632486  0.82478225  0.42029810  1
  O2-  O179  1  0.93027311  0.82101121  0.76364451  1
  O2-  O180  1  0.31951321  0.07150286  0.24398926  1
  O2-  O181  1  0.31739410  0.07651468  0.57796567  1
  O2-  O182  1  0.32040570  0.07418663  0.91200316  1
  O2-  O183  1  0.31890830  0.56678361  0.23547159  1
  O2-  O184  1  0.31909222  0.56800208  0.56784329  1
  O2-  O185  1  0.31755063  0.57198900  0.90276785  1
  O2-  O186  1  0.82496009  0.07133935  0.24401823  1
  O2-  O187  1  0.82056872  0.07379673  0.58041685  1
  O2-  O188  1  0.82724564  0.06550837  0.91156261  1
  O2-  O189  1  0.82717449  0.57229076  0.24287899  1
  O2-  O190  1  0.82790690  0.56820566  0.57733438  1
  O2-  O191  1  0.82511702  0.57374642  0.91057772  1
  O2-  O192  1  0.03578827  0.08749927  0.26968046  1
  O2-  O193  1  0.03547948  0.08676682  0.59752400  1
  O2-  O194  1  0.03890997  0.08655308  0.93826306  1
  O2-  O195  1  0.04331110  0.58282542  0.26236124  1
  O2-  O196  1  0.04589866  0.57986237  0.59861067  1
  O2-  O197  1  0.05615186  0.58396570  0.93893698  1
  O2-  O198  1  0.54633990  0.07892949  0.26553740  1
  O2-  O199  1  0.54909206  0.08376059  0.60616997  1
  O2-  O200  1  0.54058222  0.07720013  0.93214355  1
  O2-  O201  1  0.53771832  0.58485261  0.26537122  1
  O2-  O202  1  0.53510676  0.58231011  0.59814482  1
  O2-  O203  1  0.53652222  0.58376659  0.93336111  1
  O2-  O204  1  0.16243652  0.19854179  0.27038593  1
  O2-  O205  1  0.16377232  0.20967769  0.59399872  1
  O2-  O206  1  0.16687267  0.19493240  0.94135878  1
  O2-  O207  1  0.16771248  0.71444198  0.26321011  1
  O2-  O208  1  0.16972764  0.71043718  0.60117259  1
  O2-  O209  1  0.16755325  0.71040219  0.94005515  1
  O2-  O210  1  0.67408844  0.20309471  0.26996255  1
  O2-  O211  1  0.66863845  0.20148813  0.60800452  1
  O2-  O212  1  0.67372884  0.19495614  0.93329413  1
  O2-  O213  1  0.66806648  0.71073095  0.26269559  1
  O2-  O214  1  0.66956012  0.70110047  0.59949795  1
  O2-  O215  1  0.66594792  0.70738863  0.93291691  1
  O2-  O216  1  0.08124136  0.45072174  0.06068478  1
  O2-  O217  1  0.08027953  0.45142475  0.39610119  1
  O2-  O218  1  0.07924899  0.44661633  0.72492760  1
  O2-  O219  1  0.08723145  0.96205155  0.06478373  1
  O2-  O220  1  0.08330574  0.96357188  0.40182152  1
  O2-  O221  1  0.08310107  0.96593575  0.73481172  1
  O2-  O222  1  0.58615605  0.46180627  0.06816471  1
  O2-  O223  1  0.58508136  0.46230432  0.40017336  1
  O2-  O224  1  0.58374392  0.46369578  0.73573544  1
  O2-  O225  1  0.58533648  0.95168307  0.06244870  1
  O2-  O226  1  0.58603777  0.95208034  0.39193035  1
  O2-  O227  1  0.58166680  0.95826836  0.73603383  1
  O2-  O228  1  0.19777974  0.32977676  0.06162209  1
  O2-  O229  1  0.19622843  0.32956416  0.39120079  1
  O2-  O230  1  0.20214536  0.33190778  0.72663556  1
  O2-  O231  1  0.20500366  0.84013863  0.06567788  1
  O2-  O232  1  0.20987001  0.83486285  0.40126203  1
  O2-  O233  1  0.20878932  0.83516460  0.73948233  1
  O2-  O234  1  0.71477815  0.33059908  0.06497081  1
  O2-  O235  1  0.71473088  0.33502749  0.40246249  1
  O2-  O236  1  0.70962730  0.33405781  0.73636266  1
  O2-  O237  1  0.71033092  0.83578745  0.06247051  1
  O2-  O238  1  0.71025028  0.83682447  0.39356200  1
  O2-  O239  1  0.70950830  0.83078755  0.73258572  1
  O2-  O240  1  0.46152660  0.41974038  0.26456670  1
  O2-  O241  1  0.46438271  0.41539576  0.59821896  1
  O2-  O242  1  0.45974464  0.41894107  0.93184166  1
  O2-  O243  1  0.44973703  0.91727393  0.27118623  1
  O2-  O244  1  0.44997796  0.92466315  0.60281427  1
  O2-  O245  1  0.44726925  0.91661826  0.93977929  1
  O2-  O246  1  0.95290008  0.41220688  0.27134964  1
  O2-  O247  1  0.94631367  0.41631193  0.60264548  1
  O2-  O248  1  0.95474151  0.41862744  0.93043098  1
  O2-  O249  1  0.95635712  0.91709862  0.27000441  1
  O2-  O250  1  0.95215039  0.92241217  0.60004138  1
  O2-  O251  1  0.96290216  0.91611468  0.93198450  1
  O2-  O252  1  0.32963275  0.29717003  0.26335872  1
  O2-  O253  1  0.33438289  0.29157496  0.59610948  1
  O2-  O254  1  0.33037222  0.29176737  0.93280168  1
  O2-  O255  1  0.33384405  0.79634794  0.27124147  1
  O2-  O256  1  0.32998698  0.79368381  0.60188684  1
  O2-  O257  1  0.33145382  0.79590875  0.94314823  1
  O2-  O258  1  0.83985641  0.28658395  0.27267133  1
  O2-  O259  1  0.83257585  0.29149074  0.60278300  1
  O2-  O260  1  0.83700908  0.28422388  0.93012634  1
  O2-  O261  1  0.83602737  0.79861391  0.26647520  1
  O2-  O262  1  0.83096847  0.79314385  0.59550549  1
  O2-  O263  1  0.83422396  0.79299911  0.93180373  1
  O2-  O264  1  0.41263130  0.04311900  0.06577737  1
  O2-  O265  1  0.41721541  0.05035058  0.39483081  1
  O2-  O266  1  0.41603686  0.05655162  0.72887274  1
  O2-  O267  1  0.41563050  0.53673296  0.06935431  1
  O2-  O268  1  0.41602253  0.53836884  0.40284507  1
  O2-  O269  1  0.41320666  0.53481792  0.73508174  1
  O2-  O270  1  0.91188370  0.03701822  0.06688642  1
  O2-  O271  1  0.91085101  0.04094255  0.39922184  1
  O2-  O272  1  0.91494719  0.04669574  0.73259335  1
  O2-  O273  1  0.92065715  0.55045660  0.05989083  1
  O2-  O274  1  0.91800042  0.54619540  0.39492277  1
  O2-  O275  1  0.91813020  0.54604744  0.73065201  1
  O2-  O276  1  0.29318124  0.16341159  0.06662629  1
  O2-  O277  1  0.29631570  0.16858124  0.39310730  1
  O2-  O278  1  0.28791539  0.16757469  0.72949250  1
  O2-  O279  1  0.28934793  0.66521400  0.07298046  1
  O2-  O280  1  0.28835345  0.66526093  0.40044637  1
  O2-  O281  1  0.28943920  0.66568501  0.73672666  1
  O2-  O282  1  0.79725692  0.16042729  0.06387243  1
  O2-  O283  1  0.79623538  0.16155724  0.40044047  1
  O2-  O284  1  0.79784696  0.16565087  0.73347043  1
  O2-  O285  1  0.79858827  0.66756859  0.06201794  1
  O2-  O286  1  0.80218295  0.66971472  0.39171348  1
  O2-  O287  1  0.80122548  0.66680354  0.72654739  1
