# generated using pymatgen
data_Ca2Al2SiO7
_symmetry_space_group_name_H-M   'P 1'
_cell_length_a   15.47154476
_cell_length_b   15.47663105
_cell_length_c   15.29615772
_cell_angle_alpha   89.99309836
_cell_angle_beta   89.98452045
_cell_angle_gamma   90.01904780
_symmetry_Int_Tables_number   1
_chemical_formula_structural   Ca2Al2SiO7
_chemical_formula_sum   'Ca48 Al48 Si24 O168'
_cell_volume   3662.62468019
_cell_formula_units_Z   24
loop_
 _symmetry_equiv_pos_site_id
 _symmetry_equiv_pos_as_xyz
  1  'x, y, z'
loop_
 _atom_type_symbol
 _atom_type_oxidation_number
  Ca2+  2.0
  Al0+  0.0
  Si0+  0.0
  O2-  -2.0
loop_
 _atom_site_type_symbol
 _atom_site_label
 _atom_site_symmetry_multiplicity
 _atom_site_fract_x
 _atom_site_fract_y
 _atom_site_fract_z
 _atom_site_occupancy
  Ca2+  Ca0  1  0.17770045  0.08562286  0.17651134  1
  Ca2+  Ca1  1  0.17238155  0.08794955  0.50019811  1
  Ca2+  Ca2  1  0.17914565  0.09524654  0.83185035  1
  Ca2+  Ca3  1  0.17380852  0.57349252  0.17901384  1
  Ca2+  Ca4  1  0.16922982  0.57242769  0.50694816  1
  Ca2+  Ca5  1  0.16902459  0.57643853  0.83089171  1
  Ca2+  Ca6  1  0.67742932  0.08278705  0.17308158  1
  Ca2+  Ca7  1  0.67751027  0.07892629  0.50875791  1
  Ca2+  Ca8  1  0.67433224  0.09031544  0.83409704  1
  Ca2+  Ca9  1  0.66485348  0.58214751  0.17533424  1
  Ca2+  Ca10  1  0.66488913  0.58341497  0.50044844  1
  Ca2+  Ca11  1  0.66701040  0.57956081  0.83535438  1
  Ca2+  Ca12  1  0.08356135  0.32992665  0.17223599  1
  Ca2+  Ca13  1  0.08205052  0.32656461  0.49569299  1
  Ca2+  Ca14  1  0.07748907  0.32682277  0.82073518  1
  Ca2+  Ca15  1  0.07107546  0.85168281  0.16901339  1
  Ca2+  Ca16  1  0.07903152  0.83799089  0.48932144  1
  Ca2+  Ca17  1  0.07606976  0.83747754  0.83030607  1
  Ca2+  Ca18  1  0.57297409  0.32332160  0.15812361  1
  Ca2+  Ca19  1  0.58315895  0.32300892  0.49941411  1
  Ca2+  Ca20  1  0.57636289  0.31920982  0.83184819  1
  Ca2+  Ca21  1  0.58963399  0.83023235  0.17012765  1
  Ca2+  Ca22  1  0.58126359  0.83584801  0.49529762  1
  Ca2+  Ca23  1  0.57692506  0.83755018  0.82291780  1
  Ca2+  Ca24  1  0.32945620  0.41666459  0.17786195  1
  Ca2+  Ca25  1  0.32186707  0.42528436  0.50420519  1
  Ca2+  Ca26  1  0.33061835  0.41353571  0.83422808  1
  Ca2+  Ca27  1  0.32799424  0.92969017  0.17432980  1
  Ca2+  Ca28  1  0.33170161  0.92395847  0.50331538  1
  Ca2+  Ca29  1  0.33623965  0.92638733  0.83156237  1
  Ca2+  Ca30  1  0.83303183  0.41715225  0.17432522  1
  Ca2+  Ca31  1  0.84069525  0.41298448  0.50470522  1
  Ca2+  Ca32  1  0.83329057  0.41146892  0.83410687  1
  Ca2+  Ca33  1  0.83347097  0.92508008  0.17556564  1
  Ca2+  Ca34  1  0.82636925  0.92423912  0.50148217  1
  Ca2+  Ca35  1  0.82972137  0.92846011  0.83733007  1
  Ca2+  Ca36  1  0.41904500  0.16501938  0.15650357  1
  Ca2+  Ca37  1  0.42069753  0.15498734  0.49797821  1
  Ca2+  Ca38  1  0.42474543  0.15790602  0.82747507  1
  Ca2+  Ca39  1  0.41939228  0.66375414  0.16808262  1
  Ca2+  Ca40  1  0.41541858  0.66842052  0.49524360  1
  Ca2+  Ca41  1  0.41290718  0.67555625  0.82256608  1
  Ca2+  Ca42  1  0.92240961  0.15888289  0.16735170  1
  Ca2+  Ca43  1  0.92520112  0.16785852  0.49315406  1
  Ca2+  Ca44  1  0.92104889  0.16594293  0.82118364  1
  Ca2+  Ca45  1  0.91923121  0.68313154  0.16413008  1
  Ca2+  Ca46  1  0.91877640  0.67580943  0.49147309  1
  Ca2+  Ca47  1  0.91575013  0.67544131  0.83108426  1
  Al0+  Al48  1  -0.00180285  0.00044065  -0.00457165  1
  Al0+  Al49  1  0.00111863  0.00315269  0.33149406  1
  Al0+  Al50  1  -0.00095850  0.00043956  0.66454862  1
  Al0+  Al51  1  0.00072289  0.50112809  0.00128253  1
  Al0+  Al52  1  -0.00085866  0.50071176  0.33231598  1
  Al0+  Al53  1  -0.00029347  0.50231819  0.67016277  1
  Al0+  Al54  1  0.50149876  -0.00361422  0.00080626  1
  Al0+  Al55  1  0.50148780  -0.00291536  0.33448927  1
  Al0+  Al56  1  0.49890658  -0.00285683  0.66334348  1
  Al0+  Al57  1  0.50005973  0.49879483  -0.00426500  1
  Al0+  Al58  1  0.50186571  0.49983995  0.33325679  1
  Al0+  Al59  1  0.50155083  0.50078203  0.67176261  1
  Al0+  Al60  1  0.24823309  0.25179222  0.00171166  1
  Al0+  Al61  1  0.25004447  0.25233696  0.33831724  1
  Al0+  Al62  1  0.24949592  0.25138942  0.67106089  1
  Al0+  Al63  1  0.24895219  0.74654684  0.00116751  1
  Al0+  Al64  1  0.25245571  0.75121838  0.33576777  1
  Al0+  Al65  1  0.24973209  0.75003808  0.66648367  1
  Al0+  Al66  1  0.74880915  0.25050062  0.00291698  1
  Al0+  Al67  1  0.74908453  0.25192966  0.33275090  1
  Al0+  Al68  1  0.74779663  0.25161442  0.66420310  1
  Al0+  Al69  1  0.75194247  0.74918230  -0.00546448  1
  Al0+  Al70  1  0.75009257  0.74853801  0.32814315  1
  Al0+  Al71  1  0.74866012  0.74897739  0.67086385  1
  Al0+  Al72  1  0.07263130  0.18068757  0.31621041  1
  Al0+  Al73  1  0.92842457  0.32243914  0.65360278  1
  Al0+  Al74  1  0.82046189  0.07180449  0.01450774  1
  Al0+  Al75  1  0.82070318  0.07233404  0.68144793  1
  Al0+  Al76  1  0.68135738  0.92591159  0.34719755  1
  Al0+  Al77  1  0.67898240  0.92826356  0.68234474  1
  Al0+  Al78  1  0.93082917  0.82134254  0.32111503  1
  Al0+  Al79  1  0.31981848  0.06968057  0.67974023  1
  Al0+  Al80  1  0.07289884  0.17786474  0.65067049  1
  Al0+  Al81  1  0.57083749  0.17594690  0.98566161  1
  Al0+  Al82  1  0.42833562  0.81977512  0.65143149  1
  Al0+  Al83  1  0.32281662  0.07270812  0.34792096  1
  Al0+  Al84  1  0.17806070  0.42955697  0.68470293  1
  Al0+  Al85  1  0.92721603  0.32242179  0.31641222  1
  Al0+  Al86  1  0.82065180  0.07419449  0.34874430  1
  Al0+  Al87  1  0.93040249  0.82193887  0.98356347  1
  Al0+  Al88  1  0.56882647  0.67924264  0.32012717  1
  Al0+  Al89  1  0.17824433  0.93023620  0.34638645  1
  Al0+  Al90  1  0.56834146  0.17853957  0.65151705  1
  Al0+  Al91  1  0.32468747  0.57089015  0.34732717  1
  Al0+  Al92  1  0.32158434  0.57193398  0.68338963  1
  Al0+  Al93  1  0.17662232  0.43041121  0.34997743  1
  Al0+  Al94  1  0.32111958  0.06997361  0.01185618  1
  Al0+  Al95  1  0.42618069  0.32043571  0.98506007  1
  Si0+  Si96  1  0.82084994  0.57142708  0.01598629  1
  Si0+  Si97  1  0.06972175  0.17988210  0.98494465  1
  Si0+  Si98  1  0.17588353  0.92654854  0.68294100  1
  Si0+  Si99  1  0.06960464  0.68074384  0.65222556  1
  Si0+  Si100  1  0.82024319  0.57073217  0.34671346  1
  Si0+  Si101  1  0.32219760  0.57058261  0.01562331  1
  Si0+  Si102  1  0.42676837  0.82354382  0.31317127  1
  Si0+  Si103  1  0.57093118  0.17640462  0.31884496  1
  Si0+  Si104  1  0.57161005  0.67781255  0.98378647  1
  Si0+  Si105  1  0.57301940  0.67669392  0.65053714  1
  Si0+  Si106  1  0.67877485  0.43083338  0.01609960  1
  Si0+  Si107  1  0.67880888  0.92420577  0.01679260  1
  Si0+  Si108  1  0.82081459  0.57161799  0.68268587  1
  Si0+  Si109  1  0.42755877  0.81779633  0.98585084  1
  Si0+  Si110  1  0.43204091  0.32025833  0.32226169  1
  Si0+  Si111  1  0.67809318  0.42824080  0.68353087  1
  Si0+  Si112  1  0.67914195  0.42953921  0.34820802  1
  Si0+  Si113  1  0.17812847  0.92598704  0.01370214  1
  Si0+  Si114  1  0.92725389  0.82039889  0.65106781  1
  Si0+  Si115  1  0.17781045  0.42968778  0.01666791  1
  Si0+  Si116  1  0.92912544  0.32326967  0.98665035  1
  Si0+  Si117  1  0.07451530  0.67816525  0.31774290  1
  Si0+  Si118  1  0.07155641  0.67518916  0.98219882  1
  Si0+  Si119  1  0.42824938  0.32425718  0.64967733  1
  O2-  O120  1  0.24673970  -0.00533039  0.05725704  1
  O2-  O121  1  0.25071062  0.00044042  0.39698569  1
  O2-  O122  1  0.24145465  -0.00170340  0.72697297  1
  O2-  O123  1  0.25325725  0.49742751  0.05714174  1
  O2-  O124  1  0.24648512  0.50622203  0.39673799  1
  O2-  O125  1  0.25348965  0.49786236  0.73591667  1
  O2-  O126  1  0.74508114  -0.00394053  0.05890045  1
  O2-  O127  1  0.74846537  0.00173251  0.39717663  1
  O2-  O128  1  0.74876133  0.00121595  0.73367702  1
  O2-  O129  1  0.74965984  0.50157896  0.05948601  1
  O2-  O130  1  0.75446349  0.49596014  0.39021230  1
  O2-  O131  1  0.75199519  0.49797172  0.72415066  1
  O2-  O132  1  -0.00261803  0.24971346  0.26500038  1
  O2-  O133  1  -0.00120938  0.24977576  0.60374168  1
  O2-  O134  1  -0.00328661  0.24998780  0.94443970  1
  O2-  O135  1  0.01122257  0.75184417  0.27321592  1
  O2-  O136  1  0.00147471  0.75320344  0.60866906  1
  O2-  O137  1  0.00699813  0.74786629  0.93792701  1
  O2-  O138  1  0.49542997  0.24331770  0.27793324  1
  O2-  O139  1  0.49167527  0.25153338  0.60409549  1
  O2-  O140  1  0.49309116  0.24291542  0.93632614  1
  O2-  O141  1  0.49490540  0.75273240  0.27021215  1
  O2-  O142  1  0.50322831  0.74359036  0.60744806  1
  O2-  O143  1  0.50057373  0.74846926  0.94272141  1
  O2-  O144  1  0.07144063  0.18035854  0.08963899  1
  O2-  O145  1  0.07391765  0.18216147  0.42896836  1
  O2-  O146  1  0.07180348  0.17981498  0.76549426  1
  O2-  O147  1  0.06907617  0.66931204  0.08710189  1
  O2-  O148  1  0.06890418  0.67612110  0.42333229  1
  O2-  O149  1  0.06657393  0.68108819  0.75772696  1
  O2-  O150  1  0.57152033  0.18044473  0.09965823  1
  O2-  O151  1  0.57249120  0.17921316  0.42373881  1
  O2-  O152  1  0.56965446  0.18125406  0.76466044  1
  O2-  O153  1  0.57200367  0.67586598  0.08871911  1
  O2-  O154  1  0.56962349  0.67761546  0.43258570  1
  O2-  O155  1  0.57441807  0.67670247  0.75664449  1
  O2-  O156  1  0.17951482  0.43104555  0.23529776  1
  O2-  O157  1  0.17572453  0.43404290  0.57197298  1
  O2-  O158  1  0.17396839  0.43211874  0.91220034  1
  O2-  O159  1  0.18067953  0.93239399  0.23202013  1
  O2-  O160  1  0.17685180  0.92274919  0.57803081  1
  O2-  O161  1  0.17980372  0.92328921  0.90820428  1
  O2-  O162  1  0.67722972  0.43247724  0.24275875  1
  O2-  O163  1  0.67506606  0.43030086  0.57858028  1
  O2-  O164  1  0.68063058  0.43278123  0.91103579  1
  O2-  O165  1  0.68373747  0.92609974  0.23296538  1
  O2-  O166  1  0.68337172  0.92522780  0.56934075  1
  O2-  O167  1  0.67979778  0.92033959  0.91166543  1
  O2-  O168  1  0.42933125  0.32336926  0.09917171  1
  O2-  O169  1  0.43779946  0.32391729  0.42676886  1
  O2-  O170  1  0.43293662  0.32495864  0.75537806  1
  O2-  O171  1  0.42612987  0.81516982  0.09052859  1
  O2-  O172  1  0.42698700  0.82450555  0.41817352  1
  O2-  O173  1  0.42931965  0.81819933  0.76567798  1
  O2-  O174  1  0.93121094  0.32767867  0.09105608  1
  O2-  O175  1  0.92757855  0.32400591  0.42913546  1
  O2-  O176  1  0.92949541  0.32233644  0.76827222  1
  O2-  O177  1  0.93049073  0.82026141  0.09646957  1
  O2-  O178  1  0.92910828  0.81580142  0.43418875  1
  O2-  O179  1  0.92793247  0.81721261  0.75649442  1
  O2-  O180  1  0.32349303  0.07216175  0.23354478  1
  O2-  O181  1  0.32097586  0.06681437  0.56752289  1
  O2-  O182  1  0.32070689  0.06814141  0.89893131  1
  O2-  O183  1  0.32591522  0.56441806  0.23275588  1
  O2-  O184  1  0.31953768  0.57109594  0.57039148  1
  O2-  O185  1  0.32086863  0.57336759  0.91109658  1
  O2-  O186  1  0.81853745  0.07248632  0.23442058  1
  O2-  O187  1  0.82110390  0.07060317  0.56861908  1
  O2-  O188  1  0.82195595  0.07247331  0.90179102  1
  O2-  O189  1  0.81733570  0.57118944  0.24125818  1
  O2-  O190  1  0.81997550  0.57518972  0.57780710  1
  O2-  O191  1  0.81973694  0.57071915  0.91074721  1
  O2-  O192  1  0.04666733  0.08209735  0.26169359  1
  O2-  O193  1  0.04694562  0.07836401  0.59910087  1
  O2-  O194  1  0.04429986  0.08841391  0.93664662  1
  O2-  O195  1  0.04255750  0.58764099  0.26892865  1
  O2-  O196  1  0.03774910  0.59047690  0.60521669  1
  O2-  O197  1  0.03964707  0.58451837  0.93269691  1
  O2-  O198  1  0.54832178  0.08339083  0.27169259  1
  O2-  O199  1  0.53961274  0.08214448  0.59795637  1
  O2-  O200  1  0.54917362  0.07503180  0.93495687  1
  O2-  O201  1  0.53890471  0.58255046  0.26324925  1
  O2-  O202  1  0.55051985  0.58168153  0.60622353  1
  O2-  O203  1  0.54528770  0.58615268  0.93534935  1
  O2-  O204  1  0.17130252  0.21411062  0.26397290  1
  O2-  O205  1  0.17197175  0.20788492  0.60077378  1
  O2-  O206  1  0.16062187  0.21096207  0.93793167  1
  O2-  O207  1  0.17082247  0.69582226  0.27415275  1
  O2-  O208  1  0.16204629  0.70429401  0.60591145  1
  O2-  O209  1  0.16690194  0.69707539  0.93780027  1
  O2-  O210  1  0.66007146  0.21059355  0.27031836  1
  O2-  O211  1  0.66286972  0.21477952  0.59727186  1
  O2-  O212  1  0.66724052  0.21408094  0.93338514  1
  O2-  O213  1  0.66490549  0.70822577  0.26244107  1
  O2-  O214  1  0.66721670  0.70179796  0.60522393  1
  O2-  O215  1  0.66405992  0.70260369  0.93601589  1
  O2-  O216  1  0.08767244  0.46222074  0.06513662  1
  O2-  O217  1  0.07761413  0.45867822  0.40075995  1
  O2-  O218  1  0.08138588  0.46501251  0.73938467  1
  O2-  O219  1  0.08407081  0.95395439  0.05635006  1
  O2-  O220  1  0.07974619  0.95608269  0.39870289  1
  O2-  O221  1  0.08091160  0.94859457  0.72784465  1
  O2-  O222  1  0.58686744  0.46047661  0.06272318  1
  O2-  O223  1  0.59114700  0.46337673  0.39794362  1
  O2-  O224  1  0.58957813  0.45959825  0.73542381  1
  O2-  O225  1  0.58381993  0.94409339  0.06224910  1
  O2-  O226  1  0.58061860  0.94734043  0.39602164  1
  O2-  O227  1  0.57907431  0.95391293  0.73208234  1
  O2-  O228  1  0.20197366  0.33767528  0.06470780  1
  O2-  O229  1  0.20874915  0.33499515  0.40380148  1
  O2-  O230  1  0.20388125  0.33137330  0.73873828  1
  O2-  O231  1  0.20086091  0.83156086  0.06001100  1
  O2-  O232  1  0.20149934  0.82990548  0.39770188  1
  O2-  O233  1  0.20375493  0.83446189  0.73136252  1
  O2-  O234  1  0.70550288  0.33984182  0.06475954  1
  O2-  O235  1  0.70166349  0.33731368  0.39591666  1
  O2-  O236  1  0.70520335  0.33777219  0.73309573  1
  O2-  O237  1  0.70791371  0.83043486  0.06170906  1
  O2-  O238  1  0.71206288  0.82776455  0.39871818  1
  O2-  O239  1  0.70687475  0.82938768  0.73663011  1
  O2-  O240  1  0.46696903  0.40835333  0.27117913  1
  O2-  O241  1  0.46065754  0.41668061  0.60517096  1
  O2-  O242  1  0.46055946  0.41684396  0.93045682  1
  O2-  O243  1  0.45597820  0.91557136  0.26465529  1
  O2-  O244  1  0.45974297  0.91386717  0.59508399  1
  O2-  O245  1  0.45456678  0.90964617  0.93864122  1
  O2-  O246  1  0.95505534  0.42230457  0.26330399  1
  O2-  O247  1  0.95453593  0.42349726  0.60443791  1
  O2-  O248  1  0.95801726  0.41494181  0.93851620  1
  O2-  O249  1  0.95829378  0.91802915  0.26562514  1
  O2-  O250  1  0.95107398  0.91274042  0.60492107  1
  O2-  O251  1  0.96080928  0.91712707  0.92666642  1
  O2-  O252  1  0.33768666  0.30056313  0.27727454  1
  O2-  O253  1  0.33190032  0.30537737  0.60910060  1
  O2-  O254  1  0.32508283  0.30026540  0.93504296  1
  O2-  O255  1  0.33305722  0.79907097  0.26598823  1
  O2-  O256  1  0.33140346  0.78924265  0.59844206  1
  O2-  O257  1  0.33634448  0.78748003  0.93808948  1
  O2-  O258  1  0.82603597  0.29954368  0.26478978  1
  O2-  O259  1  0.82772407  0.30229710  0.60308933  1
  O2-  O260  1  0.83486307  0.29999299  0.94259091  1
  O2-  O261  1  0.83833458  0.78265709  0.26420914  1
  O2-  O262  1  0.83690589  0.78542473  0.60622079  1
  O2-  O263  1  0.83596157  0.78548594  0.92809672  1
  O2-  O264  1  0.41819580  0.03914516  0.06535064  1
  O2-  O265  1  0.42124768  0.04257199  0.39853600  1
  O2-  O266  1  0.41472560  0.03335796  0.73344748  1
  O2-  O267  1  0.41629169  0.54536147  0.05980320  1
  O2-  O268  1  0.42050303  0.53682991  0.40114817  1
  O2-  O269  1  0.42209320  0.54867179  0.73557813  1
  O2-  O270  1  0.91785322  0.03856635  0.06594746  1
  O2-  O271  1  0.91990285  0.04679784  0.39729186  1
  O2-  O272  1  0.91952061  0.04231851  0.73357435  1
  O2-  O273  1  0.91266047  0.54357767  0.06270791  1
  O2-  O274  1  0.91287308  0.54866570  0.39413667  1
  O2-  O275  1  0.91189254  0.54742953  0.73307505  1
  O2-  O276  1  0.29047509  0.16739056  0.06467797  1
  O2-  O277  1  0.29783381  0.17098826  0.40065507  1
  O2-  O278  1  0.29437620  0.16737226  0.73476355  1
  O2-  O279  1  0.29286785  0.66106161  0.06525368  1
  O2-  O280  1  0.30684842  0.67274811  0.39465415  1
  O2-  O281  1  0.28812516  0.66915782  0.73690224  1
  O2-  O282  1  0.79096524  0.16876584  0.06880430  1
  O2-  O283  1  0.79121932  0.17271222  0.39981695  1
  O2-  O284  1  0.79084955  0.17174621  0.73267646  1
  O2-  O285  1  0.79266874  0.66359471  0.06208203  1
  O2-  O286  1  0.78743057  0.65974834  0.39528418  1
  O2-  O287  1  0.78921682  0.66039358  0.73452673  1
