# generated using pymatgen
data_Ca2Al2SiO7
_symmetry_space_group_name_H-M   'P 1'
_cell_length_a   15.45876613
_cell_length_b   15.45666059
_cell_length_c   15.28410824
_cell_angle_alpha   90.00081624
_cell_angle_beta   89.99466807
_cell_angle_gamma   90.00463433
_symmetry_Int_Tables_number   1
_chemical_formula_structural   Ca2Al2SiO7
_chemical_formula_sum   'Ca48 Al48 Si24 O168'
_cell_volume   3651.99856864
_cell_formula_units_Z   24
loop_
 _symmetry_equiv_pos_site_id
 _symmetry_equiv_pos_as_xyz
  1  'x, y, z'
loop_
 _atom_type_symbol
 _atom_type_oxidation_number
  Ca2+  2.0
  Al0+  0.0
  Si0+  0.0
  O2-  -2.0
loop_
 _atom_site_type_symbol
 _atom_site_label
 _atom_site_symmetry_multiplicity
 _atom_site_fract_x
 _atom_site_fract_y
 _atom_site_fract_z
 _atom_site_occupancy
  Ca2+  Ca0  1  0.17042482  0.07858410  0.17331679  1
  Ca2+  Ca1  1  0.16261268  0.07498948  0.50632893  1
  Ca2+  Ca2  1  0.17429315  0.08385438  0.83263780  1
  Ca2+  Ca3  1  0.16258998  0.57585293  0.17616217  1
  Ca2+  Ca4  1  0.17324133  0.58072319  0.49702035  1
  Ca2+  Ca5  1  0.17231942  0.57828227  0.83882724  1
  Ca2+  Ca6  1  0.67622281  0.08393064  0.17199994  1
  Ca2+  Ca7  1  0.67104553  0.09271728  0.49552614  1
  Ca2+  Ca8  1  0.67380796  0.07533269  0.84461339  1
  Ca2+  Ca9  1  0.67582663  0.57592446  0.17769877  1
  Ca2+  Ca10  1  0.67056786  0.57945182  0.49676439  1
  Ca2+  Ca11  1  0.66734505  0.58280419  0.83726160  1
  Ca2+  Ca12  1  0.08442329  0.33477557  0.16661711  1
  Ca2+  Ca13  1  0.08352721  0.32098950  0.48963461  1
  Ca2+  Ca14  1  0.08719599  0.32650599  0.82967499  1
  Ca2+  Ca15  1  0.08405284  0.82146477  0.16388702  1
  Ca2+  Ca16  1  0.09249050  0.83006303  0.49025084  1
  Ca2+  Ca17  1  0.08356292  0.83411882  0.83275682  1
  Ca2+  Ca18  1  0.58104638  0.33019019  0.16564156  1
  Ca2+  Ca19  1  0.57786984  0.33064341  0.49220637  1
  Ca2+  Ca20  1  0.56824968  0.33130292  0.82832026  1
  Ca2+  Ca21  1  0.58023229  0.83588273  0.16521285  1
  Ca2+  Ca22  1  0.56590556  0.83498029  0.49404857  1
  Ca2+  Ca23  1  0.57932647  0.83541869  0.82900051  1
  Ca2+  Ca24  1  0.32256740  0.42070453  0.17226900  1
  Ca2+  Ca25  1  0.33257620  0.42435960  0.50411829  1
  Ca2+  Ca26  1  0.33128843  0.41568136  0.83965580  1
  Ca2+  Ca27  1  0.33003203  0.92042169  0.17474808  1
  Ca2+  Ca28  1  0.32450982  0.91806434  0.50643132  1
  Ca2+  Ca29  1  0.33335334  0.92679054  0.83326578  1
  Ca2+  Ca30  1  0.83101459  0.41944326  0.18273521  1
  Ca2+  Ca31  1  0.83321500  0.41322298  0.49184794  1
  Ca2+  Ca32  1  0.83079930  0.41756149  0.83762603  1
  Ca2+  Ca33  1  0.83463506  0.92251353  0.16792611  1
  Ca2+  Ca34  1  0.83686529  0.92616272  0.50084676  1
  Ca2+  Ca35  1  0.82887064  0.92033637  0.84699905  1
  Ca2+  Ca36  1  0.42023426  0.16973623  0.16048599  1
  Ca2+  Ca37  1  0.41728656  0.17030771  0.49536083  1
  Ca2+  Ca38  1  0.40374172  0.17502462  0.82941775  1
  Ca2+  Ca39  1  0.40853851  0.67244532  0.16899337  1
  Ca2+  Ca40  1  0.40088592  0.67606154  0.49514968  1
  Ca2+  Ca41  1  0.41545939  0.67274813  0.82366411  1
  Ca2+  Ca42  1  0.91847082  0.16453646  0.16975564  1
  Ca2+  Ca43  1  0.92721969  0.16836666  0.48837808  1
  Ca2+  Ca44  1  0.92285610  0.16304112  0.82925693  1
  Ca2+  Ca45  1  0.92720170  0.66526370  0.16113339  1
  Ca2+  Ca46  1  0.92420282  0.66889882  0.48883144  1
  Ca2+  Ca47  1  0.92389583  0.67243052  0.83508383  1
  Al0+  Al48  1  0.00072702  -0.00022084  -0.00025910  1
  Al0+  Al49  1  -0.00035441  0.00001515  0.33670944  1
  Al0+  Al50  1  -0.00083980  -0.00085157  0.66845741  1
  Al0+  Al51  1  0.00109646  0.49874870  -0.00442880  1
  Al0+  Al52  1  0.00044131  0.49941734  0.33634786  1
  Al0+  Al53  1  -0.00180156  0.50119928  0.66774666  1
  Al0+  Al54  1  0.50173320  0.00012324  0.00645955  1
  Al0+  Al55  1  0.50024806  0.00088032  0.32418292  1
  Al0+  Al56  1  0.50131736  -0.00006172  0.66599889  1
  Al0+  Al57  1  0.49924477  0.50044257  -0.00384650  1
  Al0+  Al58  1  0.50087712  0.50268830  0.34018760  1
  Al0+  Al59  1  0.50171829  0.49960529  0.66666376  1
  Al0+  Al60  1  0.24991687  0.25108358  0.00497948  1
  Al0+  Al61  1  0.25099418  0.24973913  0.33166160  1
  Al0+  Al62  1  0.24860146  0.24978733  0.65848250  1
  Al0+  Al63  1  0.25178062  0.74967540  -0.00700157  1
  Al0+  Al64  1  0.24815574  0.75182430  0.32898380  1
  Al0+  Al65  1  0.24893782  0.74853588  0.67283782  1
  Al0+  Al66  1  0.74982543  0.24891857  0.00057943  1
  Al0+  Al67  1  0.74943600  0.24925444  0.33431421  1
  Al0+  Al68  1  0.74933745  0.25208759  0.66996240  1
  Al0+  Al69  1  0.74981127  0.74953923  0.00010973  1
  Al0+  Al70  1  0.74679061  0.75132465  0.33856325  1
  Al0+  Al71  1  0.75152304  0.74910256  0.66630425  1
  Al0+  Al72  1  0.67911636  0.92649310  0.01662039  1
  Al0+  Al73  1  0.18032679  0.93136763  0.34398264  1
  Al0+  Al74  1  0.93113962  0.31909100  0.31876203  1
  Al0+  Al75  1  0.31963253  0.57196913  0.34643580  1
  Al0+  Al76  1  0.42927623  0.82021655  0.65400893  1
  Al0+  Al77  1  0.32241237  0.07235358  0.67918248  1
  Al0+  Al78  1  0.06923011  0.68026586  0.32158485  1
  Al0+  Al79  1  0.82283045  0.57327275  0.34795239  1
  Al0+  Al80  1  0.17920439  0.43030157  0.01275559  1
  Al0+  Al81  1  0.17824643  0.42606280  0.34999625  1
  Al0+  Al82  1  0.42836673  0.81938828  0.31857601  1
  Al0+  Al83  1  0.82365005  0.07222406  0.01631860  1
  Al0+  Al84  1  0.81963196  0.06901143  0.34842980  1
  Al0+  Al85  1  0.06866373  0.17900556  0.65352283  1
  Al0+  Al86  1  0.92962864  0.82076381  0.98587718  1
  Al0+  Al87  1  0.67844358  0.42756521  0.34863212  1
  Al0+  Al88  1  0.17738444  0.92774253  0.68385101  1
  Al0+  Al89  1  0.57004550  0.18060596  0.31840499  1
  Al0+  Al90  1  0.42862040  0.32101159  0.65164482  1
  Al0+  Al91  1  0.07363656  0.17601217  0.31594311  1
  Al0+  Al92  1  0.31988129  0.07137564  0.01457286  1
  Al0+  Al93  1  0.32135436  0.56934732  0.68178152  1
  Al0+  Al94  1  0.07294227  0.67631911  0.98197975  1
  Al0+  Al95  1  0.42929847  0.31943235  0.98739773  1
  Si0+  Si96  1  0.17940731  0.92624540  0.01681885  1
  Si0+  Si97  1  0.92686598  0.32105967  0.98458743  1
  Si0+  Si98  1  0.57359070  0.67784530  0.31663325  1
  Si0+  Si99  1  0.42990127  0.82319500  0.98359116  1
  Si0+  Si100  1  0.32373093  0.57331955  0.01540564  1
  Si0+  Si101  1  0.57282605  0.17766388  0.98223107  1
  Si0+  Si102  1  0.57449334  0.67767053  0.64885672  1
  Si0+  Si103  1  0.67445074  0.92849387  0.35251957  1
  Si0+  Si104  1  0.67972287  0.42930395  0.68469516  1
  Si0+  Si105  1  0.57454852  0.17837886  0.65158077  1
  Si0+  Si106  1  0.42812771  0.32598533  0.31640058  1
  Si0+  Si107  1  0.57067584  0.67880347  0.98536352  1
  Si0+  Si108  1  0.92561907  0.32374447  0.65041441  1
  Si0+  Si109  1  0.81998206  0.07139425  0.68163590  1
  Si0+  Si110  1  0.82043906  0.56862882  0.01270291  1
  Si0+  Si111  1  0.92785395  0.82016843  0.65118255  1
  Si0+  Si112  1  0.32475096  0.07199344  0.34828803  1
  Si0+  Si113  1  0.82147825  0.57264534  0.68483113  1
  Si0+  Si114  1  0.68023594  0.92763786  0.68026304  1
  Si0+  Si115  1  0.07135263  0.17937310  0.98552887  1
  Si0+  Si116  1  0.06986145  0.67887769  0.65104925  1
  Si0+  Si117  1  0.92413410  0.82307751  0.31900516  1
  Si0+  Si118  1  0.67737301  0.42965511  0.01286258  1
  Si0+  Si119  1  0.17722143  0.42812563  0.68250834  1
  O2-  O120  1  0.24865505  -0.00629495  0.06131675  1
  O2-  O121  1  0.25152785  0.00860667  0.39210171  1
  O2-  O122  1  0.25063527  0.00044016  0.73091720  1
  O2-  O123  1  0.25096173  0.50871099  0.05756724  1
  O2-  O124  1  0.25331868  0.49588294  0.39839811  1
  O2-  O125  1  0.24835931  0.49314446  0.72889567  1
  O2-  O126  1  0.75149091  -0.00085283  0.06424824  1
  O2-  O127  1  0.74567422  -0.00594977  0.39753209  1
  O2-  O128  1  0.74922738  0.00020356  0.72329457  1
  O2-  O129  1  0.75195856  0.49595030  0.05530228  1
  O2-  O130  1  0.75093800  0.50039599  0.39779006  1
  O2-  O131  1  0.75069405  0.50093879  0.72696689  1
  O2-  O132  1  0.00442798  0.25074115  0.26544941  1
  O2-  O133  1  -0.00567753  0.25496989  0.60859608  1
  O2-  O134  1  -0.00333067  0.24811286  0.94360892  1
  O2-  O135  1  -0.01097978  0.75036339  0.27622901  1
  O2-  O136  1  0.00166112  0.75283176  0.60901558  1
  O2-  O137  1  0.00356053  0.75208477  0.93277980  1
  O2-  O138  1  0.49535616  0.25567543  0.27225720  1
  O2-  O139  1  0.50190487  0.24315731  0.60824139  1
  O2-  O140  1  0.50188151  0.24341484  0.93742375  1
  O2-  O141  1  0.50349613  0.74441528  0.27167356  1
  O2-  O142  1  0.50242659  0.74337739  0.60645316  1
  O2-  O143  1  0.50066728  0.75061759  0.94271650  1
  O2-  O144  1  0.07190720  0.17988721  0.08989898  1
  O2-  O145  1  0.06952011  0.17414629  0.42971188  1
  O2-  O146  1  0.06680072  0.18085282  0.76761053  1
  O2-  O147  1  0.07010423  0.67449385  0.09523531  1
  O2-  O148  1  0.07067088  0.68392906  0.43520967  1
  O2-  O149  1  0.06575950  0.67658066  0.75604800  1
  O2-  O150  1  0.57463045  0.18139253  0.08738617  1
  O2-  O151  1  0.56747031  0.18082532  0.43223454  1
  O2-  O152  1  0.58046829  0.18168640  0.75699821  1
  O2-  O153  1  0.57093862  0.67550769  0.08983198  1
  O2-  O154  1  0.57659299  0.68052346  0.42206787  1
  O2-  O155  1  0.57758585  0.68000841  0.75517554  1
  O2-  O156  1  0.17884388  0.42881027  0.23601052  1
  O2-  O157  1  0.17532132  0.43142424  0.57769760  1
  O2-  O158  1  0.18110573  0.42839760  0.89903264  1
  O2-  O159  1  0.18299342  0.92935181  0.23073509  1
  O2-  O160  1  0.17718208  0.92732145  0.57040077  1
  O2-  O161  1  0.18050080  0.92772777  0.91115671  1
  O2-  O162  1  0.67899276  0.42999662  0.23421969  1
  O2-  O163  1  0.68082658  0.42745183  0.58048297  1
  O2-  O164  1  0.67814132  0.43252401  0.90720275  1
  O2-  O165  1  0.67521340  0.92844971  0.24723060  1
  O2-  O166  1  0.68242967  0.92557669  0.57566472  1
  O2-  O167  1  0.67919953  0.92789960  0.90179215  1
  O2-  O168  1  0.43350352  0.32114726  0.09988915  1
  O2-  O169  1  0.42987253  0.32480502  0.42226342  1
  O2-  O170  1  0.43022343  0.32154051  0.76527751  1
  O2-  O171  1  0.42844131  0.82100830  0.08845710  1
  O2-  O172  1  0.42824204  0.81947531  0.43185725  1
  O2-  O173  1  0.43471765  0.82022193  0.76753982  1
  O2-  O174  1  0.92482038  0.32528162  0.08856404  1
  O2-  O175  1  0.93059955  0.31523455  0.43278092  1
  O2-  O176  1  0.92355632  0.32352931  0.75672120  1
  O2-  O177  1  0.92872627  0.81697901  0.09905304  1
  O2-  O178  1  0.92568429  0.82288972  0.42532718  1
  O2-  O179  1  0.92389145  0.81788087  0.75604063  1
  O2-  O180  1  0.32536665  0.06862902  0.24234620  1
  O2-  O181  1  0.32388245  0.07025697  0.56601378  1
  O2-  O182  1  0.31738461  0.07213415  0.90131357  1
  O2-  O183  1  0.31798658  0.57163717  0.23241797  1
  O2-  O184  1  0.31796720  0.57080053  0.56935695  1
  O2-  O185  1  0.32643136  0.57101187  0.90955584  1
  O2-  O186  1  0.81913311  0.06738443  0.23588167  1
  O2-  O187  1  0.81928635  0.07178496  0.57686429  1
  O2-  O188  1  0.82063291  0.07281829  0.90149529  1
  O2-  O189  1  0.82034864  0.57294738  0.23368790  1
  O2-  O190  1  0.82179135  0.57542603  0.58067721  1
  O2-  O191  1  0.81739947  0.56728269  0.90683287  1
  O2-  O192  1  0.04016778  0.07825209  0.26425795  1
  O2-  O193  1  0.03577850  0.08211209  0.60119100  1
  O2-  O194  1  0.04641706  0.08719270  0.93714970  1
  O2-  O195  1  0.04152320  0.58272246  0.26895378  1
  O2-  O196  1  0.03787713  0.58790793  0.60420139  1
  O2-  O197  1  0.03927665  0.58004870  0.92602647  1
  O2-  O198  1  0.54149772  0.08537401  0.26093088  1
  O2-  O199  1  0.55576052  0.08303025  0.60700259  1
  O2-  O200  1  0.55050281  0.08169961  0.93975354  1
  O2-  O201  1  0.55121609  0.58271853  0.27230018  1
  O2-  O202  1  0.55417390  0.58224919  0.60604980  1
  O2-  O203  1  0.54261763  0.58837154  0.93373404  1
  O2-  O204  1  0.17392126  0.20045523  0.26481160  1
  O2-  O205  1  0.16377844  0.20676398  0.59670723  1
  O2-  O206  1  0.16123390  0.21282367  0.93778886  1
  O2-  O207  1  0.16163119  0.71581951  0.26335024  1
  O2-  O208  1  0.16309752  0.70416628  0.60704006  1
  O2-  O209  1  0.17232309  0.70211568  0.92881555  1
  O2-  O210  1  0.66603995  0.21192870  0.26451793  1
  O2-  O211  1  0.66634910  0.21030640  0.60395441  1
  O2-  O212  1  0.66579289  0.20539465  0.93438169  1
  O2-  O213  1  0.66641974  0.70571640  0.26895563  1
  O2-  O214  1  0.66749509  0.70584590  0.60262372  1
  O2-  O215  1  0.66234774  0.70521901  0.93587952  1
  O2-  O216  1  0.08060829  0.45788581  0.06426160  1
  O2-  O217  1  0.08123735  0.45526968  0.40376712  1
  O2-  O218  1  0.08339190  0.45567207  0.72930136  1
  O2-  O219  1  0.08549351  0.95142757  0.06085207  1
  O2-  O220  1  0.08328496  0.95608939  0.40002783  1
  O2-  O221  1  0.07839817  0.95699516  0.73690699  1
  O2-  O222  1  0.58727109  0.46172077  0.06000544  1
  O2-  O223  1  0.58219258  0.45746338  0.40511133  1
  O2-  O224  1  0.58893105  0.45821932  0.73365692  1
  O2-  O225  1  0.58160010  0.95359696  0.07064955  1
  O2-  O226  1  0.58174009  0.96007378  0.39699620  1
  O2-  O227  1  0.58864817  0.95386410  0.72867247  1
  O2-  O228  1  0.21169009  0.33641975  0.06923715  1
  O2-  O229  1  0.20519482  0.32620629  0.40104122  1
  O2-  O230  1  0.20095941  0.33293470  0.72548376  1
  O2-  O231  1  0.20551608  0.83101138  0.05928640  1
  O2-  O232  1  0.21483495  0.83654060  0.39843331  1
  O2-  O233  1  0.20465672  0.83001411  0.73807455  1
  O2-  O234  1  0.70055448  0.33604005  0.05712465  1
  O2-  O235  1  0.70806674  0.33089462  0.40368954  1
  O2-  O236  1  0.70856254  0.33866409  0.73535136  1
  O2-  O237  1  0.70578794  0.82730959  0.06892085  1
  O2-  O238  1  0.69411939  0.83400879  0.39906922  1
  O2-  O239  1  0.70951089  0.83606087  0.72864637  1
  O2-  O240  1  0.45582631  0.41999803  0.27252962  1
  O2-  O241  1  0.46456000  0.41669055  0.59902721  1
  O2-  O242  1  0.46209663  0.41548817  0.93121784  1
  O2-  O243  1  0.46076105  0.91412375  0.26223077  1
  O2-  O244  1  0.46240049  0.91603367  0.59948505  1
  O2-  O245  1  0.46042560  0.91500536  0.93761870  1
  O2-  O246  1  0.95449469  0.41975310  0.26840510  1
  O2-  O247  1  0.94895797  0.41866741  0.60644996  1
  O2-  O248  1  0.95549957  0.41104373  0.93302647  1
  O2-  O249  1  0.95305799  0.91497978  0.27319170  1
  O2-  O250  1  0.95104485  0.91397771  0.60623530  1
  O2-  O251  1  0.95496224  0.92048037  0.93214697  1
  O2-  O252  1  0.33439813  0.30165888  0.27076134  1
  O2-  O253  1  0.33244662  0.29491743  0.59593952  1
  O2-  O254  1  0.33203740  0.28862408  0.93396105  1
  O2-  O255  1  0.33435084  0.78700183  0.26101885  1
  O2-  O256  1  0.33098564  0.78891651  0.60390338  1
  O2-  O257  1  0.33897451  0.79709324  0.93372754  1
  O2-  O258  1  0.83225939  0.29023897  0.26724392  1
  O2-  O259  1  0.83143477  0.29813236  0.60598799  1
  O2-  O260  1  0.83456538  0.29453871  0.93510947  1
  O2-  O261  1  0.82788485  0.80302958  0.27631993  1
  O2-  O262  1  0.83750284  0.78944652  0.60215527  1
  O2-  O263  1  0.83144526  0.78886270  0.93151653  1
  O2-  O264  1  0.41772568  0.04448891  0.06710836  1
  O2-  O265  1  0.41736529  0.04190737  0.39312438  1
  O2-  O266  1  0.42208337  0.04569116  0.73291271  1
  O2-  O267  1  0.41648018  0.54483890  0.06156479  1
  O2-  O268  1  0.42000027  0.55368466  0.39965110  1
  O2-  O269  1  0.42096159  0.54337158  0.73350380  1
  O2-  O270  1  0.92258760  0.04510507  0.06765834  1
  O2-  O271  1  0.91483784  0.03749334  0.40490722  1
  O2-  O272  1  0.91058980  0.04247670  0.73010500  1
  O2-  O273  1  0.91324827  0.54232702  0.05672538  1
  O2-  O274  1  0.91919410  0.54477625  0.40364159  1
  O2-  O275  1  0.91248186  0.54369511  0.73398739  1
  O2-  O276  1  0.28809345  0.16611547  0.07011439  1
  O2-  O277  1  0.30660060  0.16823092  0.39055386  1
  O2-  O278  1  0.29023445  0.17136830  0.73032637  1
  O2-  O279  1  0.30261124  0.66954671  0.05736214  1
  O2-  O280  1  0.28377821  0.66846734  0.39842753  1
  O2-  O281  1  0.28932540  0.66407251  0.73850377  1
  O2-  O282  1  0.79380028  0.17099153  0.06790783  1
  O2-  O283  1  0.78653578  0.16419162  0.40317312  1
  O2-  O284  1  0.79356753  0.16389528  0.72937961  1
  O2-  O285  1  0.79114945  0.65932174  0.05933898  1
  O2-  O286  1  0.79248878  0.67090867  0.40340683  1
  O2-  O287  1  0.79144602  0.66365312  0.73388051  1
