# generated using pymatgen
data_Ca2Al2SiO7
_symmetry_space_group_name_H-M   'P 1'
_cell_length_a   15.46464712
_cell_length_b   15.46376217
_cell_length_c   15.28819078
_cell_angle_alpha   89.98674180
_cell_angle_beta   90.00661668
_cell_angle_gamma   89.97560801
_symmetry_Int_Tables_number   1
_chemical_formula_structural   Ca2Al2SiO7
_chemical_formula_sum   'Ca48 Al48 Si24 O168'
_cell_volume   3656.04233358
_cell_formula_units_Z   24
loop_
 _symmetry_equiv_pos_site_id
 _symmetry_equiv_pos_as_xyz
  1  'x, y, z'
loop_
 _atom_type_symbol
 _atom_type_oxidation_number
  Ca2+  2.0
  Al0+  0.0
  Si0+  0.0
  O2-  -2.0
loop_
 _atom_site_type_symbol
 _atom_site_label
 _atom_site_symmetry_multiplicity
 _atom_site_fract_x
 _atom_site_fract_y
 _atom_site_fract_z
 _atom_site_occupancy
  Ca2+  Ca0  1  0.16713588  0.08470387  0.17940110  1
  Ca2+  Ca1  1  0.16179752  0.08632464  0.49899750  1
  Ca2+  Ca2  1  0.16153980  0.08727239  0.83704901  1
  Ca2+  Ca3  1  0.16454164  0.58004778  0.17210426  1
  Ca2+  Ca4  1  0.16330535  0.57737697  0.50423438  1
  Ca2+  Ca5  1  0.17442591  0.58639995  0.83915221  1
  Ca2+  Ca6  1  0.67005662  0.07813199  0.16833742  1
  Ca2+  Ca7  1  0.66552545  0.08115467  0.50268911  1
  Ca2+  Ca8  1  0.66961056  0.08537618  0.84605192  1
  Ca2+  Ca9  1  0.67381213  0.58379010  0.17361823  1
  Ca2+  Ca10  1  0.67742382  0.58103104  0.50048305  1
  Ca2+  Ca11  1  0.66782760  0.57890668  0.84189234  1
  Ca2+  Ca12  1  0.07824699  0.32726399  0.16679495  1
  Ca2+  Ca13  1  0.07892620  0.33023844  0.48984219  1
  Ca2+  Ca14  1  0.07255563  0.32312434  0.82990435  1
  Ca2+  Ca15  1  0.08727997  0.82500875  0.16551657  1
  Ca2+  Ca16  1  0.08250041  0.82212672  0.48940053  1
  Ca2+  Ca17  1  0.08767892  0.82226269  0.82981663  1
  Ca2+  Ca18  1  0.57528931  0.32944667  0.16271240  1
  Ca2+  Ca19  1  0.57020059  0.33131212  0.49953305  1
  Ca2+  Ca20  1  0.58123154  0.32072082  0.82728604  1
  Ca2+  Ca21  1  0.58758279  0.83240705  0.16152992  1
  Ca2+  Ca22  1  0.58335870  0.83399008  0.49233874  1
  Ca2+  Ca23  1  0.58734114  0.82925413  0.83651038  1
  Ca2+  Ca24  1  0.32692418  0.42031614  0.17513398  1
  Ca2+  Ca25  1  0.32774967  0.41419624  0.50388228  1
  Ca2+  Ca26  1  0.33811772  0.42553970  0.83610973  1
  Ca2+  Ca27  1  0.32488345  0.92624019  0.17617781  1
  Ca2+  Ca28  1  0.32657748  0.92470667  0.49577614  1
  Ca2+  Ca29  1  0.33023301  0.91984682  0.83742257  1
  Ca2+  Ca30  1  0.84245319  0.42020766  0.17280351  1
  Ca2+  Ca31  1  0.84462112  0.41831555  0.49990949  1
  Ca2+  Ca32  1  0.83747831  0.41039781  0.83700168  1
  Ca2+  Ca33  1  0.82581720  0.91659377  0.17253450  1
  Ca2+  Ca34  1  0.83262978  0.91314041  0.49848029  1
  Ca2+  Ca35  1  0.82601645  0.92823215  0.84532473  1
  Ca2+  Ca36  1  0.41559711  0.16996332  0.16589249  1
  Ca2+  Ca37  1  0.41543132  0.17439368  0.49300672  1
  Ca2+  Ca38  1  0.42987702  0.16951480  0.82579124  1
  Ca2+  Ca39  1  0.42180147  0.66784398  0.15723168  1
  Ca2+  Ca40  1  0.41574685  0.66406431  0.49868991  1
  Ca2+  Ca41  1  0.41768259  0.66133841  0.83169482  1
  Ca2+  Ca42  1  0.92364684  0.17244802  0.15773565  1
  Ca2+  Ca43  1  0.92726178  0.17768419  0.49412546  1
  Ca2+  Ca44  1  0.91805138  0.17264363  0.82918662  1
  Ca2+  Ca45  1  0.92558246  0.66803392  0.16958834  1
  Ca2+  Ca46  1  0.92698530  0.66790906  0.48824166  1
  Ca2+  Ca47  1  0.93123902  0.66636473  0.83039712  1
  Al0+  Al48  1  -0.00076210  -0.00079070  0.00134339  1
  Al0+  Al49  1  -0.00267356  -0.00182659  0.33257559  1
  Al0+  Al50  1  -0.00285435  -0.00117407  0.66649122  1
  Al0+  Al51  1  0.00099965  0.50053578  -0.00816421  1
  Al0+  Al52  1  0.00184922  0.50122350  0.33462962  1
  Al0+  Al53  1  0.00168057  0.50089687  0.66457896  1
  Al0+  Al54  1  0.49744655  -0.00056966  0.00011890  1
  Al0+  Al55  1  0.50004150  -0.00090880  0.34108145  1
  Al0+  Al56  1  0.49920195  -0.00352692  0.66512074  1
  Al0+  Al57  1  0.50065429  0.50307107  0.00123722  1
  Al0+  Al58  1  0.50198343  0.49889019  0.33017396  1
  Al0+  Al59  1  0.50214625  0.49979143  0.66746928  1
  Al0+  Al60  1  0.24783086  0.25309756  -0.00407193  1
  Al0+  Al61  1  0.25165229  0.25373395  0.33345869  1
  Al0+  Al62  1  0.25032103  0.24885957  0.66589511  1
  Al0+  Al63  1  0.25211109  0.75103525  0.00050271  1
  Al0+  Al64  1  0.25334363  0.75217061  0.33240878  1
  Al0+  Al65  1  0.25142924  0.74973146  0.66647617  1
  Al0+  Al66  1  0.74760061  0.25073968  -0.00031158  1
  Al0+  Al67  1  0.74705984  0.24993251  0.33233666  1
  Al0+  Al68  1  0.74997153  0.24940174  0.65807358  1
  Al0+  Al69  1  0.74935232  0.74882622  -0.00237686  1
  Al0+  Al70  1  0.75136790  0.74847504  0.33974527  1
  Al0+  Al71  1  0.74973110  0.74875505  0.67065683  1
  Al0+  Al72  1  0.07424052  0.67995477  0.31774875  1
  Al0+  Al73  1  0.31912117  0.07278347  0.34839413  1
  Al0+  Al74  1  0.32126781  0.57131609  0.01522762  1
  Al0+  Al75  1  0.07114139  0.17562649  0.65104950  1
  Al0+  Al76  1  0.92973253  0.32135706  0.64980481  1
  Al0+  Al77  1  0.42948804  0.32174316  0.31814981  1
  Al0+  Al78  1  0.07226472  0.68131187  0.98552856  1
  Al0+  Al79  1  0.07294300  0.68133624  0.65266128  1
  Al0+  Al80  1  0.07215104  0.17593363  0.98539088  1
  Al0+  Al81  1  0.57125281  0.17561260  0.65025357  1
  Al0+  Al82  1  0.92633390  0.82079694  0.31858995  1
  Al0+  Al83  1  0.42996706  0.32216617  0.65298230  1
  Al0+  Al84  1  0.57203110  0.67926874  0.98690893  1
  Al0+  Al85  1  0.32062041  0.56987170  0.68048431  1
  Al0+  Al86  1  0.56706273  0.17896018  0.98962891  1
  Al0+  Al87  1  0.92798981  0.32077650  0.98528977  1
  Al0+  Al88  1  0.82031712  0.56769050  0.34630358  1
  Al0+  Al89  1  0.18087392  0.43245092  0.34613396  1
  Al0+  Al90  1  0.82132251  0.07362880  0.01607989  1
  Al0+  Al91  1  0.92736422  0.32185078  0.31768271  1
  Al0+  Al92  1  0.68105491  0.92958747  0.34851688  1
  Al0+  Al93  1  0.17557819  0.92802565  0.34795898  1
  Al0+  Al94  1  0.07092625  0.17922536  0.31919092  1
  Al0+  Al95  1  0.67782332  0.92849465  0.01520878  1
  Si0+  Si96  1  0.92632164  0.81989228  0.65183813  1
  Si0+  Si97  1  0.82249239  0.56992940  0.01335998  1
  Si0+  Si98  1  0.82187691  0.07486134  0.35197083  1
  Si0+  Si99  1  0.42728570  0.32454744  0.98379953  1
  Si0+  Si100  1  0.32247510  0.07091591  0.68299668  1
  Si0+  Si101  1  0.57273970  0.67899090  0.65133136  1
  Si0+  Si102  1  0.68082997  0.42959362  0.68165289  1
  Si0+  Si103  1  0.42919775  0.81986984  0.65034005  1
  Si0+  Si104  1  0.57114698  0.67968660  0.32040966  1
  Si0+  Si105  1  0.32612008  0.57327707  0.34862458  1
  Si0+  Si106  1  0.67658972  0.92652238  0.68410646  1
  Si0+  Si107  1  0.31938372  0.07291875  0.01173184  1
  Si0+  Si108  1  0.17653309  0.42619844  0.68586366  1
  Si0+  Si109  1  0.17903853  0.92994106  0.68168870  1
  Si0+  Si110  1  0.17727890  0.42972409  0.01618384  1
  Si0+  Si111  1  0.67823826  0.42935285  0.01490174  1
  Si0+  Si112  1  0.42836443  0.82154665  0.98261103  1
  Si0+  Si113  1  0.17919201  0.92885620  0.01295604  1
  Si0+  Si114  1  0.92656624  0.82176219  0.98286034  1
  Si0+  Si115  1  0.81793007  0.06990612  0.68072102  1
  Si0+  Si116  1  0.82249610  0.57120296  0.68414647  1
  Si0+  Si117  1  0.56998264  0.17493696  0.31600269  1
  Si0+  Si118  1  0.43096332  0.82230288  0.31840826  1
  Si0+  Si119  1  0.67480071  0.42634540  0.35116812  1
  O2-  O120  1  0.24218448  0.00808505  0.05289707  1
  O2-  O121  1  0.24233122  0.00520364  0.39859173  1
  O2-  O122  1  0.24662668  0.00427302  0.72537830  1
  O2-  O123  1  0.24729862  0.49694306  0.06118885  1
  O2-  O124  1  0.25467881  0.50864245  0.39296463  1
  O2-  O125  1  0.24738489  0.49437531  0.72895652  1
  O2-  O126  1  0.75054504  -0.00074259  0.06502039  1
  O2-  O127  1  0.75423134  0.00438813  0.39697236  1
  O2-  O128  1  0.74449158  0.00090917  0.72426544  1
  O2-  O129  1  0.75243685  0.49782953  0.05581307  1
  O2-  O130  1  0.74955970  0.48916967  0.39441332  1
  O2-  O131  1  0.75435716  0.49732313  0.72617525  1
  O2-  O132  1  -0.00536475  0.24580348  0.26807512  1
  O2-  O133  1  0.00615490  0.25364840  0.60164672  1
  O2-  O134  1  -0.00378252  0.24450782  0.93667435  1
  O2-  O135  1  0.00438053  0.75511598  0.26878741  1
  O2-  O136  1  -0.00494075  0.75239659  0.60715860  1
  O2-  O137  1  -0.00175648  0.75646926  0.93782511  1
  O2-  O138  1  0.50302907  0.24549693  0.27231000  1
  O2-  O139  1  0.49595965  0.24490172  0.60214888  1
  O2-  O140  1  0.49294812  0.25289867  0.94047327  1
  O2-  O141  1  0.49941152  0.74881622  0.27708902  1
  O2-  O142  1  0.50205740  0.74989173  0.60892146  1
  O2-  O143  1  0.49773125  0.75339245  0.93834212  1
  O2-  O144  1  0.07608847  0.17795852  0.09818172  1
  O2-  O145  1  0.07043824  0.18316451  0.43266208  1
  O2-  O146  1  0.06558409  0.17376401  0.76460263  1
  O2-  O147  1  0.07221149  0.68151744  0.09787570  1
  O2-  O148  1  0.07255061  0.67942330  0.43146895  1
  O2-  O149  1  0.07341531  0.68408631  0.76624094  1
  O2-  O150  1  0.56410450  0.17963257  0.10237338  1
  O2-  O151  1  0.56800573  0.17449743  0.42162866  1
  O2-  O152  1  0.57143929  0.17661812  0.76435207  1
  O2-  O153  1  0.57144302  0.67912951  0.09997645  1
  O2-  O154  1  0.56950125  0.68010562  0.42609182  1
  O2-  O155  1  0.57409069  0.68007083  0.75627247  1
  O2-  O156  1  0.18207104  0.43319629  0.23281533  1
  O2-  O157  1  0.17610424  0.42865182  0.58040495  1
  O2-  O158  1  0.17863826  0.43055061  0.91046112  1
  O2-  O159  1  0.18316587  0.92534143  0.23406559  1
  O2-  O160  1  0.18124659  0.92806118  0.57742226  1
  O2-  O161  1  0.18381088  0.92529167  0.90733013  1
  O2-  O162  1  0.66920956  0.43132886  0.24565656  1
  O2-  O163  1  0.67818453  0.43460582  0.57699193  1
  O2-  O164  1  0.67621932  0.43135833  0.90940789  1
  O2-  O165  1  0.67921258  0.92896912  0.23589975  1
  O2-  O166  1  0.67754696  0.92244376  0.57942831  1
  O2-  O167  1  0.67896669  0.92945388  0.90094273  1
  O2-  O168  1  0.42861388  0.32442630  0.08934024  1
  O2-  O169  1  0.43233337  0.32398175  0.43102559  1
  O2-  O170  1  0.43555982  0.32278347  0.76692646  1
  O2-  O171  1  0.42724944  0.82115778  0.08795914  1
  O2-  O172  1  0.43204271  0.82163916  0.42386801  1
  O2-  O173  1  0.42878569  0.82146989  0.75545235  1
  O2-  O174  1  0.93098362  0.32424367  0.09813461  1
  O2-  O175  1  0.93091603  0.32138509  0.43102109  1
  O2-  O176  1  0.92656462  0.31797724  0.76337171  1
  O2-  O177  1  0.92503190  0.81901816  0.08780990  1
  O2-  O178  1  0.92411294  0.81412284  0.43261039  1
  O2-  O179  1  0.92642243  0.81854853  0.75768560  1
  O2-  O180  1  0.32218420  0.06893533  0.23411811  1
  O2-  O181  1  0.32664959  0.06722437  0.57883010  1
  O2-  O182  1  0.32219362  0.06871381  0.90638400  1
  O2-  O183  1  0.32904129  0.57121032  0.24305292  1
  O2-  O184  1  0.32103260  0.57118613  0.56771454  1
  O2-  O185  1  0.32155829  0.57025240  0.90179450  1
  O2-  O186  1  0.81810810  0.07636898  0.24689399  1
  O2-  O187  1  0.81757535  0.06614009  0.57603862  1
  O2-  O188  1  0.81792882  0.07255982  0.90145261  1
  O2-  O189  1  0.81713935  0.56943122  0.23282162  1
  O2-  O190  1  0.81909872  0.57494940  0.57949331  1
  O2-  O191  1  0.82049230  0.56981970  0.90780710  1
  O2-  O192  1  0.05013807  0.07722980  0.27122191  1
  O2-  O193  1  0.03795079  0.07821775  0.59875504  1
  O2-  O194  1  0.05007731  0.07474431  0.93454678  1
  O2-  O195  1  0.04055262  0.58365373  0.26518296  1
  O2-  O196  1  0.04444357  0.58397857  0.60145591  1
  O2-  O197  1  0.04054387  0.58672006  0.92872330  1
  O2-  O198  1  0.54170816  0.08143807  0.27178366  1
  O2-  O199  1  0.54625944  0.07490998  0.60082544  1
  O2-  O200  1  0.53637636  0.08283020  0.93372192  1
  O2-  O201  1  0.54656362  0.58796086  0.27186815  1
  O2-  O202  1  0.54546418  0.58774915  0.60384646  1
  O2-  O203  1  0.54060693  0.58345297  0.93086372  1
  O2-  O204  1  0.16885452  0.21106863  0.26800099  1
  O2-  O205  1  0.17412347  0.19332069  0.60513651  1
  O2-  O206  1  0.16928996  0.20768230  0.92938229  1
  O2-  O207  1  0.17436901  0.70573534  0.26631135  1
  O2-  O208  1  0.16838646  0.71408254  0.59905907  1
  O2-  O209  1  0.16884433  0.71466032  0.93207921  1
  O2-  O210  1  0.66396032  0.19914045  0.27110185  1
  O2-  O211  1  0.66689093  0.20617853  0.59498812  1
  O2-  O212  1  0.66257828  0.21070482  0.93448292  1
  O2-  O213  1  0.66225609  0.70945326  0.27461100  1
  O2-  O214  1  0.66472046  0.70772797  0.60442231  1
  O2-  O215  1  0.66751220  0.70824657  0.92880100  1
  O2-  O216  1  0.08410267  0.45931888  0.06025365  1
  O2-  O217  1  0.08578180  0.46309116  0.40270565  1
  O2-  O218  1  0.08358488  0.45502462  0.73214682  1
  O2-  O219  1  0.08449388  0.94479721  0.05785111  1
  O2-  O220  1  0.07432487  0.94570867  0.39912888  1
  O2-  O221  1  0.08528936  0.95272613  0.72880195  1
  O2-  O222  1  0.58847934  0.46136721  0.06392484  1
  O2-  O223  1  0.58523171  0.46126440  0.40065264  1
  O2-  O224  1  0.59147685  0.46120427  0.73196101  1
  O2-  O225  1  0.57780680  0.95504656  0.06591173  1
  O2-  O226  1  0.58486327  0.95847334  0.40530192  1
  O2-  O227  1  0.58248482  0.94869713  0.72982732  1
  O2-  O228  1  0.20199708  0.33548658  0.06169039  1
  O2-  O229  1  0.21438195  0.33808660  0.40197893  1
  O2-  O230  1  0.19997122  0.33124766  0.73074708  1
  O2-  O231  1  0.21574522  0.84129065  0.06266935  1
  O2-  O232  1  0.21396764  0.83230578  0.40240665  1
  O2-  O233  1  0.21355624  0.84034677  0.73068324  1
  O2-  O234  1  0.70041366  0.33717235  0.06283520  1
  O2-  O235  1  0.69161125  0.33019295  0.39477210  1
  O2-  O236  1  0.70636033  0.33533128  0.72579791  1
  O2-  O237  1  0.70533165  0.82808463  0.06498694  1
  O2-  O238  1  0.71076389  0.83341524  0.40508587  1
  O2-  O239  1  0.70682379  0.83539128  0.73302662  1
  O2-  O240  1  0.46332253  0.41713320  0.26247325  1
  O2-  O241  1  0.46465301  0.41851954  0.59924670  1
  O2-  O242  1  0.45781018  0.41689845  0.93859223  1
  O2-  O243  1  0.46185883  0.91317106  0.27166296  1
  O2-  O244  1  0.45646901  0.91054021  0.60117261  1
  O2-  O245  1  0.45314928  0.91450282  0.93446969  1
  O2-  O246  1  0.96013686  0.41948808  0.26696065  1
  O2-  O247  1  0.95370317  0.42223002  0.60103558  1
  O2-  O248  1  0.95853816  0.41730000  0.92854424  1
  O2-  O249  1  0.94291104  0.92199103  0.26843025  1
  O2-  O250  1  0.94964319  0.91363502  0.60664456  1
  O2-  O251  1  0.94916572  0.91636890  0.93761730  1
  O2-  O252  1  0.33414397  0.29270078  0.26242996  1
  O2-  O253  1  0.32947681  0.29933296  0.60355590  1
  O2-  O254  1  0.33290841  0.30407583  0.93802149  1
  O2-  O255  1  0.33980598  0.79776875  0.26892001  1
  O2-  O256  1  0.33920047  0.78977768  0.60192459  1
  O2-  O257  1  0.33653045  0.79425295  0.93372168  1
  O2-  O258  1  0.82429602  0.30254972  0.26988503  1
  O2-  O259  1  0.83239878  0.29311641  0.59545453  1
  O2-  O260  1  0.82740190  0.29737682  0.93404689  1
  O2-  O261  1  0.82990611  0.78401137  0.26607467  1
  O2-  O262  1  0.83204249  0.79377235  0.60720043  1
  O2-  O263  1  0.83490451  0.79299645  0.93414883  1
  O2-  O264  1  0.40764362  0.03917874  0.06191230  1
  O2-  O265  1  0.41422585  0.03674683  0.40423742  1
  O2-  O266  1  0.41231647  0.03550518  0.73183535  1
  O2-  O267  1  0.41905051  0.54330971  0.06856776  1
  O2-  O268  1  0.41917111  0.54500984  0.39515929  1
  O2-  O269  1  0.41941341  0.54112279  0.73381755  1
  O2-  O270  1  0.92083364  0.04670245  0.06701656  1
  O2-  O271  1  0.91532490  0.04979521  0.39810165  1
  O2-  O272  1  0.90851084  0.03946155  0.73011031  1
  O2-  O273  1  0.91515909  0.54296894  0.05884845  1
  O2-  O274  1  0.91688287  0.54099252  0.40164081  1
  O2-  O275  1  0.91575783  0.54658305  0.73041726  1
  O2-  O276  1  0.29888106  0.16788619  0.05579328  1
  O2-  O277  1  0.29712491  0.17247369  0.39997207  1
  O2-  O278  1  0.30171904  0.16435499  0.73057146  1
  O2-  O279  1  0.29305173  0.66938447  0.06738302  1
  O2-  O280  1  0.30677767  0.66917326  0.39201132  1
  O2-  O281  1  0.29093261  0.66762418  0.73472008  1
  O2-  O282  1  0.79000249  0.17122537  0.06852640  1
  O2-  O283  1  0.79311361  0.16774129  0.39913379  1
  O2-  O284  1  0.79090456  0.16323278  0.72555646  1
  O2-  O285  1  0.79234009  0.66101399  0.05966353  1
  O2-  O286  1  0.78382591  0.66027546  0.40500566  1
  O2-  O287  1  0.79072542  0.66143464  0.73356876  1
