# generated using pymatgen
data_Ca2Al2SiO7
_symmetry_space_group_name_H-M   'P 1'
_cell_length_a   15.45640374
_cell_length_b   15.45671784
_cell_length_c   15.28260411
_cell_angle_alpha   90.01290599
_cell_angle_beta   89.99242625
_cell_angle_gamma   89.99306822
_symmetry_Int_Tables_number   1
_chemical_formula_structural   Ca2Al2SiO7
_chemical_formula_sum   'Ca48 Al48 Si24 O168'
_cell_volume   3651.09453153
_cell_formula_units_Z   24
loop_
 _symmetry_equiv_pos_site_id
 _symmetry_equiv_pos_as_xyz
  1  'x, y, z'
loop_
 _atom_type_symbol
 _atom_type_oxidation_number
  Ca2+  2.0
  Al0+  0.0
  Si0+  0.0
  O2-  -2.0
loop_
 _atom_site_type_symbol
 _atom_site_label
 _atom_site_symmetry_multiplicity
 _atom_site_fract_x
 _atom_site_fract_y
 _atom_site_fract_z
 _atom_site_occupancy
  Ca2+  Ca0  1  0.17084631  0.08123858  0.17488629  1
  Ca2+  Ca1  1  0.17367825  0.07823253  0.49539657  1
  Ca2+  Ca2  1  0.16597986  0.08557859  0.83751945  1
  Ca2+  Ca3  1  0.17303788  0.57860237  0.16814041  1
  Ca2+  Ca4  1  0.16884992  0.57730275  0.50738554  1
  Ca2+  Ca5  1  0.17470638  0.57117743  0.84150312  1
  Ca2+  Ca6  1  0.66998713  0.07875218  0.17557291  1
  Ca2+  Ca7  1  0.67376987  0.08324158  0.50597844  1
  Ca2+  Ca8  1  0.67099976  0.07029927  0.83506175  1
  Ca2+  Ca9  1  0.66455575  0.58246732  0.17534612  1
  Ca2+  Ca10  1  0.66512906  0.58457342  0.49320320  1
  Ca2+  Ca11  1  0.66579465  0.58555521  0.83887194  1
  Ca2+  Ca12  1  0.08580713  0.32580328  0.15842144  1
  Ca2+  Ca13  1  0.07798573  0.33622591  0.50115469  1
  Ca2+  Ca14  1  0.08607364  0.33124021  0.82835677  1
  Ca2+  Ca15  1  0.07206739  0.84191651  0.16563545  1
  Ca2+  Ca16  1  0.07315406  0.84062266  0.49376476  1
  Ca2+  Ca17  1  0.06982023  0.83426221  0.82801656  1
  Ca2+  Ca18  1  0.57761141  0.33112714  0.16783705  1
  Ca2+  Ca19  1  0.57498915  0.33027231  0.48781894  1
  Ca2+  Ca20  1  0.56939418  0.33564381  0.82826172  1
  Ca2+  Ca21  1  0.58664893  0.82335361  0.16282607  1
  Ca2+  Ca22  1  0.57639494  0.83495977  0.49367159  1
  Ca2+  Ca23  1  0.58469496  0.83141369  0.82912165  1
  Ca2+  Ca24  1  0.33722312  0.41518559  0.16610274  1
  Ca2+  Ca25  1  0.33175702  0.41249953  0.50558354  1
  Ca2+  Ca26  1  0.32783342  0.41471905  0.84265194  1
  Ca2+  Ca27  1  0.32556696  0.92130332  0.18149457  1
  Ca2+  Ca28  1  0.33925959  0.91782024  0.50229269  1
  Ca2+  Ca29  1  0.33519943  0.91671395  0.83692288  1
  Ca2+  Ca30  1  0.82423572  0.42629980  0.18138256  1
  Ca2+  Ca31  1  0.82683716  0.41891617  0.50338168  1
  Ca2+  Ca32  1  0.83482833  0.41696211  0.83553458  1
  Ca2+  Ca33  1  0.83168858  0.91727235  0.17275421  1
  Ca2+  Ca34  1  0.83083103  0.92469484  0.50628855  1
  Ca2+  Ca35  1  0.82592501  0.91123037  0.83634222  1
  Ca2+  Ca36  1  0.41641505  0.17306606  0.16826782  1
  Ca2+  Ca37  1  0.42239587  0.17382251  0.49036094  1
  Ca2+  Ca38  1  0.41458904  0.17830041  0.82904451  1
  Ca2+  Ca39  1  0.42704695  0.66499524  0.16326324  1
  Ca2+  Ca40  1  0.42210487  0.67856318  0.49171834  1
  Ca2+  Ca41  1  0.42110028  0.66691048  0.83119113  1
  Ca2+  Ca42  1  0.92317597  0.16179127  0.16288195  1
  Ca2+  Ca43  1  0.90854365  0.16751444  0.49666569  1
  Ca2+  Ca44  1  0.92244448  0.16993577  0.82704985  1
  Ca2+  Ca45  1  0.90831471  0.67831004  0.16576701  1
  Ca2+  Ca46  1  0.91333170  0.67804122  0.49300130  1
  Ca2+  Ca47  1  0.91454242  0.67819121  0.82956695  1
  Al0+  Al48  1  -0.00045705  0.00146446  -0.01063380  1
  Al0+  Al49  1  -0.00004629  0.00072342  0.33746487  1
  Al0+  Al50  1  0.00231370  0.00138005  0.66605292  1
  Al0+  Al51  1  0.00065166  0.50100900  0.00572471  1
  Al0+  Al52  1  -0.00026353  0.50199520  0.33684753  1
  Al0+  Al53  1  0.00105286  0.49780333  0.66859943  1
  Al0+  Al54  1  0.50158129  -0.00097922  0.00587184  1
  Al0+  Al55  1  0.49912543  0.00267827  0.32969193  1
  Al0+  Al56  1  0.50097316  -0.00001375  0.66941079  1
  Al0+  Al57  1  0.50055185  0.50051373  -0.00565691  1
  Al0+  Al58  1  0.49791601  0.50063220  0.33165241  1
  Al0+  Al59  1  0.50026227  0.50105482  0.66210514  1
  Al0+  Al60  1  0.24909145  0.24876087  -0.00440341  1
  Al0+  Al61  1  0.24900483  0.24857021  0.33490677  1
  Al0+  Al62  1  0.24924072  0.24914688  0.66533573  1
  Al0+  Al63  1  0.24939552  0.74908508  0.00503275  1
  Al0+  Al64  1  0.24589326  0.74788040  0.33493447  1
  Al0+  Al65  1  0.25157419  0.74918918  0.66548951  1
  Al0+  Al66  1  0.75054523  0.24834749  -0.00081062  1
  Al0+  Al67  1  0.74835163  0.25135429  0.33564511  1
  Al0+  Al68  1  0.75170689  0.25028412  0.67093179  1
  Al0+  Al69  1  0.74810501  0.75030734  -0.00460986  1
  Al0+  Al70  1  0.75069714  0.75053791  0.33076162  1
  Al0+  Al71  1  0.75102559  0.74874271  0.66513455  1
  Al0+  Al72  1  0.17942757  0.42678314  0.01704809  1
  Al0+  Al73  1  0.82358196  0.07284954  0.68456604  1
  Al0+  Al74  1  0.92907625  0.32069774  0.65291998  1
  Al0+  Al75  1  0.42522686  0.82338188  0.31779048  1
  Al0+  Al76  1  0.42967517  0.82141558  0.65479628  1
  Al0+  Al77  1  0.06987071  0.18093482  0.98611641  1
  Al0+  Al78  1  0.82164758  0.57330340  0.34959824  1
  Al0+  Al79  1  0.17868461  0.92736542  0.34839791  1
  Al0+  Al80  1  0.32331150  0.57088532  0.01622416  1
  Al0+  Al81  1  0.68016461  0.92805606  0.01623030  1
  Al0+  Al82  1  0.56904726  0.68026736  0.98446896  1
  Al0+  Al83  1  0.18038264  0.42876589  0.68088166  1
  Al0+  Al84  1  0.67678929  0.43016285  0.34845714  1
  Al0+  Al85  1  0.42834186  0.32108479  0.65237814  1
  Al0+  Al86  1  0.56939047  0.68200007  0.31792298  1
  Al0+  Al87  1  0.32262731  0.07096993  0.34876459  1
  Al0+  Al88  1  0.82078635  0.07082799  0.34537936  1
  Al0+  Al89  1  0.43235585  0.31768519  0.98544216  1
  Al0+  Al90  1  0.57431930  0.17886751  0.31854986  1
  Al0+  Al91  1  0.92929452  0.82121594  0.65100207  1
  Al0+  Al92  1  0.93142967  0.82166952  0.32010036  1
  Al0+  Al93  1  0.93043776  0.81907186  0.98503769  1
  Al0+  Al94  1  0.67931415  0.92790957  0.68123767  1
  Al0+  Al95  1  0.42629441  0.32082106  0.31740408  1
  Si0+  Si96  1  0.17828886  0.42760963  0.34934212  1
  Si0+  Si97  1  0.57518950  0.17422633  0.98175876  1
  Si0+  Si98  1  0.07187853  0.67399888  0.31551724  1
  Si0+  Si99  1  0.67753766  0.42928274  0.68260308  1
  Si0+  Si100  1  0.32319231  0.57277042  0.68300597  1
  Si0+  Si101  1  0.07450780  0.67586700  0.98360698  1
  Si0+  Si102  1  0.82107264  0.56966807  0.68272103  1
  Si0+  Si103  1  0.17677700  0.92963566  0.01182218  1
  Si0+  Si104  1  0.92648677  0.32477793  0.98648358  1
  Si0+  Si105  1  0.07311072  0.17760667  0.64595102  1
  Si0+  Si106  1  0.82014398  0.57137799  0.01315854  1
  Si0+  Si107  1  0.67933072  0.42779201  0.01225949  1
  Si0+  Si108  1  0.32049899  0.07042770  0.01332883  1
  Si0+  Si109  1  0.07141986  0.67819785  0.65186261  1
  Si0+  Si110  1  0.32043363  0.57051050  0.34985226  1
  Si0+  Si111  1  0.82311104  0.07101527  0.01593208  1
  Si0+  Si112  1  0.06825037  0.18134719  0.32017407  1
  Si0+  Si113  1  0.17986220  0.92716601  0.68299060  1
  Si0+  Si114  1  0.67785490  0.92773711  0.34820763  1
  Si0+  Si115  1  0.57138650  0.17917960  0.65295651  1
  Si0+  Si116  1  0.92807780  0.32383517  0.31972208  1
  Si0+  Si117  1  0.57347967  0.67721617  0.64808055  1
  Si0+  Si118  1  0.42570037  0.82379732  0.98562654  1
  Si0+  Si119  1  0.32077224  0.06994789  0.68276654  1
  O2-  O120  1  0.25288868  -0.00495546  0.05359830  1
  O2-  O121  1  0.25788314  -0.00831324  0.39885114  1
  O2-  O122  1  0.25120897  -0.00246514  0.72613364  1
  O2-  O123  1  0.25119951  0.49872530  0.06712713  1
  O2-  O124  1  0.24964726  0.49833197  0.39127809  1
  O2-  O125  1  0.25780370  0.50086312  0.72689437  1
  O2-  O126  1  0.75299543  0.00534347  0.06133736  1
  O2-  O127  1  0.74331831  -0.00054252  0.39219585  1
  O2-  O128  1  0.75452595  -0.00319215  0.73261625  1
  O2-  O129  1  0.75503210  0.49427750  0.05357630  1
  O2-  O130  1  0.75029214  0.50057478  0.39946043  1
  O2-  O131  1  0.74873320  0.50004152  0.72582208  1
  O2-  O132  1  -0.00212786  0.25241806  0.27644801  1
  O2-  O133  1  0.00013861  0.24331551  0.60407156  1
  O2-  O134  1  -0.00315290  0.25836033  0.94178827  1
  O2-  O135  1  0.00481506  0.74525674  0.27282659  1
  O2-  O136  1  0.00583387  0.74788911  0.60505818  1
  O2-  O137  1  0.00620217  0.74446548  0.93868897  1
  O2-  O138  1  0.49992410  0.24934333  0.26918412  1
  O2-  O139  1  0.50572474  0.24955322  0.60709563  1
  O2-  O140  1  0.50723968  0.24350999  0.93713498  1
  O2-  O141  1  0.49855924  0.75416703  0.26596280  1
  O2-  O142  1  0.50552953  0.74830361  0.60791608  1
  O2-  O143  1  0.49286145  0.75462831  0.93982477  1
  O2-  O144  1  0.06831614  0.17844912  0.09958872  1
  O2-  O145  1  0.06889492  0.18321046  0.42503399  1
  O2-  O146  1  0.07567504  0.17936088  0.75179453  1
  O2-  O147  1  0.07384838  0.67585374  0.08888663  1
  O2-  O148  1  0.07115688  0.67001069  0.42120309  1
  O2-  O149  1  0.06964306  0.68015607  0.75760552  1
  O2-  O150  1  0.57660962  0.17573253  0.08687691  1
  O2-  O151  1  0.57508651  0.18146222  0.43257426  1
  O2-  O152  1  0.56729915  0.18008886  0.75890942  1
  O2-  O153  1  0.57158811  0.67958508  0.09675717  1
  O2-  O154  1  0.56772748  0.68264305  0.43172187  1
  O2-  O155  1  0.57275133  0.67446529  0.75389097  1
  O2-  O156  1  0.17639095  0.42733900  0.24452240  1
  O2-  O157  1  0.17979778  0.43170704  0.56739990  1
  O2-  O158  1  0.18047856  0.42741608  0.90333418  1
  O2-  O159  1  0.17475715  0.93451545  0.23419221  1
  O2-  O160  1  0.17976210  0.92759647  0.57844304  1
  O2-  O161  1  0.17709273  0.93115561  0.90627148  1
  O2-  O162  1  0.67980090  0.43060002  0.23410462  1
  O2-  O163  1  0.67731031  0.42957312  0.57809666  1
  O2-  O164  1  0.68039940  0.42898877  0.90656998  1
  O2-  O165  1  0.68265467  0.92667736  0.24237836  1
  O2-  O166  1  0.67744166  0.93041757  0.56786122  1
  O2-  O167  1  0.68099783  0.92748708  0.90314102  1
  O2-  O168  1  0.43282813  0.31632544  0.09790433  1
  O2-  O169  1  0.42562915  0.31927111  0.43124428  1
  O2-  O170  1  0.42841516  0.31991445  0.76583671  1
  O2-  O171  1  0.42571678  0.82428605  0.09049432  1
  O2-  O172  1  0.42819151  0.81985743  0.43186390  1
  O2-  O173  1  0.42768179  0.81920788  0.76816636  1
  O2-  O174  1  0.92468754  0.32323309  0.09204209  1
  O2-  O175  1  0.93057082  0.32408383  0.42485522  1
  O2-  O176  1  0.93199048  0.32251939  0.76630429  1
  O2-  O177  1  0.93159356  0.82060669  0.09803051  1
  O2-  O178  1  0.93261907  0.82191977  0.43306617  1
  O2-  O179  1  0.92965455  0.81759125  0.76448745  1
  O2-  O180  1  0.31484965  0.07528768  0.23485194  1
  O2-  O181  1  0.32034260  0.07018708  0.57820985  1
  O2-  O182  1  0.31956350  0.07001612  0.90755187  1
  O2-  O183  1  0.31975779  0.57052413  0.24495736  1
  O2-  O184  1  0.32069502  0.57422196  0.57741965  1
  O2-  O185  1  0.32185312  0.57000385  0.90217382  1
  O2-  O186  1  0.82466418  0.06813450  0.23201221  1
  O2-  O187  1  0.81990061  0.07329019  0.57096694  1
  O2-  O188  1  0.82293472  0.07100003  0.91068351  1
  O2-  O189  1  0.82220719  0.57089361  0.23534046  1
  O2-  O190  1  0.82140226  0.56947569  0.57822605  1
  O2-  O191  1  0.81946084  0.57086008  0.90745421  1
  O2-  O192  1  0.03936744  0.09016217  0.27257776  1
  O2-  O193  1  0.05288946  0.08254224  0.60152690  1
  O2-  O194  1  0.03856428  0.08738134  0.92614407  1
  O2-  O195  1  0.04479936  0.58136150  0.26732888  1
  O2-  O196  1  0.04460384  0.58475293  0.60662246  1
  O2-  O197  1  0.04808224  0.58166505  0.93824506  1
  O2-  O198  1  0.54854887  0.08088091  0.26402508  1
  O2-  O199  1  0.54380774  0.08649376  0.60721588  1
  O2-  O200  1  0.54741293  0.08030577  0.93748535  1
  O2-  O201  1  0.53956787  0.58347320  0.26602943  1
  O2-  O202  1  0.54619144  0.58513175  0.60000921  1
  O2-  O203  1  0.54033095  0.58439447  0.92716549  1
  O2-  O204  1  0.15931188  0.20950062  0.27163757  1
  O2-  O205  1  0.16456852  0.20787687  0.59864476  1
  O2-  O206  1  0.16538601  0.20933873  0.92853173  1
  O2-  O207  1  0.16586074  0.69654462  0.26969489  1
  O2-  O208  1  0.16621588  0.70040549  0.60653227  1
  O2-  O209  1  0.16850056  0.70089568  0.93763773  1
  O2-  O210  1  0.67158407  0.20962956  0.26289302  1
  O2-  O211  1  0.66667512  0.20247110  0.61073627  1
  O2-  O212  1  0.66943173  0.19852920  0.93555456  1
  O2-  O213  1  0.66873980  0.70731936  0.26506640  1
  O2-  O214  1  0.66780672  0.69958768  0.60327356  1
  O2-  O215  1  0.66427738  0.71196106  0.92781920  1
  O2-  O216  1  0.08003415  0.45335410  0.07026295  1
  O2-  O217  1  0.08696326  0.45667701  0.39769414  1
  O2-  O218  1  0.08441085  0.46040991  0.73628481  1
  O2-  O219  1  0.08625348  0.96394873  0.05747896  1
  O2-  O220  1  0.08538015  0.96680534  0.40460271  1
  O2-  O221  1  0.08877770  0.95677357  0.73105460  1
  O2-  O222  1  0.58934033  0.45985923  0.05838549  1
  O2-  O223  1  0.57849692  0.45968408  0.40126779  1
  O2-  O224  1  0.58547435  0.45930916  0.72963588  1
  O2-  O225  1  0.58288462  0.95516276  0.07079105  1
  O2-  O226  1  0.58216970  0.94971317  0.39056509  1
  O2-  O227  1  0.58190466  0.95874096  0.73729735  1
  O2-  O228  1  0.20830781  0.32722303  0.06728469  1
  O2-  O229  1  0.20476608  0.33616718  0.39751911  1
  O2-  O230  1  0.20885389  0.33060703  0.73318628  1
  O2-  O231  1  0.19587184  0.83612835  0.05929228  1
  O2-  O232  1  0.19354295  0.82520368  0.39906757  1
  O2-  O233  1  0.20659946  0.83475453  0.73045266  1
  O2-  O234  1  0.70209260  0.33393082  0.05856902  1
  O2-  O235  1  0.70601213  0.33289408  0.40252334  1
  O2-  O236  1  0.70436991  0.33827013  0.73189733  1
  O2-  O237  1  0.71452992  0.83157876  0.06792086  1
  O2-  O238  1  0.70605607  0.83570079  0.39490628  1
  O2-  O239  1  0.70644360  0.82762413  0.73283856  1
  O2-  O240  1  0.45354591  0.41942399  0.26571412  1
  O2-  O241  1  0.45572804  0.41891163  0.59963881  1
  O2-  O242  1  0.46313163  0.41363157  0.93003000  1
  O2-  O243  1  0.44566363  0.92423927  0.26795412  1
  O2-  O244  1  0.45836096  0.91921996  0.60217463  1
  O2-  O245  1  0.45234334  0.91786778  0.94002686  1
  O2-  O246  1  0.95678092  0.41565169  0.27274583  1
  O2-  O247  1  0.96291020  0.41642425  0.59845872  1
  O2-  O248  1  0.94920268  0.42002083  0.94192825  1
  O2-  O249  1  0.96555419  0.91771946  0.26613078  1
  O2-  O250  1  0.96084559  0.91884779  0.60041949  1
  O2-  O251  1  0.96146322  0.91404935  0.92817306  1
  O2-  O252  1  0.32781351  0.29001146  0.26510577  1
  O2-  O253  1  0.33243814  0.28818609  0.59950835  1
  O2-  O254  1  0.33612066  0.28499544  0.93143708  1
  O2-  O255  1  0.32463786  0.79490014  0.26924518  1
  O2-  O256  1  0.33312017  0.79093958  0.59989790  1
  O2-  O257  1  0.33019963  0.80085762  0.94082759  1
  O2-  O258  1  0.83590804  0.29866709  0.27327496  1
  O2-  O259  1  0.83033734  0.29414565  0.60083873  1
  O2-  O260  1  0.83368711  0.29829395  0.93791779  1
  O2-  O261  1  0.83547331  0.79107757  0.26518357  1
  O2-  O262  1  0.83343285  0.78833983  0.59807833  1
  O2-  O263  1  0.83577126  0.78403982  0.93030636  1
  O2-  O264  1  0.41344368  0.04902838  0.06077856  1
  O2-  O265  1  0.42351362  0.05143439  0.40030102  1
  O2-  O266  1  0.41219935  0.04440130  0.73205433  1
  O2-  O267  1  0.42214725  0.54008199  0.06656865  1
  O2-  O268  1  0.41149497  0.54373564  0.39825655  1
  O2-  O269  1  0.41880986  0.55026038  0.72642569  1
  O2-  O270  1  0.91729766  0.04247212  0.05948067  1
  O2-  O271  1  0.91532168  0.03959241  0.40239525  1
  O2-  O272  1  0.92530933  0.04920286  0.73311788  1
  O2-  O273  1  0.91358251  0.55201890  0.06111134  1
  O2-  O274  1  0.92016487  0.54562541  0.40326502  1
  O2-  O275  1  0.91194140  0.54011545  0.73136855  1
  O2-  O276  1  0.28683053  0.15978650  0.06028590  1
  O2-  O277  1  0.28456289  0.16595297  0.40410856  1
  O2-  O278  1  0.28872681  0.16063175  0.73054430  1
  O2-  O279  1  0.29540015  0.66945525  0.07023144  1
  O2-  O280  1  0.29066655  0.66117291  0.39888468  1
  O2-  O281  1  0.29484213  0.66499554  0.73130935  1
  O2-  O282  1  0.80210956  0.16678064  0.06087447  1
  O2-  O283  1  0.79398173  0.16868632  0.39877768  1
  O2-  O284  1  0.79482144  0.17095906  0.73945185  1
  O2-  O285  1  0.78617462  0.66081882  0.05986149  1
  O2-  O286  1  0.79158616  0.67133823  0.40214912  1
  O2-  O287  1  0.79347152  0.66138956  0.73082499  1
