# generated using pymatgen
data_Ca2Al2SiO7
_symmetry_space_group_name_H-M   'P 1'
_cell_length_a   15.47234132
_cell_length_b   15.46854463
_cell_length_c   15.29390694
_cell_angle_alpha   89.99601997
_cell_angle_beta   90.00426656
_cell_angle_gamma   89.99573583
_symmetry_Int_Tables_number   1
_chemical_formula_structural   Ca2Al2SiO7
_chemical_formula_sum   'Ca48 Al48 Si24 O168'
_cell_volume   3660.36110511
_cell_formula_units_Z   24
loop_
 _symmetry_equiv_pos_site_id
 _symmetry_equiv_pos_as_xyz
  1  'x, y, z'
loop_
 _atom_type_symbol
 _atom_type_oxidation_number
  Ca2+  2.0
  Al0+  0.0
  Si0+  0.0
  O2-  -2.0
loop_
 _atom_site_type_symbol
 _atom_site_label
 _atom_site_symmetry_multiplicity
 _atom_site_fract_x
 _atom_site_fract_y
 _atom_site_fract_z
 _atom_site_occupancy
  Ca2+  Ca0  1  0.17876131  0.08184902  0.17719625  1
  Ca2+  Ca1  1  0.18203439  0.07724557  0.50730237  1
  Ca2+  Ca2  1  0.17415706  0.07761496  0.83183627  1
  Ca2+  Ca3  1  0.17507773  0.57595944  0.17472653  1
  Ca2+  Ca4  1  0.16582477  0.58054930  0.50329362  1
  Ca2+  Ca5  1  0.16903922  0.58695768  0.83541135  1
  Ca2+  Ca6  1  0.65201866  0.07920892  0.16763957  1
  Ca2+  Ca7  1  0.66615413  0.07946850  0.51115304  1
  Ca2+  Ca8  1  0.65477431  0.07441054  0.83292370  1
  Ca2+  Ca9  1  0.66536934  0.58417238  0.17189674  1
  Ca2+  Ca10  1  0.66256163  0.57386865  0.50705341  1
  Ca2+  Ca11  1  0.67294527  0.59050393  0.83746869  1
  Ca2+  Ca12  1  0.07913091  0.33952470  0.16878139  1
  Ca2+  Ca13  1  0.07461277  0.33416607  0.49116262  1
  Ca2+  Ca14  1  0.07836475  0.33170684  0.82831261  1
  Ca2+  Ca15  1  0.07291985  0.83833097  0.16559006  1
  Ca2+  Ca16  1  0.07881025  0.83377604  0.49885915  1
  Ca2+  Ca17  1  0.08096001  0.82829060  0.82165456  1
  Ca2+  Ca18  1  0.58137782  0.32347008  0.16279529  1
  Ca2+  Ca19  1  0.58586136  0.32369796  0.49120013  1
  Ca2+  Ca20  1  0.58646481  0.32436655  0.82640247  1
  Ca2+  Ca21  1  0.57524338  0.82765212  0.16157569  1
  Ca2+  Ca22  1  0.58893088  0.82314630  0.49492074  1
  Ca2+  Ca23  1  0.59083214  0.82805730  0.83154894  1
  Ca2+  Ca24  1  0.33173996  0.40712939  0.17636311  1
  Ca2+  Ca25  1  0.32863776  0.40909743  0.49934756  1
  Ca2+  Ca26  1  0.33405726  0.41465056  0.83811993  1
  Ca2+  Ca27  1  0.34418071  0.92001205  0.17431417  1
  Ca2+  Ca28  1  0.33913233  0.92601237  0.50571321  1
  Ca2+  Ca29  1  0.33502744  0.91598950  0.83527695  1
  Ca2+  Ca30  1  0.82591183  0.42262901  0.17427869  1
  Ca2+  Ca31  1  0.81978711  0.41736709  0.50392993  1
  Ca2+  Ca32  1  0.82201427  0.42686261  0.83091870  1
  Ca2+  Ca33  1  0.82505732  0.91573852  0.17008331  1
  Ca2+  Ca34  1  0.82962446  0.92250147  0.50781674  1
  Ca2+  Ca35  1  0.81847540  0.91992174  0.83342895  1
  Ca2+  Ca36  1  0.42321591  0.17337182  0.16711636  1
  Ca2+  Ca37  1  0.42546561  0.16375743  0.49400264  1
  Ca2+  Ca38  1  0.42520164  0.16970915  0.83111515  1
  Ca2+  Ca39  1  0.42985965  0.67152488  0.16223893  1
  Ca2+  Ca40  1  0.42929879  0.67475869  0.49367552  1
  Ca2+  Ca41  1  0.43120517  0.67167164  0.82927883  1
  Ca2+  Ca42  1  0.91578842  0.17606296  0.16638318  1
  Ca2+  Ca43  1  0.91338549  0.17143135  0.49284255  1
  Ca2+  Ca44  1  0.91438266  0.16475221  0.82553741  1
  Ca2+  Ca45  1  0.91320111  0.66972564  0.16459239  1
  Ca2+  Ca46  1  0.91814474  0.66812234  0.49822802  1
  Ca2+  Ca47  1  0.91938028  0.65928790  0.82395253  1
  Al0+  Al48  1  -0.00009172  0.00068362  0.00024909  1
  Al0+  Al49  1  0.00092877  -0.00056400  0.32862880  1
  Al0+  Al50  1  0.00244241  -0.00002017  0.67241806  1
  Al0+  Al51  1  -0.00056846  0.49995708  0.00414686  1
  Al0+  Al52  1  0.00112854  0.49992531  0.33244987  1
  Al0+  Al53  1  -0.00004548  0.49924425  0.66469125  1
  Al0+  Al54  1  0.49717899  0.00165703  -0.00097272  1
  Al0+  Al55  1  0.50160240  -0.00132056  0.33408112  1
  Al0+  Al56  1  0.49904012  0.00244765  0.67237550  1
  Al0+  Al57  1  0.49932568  0.50122991  -0.00603149  1
  Al0+  Al58  1  0.49931017  0.49950412  0.33205557  1
  Al0+  Al59  1  0.49626727  0.49895063  0.66647668  1
  Al0+  Al60  1  0.24770215  0.24829092  -0.00272496  1
  Al0+  Al61  1  0.25012115  0.24708364  0.34190084  1
  Al0+  Al62  1  0.24742157  0.24908795  0.67155606  1
  Al0+  Al63  1  0.24724080  0.74895135  0.00073394  1
  Al0+  Al64  1  0.24837906  0.74968163  0.33177180  1
  Al0+  Al65  1  0.24888872  0.74767684  0.66408477  1
  Al0+  Al66  1  0.75240244  0.25100839  -0.00537723  1
  Al0+  Al67  1  0.75229270  0.25070467  0.32591370  1
  Al0+  Al68  1  0.74999085  0.25260223  0.66971275  1
  Al0+  Al69  1  0.75143216  0.75391054  0.00651655  1
  Al0+  Al70  1  0.75355246  0.75079233  0.32646155  1
  Al0+  Al71  1  0.75241749  0.75083654  0.66758992  1
  Al0+  Al72  1  0.57382415  0.67892068  0.65287566  1
  Al0+  Al73  1  0.57379325  0.17839580  0.31959689  1
  Al0+  Al74  1  0.67801141  0.93306373  0.01677953  1
  Al0+  Al75  1  0.67817415  0.42876393  0.34428964  1
  Al0+  Al76  1  0.57013528  0.18076563  0.65219462  1
  Al0+  Al77  1  0.82071062  0.57081268  0.01524638  1
  Al0+  Al78  1  0.42892176  0.82146067  0.32182045  1
  Al0+  Al79  1  0.17988270  0.42938566  0.34816792  1
  Al0+  Al80  1  0.67441905  0.42950884  0.68116964  1
  Al0+  Al81  1  0.07161128  0.67748659  0.65199306  1
  Al0+  Al82  1  0.57178188  0.18061674  0.98261554  1
  Al0+  Al83  1  0.92940125  0.32226609  0.31909675  1
  Al0+  Al84  1  0.42613840  0.82088533  0.98471337  1
  Al0+  Al85  1  0.57393591  0.68132250  0.98415043  1
  Al0+  Al86  1  0.42711645  0.31950179  0.32253372  1
  Al0+  Al87  1  0.67856751  0.92860870  0.67991206  1
  Al0+  Al88  1  0.57263835  0.67702176  0.31921110  1
  Al0+  Al89  1  0.82036910  0.57020780  0.67788308  1
  Al0+  Al90  1  0.32269490  0.06739457  0.34762730  1
  Al0+  Al91  1  0.82184316  0.07347317  0.67908035  1
  Al0+  Al92  1  0.18103015  0.92635318  0.68133934  1
  Al0+  Al93  1  0.42604589  0.32149476  0.98492852  1
  Al0+  Al94  1  0.93134141  0.82187444  0.31919144  1
  Al0+  Al95  1  0.32186533  0.07204348  0.68575737  1
  Si0+  Si96  1  0.67737827  0.42727335  0.01597899  1
  Si0+  Si97  1  0.07160398  0.17873977  0.31796085  1
  Si0+  Si98  1  0.68140680  0.92945179  0.34735604  1
  Si0+  Si99  1  0.18015563  0.42807879  0.01476062  1
  Si0+  Si100  1  0.31977194  0.57059519  0.68183155  1
  Si0+  Si101  1  0.32258570  0.57426363  0.35108375  1
  Si0+  Si102  1  0.07226604  0.67644838  0.31456427  1
  Si0+  Si103  1  0.93007514  0.82307033  0.98317966  1
  Si0+  Si104  1  0.82180354  0.57350518  0.34968804  1
  Si0+  Si105  1  0.17498028  0.92692324  0.34930266  1
  Si0+  Si106  1  0.06780854  0.67846834  0.98594286  1
  Si0+  Si107  1  0.93072031  0.31996509  0.65162362  1
  Si0+  Si108  1  0.93084292  0.32315482  0.98279448  1
  Si0+  Si109  1  0.17713073  0.92752993  0.01695194  1
  Si0+  Si110  1  0.82503975  0.07350438  0.01862660  1
  Si0+  Si111  1  0.07149617  0.17762172  0.65127024  1
  Si0+  Si112  1  0.42388407  0.32177219  0.64935505  1
  Si0+  Si113  1  0.06955335  0.17849894  0.98413826  1
  Si0+  Si114  1  0.42819059  0.82086448  0.65168051  1
  Si0+  Si115  1  0.92985630  0.82340884  0.65103174  1
  Si0+  Si116  1  0.31747706  0.07071255  0.01727173  1
  Si0+  Si117  1  0.82346993  0.07098003  0.34468915  1
  Si0+  Si118  1  0.32083038  0.57168633  0.01439224  1
  Si0+  Si119  1  0.17766341  0.42965315  0.68263102  1
  O2-  O120  1  0.25076723  -0.00509336  0.05974531  1
  O2-  O121  1  0.25005040  -0.01137679  0.39183591  1
  O2-  O122  1  0.25351660  -0.00464305  0.73478177  1
  O2-  O123  1  0.25584274  0.49404136  0.05619198  1
  O2-  O124  1  0.25507949  0.50330140  0.39524535  1
  O2-  O125  1  0.25015823  0.49792489  0.72541423  1
  O2-  O126  1  0.75117661  0.01115797  0.06311822  1
  O2-  O127  1  0.75113969  0.00263225  0.38782238  1
  O2-  O128  1  0.74763640  0.00458367  0.72955386  1
  O2-  O129  1  0.74242004  0.49949329  0.06080811  1
  O2-  O130  1  0.75019708  0.50703849  0.39136867  1
  O2-  O131  1  0.74101393  0.50780898  0.72984516  1
  O2-  O132  1  0.00520171  0.24846870  0.27156516  1
  O2-  O133  1  -0.00336685  0.24395740  0.60922569  1
  O2-  O134  1  -0.00294238  0.24736920  0.94084071  1
  O2-  O135  1  0.00551252  0.74700903  0.27069604  1
  O2-  O136  1  -0.00238368  0.75325784  0.60709724  1
  O2-  O137  1  -0.00227405  0.74870782  0.94158662  1
  O2-  O138  1  0.50315859  0.25309540  0.27161429  1
  O2-  O139  1  0.49492205  0.25548795  0.60644211  1
  O2-  O140  1  0.50302265  0.25656925  0.93356186  1
  O2-  O141  1  0.49815365  0.74762767  0.27123115  1
  O2-  O142  1  0.50194631  0.75753060  0.60777246  1
  O2-  O143  1  0.50157400  0.75325039  0.93402332  1
  O2-  O144  1  0.07058919  0.17945784  0.08913729  1
  O2-  O145  1  0.06778610  0.17797529  0.42337521  1
  O2-  O146  1  0.07222105  0.18144536  0.75687389  1
  O2-  O147  1  0.06781800  0.67841687  0.09080391  1
  O2-  O148  1  0.07075021  0.67482452  0.41991936  1
  O2-  O149  1  0.06988010  0.67602812  0.76571632  1
  O2-  O150  1  0.56921748  0.18085420  0.09619093  1
  O2-  O151  1  0.57500496  0.17680333  0.43310143  1
  O2-  O152  1  0.56916857  0.18225106  0.76491526  1
  O2-  O153  1  0.57167419  0.68064404  0.09748180  1
  O2-  O154  1  0.57377948  0.67927262  0.43305390  1
  O2-  O155  1  0.57230750  0.67986797  0.76572792  1
  O2-  O156  1  0.17931073  0.43107708  0.23446953  1
  O2-  O157  1  0.17645615  0.42927996  0.57789461  1
  O2-  O158  1  0.17669358  0.42959940  0.90948169  1
  O2-  O159  1  0.17041407  0.93183092  0.24348592  1
  O2-  O160  1  0.18065730  0.92898924  0.56777282  1
  O2-  O161  1  0.17457491  0.92841243  0.91234482  1
  O2-  O162  1  0.68214874  0.42766331  0.23108734  1
  O2-  O163  1  0.67868320  0.42687992  0.56746290  1
  O2-  O164  1  0.68174892  0.42611156  0.91063158  1
  O2-  O165  1  0.68170528  0.93030200  0.24223019  1
  O2-  O166  1  0.68213503  0.92750362  0.56583434  1
  O2-  O167  1  0.68184647  0.93158996  0.90408719  1
  O2-  O168  1  0.42040078  0.31624789  0.09791956  1
  O2-  O169  1  0.42584094  0.31516336  0.43578388  1
  O2-  O170  1  0.42074073  0.32021824  0.75495763  1
  O2-  O171  1  0.42526727  0.81674279  0.09815886  1
  O2-  O172  1  0.43194858  0.82169473  0.43543116  1
  O2-  O173  1  0.42452057  0.81523346  0.75706327  1
  O2-  O174  1  0.93379013  0.32399930  0.08780219  1
  O2-  O175  1  0.92987113  0.31953999  0.43216689  1
  O2-  O176  1  0.93613724  0.32164790  0.75705390  1
  O2-  O177  1  0.93425442  0.82482164  0.08841407  1
  O2-  O178  1  0.93247419  0.82388845  0.43197890  1
  O2-  O179  1  0.93191147  0.82333021  0.75674068  1
  O2-  O180  1  0.31898642  0.06853008  0.23409151  1
  O2-  O181  1  0.31977099  0.07276682  0.57215744  1
  O2-  O182  1  0.31252398  0.07278265  0.91268733  1
  O2-  O183  1  0.31841441  0.57560184  0.24525477  1
  O2-  O184  1  0.31789354  0.57028358  0.57709263  1
  O2-  O185  1  0.31462431  0.57416339  0.90933476  1
  O2-  O186  1  0.82717252  0.06840469  0.23975647  1
  O2-  O187  1  0.82343165  0.07186914  0.56487402  1
  O2-  O188  1  0.83276433  0.06877168  0.91385957  1
  O2-  O189  1  0.82298258  0.57186331  0.24374804  1
  O2-  O190  1  0.82477550  0.56569139  0.56472236  1
  O2-  O191  1  0.82633465  0.56713738  0.90257175  1
  O2-  O192  1  0.04557561  0.08683481  0.26855171  1
  O2-  O193  1  0.04947401  0.08386534  0.60626818  1
  O2-  O194  1  0.04337236  0.08613373  0.93685457  1
  O2-  O195  1  0.04513082  0.58421531  0.26655823  1
  O2-  O196  1  0.03998942  0.58134843  0.59730628  1
  O2-  O197  1  0.04098775  0.58586361  0.93901403  1
  O2-  O198  1  0.54087013  0.08139513  0.26753075  1
  O2-  O199  1  0.54072689  0.08194505  0.60115578  1
  O2-  O200  1  0.53738446  0.08360686  0.93174155  1
  O2-  O201  1  0.54494154  0.57918442  0.26525312  1
  O2-  O202  1  0.53766224  0.58248815  0.60123451  1
  O2-  O203  1  0.54695103  0.58242062  0.93157910  1
  O2-  O204  1  0.16519044  0.20494604  0.27346012  1
  O2-  O205  1  0.16133214  0.21089153  0.60380486  1
  O2-  O206  1  0.15883179  0.20913601  0.93413769  1
  O2-  O207  1  0.16647298  0.69872272  0.26843297  1
  O2-  O208  1  0.16757837  0.70588017  0.59587616  1
  O2-  O209  1  0.15957715  0.70567053  0.93852820  1
  O2-  O210  1  0.67137653  0.20293319  0.26329478  1
  O2-  O211  1  0.66877193  0.21092209  0.60128548  1
  O2-  O212  1  0.67319247  0.20250883  0.93187492  1
  O2-  O213  1  0.67035483  0.70610046  0.26620515  1
  O2-  O214  1  0.67169744  0.70664722  0.59989922  1
  O2-  O215  1  0.67352968  0.71258524  0.93505041  1
  O2-  O216  1  0.09074045  0.46107986  0.06391849  1
  O2-  O217  1  0.08300303  0.46138802  0.40171755  1
  O2-  O218  1  0.08751946  0.45989423  0.73177824  1
  O2-  O219  1  0.08662017  0.96056108  0.06500114  1
  O2-  O220  1  0.08417529  0.95972850  0.39716169  1
  O2-  O221  1  0.08432742  0.95668515  0.73729004  1
  O2-  O222  1  0.58068506  0.44789953  0.05723447  1
  O2-  O223  1  0.58033496  0.45384661  0.39839399  1
  O2-  O224  1  0.57313141  0.44804279  0.73138470  1
  O2-  O225  1  0.57958687  0.96215108  0.06895431  1
  O2-  O226  1  0.59013415  0.95436817  0.39559648  1
  O2-  O227  1  0.58061484  0.95391106  0.73423524  1
  O2-  O228  1  0.20216495  0.33420082  0.06086875  1
  O2-  O229  1  0.20639828  0.33282415  0.40436040  1
  O2-  O230  1  0.20191419  0.33756437  0.73170559  1
  O2-  O231  1  0.19855884  0.83375953  0.06365879  1
  O2-  O232  1  0.19047419  0.82963677  0.39065504  1
  O2-  O233  1  0.20480589  0.82598641  0.73314944  1
  O2-  O234  1  0.70893280  0.33444781  0.06101728  1
  O2-  O235  1  0.71563055  0.33261295  0.39642408  1
  O2-  O236  1  0.71323068  0.33620680  0.73722195  1
  O2-  O237  1  0.71343725  0.83893856  0.07291830  1
  O2-  O238  1  0.71376262  0.83785127  0.39237293  1
  O2-  O239  1  0.71225579  0.83288320  0.73512552  1
  O2-  O240  1  0.44479306  0.42072843  0.27195174  1
  O2-  O241  1  0.44264793  0.41728875  0.60507895  1
  O2-  O242  1  0.44385048  0.42312373  0.93451782  1
  O2-  O243  1  0.46124353  0.91718377  0.26664038  1
  O2-  O244  1  0.44763508  0.91792434  0.61203835  1
  O2-  O245  1  0.44762383  0.92176659  0.93594460  1
  O2-  O246  1  0.96262573  0.41760632  0.26386667  1
  O2-  O247  1  0.96606690  0.40795586  0.60264523  1
  O2-  O248  1  0.96709604  0.41223915  0.93572005  1
  O2-  O249  1  0.96343891  0.91671892  0.26085776  1
  O2-  O250  1  0.95883130  0.91655997  0.60516665  1
  O2-  O251  1  0.96204723  0.91358874  0.93598349  1
  O2-  O252  1  0.32872877  0.28677219  0.27056946  1
  O2-  O253  1  0.32902966  0.29435143  0.60580891  1
  O2-  O254  1  0.32804395  0.28924253  0.93071501  1
  O2-  O255  1  0.32710744  0.80123735  0.27121339  1
  O2-  O256  1  0.33699643  0.79002452  0.60370754  1
  O2-  O257  1  0.32699044  0.78994128  0.93341784  1
  O2-  O258  1  0.83728252  0.28936760  0.25902320  1
  O2-  O259  1  0.83777629  0.29720650  0.60553300  1
  O2-  O260  1  0.83889614  0.30037404  0.93451510  1
  O2-  O261  1  0.83715864  0.79163130  0.26062583  1
  O2-  O262  1  0.83703192  0.79936397  0.60387020  1
  O2-  O263  1  0.83682635  0.79894250  0.93979712  1
  O2-  O264  1  0.41023916  0.04757779  0.06344330  1
  O2-  O265  1  0.41882036  0.03684667  0.40285759  1
  O2-  O266  1  0.41969422  0.04820813  0.73978726  1
  O2-  O267  1  0.41515639  0.55125153  0.05903865  1
  O2-  O268  1  0.41672966  0.55205505  0.39606195  1
  O2-  O269  1  0.41050301  0.54428763  0.73151999  1
  O2-  O270  1  0.91706125  0.04316673  0.06720483  1
  O2-  O271  1  0.91496301  0.04174397  0.39258917  1
  O2-  O272  1  0.91980162  0.04523952  0.73389749  1
  O2-  O273  1  0.91623544  0.53594449  0.07104509  1
  O2-  O274  1  0.91566847  0.54601027  0.39339933  1
  O2-  O275  1  0.91665256  0.53339491  0.73249571  1
  O2-  O276  1  0.28167395  0.16052564  0.06434295  1
  O2-  O277  1  0.28728364  0.16035908  0.40506612  1
  O2-  O278  1  0.28410815  0.16764103  0.73975826  1
  O2-  O279  1  0.28446026  0.65944097  0.06474385  1
  O2-  O280  1  0.29324610  0.66676277  0.39829574  1
  O2-  O281  1  0.28803004  0.66023934  0.73047286  1
  O2-  O282  1  0.80663367  0.17139067  0.05867977  1
  O2-  O283  1  0.80007532  0.16472357  0.38909516  1
  O2-  O284  1  0.80025126  0.17282695  0.73213892  1
  O2-  O285  1  0.79691545  0.66938248  0.06841885  1
  O2-  O286  1  0.80142228  0.66934743  0.39300487  1
  O2-  O287  1  0.80326187  0.67090132  0.73005420  1
