# generated using pymatgen
data_Ca2Al2SiO7
_symmetry_space_group_name_H-M   'P 1'
_cell_length_a   15.45578380
_cell_length_b   15.45639787
_cell_length_c   15.28165785
_cell_angle_alpha   89.99574372
_cell_angle_beta   90.00514605
_cell_angle_gamma   89.99954276
_symmetry_Int_Tables_number   1
_chemical_formula_structural   Ca2Al2SiO7
_chemical_formula_sum   'Ca48 Al48 Si24 O168'
_cell_volume   3650.64658637
_cell_formula_units_Z   24
loop_
 _symmetry_equiv_pos_site_id
 _symmetry_equiv_pos_as_xyz
  1  'x, y, z'
loop_
 _atom_type_symbol
 _atom_type_oxidation_number
  Ca2+  2.0
  Al0+  0.0
  Si0+  0.0
  O2-  -2.0
loop_
 _atom_site_type_symbol
 _atom_site_label
 _atom_site_symmetry_multiplicity
 _atom_site_fract_x
 _atom_site_fract_y
 _atom_site_fract_z
 _atom_site_occupancy
  Ca2+  Ca0  1  0.18088914  0.08474324  0.17202015  1
  Ca2+  Ca1  1  0.17838597  0.08936788  0.50651385  1
  Ca2+  Ca2  1  0.17717905  0.09190460  0.83647603  1
  Ca2+  Ca3  1  0.16135113  0.57985883  0.16869057  1
  Ca2+  Ca4  1  0.17084679  0.58811298  0.50572570  1
  Ca2+  Ca5  1  0.16618290  0.58342836  0.83648137  1
  Ca2+  Ca6  1  0.66544798  0.07300679  0.17559147  1
  Ca2+  Ca7  1  0.66039711  0.07614966  0.50489734  1
  Ca2+  Ca8  1  0.66192113  0.07456025  0.83495863  1
  Ca2+  Ca9  1  0.66834734  0.58096560  0.17435671  1
  Ca2+  Ca10  1  0.66852019  0.57890993  0.50493652  1
  Ca2+  Ca11  1  0.66847328  0.56806331  0.83790806  1
  Ca2+  Ca12  1  0.08220434  0.33449287  0.16049489  1
  Ca2+  Ca13  1  0.07937086  0.32995972  0.50315994  1
  Ca2+  Ca14  1  0.07919156  0.33209243  0.82681093  1
  Ca2+  Ca15  1  0.08498745  0.82002173  0.15996723  1
  Ca2+  Ca16  1  0.07964499  0.82429239  0.49704493  1
  Ca2+  Ca17  1  0.07846938  0.82345172  0.82272200  1
  Ca2+  Ca18  1  0.57235198  0.32978740  0.16183377  1
  Ca2+  Ca19  1  0.58127961  0.32232918  0.49351423  1
  Ca2+  Ca20  1  0.58314426  0.32895493  0.82621269  1
  Ca2+  Ca21  1  0.58669853  0.83396340  0.16419092  1
  Ca2+  Ca22  1  0.58837425  0.83112225  0.49476427  1
  Ca2+  Ca23  1  0.58061641  0.84095137  0.83219303  1
  Ca2+  Ca24  1  0.32921492  0.40754845  0.16856000  1
  Ca2+  Ca25  1  0.33687471  0.42244259  0.50541364  1
  Ca2+  Ca26  1  0.32905950  0.42284205  0.84049824  1
  Ca2+  Ca27  1  0.34140628  0.92699269  0.16798228  1
  Ca2+  Ca28  1  0.33626710  0.92977880  0.50506907  1
  Ca2+  Ca29  1  0.33737045  0.92930422  0.83904763  1
  Ca2+  Ca30  1  0.82465385  0.42200359  0.17104570  1
  Ca2+  Ca31  1  0.83035774  0.42078531  0.50609199  1
  Ca2+  Ca32  1  0.82212811  0.40568128  0.83394428  1
  Ca2+  Ca33  1  0.82243301  0.92070981  0.17616266  1
  Ca2+  Ca34  1  0.82309448  0.91689067  0.50439429  1
  Ca2+  Ca35  1  0.82424655  0.90956672  0.83445842  1
  Ca2+  Ca36  1  0.41657493  0.17030044  0.16513505  1
  Ca2+  Ca37  1  0.42472185  0.16565359  0.49392687  1
  Ca2+  Ca38  1  0.41715362  0.17008666  0.82912910  1
  Ca2+  Ca39  1  0.42567997  0.67563305  0.16100359  1
  Ca2+  Ca40  1  0.42283709  0.66645159  0.49358470  1
  Ca2+  Ca41  1  0.41257448  0.67395052  0.82935817  1
  Ca2+  Ca42  1  0.91481557  0.16289819  0.16615887  1
  Ca2+  Ca43  1  0.91427565  0.17018157  0.49779033  1
  Ca2+  Ca44  1  0.92538382  0.17275773  0.81955667  1
  Ca2+  Ca45  1  0.92340602  0.66052260  0.16531671  1
  Ca2+  Ca46  1  0.92170082  0.66842029  0.49467702  1
  Ca2+  Ca47  1  0.92762582  0.66910103  0.82527553  1
  Al0+  Al48  1  0.00152001  -0.00124613  -0.00142949  1
  Al0+  Al49  1  -0.00082189  -0.00055708  0.33503319  1
  Al0+  Al50  1  0.00087615  -0.00145081  0.65769042  1
  Al0+  Al51  1  0.00082058  0.49882677  -0.00203250  1
  Al0+  Al52  1  -0.00073775  0.49884788  0.33418951  1
  Al0+  Al53  1  0.00095422  0.50030572  0.65920501  1
  Al0+  Al54  1  0.50181518  0.00001969  0.00498839  1
  Al0+  Al55  1  0.49901105  0.00055314  0.33817017  1
  Al0+  Al56  1  0.49918126  0.00109048  0.67174833  1
  Al0+  Al57  1  0.49923969  0.49976011  0.00052655  1
  Al0+  Al58  1  0.49752948  0.50064255  0.32419225  1
  Al0+  Al59  1  0.49950184  0.50191815  0.67713133  1
  Al0+  Al60  1  0.25122339  0.25205091  0.00435274  1
  Al0+  Al61  1  0.24751282  0.25035354  0.33624561  1
  Al0+  Al62  1  0.25006265  0.25334659  0.66752614  1
  Al0+  Al63  1  0.25179774  0.75075019  -0.00861230  1
  Al0+  Al64  1  0.24883458  0.74855615  0.32748190  1
  Al0+  Al65  1  0.25139379  0.75264670  0.66605887  1
  Al0+  Al66  1  0.74943822  0.24986055  0.00560666  1
  Al0+  Al67  1  0.74949875  0.24957396  0.33003851  1
  Al0+  Al68  1  0.74913959  0.24841617  0.66232449  1
  Al0+  Al69  1  0.75117827  0.74867303  0.00363687  1
  Al0+  Al70  1  0.75140729  0.74874288  0.33628437  1
  Al0+  Al71  1  0.74945553  0.74915817  0.67023912  1
  Al0+  Al72  1  0.07432323  0.17875672  0.65149858  1
  Al0+  Al73  1  0.56823313  0.17846153  0.65467021  1
  Al0+  Al74  1  0.42697690  0.32091095  0.31895933  1
  Al0+  Al75  1  0.31865931  0.07079328  0.34886042  1
  Al0+  Al76  1  0.42798694  0.32098726  0.98407108  1
  Al0+  Al77  1  0.92704775  0.32029826  0.65067452  1
  Al0+  Al78  1  0.68113553  0.92911169  0.01475658  1
  Al0+  Al79  1  0.32129424  0.57351816  0.67997251  1
  Al0+  Al80  1  0.31982580  0.07095238  0.01492843  1
  Al0+  Al81  1  0.92521761  0.82054530  0.64974012  1
  Al0+  Al82  1  0.31948414  0.07237321  0.68181612  1
  Al0+  Al83  1  0.68000251  0.42708968  0.67841473  1
  Al0+  Al84  1  0.57163049  0.17700374  0.31702219  1
  Al0+  Al85  1  0.82116565  0.56873004  0.34759950  1
  Al0+  Al86  1  0.18001274  0.43185936  0.01341767  1
  Al0+  Al87  1  0.57284955  0.67942780  0.32113973  1
  Al0+  Al88  1  0.67655014  0.42709926  0.01610458  1
  Al0+  Al89  1  0.07010183  0.67809163  0.98431765  1
  Al0+  Al90  1  0.07302354  0.67984038  0.64922254  1
  Al0+  Al91  1  0.43280027  0.82205115  0.98560780  1
  Al0+  Al92  1  0.68018101  0.92852874  0.68279008  1
  Al0+  Al93  1  0.07060254  0.67833023  0.31708686  1
  Al0+  Al94  1  0.67893727  0.92969814  0.35048243  1
  Al0+  Al95  1  0.82270670  0.07349851  0.34988651  1
  Si0+  Si96  1  0.82388686  0.07160443  0.68228758  1
  Si0+  Si97  1  0.42891859  0.32524050  0.65292686  1
  Si0+  Si98  1  0.57238504  0.17931410  0.98352244  1
  Si0+  Si99  1  0.92842738  0.31939584  0.98690083  1
  Si0+  Si100  1  0.92928771  0.32115831  0.31634951  1
  Si0+  Si101  1  0.82542716  0.07218084  0.01438267  1
  Si0+  Si102  1  0.17733903  0.92851684  0.68243727  1
  Si0+  Si103  1  0.07049463  0.17850790  0.31748901  1
  Si0+  Si104  1  0.17721628  0.92649110  0.01488364  1
  Si0+  Si105  1  0.17744834  0.43036743  0.68272581  1
  Si0+  Si106  1  0.42776597  0.82176526  0.31837911  1
  Si0+  Si107  1  0.56937426  0.67762786  0.65504278  1
  Si0+  Si108  1  0.92840758  0.82172450  0.31500047  1
  Si0+  Si109  1  0.07173120  0.17882782  0.98803049  1
  Si0+  Si110  1  0.67472468  0.42941184  0.34856175  1
  Si0+  Si111  1  0.17802831  0.42935670  0.34997417  1
  Si0+  Si112  1  0.32038513  0.57164698  0.34503316  1
  Si0+  Si113  1  0.43096483  0.82227796  0.65188656  1
  Si0+  Si114  1  0.32189332  0.57564970  0.01815541  1
  Si0+  Si115  1  0.17790562  0.92501030  0.34875201  1
  Si0+  Si116  1  0.92752790  0.82277785  0.98404856  1
  Si0+  Si117  1  0.82143801  0.56938726  0.01544732  1
  Si0+  Si118  1  0.82319048  0.57078150  0.68346139  1
  Si0+  Si119  1  0.57479285  0.67711388  0.98196508  1
  O2-  O120  1  0.24481036  -0.00481842  0.06065122  1
  O2-  O121  1  0.24469176  -0.00553272  0.39445960  1
  O2-  O122  1  0.24024458  0.00181916  0.72813280  1
  O2-  O123  1  0.25393513  0.50618155  0.06283007  1
  O2-  O124  1  0.25080027  0.50002120  0.38905855  1
  O2-  O125  1  0.24442554  0.50088107  0.72617064  1
  O2-  O126  1  0.75856214  0.00209796  0.05834453  1
  O2-  O127  1  0.74848998  0.00438817  0.40025812  1
  O2-  O128  1  0.75782901  0.00143251  0.72860273  1
  O2-  O129  1  0.74903742  0.50503247  0.06061608  1
  O2-  O130  1  0.74348519  0.49716507  0.39418772  1
  O2-  O131  1  0.75813543  0.49827873  0.72715931  1
  O2-  O132  1  -0.00394803  0.24561375  0.27406519  1
  O2-  O133  1  -0.00168912  0.24672938  0.60114097  1
  O2-  O134  1  -0.00361730  0.24500983  0.94587121  1
  O2-  O135  1  -0.00219979  0.75417428  0.26938883  1
  O2-  O136  1  -0.00183186  0.74909242  0.59991043  1
  O2-  O137  1  -0.00253733  0.75556355  0.93970472  1
  O2-  O138  1  0.49929588  0.24954323  0.26819676  1
  O2-  O139  1  0.49546993  0.25549582  0.60836415  1
  O2-  O140  1  0.50575745  0.24947566  0.93795719  1
  O2-  O141  1  0.50014827  0.75637485  0.27493975  1
  O2-  O142  1  0.50077252  0.74990377  0.61058073  1
  O2-  O143  1  0.50654420  0.74635011  0.93753286  1
  O2-  O144  1  0.07048244  0.17978079  0.09341446  1
  O2-  O145  1  0.07313889  0.18233988  0.42201927  1
  O2-  O146  1  0.07418020  0.18290760  0.76602247  1
  O2-  O147  1  0.06718313  0.67724202  0.09766330  1
  O2-  O148  1  0.07221035  0.67950838  0.42946130  1
  O2-  O149  1  0.07173589  0.68054078  0.76309777  1
  O2-  O150  1  0.57201230  0.17988741  0.08882988  1
  O2-  O151  1  0.56919568  0.17797231  0.43087200  1
  O2-  O152  1  0.56694688  0.17834556  0.76810746  1
  O2-  O153  1  0.57449563  0.67841752  0.08775234  1
  O2-  O154  1  0.56867459  0.67629588  0.43471277  1
  O2-  O155  1  0.56732585  0.67727129  0.76003485  1
  O2-  O156  1  0.17603395  0.42889017  0.24466534  1
  O2-  O157  1  0.17944325  0.42872562  0.57690024  1
  O2-  O158  1  0.17852971  0.43200729  0.90062393  1
  O2-  O159  1  0.17958135  0.92559937  0.24280861  1
  O2-  O160  1  0.18343071  0.92540887  0.57689999  1
  O2-  O161  1  0.17522002  0.92949818  0.90956550  1
  O2-  O162  1  0.67728211  0.43192091  0.24274841  1
  O2-  O163  1  0.67732168  0.43157289  0.56549106  1
  O2-  O164  1  0.68083134  0.42476671  0.90278240  1
  O2-  O165  1  0.68109763  0.92901473  0.23654687  1
  O2-  O166  1  0.67769011  0.92805670  0.57047322  1
  O2-  O167  1  0.68125762  0.93080814  0.90150667  1
  O2-  O168  1  0.42625896  0.31654724  0.09683209  1
  O2-  O169  1  0.42820397  0.32362961  0.43282150  1
  O2-  O170  1  0.42953360  0.32451702  0.75861089  1
  O2-  O171  1  0.43390755  0.82098407  0.09890616  1
  O2-  O172  1  0.42450293  0.81823682  0.42416897  1
  O2-  O173  1  0.43180621  0.82273132  0.75707596  1
  O2-  O174  1  0.93000456  0.32050394  0.09222182  1
  O2-  O175  1  0.93206269  0.32364609  0.42094841  1
  O2-  O176  1  0.92811444  0.31852475  0.76518353  1
  O2-  O177  1  0.92873492  0.82349358  0.08947325  1
  O2-  O178  1  0.92977912  0.81983292  0.42021449  1
  O2-  O179  1  0.92609139  0.81693489  0.76418429  1
  O2-  O180  1  0.31703557  0.07066563  0.23552703  1
  O2-  O181  1  0.32088458  0.06963456  0.56882345  1
  O2-  O182  1  0.31819045  0.07146978  0.90178717  1
  O2-  O183  1  0.31832504  0.57332434  0.24026835  1
  O2-  O184  1  0.32411605  0.57107703  0.56619266  1
  O2-  O185  1  0.31960572  0.57507190  0.91244423  1
  O2-  O186  1  0.82510133  0.06859517  0.23562282  1
  O2-  O187  1  0.82031199  0.07224719  0.57721630  1
  O2-  O188  1  0.82741436  0.07432802  0.90908413  1
  O2-  O189  1  0.82275645  0.56456042  0.23410356  1
  O2-  O190  1  0.81998546  0.57145225  0.57790102  1
  O2-  O191  1  0.82143620  0.56801271  0.90991101  1
  O2-  O192  1  0.04755741  0.08480935  0.27086320  1
  O2-  O193  1  0.05530632  0.07865402  0.59935270  1
  O2-  O194  1  0.05047730  0.08525459  0.94032304  1
  O2-  O195  1  0.03709541  0.58117325  0.26506198  1
  O2-  O196  1  0.04969871  0.58051258  0.59691024  1
  O2-  O197  1  0.03671418  0.58227122  0.92996474  1
  O2-  O198  1  0.54091374  0.07806723  0.26627681  1
  O2-  O199  1  0.53365168  0.08297584  0.60101987  1
  O2-  O200  1  0.54466393  0.08573779  0.93941121  1
  O2-  O201  1  0.53935825  0.58618317  0.26224921  1
  O2-  O202  1  0.53886695  0.58665655  0.60748431  1
  O2-  O203  1  0.54882032  0.58314035  0.93719311  1
  O2-  O204  1  0.15998501  0.21174615  0.26874677  1
  O2-  O205  1  0.17037751  0.21431430  0.59689847  1
  O2-  O206  1  0.16128576  0.21222436  0.94105170  1
  O2-  O207  1  0.16700785  0.70738480  0.26066193  1
  O2-  O208  1  0.17134195  0.71197349  0.59711848  1
  O2-  O209  1  0.16722207  0.70605116  0.93071561  1
  O2-  O210  1  0.67087652  0.20267930  0.26365884  1
  O2-  O211  1  0.66476053  0.20548298  0.60010387  1
  O2-  O212  1  0.66763896  0.20375231  0.93923815  1
  O2-  O213  1  0.67025554  0.70685559  0.26694100  1
  O2-  O214  1  0.66218428  0.70275549  0.60923522  1
  O2-  O215  1  0.66971524  0.70083509  0.93766316  1
  O2-  O216  1  0.08261612  0.46124101  0.06827822  1
  O2-  O217  1  0.08755902  0.45898081  0.39800410  1
  O2-  O218  1  0.08247395  0.45407765  0.72732086  1
  O2-  O219  1  0.08305836  0.94961577  0.06229652  1
  O2-  O220  1  0.08354113  0.94818889  0.39339968  1
  O2-  O221  1  0.08038153  0.94642107  0.72462070  1
  O2-  O222  1  0.57913012  0.45625038  0.06861719  1
  O2-  O223  1  0.58042367  0.45610253  0.39179290  1
  O2-  O224  1  0.58677217  0.46151183  0.73717849  1
  O2-  O225  1  0.58641031  0.96116882  0.07060760  1
  O2-  O226  1  0.57918696  0.95320258  0.40276144  1
  O2-  O227  1  0.58481706  0.96329104  0.73739284  1
  O2-  O228  1  0.20980319  0.33611339  0.07024430  1
  O2-  O229  1  0.20440686  0.33821021  0.39874975  1
  O2-  O230  1  0.20391413  0.33808933  0.73093404  1
  O2-  O231  1  0.20447745  0.83236032  0.05878365  1
  O2-  O232  1  0.20485267  0.83117193  0.39397379  1
  O2-  O233  1  0.20841476  0.83759242  0.73110690  1
  O2-  O234  1  0.71059172  0.33261546  0.07238404  1
  O2-  O235  1  0.70071538  0.33476586  0.39092698  1
  O2-  O236  1  0.70971857  0.32993443  0.73303686  1
  O2-  O237  1  0.70892562  0.83105152  0.06823089  1
  O2-  O238  1  0.70936615  0.83116263  0.40202694  1
  O2-  O239  1  0.70777977  0.83095738  0.73804368  1
  O2-  O240  1  0.45136757  0.41874291  0.26221679  1
  O2-  O241  1  0.45611491  0.41950044  0.60903026  1
  O2-  O242  1  0.45339847  0.42063829  0.93336173  1
  O2-  O243  1  0.45094821  0.91629599  0.27455182  1
  O2-  O244  1  0.46075558  0.91309167  0.60472529  1
  O2-  O245  1  0.46552088  0.91873616  0.93225902  1
  O2-  O246  1  0.96350795  0.41005273  0.26710144  1
  O2-  O247  1  0.95641297  0.41763700  0.59632398  1
  O2-  O248  1  0.95908717  0.40888066  0.93764616  1
  O2-  O249  1  0.95257186  0.91632106  0.26953602  1
  O2-  O250  1  0.95029078  0.91886900  0.59586872  1
  O2-  O251  1  0.95065032  0.91700478  0.93685377  1
  O2-  O252  1  0.32719876  0.29130692  0.26800244  1
  O2-  O253  1  0.33425052  0.30387100  0.60797761  1
  O2-  O254  1  0.33104487  0.28855333  0.93117807  1
  O2-  O255  1  0.33660532  0.79299313  0.26872173  1
  O2-  O256  1  0.33936260  0.79624475  0.60389366  1
  O2-  O257  1  0.33635921  0.79421345  0.92912390  1
  O2-  O258  1  0.83634642  0.29879010  0.26829992  1
  O2-  O259  1  0.82956095  0.29375143  0.59569002  1
  O2-  O260  1  0.83539867  0.29334485  0.94086405  1
  O2-  O261  1  0.83564394  0.79351932  0.26920634  1
  O2-  O262  1  0.82655622  0.78994227  0.59849575  1
  O2-  O263  1  0.83417994  0.79458548  0.93872651  1
  O2-  O264  1  0.41559690  0.03880861  0.06883457  1
  O2-  O265  1  0.41427787  0.04026974  0.40368171  1
  O2-  O266  1  0.41298719  0.03627928  0.73799910  1
  O2-  O267  1  0.41677732  0.55246718  0.06190770  1
  O2-  O268  1  0.41283342  0.54454164  0.39183840  1
  O2-  O269  1  0.41475032  0.54328167  0.74028021  1
  O2-  O270  1  0.92006374  0.04867311  0.06117731  1
  O2-  O271  1  0.92228964  0.04658289  0.40197018  1
  O2-  O272  1  0.92037553  0.04965760  0.72490236  1
  O2-  O273  1  0.91316073  0.53795342  0.06193593  1
  O2-  O274  1  0.91612776  0.53401704  0.40259676  1
  O2-  O275  1  0.91917192  0.54818818  0.72584425  1
  O2-  O276  1  0.28577797  0.16553860  0.07019176  1
  O2-  O277  1  0.28450788  0.16644680  0.40265546  1
  O2-  O278  1  0.29146779  0.17093692  0.73412723  1
  O2-  O279  1  0.29603955  0.67003867  0.06234483  1
  O2-  O280  1  0.29180802  0.66322510  0.39312787  1
  O2-  O281  1  0.29271080  0.67112624  0.73356736  1
  O2-  O282  1  0.79969532  0.16466456  0.06295670  1
  O2-  O283  1  0.80026982  0.17540701  0.39808696  1
  O2-  O284  1  0.79731779  0.16501683  0.72843788  1
  O2-  O285  1  0.80127032  0.66387940  0.06241972  1
  O2-  O286  1  0.79485173  0.66575703  0.40126394  1
  O2-  O287  1  0.79387359  0.66178609  0.73236728  1
