# generated using pymatgen
data_Ca2Al2SiO7
_symmetry_space_group_name_H-M   'P 1'
_cell_length_a   15.46308934
_cell_length_b   15.46076997
_cell_length_c   15.28548501
_cell_angle_alpha   90.00069354
_cell_angle_beta   90.00751303
_cell_angle_gamma   89.99144397
_symmetry_Int_Tables_number   1
_chemical_formula_structural   Ca2Al2SiO7
_chemical_formula_sum   'Ca48 Al48 Si24 O168'
_cell_volume   3654.32020016
_cell_formula_units_Z   24
loop_
 _symmetry_equiv_pos_site_id
 _symmetry_equiv_pos_as_xyz
  1  'x, y, z'
loop_
 _atom_type_symbol
 _atom_type_oxidation_number
  Ca2+  2.0
  Al0+  0.0
  Si0+  0.0
  O2-  -2.0
loop_
 _atom_site_type_symbol
 _atom_site_label
 _atom_site_symmetry_multiplicity
 _atom_site_fract_x
 _atom_site_fract_y
 _atom_site_fract_z
 _atom_site_occupancy
  Ca2+  Ca0  1  0.16987469  0.08147754  0.17007306  1
  Ca2+  Ca1  1  0.17460924  0.08816517  0.50327760  1
  Ca2+  Ca2  1  0.16457916  0.08044142  0.84147800  1
  Ca2+  Ca3  1  0.18152099  0.58526211  0.17280266  1
  Ca2+  Ca4  1  0.17215795  0.58604230  0.50260075  1
  Ca2+  Ca5  1  0.17351362  0.58547112  0.83831961  1
  Ca2+  Ca6  1  0.67013171  0.07792734  0.18281617  1
  Ca2+  Ca7  1  0.65925916  0.07649479  0.50216931  1
  Ca2+  Ca8  1  0.65896195  0.07719836  0.83048043  1
  Ca2+  Ca9  1  0.66430757  0.57460912  0.16700710  1
  Ca2+  Ca10  1  0.66049014  0.57160157  0.50567230  1
  Ca2+  Ca11  1  0.65986808  0.57604375  0.84019663  1
  Ca2+  Ca12  1  0.07603815  0.32789436  0.16375306  1
  Ca2+  Ca13  1  0.07512193  0.32870415  0.49426481  1
  Ca2+  Ca14  1  0.08504546  0.32124869  0.82692155  1
  Ca2+  Ca15  1  0.07753852  0.83904252  0.16515540  1
  Ca2+  Ca16  1  0.07697600  0.82765413  0.49584118  1
  Ca2+  Ca17  1  0.08310987  0.82890023  0.82781562  1
  Ca2+  Ca18  1  0.58652016  0.33448328  0.16929170  1
  Ca2+  Ca19  1  0.58332109  0.32739632  0.49284237  1
  Ca2+  Ca20  1  0.58185177  0.33401342  0.82456900  1
  Ca2+  Ca21  1  0.57777394  0.83149070  0.16375531  1
  Ca2+  Ca22  1  0.58007532  0.83451128  0.49483608  1
  Ca2+  Ca23  1  0.58045732  0.82049210  0.82262882  1
  Ca2+  Ca24  1  0.33963133  0.42724251  0.17412817  1
  Ca2+  Ca25  1  0.34493541  0.41994895  0.50078561  1
  Ca2+  Ca26  1  0.33694189  0.42202471  0.83799360  1
  Ca2+  Ca27  1  0.32711814  0.91857178  0.17705812  1
  Ca2+  Ca28  1  0.34606704  0.92219030  0.50102904  1
  Ca2+  Ca29  1  0.32782053  0.91392832  0.83589022  1
  Ca2+  Ca30  1  0.82409705  0.41749237  0.17368165  1
  Ca2+  Ca31  1  0.82191716  0.40786989  0.50192674  1
  Ca2+  Ca32  1  0.81998288  0.42490721  0.84022418  1
  Ca2+  Ca33  1  0.82712579  0.92205330  0.17914748  1
  Ca2+  Ca34  1  0.82334672  0.91737072  0.49829374  1
  Ca2+  Ca35  1  0.82517788  0.91447234  0.83288932  1
  Ca2+  Ca36  1  0.41970225  0.16716160  0.17148463  1
  Ca2+  Ca37  1  0.42652055  0.17594695  0.49222655  1
  Ca2+  Ca38  1  0.42325563  0.17726228  0.82142664  1
  Ca2+  Ca39  1  0.41924563  0.66494410  0.16428574  1
  Ca2+  Ca40  1  0.42099860  0.67670830  0.49656091  1
  Ca2+  Ca41  1  0.42517393  0.66785636  0.82836423  1
  Ca2+  Ca42  1  0.91219244  0.17212971  0.16579543  1
  Ca2+  Ca43  1  0.92095229  0.16432984  0.49210602  1
  Ca2+  Ca44  1  0.92842946  0.16491765  0.83010550  1
  Ca2+  Ca45  1  0.90856585  0.67358637  0.16368874  1
  Ca2+  Ca46  1  0.92334774  0.66811712  0.49399606  1
  Ca2+  Ca47  1  0.92077904  0.66322411  0.82878888  1
  Al0+  Al48  1  -0.00102444  -0.00042497  -0.00066529  1
  Al0+  Al49  1  0.00046223  -0.00361118  0.33336633  1
  Al0+  Al50  1  0.00103132  0.00011206  0.66308448  1
  Al0+  Al51  1  -0.00166817  0.50152887  0.00226473  1
  Al0+  Al52  1  0.00255989  0.49811297  0.32728488  1
  Al0+  Al53  1  0.00222365  0.49943099  0.66409749  1
  Al0+  Al54  1  0.49741431  0.00132944  -0.00163800  1
  Al0+  Al55  1  0.49755167  -0.00101427  0.33134304  1
  Al0+  Al56  1  0.49969810  0.00154874  0.67002136  1
  Al0+  Al57  1  0.49952006  0.50030681  0.00428245  1
  Al0+  Al58  1  0.50027063  0.50039182  0.33934193  1
  Al0+  Al59  1  0.49941689  0.50300094  0.66637834  1
  Al0+  Al60  1  0.24971783  0.24975916  -0.00361934  1
  Al0+  Al61  1  0.25045063  0.25040032  0.33302584  1
  Al0+  Al62  1  0.24966551  0.25117346  0.66066769  1
  Al0+  Al63  1  0.24729485  0.75212002  0.00914608  1
  Al0+  Al64  1  0.25147496  0.74863115  0.33499017  1
  Al0+  Al65  1  0.24883363  0.75097487  0.66002008  1
  Al0+  Al66  1  0.74937369  0.24975044  -0.00084797  1
  Al0+  Al67  1  0.75303346  0.24925513  0.33250293  1
  Al0+  Al68  1  0.75141815  0.24978296  0.67239266  1
  Al0+  Al69  1  0.74814526  0.75011414  -0.00231553  1
  Al0+  Al70  1  0.75201857  0.74846180  0.33254617  1
  Al0+  Al71  1  0.75128121  0.75051711  0.66780805  1
  Al0+  Al72  1  0.42942145  0.32291727  0.31626360  1
  Al0+  Al73  1  0.07090681  0.17742707  0.65161013  1
  Al0+  Al74  1  0.67751412  0.92744232  0.34682842  1
  Al0+  Al75  1  0.57347534  0.17972414  0.65288865  1
  Al0+  Al76  1  0.82197180  0.57363749  0.01522919  1
  Al0+  Al77  1  0.42964449  0.82041334  0.31788362  1
  Al0+  Al78  1  0.42918390  0.32317189  0.65252608  1
  Al0+  Al79  1  0.82266304  0.07101905  0.34765729  1
  Al0+  Al80  1  0.07052276  0.67819981  0.65400605  1
  Al0+  Al81  1  0.31947746  0.07149564  0.34779252  1
  Al0+  Al82  1  0.06920112  0.18030158  0.98737452  1
  Al0+  Al83  1  0.67888064  0.42791570  0.01662399  1
  Al0+  Al84  1  0.57118642  0.17901359  0.31794611  1
  Al0+  Al85  1  0.92904506  0.32028852  0.31904845  1
  Al0+  Al86  1  0.42893873  0.82103913  0.65323922  1
  Al0+  Al87  1  0.67804180  0.92892833  0.68195180  1
  Al0+  Al88  1  0.17812733  0.93063032  0.01355600  1
  Al0+  Al89  1  0.68155003  0.43015446  0.34848559  1
  Al0+  Al90  1  0.92952558  0.81886072  0.31904948  1
  Al0+  Al91  1  0.67850133  0.43023640  0.68094169  1
  Al0+  Al92  1  0.31898170  0.56998479  0.01268422  1
  Al0+  Al93  1  0.32114039  0.57075808  0.35097016  1
  Al0+  Al94  1  0.57379916  0.67881389  0.65118309  1
  Al0+  Al95  1  0.56859114  0.68037906  0.98730663  1
  Si0+  Si96  1  0.31830653  0.57276580  0.68182586  1
  Si0+  Si97  1  0.07245763  0.67948643  0.98683795  1
  Si0+  Si98  1  0.17689823  0.42519549  0.01542310  1
  Si0+  Si99  1  0.92609959  0.32373487  0.98136986  1
  Si0+  Si100  1  0.17843900  0.92959707  0.68060937  1
  Si0+  Si101  1  0.07282138  0.17634252  0.31633130  1
  Si0+  Si102  1  0.82519730  0.57192104  0.68117699  1
  Si0+  Si103  1  0.43025411  0.32067387  0.98629245  1
  Si0+  Si104  1  0.31952726  0.07292090  0.68252777  1
  Si0+  Si105  1  0.82008689  0.06880234  0.01278532  1
  Si0+  Si106  1  0.17724967  0.42810850  0.35040737  1
  Si0+  Si107  1  0.92983800  0.32121432  0.65227555  1
  Si0+  Si108  1  0.92863013  0.82067821  0.98368143  1
  Si0+  Si109  1  0.57245532  0.17697590  0.98435921  1
  Si0+  Si110  1  0.57286158  0.67712372  0.31663156  1
  Si0+  Si111  1  0.42480046  0.82351334  0.98455977  1
  Si0+  Si112  1  0.17787959  0.42859307  0.68172542  1
  Si0+  Si113  1  0.32197529  0.07422987  0.01596594  1
  Si0+  Si114  1  0.67696517  0.92960733  0.01318374  1
  Si0+  Si115  1  0.82512753  0.07111050  0.68532881  1
  Si0+  Si116  1  0.92768706  0.82272613  0.65011685  1
  Si0+  Si117  1  0.17818839  0.92712981  0.35287846  1
  Si0+  Si118  1  0.82543503  0.57151064  0.34999482  1
  Si0+  Si119  1  0.07288460  0.67747222  0.31375541  1
  O2-  O120  1  0.25462569  0.00367502  0.05902055  1
  O2-  O121  1  0.24584623  -0.00359865  0.39708683  1
  O2-  O122  1  0.24837086  0.00109760  0.72428675  1
  O2-  O123  1  0.24342925  0.49560282  0.05950659  1
  O2-  O124  1  0.24728254  0.49426094  0.39636152  1
  O2-  O125  1  0.24995701  0.49857312  0.72424583  1
  O2-  O126  1  0.74380543  0.00406516  0.05507915  1
  O2-  O127  1  0.74692292  0.00260565  0.39662668  1
  O2-  O128  1  0.75332709  0.00456281  0.72904596  1
  O2-  O129  1  0.75350083  0.49852963  0.06482582  1
  O2-  O130  1  0.75762460  0.50371973  0.39573459  1
  O2-  O131  1  0.75193142  0.50818470  0.72555373  1
  O2-  O132  1  0.00210089  0.24314491  0.27277980  1
  O2-  O133  1  -0.00556924  0.24975295  0.60630749  1
  O2-  O134  1  -0.00205111  0.25738972  0.93800054  1
  O2-  O135  1  0.00273001  0.74417742  0.26908080  1
  O2-  O136  1  -0.00716323  0.74957312  0.60809226  1
  O2-  O137  1  -0.00180746  0.74687399  0.94323956  1
  O2-  O138  1  0.50121298  0.25168701  0.26481746  1
  O2-  O139  1  0.50463908  0.25463899  0.60374848  1
  O2-  O140  1  0.50153101  0.24951197  0.94455095  1
  O2-  O141  1  0.50626118  0.74783038  0.27156323  1
  O2-  O142  1  0.50548750  0.75464849  0.60256924  1
  O2-  O143  1  0.49413659  0.75596415  0.94061472  1
  O2-  O144  1  0.06755229  0.18069951  0.09997043  1
  O2-  O145  1  0.07266824  0.17833170  0.42209880  1
  O2-  O146  1  0.07090254  0.17740758  0.76526794  1
  O2-  O147  1  0.07448898  0.68221966  0.09133717  1
  O2-  O148  1  0.07144795  0.67806526  0.41970634  1
  O2-  O149  1  0.07172896  0.68056997  0.76781115  1
  O2-  O150  1  0.57318182  0.17242760  0.08862414  1
  O2-  O151  1  0.57016296  0.17935201  0.43114565  1
  O2-  O152  1  0.56855484  0.18006997  0.76766943  1
  O2-  O153  1  0.56764014  0.68216369  0.10020807  1
  O2-  O154  1  0.57173438  0.67776197  0.42208072  1
  O2-  O155  1  0.56906323  0.67760015  0.76540412  1
  O2-  O156  1  0.17608424  0.43065023  0.24453467  1
  O2-  O157  1  0.17381757  0.42970219  0.57726110  1
  O2-  O158  1  0.17916005  0.42428986  0.90938444  1
  O2-  O159  1  0.17795086  0.92879335  0.24681873  1
  O2-  O160  1  0.17641106  0.93002137  0.57616922  1
  O2-  O161  1  0.17840638  0.92984702  0.89981380  1
  O2-  O162  1  0.68181536  0.43235929  0.23544558  1
  O2-  O163  1  0.68133060  0.42854428  0.56823835  1
  O2-  O164  1  0.67818235  0.42869131  0.90272062  1
  O2-  O165  1  0.68017007  0.92755516  0.23216107  1
  O2-  O166  1  0.67930847  0.92875426  0.56966082  1
  O2-  O167  1  0.67858749  0.92972562  0.90795117  1
  O2-  O168  1  0.42819005  0.31993275  0.09073688  1
  O2-  O169  1  0.43133812  0.32162753  0.42937097  1
  O2-  O170  1  0.42671051  0.32102374  0.76729545  1
  O2-  O171  1  0.42638057  0.82529861  0.08981326  1
  O2-  O172  1  0.42957029  0.81918749  0.43063736  1
  O2-  O173  1  0.42449036  0.81665080  0.76751769  1
  O2-  O174  1  0.92577881  0.32091099  0.08673907  1
  O2-  O175  1  0.93275868  0.32169947  0.43219733  1
  O2-  O176  1  0.93488976  0.32181858  0.75805396  1
  O2-  O177  1  0.92918281  0.82261477  0.08844297  1
  O2-  O178  1  0.93189879  0.81658549  0.43215688  1
  O2-  O179  1  0.93043426  0.82437981  0.75640483  1
  O2-  O180  1  0.31579668  0.06995186  0.23410635  1
  O2-  O181  1  0.31816263  0.07290419  0.57785385  1
  O2-  O182  1  0.32147078  0.07503967  0.91012463  1
  O2-  O183  1  0.31896119  0.57072750  0.23737029  1
  O2-  O184  1  0.31525655  0.57352066  0.57721581  1
  O2-  O185  1  0.31741312  0.56952643  0.89907042  1
  O2-  O186  1  0.82268627  0.06805528  0.23300221  1
  O2-  O187  1  0.82999146  0.06923651  0.58062689  1
  O2-  O188  1  0.82211950  0.06585984  0.90757156  1
  O2-  O189  1  0.82433653  0.57087685  0.24444127  1
  O2-  O190  1  0.82973647  0.56894039  0.57601541  1
  O2-  O191  1  0.82357924  0.57257386  0.90137021  1
  O2-  O192  1  0.05036833  0.08113675  0.27290276  1
  O2-  O193  1  0.04331910  0.08091773  0.59687019  1
  O2-  O194  1  0.03514534  0.08437745  0.93238977  1
  O2-  O195  1  0.05203858  0.58322040  0.26772336  1
  O2-  O196  1  0.04394582  0.58145903  0.59826759  1
  O2-  O197  1  0.04982348  0.58564603  0.93985107  1
  O2-  O198  1  0.53992119  0.08147256  0.26409543  1
  O2-  O199  1  0.54196332  0.08186972  0.60304796  1
  O2-  O200  1  0.54256695  0.08587905  0.93477699  1
  O2-  O201  1  0.54183828  0.58510303  0.27130307  1
  O2-  O202  1  0.54053606  0.58306887  0.59801361  1
  O2-  O203  1  0.53577287  0.58329260  0.93466034  1
  O2-  O204  1  0.16485555  0.20469562  0.26916001  1
  O2-  O205  1  0.16534398  0.21054607  0.59687998  1
  O2-  O206  1  0.16669784  0.20766217  0.93141582  1
  O2-  O207  1  0.16575635  0.70674860  0.26912860  1
  O2-  O208  1  0.16311724  0.71274273  0.59611711  1
  O2-  O209  1  0.16278824  0.71202741  0.93853990  1
  O2-  O210  1  0.67089559  0.20494132  0.26651169  1
  O2-  O211  1  0.67528424  0.20091910  0.60545989  1
  O2-  O212  1  0.66460649  0.20244896  0.93617724  1
  O2-  O213  1  0.66788753  0.69824595  0.27184636  1
  O2-  O214  1  0.67506874  0.70003852  0.60222405  1
  O2-  O215  1  0.66479618  0.71089666  0.93162577  1
  O2-  O216  1  0.08200462  0.44777708  0.05953937  1
  O2-  O217  1  0.08442232  0.45657722  0.39736495  1
  O2-  O218  1  0.08738864  0.45751121  0.73202297  1
  O2-  O219  1  0.08192015  0.96326460  0.06778640  1
  O2-  O220  1  0.08421842  0.95058904  0.39833941  1
  O2-  O221  1  0.08634526  0.95624279  0.72909997  1
  O2-  O222  1  0.58173333  0.45838787  0.06975310  1
  O2-  O223  1  0.58594021  0.46107939  0.40308668  1
  O2-  O224  1  0.58113708  0.46129483  0.73493680  1
  O2-  O225  1  0.58278702  0.95343485  0.05782331  1
  O2-  O226  1  0.57832194  0.95335225  0.39753517  1
  O2-  O227  1  0.58221919  0.96022209  0.73923414  1
  O2-  O228  1  0.20368674  0.33218247  0.06175139  1
  O2-  O229  1  0.19847716  0.33315361  0.39469479  1
  O2-  O230  1  0.20605689  0.33610130  0.72870249  1
  O2-  O231  1  0.20460964  0.83575343  0.07238849  1
  O2-  O232  1  0.20312917  0.83298248  0.39692510  1
  O2-  O233  1  0.20774072  0.83743919  0.72784210  1
  O2-  O234  1  0.70606659  0.32776884  0.06717628  1
  O2-  O235  1  0.71414461  0.33337951  0.39999106  1
  O2-  O236  1  0.70979421  0.33413209  0.73737449  1
  O2-  O237  1  0.70766103  0.83920493  0.05980829  1
  O2-  O238  1  0.71025786  0.82972946  0.39898690  1
  O2-  O239  1  0.71131895  0.83253955  0.73765306  1
  O2-  O240  1  0.45872519  0.42267610  0.26649642  1
  O2-  O241  1  0.45155866  0.42331779  0.60344872  1
  O2-  O242  1  0.45782101  0.41251021  0.93898413  1
  O2-  O243  1  0.45563555  0.91695516  0.26188901  1
  O2-  O244  1  0.45294081  0.92188761  0.60544272  1
  O2-  O245  1  0.44732679  0.91818660  0.93798864  1
  O2-  O246  1  0.96239794  0.41508913  0.26161909  1
  O2-  O247  1  0.95878713  0.41255967  0.60418745  1
  O2-  O248  1  0.94885443  0.41916997  0.93773368  1
  O2-  O249  1  0.96212700  0.91470474  0.26324464  1
  O2-  O250  1  0.95882287  0.91325182  0.60241274  1
  O2-  O251  1  0.95982545  0.91057786  0.93455791  1
  O2-  O252  1  0.32940171  0.29549504  0.26507406  1
  O2-  O253  1  0.33189027  0.29439036  0.59855473  1
  O2-  O254  1  0.33831539  0.29413344  0.93719054  1
  O2-  O255  1  0.33226258  0.78793373  0.26544892  1
  O2-  O256  1  0.33263239  0.79125856  0.59767643  1
  O2-  O257  1  0.32987399  0.79692608  0.94182044  1
  O2-  O258  1  0.83459110  0.29010623  0.26146456  1
  O2-  O259  1  0.83486606  0.29832668  0.60981436  1
  O2-  O260  1  0.83404342  0.29408838  0.93389098  1
  O2-  O261  1  0.83342833  0.78902296  0.26267590  1
  O2-  O262  1  0.83336573  0.80184632  0.60553305  1
  O2-  O263  1  0.83691103  0.79431848  0.93515579  1
  O2-  O264  1  0.41630395  0.05050993  0.06151081  1
  O2-  O265  1  0.41546020  0.03981413  0.40099483  1
  O2-  O266  1  0.41026712  0.04640866  0.73274553  1
  O2-  O267  1  0.41346841  0.53806399  0.06860498  1
  O2-  O268  1  0.41697217  0.54201995  0.40588530  1
  O2-  O269  1  0.41052654  0.54758412  0.72955079  1
  O2-  O270  1  0.90925198  0.03652654  0.06160540  1
  O2-  O271  1  0.92020005  0.03832320  0.40043384  1
  O2-  O272  1  0.91781205  0.04005917  0.73300587  1
  O2-  O273  1  0.92280554  0.55273592  0.06759207  1
  O2-  O274  1  0.92109111  0.54669521  0.39241073  1
  O2-  O275  1  0.91749329  0.54143410  0.72974475  1
  O2-  O276  1  0.29395531  0.16693598  0.06219646  1
  O2-  O277  1  0.28858617  0.16812559  0.40204322  1
  O2-  O278  1  0.28924213  0.16485149  0.72935724  1
  O2-  O279  1  0.28814629  0.66536821  0.06884086  1
  O2-  O280  1  0.28666137  0.66620189  0.40495865  1
  O2-  O281  1  0.28473645  0.66330709  0.72885645  1
  O2-  O282  1  0.79822622  0.16320850  0.05710346  1
  O2-  O283  1  0.80287180  0.17110443  0.39881742  1
  O2-  O284  1  0.80455401  0.16530532  0.73285389  1
  O2-  O285  1  0.79054326  0.67195756  0.06719375  1
  O2-  O286  1  0.80224187  0.66552161  0.39562625  1
  O2-  O287  1  0.80789219  0.66806855  0.72558447  1
