# generated using pymatgen
data_Ca2Al2SiO7
_symmetry_space_group_name_H-M   'P 1'
_cell_length_a   15.45557690
_cell_length_b   15.45465830
_cell_length_c   15.28111873
_cell_angle_alpha   90.00223016
_cell_angle_beta   89.99354349
_cell_angle_gamma   90.00427725
_symmetry_Int_Tables_number   1
_chemical_formula_structural   Ca2Al2SiO7
_chemical_formula_sum   'Ca48 Al48 Si24 O168'
_cell_volume   3650.05806719
_cell_formula_units_Z   24
loop_
 _symmetry_equiv_pos_site_id
 _symmetry_equiv_pos_as_xyz
  1  'x, y, z'
loop_
 _atom_type_symbol
 _atom_type_oxidation_number
  Ca2+  2.0
  Al0+  0.0
  Si0+  0.0
  O2-  -2.0
loop_
 _atom_site_type_symbol
 _atom_site_label
 _atom_site_symmetry_multiplicity
 _atom_site_fract_x
 _atom_site_fract_y
 _atom_site_fract_z
 _atom_site_occupancy
  Ca2+  Ca0  1  0.17665701  0.08412829  0.17162678  1
  Ca2+  Ca1  1  0.16489277  0.07783277  0.50364890  1
  Ca2+  Ca2  1  0.16415067  0.08337236  0.83736663  1
  Ca2+  Ca3  1  0.17682179  0.58519000  0.17449396  1
  Ca2+  Ca4  1  0.17443294  0.58477415  0.50199500  1
  Ca2+  Ca5  1  0.17780817  0.57973749  0.83614206  1
  Ca2+  Ca6  1  0.66653580  0.08233603  0.17486198  1
  Ca2+  Ca7  1  0.67112227  0.08588669  0.49991333  1
  Ca2+  Ca8  1  0.66546643  0.07277764  0.83672467  1
  Ca2+  Ca9  1  0.66332420  0.56813900  0.17045712  1
  Ca2+  Ca10  1  0.67241684  0.57438939  0.50452885  1
  Ca2+  Ca11  1  0.67505724  0.57763362  0.83703308  1
  Ca2+  Ca12  1  0.07730900  0.32781249  0.16155972  1
  Ca2+  Ca13  1  0.07192072  0.33176546  0.49803620  1
  Ca2+  Ca14  1  0.08355564  0.31925188  0.82511938  1
  Ca2+  Ca15  1  0.09237331  0.83051871  0.16922765  1
  Ca2+  Ca16  1  0.08637888  0.83224121  0.49597174  1
  Ca2+  Ca17  1  0.07676657  0.83421548  0.82341054  1
  Ca2+  Ca18  1  0.57825921  0.33124120  0.16682701  1
  Ca2+  Ca19  1  0.57646028  0.33138940  0.48973629  1
  Ca2+  Ca20  1  0.57469968  0.34035571  0.83302337  1
  Ca2+  Ca21  1  0.57656467  0.83289664  0.15694130  1
  Ca2+  Ca22  1  0.58577415  0.83095613  0.49837219  1
  Ca2+  Ca23  1  0.57837873  0.84030448  0.83010522  1
  Ca2+  Ca24  1  0.34332387  0.42526817  0.17123130  1
  Ca2+  Ca25  1  0.34275308  0.42420363  0.50402068  1
  Ca2+  Ca26  1  0.34322692  0.42426283  0.83795987  1
  Ca2+  Ca27  1  0.33478715  0.93060648  0.17241816  1
  Ca2+  Ca28  1  0.32129379  0.92294609  0.50109873  1
  Ca2+  Ca29  1  0.32720460  0.92433926  0.84138599  1
  Ca2+  Ca30  1  0.82095664  0.40571332  0.17391892  1
  Ca2+  Ca31  1  0.83184492  0.41336501  0.50460279  1
  Ca2+  Ca32  1  0.83376118  0.41773700  0.83557632  1
  Ca2+  Ca33  1  0.82689897  0.92488767  0.17111788  1
  Ca2+  Ca34  1  0.83208902  0.92240605  0.50753645  1
  Ca2+  Ca35  1  0.82235255  0.90964521  0.83474148  1
  Ca2+  Ca36  1  0.41180432  0.17462902  0.16142692  1
  Ca2+  Ca37  1  0.42133999  0.17642457  0.49053037  1
  Ca2+  Ca38  1  0.41101377  0.17892898  0.82973026  1
  Ca2+  Ca39  1  0.41040700  0.67232045  0.16042164  1
  Ca2+  Ca40  1  0.41141653  0.66502799  0.49534407  1
  Ca2+  Ca41  1  0.41310340  0.66888257  0.83251404  1
  Ca2+  Ca42  1  0.91911196  0.16614317  0.16677263  1
  Ca2+  Ca43  1  0.91732578  0.17181838  0.49510960  1
  Ca2+  Ca44  1  0.92892217  0.16908686  0.82517858  1
  Ca2+  Ca45  1  0.92664764  0.66599723  0.16607075  1
  Ca2+  Ca46  1  0.91843161  0.67217436  0.49540187  1
  Ca2+  Ca47  1  0.91605717  0.67002777  0.82275415  1
  Al0+  Al48  1  -0.00130742  -0.00186759  -0.00349779  1
  Al0+  Al49  1  -0.00263922  -0.00059958  0.33902159  1
  Al0+  Al50  1  -0.00023484  -0.00139196  0.66322811  1
  Al0+  Al51  1  0.00109578  0.50083225  -0.00178662  1
  Al0+  Al52  1  0.00054937  0.50204509  0.32244767  1
  Al0+  Al53  1  0.00245711  0.49940591  0.66864314  1
  Al0+  Al54  1  0.49861343  -0.00028682  0.00268877  1
  Al0+  Al55  1  0.49944958  -0.00074657  0.33588053  1
  Al0+  Al56  1  0.49875076  0.00018254  0.66841985  1
  Al0+  Al57  1  0.50265400  0.50138380  0.00381833  1
  Al0+  Al58  1  0.50197681  0.50032441  0.33885800  1
  Al0+  Al59  1  0.50175817  0.50221683  0.66764917  1
  Al0+  Al60  1  0.24874364  0.25085332  -0.00550129  1
  Al0+  Al61  1  0.24880361  0.25318356  0.33354788  1
  Al0+  Al62  1  0.25092636  0.25106615  0.65521731  1
  Al0+  Al63  1  0.24998592  0.74962286  -0.00303268  1
  Al0+  Al64  1  0.24978358  0.74943827  0.33682267  1
  Al0+  Al65  1  0.25052629  0.75163831  0.67556690  1
  Al0+  Al66  1  0.74986266  0.24949778  0.00128521  1
  Al0+  Al67  1  0.74790712  0.24814649  0.33493136  1
  Al0+  Al68  1  0.74874715  0.24843524  0.66817863  1
  Al0+  Al69  1  0.75060645  0.74880710  0.00658926  1
  Al0+  Al70  1  0.75042331  0.74873248  0.32857345  1
  Al0+  Al71  1  0.74955477  0.74849795  0.66941153  1
  Al0+  Al72  1  0.07151322  0.17715268  0.64802461  1
  Al0+  Al73  1  0.07010008  0.17899540  0.98751058  1
  Al0+  Al74  1  0.32286397  0.07585643  0.34938573  1
  Al0+  Al75  1  0.17834215  0.93089278  0.68241089  1
  Al0+  Al76  1  0.43215192  0.32339323  0.65196089  1
  Al0+  Al77  1  0.42923390  0.82198554  0.98592142  1
  Al0+  Al78  1  0.31849923  0.07298444  0.01140481  1
  Al0+  Al79  1  0.31992960  0.56862983  0.34734599  1
  Al0+  Al80  1  0.31970251  0.57021420  0.01460759  1
  Al0+  Al81  1  0.42764917  0.32295546  0.31721922  1
  Al0+  Al82  1  0.67797464  0.92900719  0.01487237  1
  Al0+  Al83  1  0.68130414  0.42906987  0.01420684  1
  Al0+  Al84  1  0.92774608  0.32205244  0.65284872  1
  Al0+  Al85  1  0.68125484  0.42942404  0.34863617  1
  Al0+  Al86  1  0.92858836  0.32033869  0.31891864  1
  Al0+  Al87  1  0.43129429  0.32186975  0.98628308  1
  Al0+  Al88  1  0.32211850  0.57005334  0.68233106  1
  Al0+  Al89  1  0.18037241  0.93006515  0.34737620  1
  Al0+  Al90  1  0.92715273  0.81810272  0.65303564  1
  Al0+  Al91  1  0.82291751  0.56915037  0.67785330  1
  Al0+  Al92  1  0.56946949  0.17758944  0.31826455  1
  Al0+  Al93  1  0.07154623  0.68141359  0.32003688  1
  Al0+  Al94  1  0.67905263  0.92880320  0.67950943  1
  Al0+  Al95  1  0.81886132  0.06983236  0.34745906  1
  Si0+  Si96  1  0.57039328  0.68071084  0.65205377  1
  Si0+  Si97  1  0.82523049  0.57231778  0.01926835  1
  Si0+  Si98  1  0.07208091  0.67857984  0.98223635  1
  Si0+  Si99  1  0.42763592  0.82178874  0.65163994  1
  Si0+  Si100  1  0.32119200  0.07365644  0.68288526  1
  Si0+  Si101  1  0.57303157  0.67874371  0.31849460  1
  Si0+  Si102  1  0.57086479  0.17483308  0.65113343  1
  Si0+  Si103  1  0.67869640  0.42694303  0.68355724  1
  Si0+  Si104  1  0.17703324  0.42780822  0.01615532  1
  Si0+  Si105  1  0.92594723  0.32210577  0.98330762  1
  Si0+  Si106  1  0.92828221  0.81872112  0.98523110  1
  Si0+  Si107  1  0.82276442  0.07028438  0.01512439  1
  Si0+  Si108  1  0.57360634  0.17680703  0.98262864  1
  Si0+  Si109  1  0.92619539  0.82366680  0.31467254  1
  Si0+  Si110  1  0.82421464  0.57277883  0.34779107  1
  Si0+  Si111  1  0.42932685  0.81872636  0.32079548  1
  Si0+  Si112  1  0.57302200  0.67878883  0.98326739  1
  Si0+  Si113  1  0.67708593  0.92432100  0.34954258  1
  Si0+  Si114  1  0.17333489  0.42864820  0.34866426  1
  Si0+  Si115  1  0.82191320  0.07256673  0.68475158  1
  Si0+  Si116  1  0.17556759  0.92793897  0.01554570  1
  Si0+  Si117  1  0.07101838  0.17577742  0.31659026  1
  Si0+  Si118  1  0.07447335  0.67887835  0.65161942  1
  Si0+  Si119  1  0.17894396  0.42649611  0.68259539  1
  O2-  O120  1  0.24437037  -0.00310837  0.05788949  1
  O2-  O121  1  0.24716181  0.00659025  0.39802143  1
  O2-  O122  1  0.25004238  0.00831752  0.72882347  1
  O2-  O123  1  0.24579929  0.49546730  0.06185257  1
  O2-  O124  1  0.24788033  0.49115796  0.39326447  1
  O2-  O125  1  0.25005268  0.49244084  0.72815209  1
  O2-  O126  1  0.75024779  0.00607383  0.06032771  1
  O2-  O127  1  0.74538665  -0.00703063  0.39323394  1
  O2-  O128  1  0.75323464  0.00313863  0.72816564  1
  O2-  O129  1  0.75993157  0.50008747  0.06175020  1
  O2-  O130  1  0.75876132  0.50246397  0.39348928  1
  O2-  O131  1  0.75355821  0.49004578  0.72616301  1
  O2-  O132  1  0.00466645  0.24682800  0.27192342  1
  O2-  O133  1  -0.00294070  0.24870131  0.60125982  1
  O2-  O134  1  -0.00469474  0.25405333  0.94052075  1
  O2-  O135  1  -0.00295536  0.75641067  0.27155912  1
  O2-  O136  1  0.00365645  0.74499733  0.60689081  1
  O2-  O137  1  -0.00130395  0.74773162  0.94162336  1
  O2-  O138  1  0.49375613  0.24522063  0.26724208  1
  O2-  O139  1  0.50611670  0.24724843  0.60778135  1
  O2-  O140  1  0.50519841  0.24603859  0.93851526  1
  O2-  O141  1  0.50377220  0.75165794  0.27752100  1
  O2-  O142  1  0.49814597  0.75030268  0.60898442  1
  O2-  O143  1  0.50648661  0.74934118  0.93824056  1
  O2-  O144  1  0.06813500  0.17920780  0.10063359  1
  O2-  O145  1  0.06783791  0.17513933  0.42177599  1
  O2-  O146  1  0.07090827  0.17831260  0.76230768  1
  O2-  O147  1  0.07297856  0.67923310  0.08728321  1
  O2-  O148  1  0.07081038  0.68223986  0.43305124  1
  O2-  O149  1  0.07338704  0.68108135  0.75772831  1
  O2-  O150  1  0.57498686  0.17746697  0.08778972  1
  O2-  O151  1  0.57080144  0.18019245  0.43219189  1
  O2-  O152  1  0.56928931  0.17201205  0.75689184  1
  O2-  O153  1  0.57184531  0.67957665  0.08907826  1
  O2-  O154  1  0.57578497  0.68041203  0.42383810  1
  O2-  O155  1  0.57053466  0.68037758  0.75718179  1
  O2-  O156  1  0.17058406  0.43216855  0.24293143  1
  O2-  O157  1  0.17616344  0.43041698  0.57726061  1
  O2-  O158  1  0.17537063  0.43096571  0.91051519  1
  O2-  O159  1  0.18452820  0.92887636  0.23327642  1
  O2-  O160  1  0.18200547  0.92706785  0.56977997  1
  O2-  O161  1  0.17425477  0.92855263  0.90986094  1
  O2-  O162  1  0.68046957  0.43145193  0.23540387  1
  O2-  O163  1  0.67667590  0.42985610  0.57821150  1
  O2-  O164  1  0.68251297  0.43287721  0.90077412  1
  O2-  O165  1  0.67851901  0.92268038  0.24384453  1
  O2-  O166  1  0.68024312  0.92842541  0.56662906  1
  O2-  O167  1  0.68060929  0.92794154  0.90157828  1
  O2-  O168  1  0.43196298  0.32290082  0.09862163  1
  O2-  O169  1  0.43399891  0.32587955  0.43078631  1
  O2-  O170  1  0.43412027  0.32428403  0.76563561  1
  O2-  O171  1  0.42917872  0.82003397  0.09943402  1
  O2-  O172  1  0.42993041  0.81636450  0.42627902  1
  O2-  O173  1  0.42933202  0.82199679  0.75686212  1
  O2-  O174  1  0.92577949  0.32144454  0.08890731  1
  O2-  O175  1  0.92989791  0.32089406  0.43175804  1
  O2-  O176  1  0.92986254  0.32035018  0.76688966  1
  O2-  O177  1  0.92920547  0.81874742  0.09020098  1
  O2-  O178  1  0.92133584  0.82080610  0.41996450  1
  O2-  O179  1  0.92656898  0.81484382  0.76685140  1
  O2-  O180  1  0.32238891  0.07288321  0.23527822  1
  O2-  O181  1  0.32317204  0.06939481  0.57771847  1
  O2-  O182  1  0.31654058  0.07236472  0.89815372  1
  O2-  O183  1  0.31907631  0.57207465  0.23422486  1
  O2-  O184  1  0.32093179  0.57142339  0.56936403  1
  O2-  O185  1  0.31863655  0.56985256  0.90145068  1
  O2-  O186  1  0.81922829  0.06716702  0.23380693  1
  O2-  O187  1  0.81950982  0.07336359  0.57926332  1
  O2-  O188  1  0.82400897  0.06748241  0.90965780  1
  O2-  O189  1  0.82085743  0.57461558  0.24217907  1
  O2-  O190  1  0.81856911  0.57159264  0.56499486  1
  O2-  O191  1  0.82487748  0.57458700  0.91342370  1
  O2-  O192  1  0.04194756  0.08250877  0.27119601  1
  O2-  O193  1  0.04320669  0.07870714  0.59635124  1
  O2-  O194  1  0.03863940  0.08222315  0.93264670  1
  O2-  O195  1  0.04159385  0.58785145  0.25901891  1
  O2-  O196  1  0.05337656  0.58376189  0.60804742  1
  O2-  O197  1  0.04591973  0.58599296  0.93458726  1
  O2-  O198  1  0.54849127  0.07535364  0.26850055  1
  O2-  O199  1  0.54286930  0.08286388  0.60251098  1
  O2-  O200  1  0.54762414  0.08283934  0.93786680  1
  O2-  O201  1  0.54263575  0.58780850  0.27219181  1
  O2-  O202  1  0.54385611  0.58931119  0.60349515  1
  O2-  O203  1  0.54564359  0.58648370  0.93622000  1
  O2-  O204  1  0.16565379  0.19998175  0.27218258  1
  O2-  O205  1  0.16861184  0.20539554  0.59321610  1
  O2-  O206  1  0.16411104  0.21057785  0.92905642  1
  O2-  O207  1  0.16746035  0.71491187  0.26463306  1
  O2-  O208  1  0.16765104  0.70889996  0.60717928  1
  O2-  O209  1  0.16236909  0.70732655  0.93301114  1
  O2-  O210  1  0.66664739  0.20872924  0.26464478  1
  O2-  O211  1  0.66656161  0.19651501  0.60800793  1
  O2-  O212  1  0.66803413  0.20114237  0.93617272  1
  O2-  O213  1  0.66427581  0.70334356  0.26739444  1
  O2-  O214  1  0.66067974  0.71060666  0.60322730  1
  O2-  O215  1  0.66901519  0.70193302  0.94015186  1
  O2-  O216  1  0.08285395  0.45395408  0.06207115  1
  O2-  O217  1  0.08202253  0.46255163  0.39486716  1
  O2-  O218  1  0.08728602  0.45335006  0.73279651  1
  O2-  O219  1  0.08131491  0.95128054  0.06140337  1
  O2-  O220  1  0.07932175  0.94987378  0.39819898  1
  O2-  O221  1  0.07936029  0.95728656  0.73462053  1
  O2-  O222  1  0.58770854  0.46491254  0.07025070  1
  O2-  O223  1  0.58814043  0.46587992  0.40531796  1
  O2-  O224  1  0.58921082  0.46254221  0.73182664  1
  O2-  O225  1  0.58109899  0.95635350  0.06889452  1
  O2-  O226  1  0.58310915  0.94618367  0.39568565  1
  O2-  O227  1  0.58187957  0.95932110  0.73397688  1
  O2-  O228  1  0.20017881  0.33352252  0.06011041  1
  O2-  O229  1  0.19001110  0.33291452  0.39288008  1
  O2-  O230  1  0.20354987  0.33106994  0.72504516  1
  O2-  O231  1  0.20189517  0.83360961  0.05899411  1
  O2-  O232  1  0.21425883  0.83431241  0.40279090  1
  O2-  O233  1  0.21082803  0.83627615  0.73977513  1
  O2-  O234  1  0.70826800  0.33097200  0.06777577  1
  O2-  O235  1  0.70980381  0.33309971  0.40238858  1
  O2-  O236  1  0.69589858  0.33126621  0.72896489  1
  O2-  O237  1  0.70983460  0.83290917  0.06995565  1
  O2-  O238  1  0.70374623  0.82982751  0.39416413  1
  O2-  O239  1  0.70982451  0.83299201  0.73535169  1
  O2-  O240  1  0.46404542  0.42098507  0.26692300  1
  O2-  O241  1  0.46524799  0.42015021  0.59940372  1
  O2-  O242  1  0.46626003  0.41865723  0.93354311  1
  O2-  O243  1  0.45385332  0.91160023  0.27415789  1
  O2-  O244  1  0.45602895  0.91323911  0.60418566  1
  O2-  O245  1  0.45904130  0.91874556  0.93127105  1
  O2-  O246  1  0.95546120  0.41685073  0.26205452  1
  O2-  O247  1  0.95724352  0.42096045  0.60063353  1
  O2-  O248  1  0.95029231  0.41742885  0.93923579  1
  O2-  O249  1  0.95051198  0.91785285  0.26967706  1
  O2-  O250  1  0.95445220  0.91521308  0.60005664  1
  O2-  O251  1  0.95453178  0.90988929  0.93595842  1
  O2-  O252  1  0.32528722  0.30470182  0.26723136  1
  O2-  O253  1  0.33549765  0.29804179  0.59671452  1
  O2-  O254  1  0.33408866  0.29394678  0.93151620  1
  O2-  O255  1  0.33991888  0.78628836  0.27272556  1
  O2-  O256  1  0.33580593  0.79165828  0.60637047  1
  O2-  O257  1  0.33325954  0.78957422  0.93074067  1
  O2-  O258  1  0.83315011  0.28502829  0.26615944  1
  O2-  O259  1  0.82687974  0.29641358  0.60321238  1
  O2-  O260  1  0.83248515  0.29729413  0.93665894  1
  O2-  O261  1  0.83410011  0.79525989  0.26528988  1
  O2-  O262  1  0.83148168  0.78506069  0.59860486  1
  O2-  O263  1  0.83567293  0.78968987  0.93942664  1
  O2-  O264  1  0.41462836  0.04256844  0.06580247  1
  O2-  O265  1  0.41960043  0.04223183  0.40320443  1
  O2-  O266  1  0.41342300  0.04512334  0.73044957  1
  O2-  O267  1  0.41772284  0.54373613  0.06700747  1
  O2-  O268  1  0.41739090  0.54298048  0.40225293  1
  O2-  O269  1  0.42006604  0.54200363  0.73588596  1
  O2-  O270  1  0.91393929  0.03839524  0.06320801  1
  O2-  O271  1  0.91399742  0.04022585  0.40428735  1
  O2-  O272  1  0.91575431  0.04609350  0.72862120  1
  O2-  O273  1  0.92099652  0.55050898  0.06281981  1
  O2-  O274  1  0.91994911  0.55151424  0.38981536  1
  O2-  O275  1  0.92076170  0.54528740  0.73401055  1
  O2-  O276  1  0.28633588  0.16929290  0.06496095  1
  O2-  O277  1  0.29930708  0.17644955  0.39963400  1
  O2-  O278  1  0.29831551  0.17014830  0.72386538  1
  O2-  O279  1  0.28656849  0.66751731  0.06652171  1
  O2-  O280  1  0.28590754  0.66355601  0.40272493  1
  O2-  O281  1  0.29018255  0.66547736  0.73806824  1
  O2-  O282  1  0.80264284  0.16569342  0.05931574  1
  O2-  O283  1  0.78584307  0.16407268  0.40356958  1
  O2-  O284  1  0.79607868  0.16532510  0.73335245  1
  O2-  O285  1  0.79824266  0.66428684  0.06768781  1
  O2-  O286  1  0.79566045  0.66630628  0.39337765  1
  O2-  O287  1  0.78558100  0.66216263  0.73554637  1
