# generated using pymatgen
data_Ca2Al2SiO7
_symmetry_space_group_name_H-M   'P 1'
_cell_length_a   15.46709725
_cell_length_b   15.47175461
_cell_length_c   15.29028720
_cell_angle_alpha   90.02991658
_cell_angle_beta   89.99195398
_cell_angle_gamma   90.01190372
_symmetry_Int_Tables_number   1
_chemical_formula_structural   Ca2Al2SiO7
_chemical_formula_sum   'Ca48 Al48 Si24 O168'
_cell_volume   3659.01302072
_cell_formula_units_Z   24
loop_
 _symmetry_equiv_pos_site_id
 _symmetry_equiv_pos_as_xyz
  1  'x, y, z'
loop_
 _atom_type_symbol
 _atom_type_oxidation_number
  Ca2+  2.0
  Al0+  0.0
  Si0+  0.0
  O2-  -2.0
loop_
 _atom_site_type_symbol
 _atom_site_label
 _atom_site_symmetry_multiplicity
 _atom_site_fract_x
 _atom_site_fract_y
 _atom_site_fract_z
 _atom_site_occupancy
  Ca2+  Ca0  1  0.17767446  0.09066091  0.17104157  1
  Ca2+  Ca1  1  0.17879401  0.09381701  0.50142486  1
  Ca2+  Ca2  1  0.18160590  0.08056102  0.83922940  1
  Ca2+  Ca3  1  0.17337872  0.57053259  0.17339359  1
  Ca2+  Ca4  1  0.17079916  0.57191806  0.50062552  1
  Ca2+  Ca5  1  0.16721253  0.57226398  0.83555181  1
  Ca2+  Ca6  1  0.66217721  0.07411882  0.17408929  1
  Ca2+  Ca7  1  0.66468574  0.08349006  0.50590203  1
  Ca2+  Ca8  1  0.66943408  0.08495348  0.83381921  1
  Ca2+  Ca9  1  0.66561128  0.56835080  0.17098702  1
  Ca2+  Ca10  1  0.66469067  0.57415552  0.49790343  1
  Ca2+  Ca11  1  0.66969990  0.57550346  0.83936298  1
  Ca2+  Ca12  1  0.08760446  0.33193508  0.16234542  1
  Ca2+  Ca13  1  0.08170001  0.33330014  0.49460005  1
  Ca2+  Ca14  1  0.07525848  0.34051803  0.82858858  1
  Ca2+  Ca15  1  0.08204729  0.83476470  0.16239640  1
  Ca2+  Ca16  1  0.06944643  0.84093202  0.49367457  1
  Ca2+  Ca17  1  0.08295039  0.83509814  0.82710128  1
  Ca2+  Ca18  1  0.57371823  0.33570487  0.16177076  1
  Ca2+  Ca19  1  0.57601556  0.31944540  0.49112762  1
  Ca2+  Ca20  1  0.57054068  0.32967185  0.82534157  1
  Ca2+  Ca21  1  0.58734741  0.83568440  0.16377073  1
  Ca2+  Ca22  1  0.57974709  0.83488409  0.49605932  1
  Ca2+  Ca23  1  0.58106514  0.83460635  0.82920414  1
  Ca2+  Ca24  1  0.32889050  0.41309437  0.17634876  1
  Ca2+  Ca25  1  0.32411668  0.40420014  0.50162187  1
  Ca2+  Ca26  1  0.32336737  0.40389804  0.83667299  1
  Ca2+  Ca27  1  0.32963803  0.93138102  0.16962765  1
  Ca2+  Ca28  1  0.33869911  0.93080355  0.50679345  1
  Ca2+  Ca29  1  0.33741734  0.92814838  0.83896204  1
  Ca2+  Ca30  1  0.82146022  0.40516549  0.16735964  1
  Ca2+  Ca31  1  0.82572532  0.40590817  0.50419150  1
  Ca2+  Ca32  1  0.82861795  0.40976381  0.84080512  1
  Ca2+  Ca33  1  0.82365718  0.91548628  0.17467385  1
  Ca2+  Ca34  1  0.83194282  0.92097701  0.50488197  1
  Ca2+  Ca35  1  0.83166330  0.92388610  0.83543794  1
  Ca2+  Ca36  1  0.41540426  0.17250799  0.16772001  1
  Ca2+  Ca37  1  0.41945433  0.17086720  0.49515470  1
  Ca2+  Ca38  1  0.41792703  0.17009734  0.82845043  1
  Ca2+  Ca39  1  0.41335595  0.66520307  0.16525503  1
  Ca2+  Ca40  1  0.40800345  0.67472938  0.49611556  1
  Ca2+  Ca41  1  0.41729258  0.67602392  0.82731542  1
  Ca2+  Ca42  1  0.92710212  0.17121772  0.16378343  1
  Ca2+  Ca43  1  0.92370776  0.16560308  0.49770306  1
  Ca2+  Ca44  1  0.91558539  0.17604739  0.82631927  1
  Ca2+  Ca45  1  0.91304746  0.67302032  0.16622445  1
  Ca2+  Ca46  1  0.91535675  0.67900317  0.49533286  1
  Ca2+  Ca47  1  0.91983888  0.67454936  0.82488124  1
  Al0+  Al48  1  0.00049625  -0.00048479  0.00030948  1
  Al0+  Al49  1  -0.00194710  0.00144830  0.32115802  1
  Al0+  Al50  1  -0.00164399  0.00050120  0.66779071  1
  Al0+  Al51  1  0.00121763  0.50293503  0.00015983  1
  Al0+  Al52  1  -0.00115104  0.50361106  0.33523574  1
  Al0+  Al53  1  -0.00127967  0.50087948  0.66501103  1
  Al0+  Al54  1  0.50128423  0.00034677  0.00753982  1
  Al0+  Al55  1  0.49936165  -0.00125091  0.33754276  1
  Al0+  Al56  1  0.50067230  -0.00246419  0.66560598  1
  Al0+  Al57  1  0.50136763  0.50092547  -0.00371943  1
  Al0+  Al58  1  0.50087783  0.50318931  0.33920391  1
  Al0+  Al59  1  0.49823799  0.50064481  0.66430102  1
  Al0+  Al60  1  0.25092286  0.24972691  0.00301685  1
  Al0+  Al61  1  0.24953829  0.24962670  0.33395622  1
  Al0+  Al62  1  0.24851197  0.24835304  0.67553966  1
  Al0+  Al63  1  0.24987866  0.75071999  0.00074225  1
  Al0+  Al64  1  0.24641836  0.75005885  0.33487938  1
  Al0+  Al65  1  0.24975191  0.74699709  0.66155984  1
  Al0+  Al66  1  0.75126725  0.24884910  0.00164728  1
  Al0+  Al67  1  0.75056352  0.24658582  0.33394077  1
  Al0+  Al68  1  0.75014944  0.24811366  0.66523740  1
  Al0+  Al69  1  0.75070353  0.74992095  0.00087802  1
  Al0+  Al70  1  0.74793627  0.75110966  0.33335567  1
  Al0+  Al71  1  0.75053202  0.74828879  0.66315365  1
  Al0+  Al72  1  0.43108401  0.32193377  0.31911358  1
  Al0+  Al73  1  0.93061571  0.32060590  0.98725228  1
  Al0+  Al74  1  0.67962408  0.92927750  0.34958537  1
  Al0+  Al75  1  0.92907866  0.32207422  0.65322724  1
  Al0+  Al76  1  0.82159983  0.07118191  0.68050255  1
  Al0+  Al77  1  0.31944990  0.06957694  0.34912249  1
  Al0+  Al78  1  0.42934210  0.81956758  0.65392190  1
  Al0+  Al79  1  0.17892178  0.42981745  0.68182296  1
  Al0+  Al80  1  0.68007904  0.42643572  0.34794999  1
  Al0+  Al81  1  0.42941161  0.32208696  0.98612304  1
  Al0+  Al82  1  0.42501000  0.32052811  0.65186575  1
  Al0+  Al83  1  0.67910155  0.42836168  0.01124903  1
  Al0+  Al84  1  0.32162984  0.07174356  0.01752531  1
  Al0+  Al85  1  0.32213119  0.57344653  0.34921459  1
  Al0+  Al86  1  0.93022516  0.82193532  0.65354362  1
  Al0+  Al87  1  0.32251403  0.06907983  0.68150770  1
  Al0+  Al88  1  0.57220919  0.17608754  0.31686655  1
  Al0+  Al89  1  0.92808089  0.82059251  0.31689134  1
  Al0+  Al90  1  0.68209246  0.92943229  0.01279546  1
  Al0+  Al91  1  0.17884202  0.42828360  0.34897088  1
  Al0+  Al92  1  0.57092545  0.17877033  0.65349418  1
  Al0+  Al93  1  0.17803187  0.92705867  0.01424114  1
  Al0+  Al94  1  0.17908852  0.43075495  0.01307810  1
  Al0+  Al95  1  0.07088397  0.18201856  0.31985302  1
  Si0+  Si96  1  0.57331064  0.67677993  0.64865533  1
  Si0+  Si97  1  0.81940340  0.57178667  0.68106173  1
  Si0+  Si98  1  0.57207133  0.17613630  0.98462432  1
  Si0+  Si99  1  0.07081855  0.17817494  0.65294990  1
  Si0+  Si100  1  0.67882305  0.42835356  0.68109520  1
  Si0+  Si101  1  0.07141346  0.67817234  0.31361444  1
  Si0+  Si102  1  0.07194150  0.68097898  0.98373313  1
  Si0+  Si103  1  0.82373465  0.07318072  0.01834585  1
  Si0+  Si104  1  0.82415692  0.07044301  0.34958389  1
  Si0+  Si105  1  0.17759876  0.92620739  0.67954278  1
  Si0+  Si106  1  0.82238439  0.57259612  0.01574082  1
  Si0+  Si107  1  0.92730033  0.82062639  0.98329991  1
  Si0+  Si108  1  0.07334855  0.17711569  0.98133663  1
  Si0+  Si109  1  0.32296026  0.57303181  0.01345042  1
  Si0+  Si110  1  0.67952086  0.92581251  0.68322331  1
  Si0+  Si111  1  0.81997289  0.57323767  0.35025827  1
  Si0+  Si112  1  0.57048551  0.68064311  0.31732172  1
  Si0+  Si113  1  0.57293840  0.67903326  0.98486851  1
  Si0+  Si114  1  0.17495744  0.92905373  0.34892393  1
  Si0+  Si115  1  0.32255684  0.57415381  0.68513720  1
  Si0+  Si116  1  0.42654690  0.82076170  0.31741631  1
  Si0+  Si117  1  0.43045488  0.82099605  0.98770616  1
  Si0+  Si118  1  0.07130116  0.67695157  0.64778818  1
  Si0+  Si119  1  0.92723498  0.32538206  0.31727445  1
  O2-  O120  1  0.24529328  0.00216535  0.06501738  1
  O2-  O121  1  0.24376842  -0.00496190  0.39568869  1
  O2-  O122  1  0.24928965  -0.00951573  0.72501585  1
  O2-  O123  1  0.25953094  0.50020536  0.05756492  1
  O2-  O124  1  0.25467098  0.49701965  0.39872355  1
  O2-  O125  1  0.25794441  0.50140919  0.72848704  1
  O2-  O126  1  0.75576968  0.00339539  0.06156856  1
  O2-  O127  1  0.75202420  0.00600499  0.39484819  1
  O2-  O128  1  0.74664315  -0.00397335  0.72691409  1
  O2-  O129  1  0.75741705  0.49990730  0.05830389  1
  O2-  O130  1  0.75912383  0.49782962  0.39479094  1
  O2-  O131  1  0.75003154  0.49973017  0.72385938  1
  O2-  O132  1  -0.00019575  0.26104033  0.27360374  1
  O2-  O133  1  0.00477654  0.24890069  0.60771603  1
  O2-  O134  1  0.00480245  0.24661728  0.93781224  1
  O2-  O135  1  0.00304558  0.74700026  0.26866978  1
  O2-  O136  1  0.00734693  0.75087083  0.60512613  1
  O2-  O137  1  0.00237877  0.75388818  0.94107802  1
  O2-  O138  1  0.50487227  0.25251007  0.26700523  1
  O2-  O139  1  0.49830531  0.24960396  0.60326338  1
  O2-  O140  1  0.50527983  0.24699603  0.94128987  1
  O2-  O141  1  0.49574624  0.74779360  0.27475757  1
  O2-  O142  1  0.50261568  0.74389774  0.60595236  1
  O2-  O143  1  0.50182682  0.75051068  0.94421304  1
  O2-  O144  1  0.07152922  0.17801666  0.08700309  1
  O2-  O145  1  0.06840209  0.17968343  0.43310994  1
  O2-  O146  1  0.06852894  0.17723119  0.75852211  1
  O2-  O147  1  0.07076452  0.68125747  0.08838831  1
  O2-  O148  1  0.06986038  0.67877991  0.41904572  1
  O2-  O149  1  0.06893934  0.67653456  0.75398216  1
  O2-  O150  1  0.57165779  0.17508295  0.08985262  1
  O2-  O151  1  0.57103159  0.17607183  0.43022296  1
  O2-  O152  1  0.57249449  0.18124374  0.76764718  1
  O2-  O153  1  0.57395287  0.67792024  0.08966517  1
  O2-  O154  1  0.57399935  0.68339271  0.42226636  1
  O2-  O155  1  0.57580901  0.67753799  0.75474610  1
  O2-  O156  1  0.17848665  0.43100974  0.23519188  1
  O2-  O157  1  0.17637860  0.43161521  0.56933510  1
  O2-  O158  1  0.17634056  0.43481035  0.89992274  1
  O2-  O159  1  0.17810056  0.92870504  0.24339801  1
  O2-  O160  1  0.17581376  0.92850656  0.57416950  1
  O2-  O161  1  0.18118361  0.92445150  0.90027376  1
  O2-  O162  1  0.68041459  0.42993724  0.23444679  1
  O2-  O163  1  0.68109017  0.43029142  0.57615932  1
  O2-  O164  1  0.67987929  0.43252888  0.89794408  1
  O2-  O165  1  0.68201472  0.92736522  0.23613624  1
  O2-  O166  1  0.68115630  0.92331102  0.57798591  1
  O2-  O167  1  0.68336418  0.92678057  0.89974783  1
  O2-  O168  1  0.43114632  0.32639681  0.09865456  1
  O2-  O169  1  0.43048414  0.31847959  0.43245049  1
  O2-  O170  1  0.42766199  0.31929075  0.76595713  1
  O2-  O171  1  0.43076476  0.81815552  0.09267071  1
  O2-  O172  1  0.42828108  0.81971803  0.42260491  1
  O2-  O173  1  0.43214909  0.81853287  0.76784111  1
  O2-  O174  1  0.93007934  0.31895103  0.10014265  1
  O2-  O175  1  0.92709332  0.32338470  0.42297401  1
  O2-  O176  1  0.92908383  0.32246294  0.76663210  1
  O2-  O177  1  0.92375778  0.81626729  0.08799525  1
  O2-  O178  1  0.92889063  0.81937678  0.43016307  1
  O2-  O179  1  0.93007594  0.81890102  0.76706917  1
  O2-  O180  1  0.31920907  0.06820851  0.23629249  1
  O2-  O181  1  0.32054710  0.06943525  0.56862811  1
  O2-  O182  1  0.32389693  0.06768885  0.90362882  1
  O2-  O183  1  0.31900880  0.57585096  0.23508597  1
  O2-  O184  1  0.31958848  0.57958362  0.58041600  1
  O2-  O185  1  0.32013360  0.57826231  0.90807177  1
  O2-  O186  1  0.82510988  0.06732530  0.24386962  1
  O2-  O187  1  0.82400848  0.06811928  0.56787812  1
  O2-  O188  1  0.82339189  0.07224136  0.91251381  1
  O2-  O189  1  0.81641687  0.57650761  0.24457398  1
  O2-  O190  1  0.81733997  0.57474418  0.57635384  1
  O2-  O191  1  0.82011959  0.57663709  0.90992587  1
  O2-  O192  1  0.03760507  0.08856522  0.26037120  1
  O2-  O193  1  0.04309690  0.08600724  0.60545352  1
  O2-  O194  1  0.04812504  0.08251555  0.93632531  1
  O2-  O195  1  0.04401415  0.58513237  0.26652630  1
  O2-  O196  1  0.03812869  0.58723689  0.59968900  1
  O2-  O197  1  0.04130921  0.59103133  0.93408385  1
  O2-  O198  1  0.53977525  0.07740728  0.26616706  1
  O2-  O199  1  0.54739894  0.07850721  0.60325489  1
  O2-  O200  1  0.54451005  0.08251015  0.93865466  1
  O2-  O201  1  0.54654917  0.58789428  0.27008525  1
  O2-  O202  1  0.55001924  0.58291456  0.60277635  1
  O2-  O203  1  0.54562261  0.58930410  0.93320057  1
  O2-  O204  1  0.16672689  0.21101449  0.26426400  1
  O2-  O205  1  0.16499827  0.20313050  0.60949475  1
  O2-  O206  1  0.16760395  0.20158556  0.93733535  1
  O2-  O207  1  0.16462759  0.70467142  0.26691716  1
  O2-  O208  1  0.16619385  0.69542631  0.60278113  1
  O2-  O209  1  0.16384829  0.70758420  0.93503799  1
  O2-  O210  1  0.67407965  0.19716100  0.26728729  1
  O2-  O211  1  0.66855902  0.20712223  0.59939938  1
  O2-  O212  1  0.66743863  0.19882149  0.94070157  1
  O2-  O213  1  0.65982685  0.71270588  0.26764740  1
  O2-  O214  1  0.66539286  0.70400476  0.60059449  1
  O2-  O215  1  0.66433506  0.70791365  0.93612820  1
  O2-  O216  1  0.08448189  0.46670293  0.06771875  1
  O2-  O217  1  0.07970218  0.45985287  0.40021988  1
  O2-  O218  1  0.08226471  0.46634737  0.73442776  1
  O2-  O219  1  0.07647220  0.94759018  0.06403531  1
  O2-  O220  1  0.07978611  0.95642073  0.38999090  1
  O2-  O221  1  0.08525019  0.95356905  0.72758655  1
  O2-  O222  1  0.58466372  0.46556620  0.06529516  1
  O2-  O223  1  0.58708555  0.46380988  0.40370650  1
  O2-  O224  1  0.58634737  0.45719862  0.72719487  1
  O2-  O225  1  0.58602750  0.95662514  0.06887581  1
  O2-  O226  1  0.58205882  0.95490362  0.40290394  1
  O2-  O227  1  0.58578989  0.94960990  0.72917014  1
  O2-  O228  1  0.20422262  0.33274147  0.06472786  1
  O2-  O229  1  0.20431807  0.32979591  0.40189272  1
  O2-  O230  1  0.20476242  0.33330169  0.73852211  1
  O2-  O231  1  0.20860743  0.82983039  0.06877539  1
  O2-  O232  1  0.19548434  0.83416845  0.39398745  1
  O2-  O233  1  0.19828606  0.82973549  0.72226490  1
  O2-  O234  1  0.70805157  0.33195669  0.06590554  1
  O2-  O235  1  0.70967257  0.32925474  0.40140976  1
  O2-  O236  1  0.70791489  0.33758450  0.72836163  1
  O2-  O237  1  0.71234281  0.83228071  0.06715993  1
  O2-  O238  1  0.71192600  0.83301285  0.40300804  1
  O2-  O239  1  0.70695611  0.83198679  0.72901642  1
  O2-  O240  1  0.45679390  0.42375858  0.27099357  1
  O2-  O241  1  0.44774967  0.42204966  0.60321066  1
  O2-  O242  1  0.45943419  0.41897218  0.93049921  1
  O2-  O243  1  0.45779990  0.91097266  0.27039419  1
  O2-  O244  1  0.46154032  0.91395584  0.59811567  1
  O2-  O245  1  0.46049045  0.91251081  0.94143432  1
  O2-  O246  1  0.94525327  0.42199518  0.27432176  1
  O2-  O247  1  0.95509842  0.41963876  0.59923422  1
  O2-  O248  1  0.95801322  0.41994000  0.93537836  1
  O2-  O249  1  0.95621375  0.91538538  0.25921204  1
  O2-  O250  1  0.95880956  0.91851946  0.59896081  1
  O2-  O251  1  0.95044765  0.91456226  0.93806421  1
  O2-  O252  1  0.33252808  0.29152711  0.26794982  1
  O2-  O253  1  0.32576584  0.28949379  0.60354481  1
  O2-  O254  1  0.33231993  0.28969424  0.93393389  1
  O2-  O255  1  0.33348924  0.79451188  0.27148502  1
  O2-  O256  1  0.33277619  0.79062976  0.59855043  1
  O2-  O257  1  0.33936121  0.79228691  0.93906644  1
  O2-  O258  1  0.83540075  0.29416126  0.27088329  1
  O2-  O259  1  0.83381210  0.28908136  0.59960766  1
  O2-  O260  1  0.83300756  0.28980710  0.93345102  1
  O2-  O261  1  0.83193106  0.78526094  0.26393360  1
  O2-  O262  1  0.83502668  0.78716844  0.59935728  1
  O2-  O263  1  0.83761001  0.78762001  0.93427372  1
  O2-  O264  1  0.41748685  0.03880018  0.07195688  1
  O2-  O265  1  0.41418030  0.03527726  0.40342605  1
  O2-  O266  1  0.41888224  0.03628688  0.73530274  1
  O2-  O267  1  0.41905189  0.55394757  0.05641781  1
  O2-  O268  1  0.42324298  0.55797788  0.40060076  1
  O2-  O269  1  0.41926373  0.55577991  0.72856697  1
  O2-  O270  1  0.91783979  0.04798882  0.06283167  1
  O2-  O271  1  0.91666382  0.03909620  0.39446537  1
  O2-  O272  1  0.91671067  0.03896878  0.73753885  1
  O2-  O273  1  0.91697281  0.55317229  0.06102416  1
  O2-  O274  1  0.91631218  0.55832874  0.39399957  1
  O2-  O275  1  0.91197316  0.54741474  0.72825208  1
  O2-  O276  1  0.29373085  0.16960620  0.07048778  1
  O2-  O277  1  0.28708480  0.16536032  0.40222502  1
  O2-  O278  1  0.28867452  0.16249464  0.73944437  1
  O2-  O279  1  0.29354597  0.66440762  0.06203411  1
  O2-  O280  1  0.28704424  0.67050446  0.40310767  1
  O2-  O281  1  0.29232584  0.66647840  0.73343833  1
  O2-  O282  1  0.79930614  0.16594052  0.06554627  1
  O2-  O283  1  0.80531282  0.16552656  0.39462888  1
  O2-  O284  1  0.78988364  0.16717854  0.73619346  1
  O2-  O285  1  0.79128659  0.66350545  0.06424260  1
  O2-  O286  1  0.78553334  0.66314934  0.39842817  1
  O2-  O287  1  0.78966544  0.66251268  0.73116423  1
