# generated using pymatgen
data_Ca2Al2SiO7
_symmetry_space_group_name_H-M   'P 1'
_cell_length_a   15.47383856
_cell_length_b   15.47562817
_cell_length_c   15.29548751
_cell_angle_alpha   90.02550800
_cell_angle_beta   90.01405594
_cell_angle_gamma   90.00999954
_symmetry_Int_Tables_number   1
_chemical_formula_structural   Ca2Al2SiO7
_chemical_formula_sum   'Ca48 Al48 Si24 O168'
_cell_volume   3662.76966735
_cell_formula_units_Z   24
loop_
 _symmetry_equiv_pos_site_id
 _symmetry_equiv_pos_as_xyz
  1  'x, y, z'
loop_
 _atom_type_symbol
 _atom_type_oxidation_number
  Ca2+  2.0
  Al0+  0.0
  Si0+  0.0
  O2-  -2.0
loop_
 _atom_site_type_symbol
 _atom_site_label
 _atom_site_symmetry_multiplicity
 _atom_site_fract_x
 _atom_site_fract_y
 _atom_site_fract_z
 _atom_site_occupancy
  Ca2+  Ca0  1  0.18025790  0.08529835  0.17741871  1
  Ca2+  Ca1  1  0.17124734  0.08105086  0.49809677  1
  Ca2+  Ca2  1  0.17349513  0.08110657  0.83622693  1
  Ca2+  Ca3  1  0.16918647  0.57005433  0.17225673  1
  Ca2+  Ca4  1  0.17696491  0.57248923  0.50723331  1
  Ca2+  Ca5  1  0.17574892  0.57313967  0.83201628  1
  Ca2+  Ca6  1  0.66527993  0.08170328  0.17629569  1
  Ca2+  Ca7  1  0.65616664  0.07657458  0.50223019  1
  Ca2+  Ca8  1  0.65336829  0.07479155  0.83548906  1
  Ca2+  Ca9  1  0.66603221  0.57429270  0.17274199  1
  Ca2+  Ca10  1  0.65967452  0.57675800  0.50271703  1
  Ca2+  Ca11  1  0.66402798  0.58344301  0.83237548  1
  Ca2+  Ca12  1  0.09308615  0.32764831  0.16742586  1
  Ca2+  Ca13  1  0.08100977  0.33573833  0.49317303  1
  Ca2+  Ca14  1  0.08176454  0.33856012  0.82689256  1
  Ca2+  Ca15  1  0.08496079  0.83748847  0.16638218  1
  Ca2+  Ca16  1  0.08195885  0.84344200  0.49428702  1
  Ca2+  Ca17  1  0.07641715  0.83609685  0.82012659  1
  Ca2+  Ca18  1  0.57519707  0.32209971  0.16291804  1
  Ca2+  Ca19  1  0.57189162  0.32646829  0.48990898  1
  Ca2+  Ca20  1  0.57286547  0.31891960  0.82147162  1
  Ca2+  Ca21  1  0.57814526  0.84707181  0.16869361  1
  Ca2+  Ca22  1  0.58613476  0.82891144  0.49483430  1
  Ca2+  Ca23  1  0.58761797  0.82991143  0.82517678  1
  Ca2+  Ca24  1  0.32866081  0.40556319  0.17165093  1
  Ca2+  Ca25  1  0.32787670  0.41041515  0.50761482  1
  Ca2+  Ca26  1  0.32918375  0.40740351  0.83482204  1
  Ca2+  Ca27  1  0.33459444  0.93058500  0.17774400  1
  Ca2+  Ca28  1  0.32935895  0.91979126  0.50109906  1
  Ca2+  Ca29  1  0.33108708  0.92451756  0.83710191  1
  Ca2+  Ca30  1  0.82491063  0.41862770  0.17500040  1
  Ca2+  Ca31  1  0.82592850  0.40927371  0.50199460  1
  Ca2+  Ca32  1  0.83393845  0.41446731  0.83343250  1
  Ca2+  Ca33  1  0.81965274  0.92501325  0.17499574  1
  Ca2+  Ca34  1  0.82619634  0.92540435  0.50350453  1
  Ca2+  Ca35  1  0.82339262  0.91501755  0.83320403  1
  Ca2+  Ca36  1  0.41976521  0.16878778  0.16416063  1
  Ca2+  Ca37  1  0.42178789  0.17176138  0.49409934  1
  Ca2+  Ca38  1  0.42047519  0.17090034  0.83421600  1
  Ca2+  Ca39  1  0.41350978  0.67700500  0.16948307  1
  Ca2+  Ca40  1  0.41455757  0.67138477  0.49890509  1
  Ca2+  Ca41  1  0.42121624  0.66717878  0.82401770  1
  Ca2+  Ca42  1  0.92350623  0.15711334  0.17144019  1
  Ca2+  Ca43  1  0.92367848  0.16501099  0.49484399  1
  Ca2+  Ca44  1  0.92185706  0.17303901  0.82485121  1
  Ca2+  Ca45  1  0.91923879  0.66822260  0.16324496  1
  Ca2+  Ca46  1  0.91762552  0.67606265  0.49818831  1
  Ca2+  Ca47  1  0.92024231  0.67407201  0.82251495  1
  Al0+  Al48  1  -0.00255940  -0.00060974  -0.00331027  1
  Al0+  Al49  1  -0.00242957  0.00063912  0.33225057  1
  Al0+  Al50  1  -0.00243844  0.00065913  0.66735022  1
  Al0+  Al51  1  0.00146496  0.50124312  0.00329950  1
  Al0+  Al52  1  0.00110606  0.50293797  0.33516197  1
  Al0+  Al53  1  -0.00019891  0.50134561  0.66468527  1
  Al0+  Al54  1  0.49799956  -0.00089783  0.00328540  1
  Al0+  Al55  1  0.49962558  -0.00093017  0.33547852  1
  Al0+  Al56  1  0.49834354  -0.00209031  0.66982642  1
  Al0+  Al57  1  0.49833073  0.50275491  -0.00174682  1
  Al0+  Al58  1  0.50011818  0.50204928  0.33177901  1
  Al0+  Al59  1  0.50087831  0.50048229  0.66410749  1
  Al0+  Al60  1  0.24911635  0.24832924  0.00274692  1
  Al0+  Al61  1  0.24739424  0.24924257  0.33605281  1
  Al0+  Al62  1  0.24962026  0.24716719  0.66958035  1
  Al0+  Al63  1  0.24881097  0.74662368  -0.00234207  1
  Al0+  Al64  1  0.24922817  0.74851647  0.33014192  1
  Al0+  Al65  1  0.24903319  0.74743354  0.67601146  1
  Al0+  Al66  1  0.75198795  0.24842485  -0.00349882  1
  Al0+  Al67  1  0.75137143  0.25275647  0.33749004  1
  Al0+  Al68  1  0.75272554  0.24764823  0.66067121  1
  Al0+  Al69  1  0.75084004  0.75106818  0.00496298  1
  Al0+  Al70  1  0.75195680  0.75036856  0.33267026  1
  Al0+  Al71  1  0.75082555  0.75051204  0.66087036  1
  Al0+  Al72  1  0.57063841  0.17526422  0.65066363  1
  Al0+  Al73  1  0.17733178  0.92983627  0.68001768  1
  Al0+  Al74  1  0.18079460  0.42925253  0.34738601  1
  Al0+  Al75  1  0.17926562  0.92746706  0.34545183  1
  Al0+  Al76  1  0.42724426  0.32210719  0.31841625  1
  Al0+  Al77  1  0.67967695  0.92895607  0.68039816  1
  Al0+  Al78  1  0.32459547  0.56948367  0.68253474  1
  Al0+  Al79  1  0.92998500  0.82168827  0.65111822  1
  Al0+  Al80  1  0.17880298  0.42708323  0.68169563  1
  Al0+  Al81  1  0.57241436  0.17876158  0.31904125  1
  Al0+  Al82  1  0.42865756  0.81995801  0.32129105  1
  Al0+  Al83  1  0.32215825  0.07226113  0.35047685  1
  Al0+  Al84  1  0.82102847  0.07319154  0.34904178  1
  Al0+  Al85  1  0.57291985  0.17727590  0.98488057  1
  Al0+  Al86  1  0.42808531  0.31996088  0.65161482  1
  Al0+  Al87  1  0.42765451  0.32152282  0.98479135  1
  Al0+  Al88  1  0.68048235  0.92978307  0.01386823  1
  Al0+  Al89  1  0.67836600  0.43091140  0.34623575  1
  Al0+  Al90  1  0.06851412  0.17947350  0.31990189  1
  Al0+  Al91  1  0.57145026  0.67984785  0.65326562  1
  Al0+  Al92  1  0.18046534  0.43092612  0.01522827  1
  Al0+  Al93  1  0.31815244  0.06837859  0.01454839  1
  Al0+  Al94  1  0.93106222  0.32328266  0.65241425  1
  Al0+  Al95  1  0.67803061  0.92964523  0.35021187  1
  Si0+  Si96  1  0.92932677  0.81907654  0.98428840  1
  Si0+  Si97  1  0.07001607  0.17896539  0.98534024  1
  Si0+  Si98  1  0.07263676  0.67920665  0.64909058  1
  Si0+  Si99  1  0.67844972  0.42819641  0.01082766  1
  Si0+  Si100  1  0.82061039  0.57062784  0.01348726  1
  Si0+  Si101  1  0.32256917  0.07089048  0.68635232  1
  Si0+  Si102  1  0.92865728  0.82128241  0.31485870  1
  Si0+  Si103  1  0.92958193  0.32377473  0.98659814  1
  Si0+  Si104  1  0.92912049  0.32618203  0.31545101  1
  Si0+  Si105  1  0.07004353  0.67695032  0.98284916  1
  Si0+  Si106  1  0.82521188  0.07365922  0.01605774  1
  Si0+  Si107  1  0.57276268  0.68007548  0.98617485  1
  Si0+  Si108  1  0.82183430  0.07278015  0.68577791  1
  Si0+  Si109  1  0.32405310  0.57478634  0.01973601  1
  Si0+  Si110  1  0.42833773  0.82021221  0.98523135  1
  Si0+  Si111  1  0.57465533  0.67904194  0.31446045  1
  Si0+  Si112  1  0.82347663  0.57291494  0.35071432  1
  Si0+  Si113  1  0.17501945  0.92587898  0.01438340  1
  Si0+  Si114  1  0.07166056  0.17732697  0.65127495  1
  Si0+  Si115  1  0.68047695  0.42707260  0.68110219  1
  Si0+  Si116  1  0.81989322  0.57130636  0.68018112  1
  Si0+  Si117  1  0.07028300  0.67876415  0.31624057  1
  Si0+  Si118  1  0.42500252  0.82057881  0.65294688  1
  Si0+  Si119  1  0.32205905  0.57336040  0.34865501  1
  O2-  O120  1  0.24358333  -0.00774897  0.05950453  1
  O2-  O121  1  0.25106720  -0.00275828  0.39745102  1
  O2-  O122  1  0.25227684  0.00199673  0.72898768  1
  O2-  O123  1  0.25949718  0.50147796  0.06187691  1
  O2-  O124  1  0.26106584  0.49806063  0.39218021  1
  O2-  O125  1  0.25592165  0.49365574  0.73229436  1
  O2-  O126  1  0.75101912  0.00977796  0.05730082  1
  O2-  O127  1  0.74494524  0.00632808  0.39984221  1
  O2-  O128  1  0.74938870  0.00757026  0.72942417  1
  O2-  O129  1  0.75010368  0.49904996  0.05418919  1
  O2-  O130  1  0.75388142  0.50544114  0.39379747  1
  O2-  O131  1  0.75174553  0.49841859  0.72447509  1
  O2-  O132  1  -0.00449736  0.25588652  0.27055390  1
  O2-  O133  1  0.00934892  0.25222333  0.60819814  1
  O2-  O134  1  -0.00102588  0.25100443  0.94476948  1
  O2-  O135  1  0.00096003  0.75120543  0.27254735  1
  O2-  O136  1  0.00965479  0.75246017  0.60385805  1
  O2-  O137  1  0.00417158  0.75285881  0.94075846  1
  O2-  O138  1  0.49918961  0.24962640  0.26888555  1
  O2-  O139  1  0.50131925  0.24975663  0.60190654  1
  O2-  O140  1  0.50427986  0.25345385  0.93626022  1
  O2-  O141  1  0.50746602  0.74966165  0.27149446  1
  O2-  O142  1  0.49526807  0.75353042  0.60899382  1
  O2-  O143  1  0.50049809  0.74964005  0.94395446  1
  O2-  O144  1  0.06885061  0.17735697  0.09003363  1
  O2-  O145  1  0.06698528  0.17958672  0.43265059  1
  O2-  O146  1  0.06786395  0.17563531  0.75769937  1
  O2-  O147  1  0.06704367  0.67549507  0.08794905  1
  O2-  O148  1  0.06778130  0.67724903  0.42080610  1
  O2-  O149  1  0.06745540  0.67856186  0.75524288  1
  O2-  O150  1  0.57546366  0.17908816  0.09781132  1
  O2-  O151  1  0.57066594  0.18104084  0.43216127  1
  O2-  O152  1  0.56879876  0.17619874  0.76471063  1
  O2-  O153  1  0.57462778  0.67811832  0.09075098  1
  O2-  O154  1  0.57568695  0.67849616  0.41973568  1
  O2-  O155  1  0.57433736  0.68261974  0.76729641  1
  O2-  O156  1  0.17831464  0.43266024  0.23393074  1
  O2-  O157  1  0.17653165  0.43093903  0.56862934  1
  O2-  O158  1  0.17556967  0.43430962  0.90270682  1
  O2-  O159  1  0.18088676  0.92813091  0.23124981  1
  O2-  O160  1  0.17798162  0.93154101  0.56763872  1
  O2-  O161  1  0.17385556  0.92751743  0.90874280  1
  O2-  O162  1  0.68154477  0.43409796  0.23208122  1
  O2-  O163  1  0.68186855  0.42970080  0.57642877  1
  O2-  O164  1  0.68174595  0.43087350  0.90567711  1
  O2-  O165  1  0.68201200  0.92778254  0.23616727  1
  O2-  O166  1  0.68208342  0.92647547  0.56839651  1
  O2-  O167  1  0.68430308  0.92353676  0.90084150  1
  O2-  O168  1  0.42889037  0.32018321  0.09788500  1
  O2-  O169  1  0.42858207  0.32340113  0.43158269  1
  O2-  O170  1  0.42988954  0.31843537  0.76551668  1
  O2-  O171  1  0.42735369  0.81882761  0.09011871  1
  O2-  O172  1  0.42480025  0.81436516  0.43388211  1
  O2-  O173  1  0.42655250  0.81967465  0.75928134  1
  O2-  O174  1  0.92784359  0.32752091  0.09098725  1
  O2-  O175  1  0.93293965  0.32972361  0.42067943  1
  O2-  O176  1  0.93071343  0.32259598  0.76672250  1
  O2-  O177  1  0.92956806  0.81655187  0.08919781  1
  O2-  O178  1  0.92792561  0.81905046  0.41963060  1
  O2-  O179  1  0.92942482  0.81717752  0.76517001  1
  O2-  O180  1  0.32026663  0.07145953  0.23651025  1
  O2-  O181  1  0.32348061  0.07090651  0.58143693  1
  O2-  O182  1  0.31558467  0.06604423  0.90121910  1
  O2-  O183  1  0.31747963  0.57747942  0.24291861  1
  O2-  O184  1  0.32019488  0.57352369  0.56925550  1
  O2-  O185  1  0.32229456  0.58084711  0.91489669  1
  O2-  O186  1  0.82289129  0.06717473  0.23481023  1
  O2-  O187  1  0.82677210  0.07032894  0.58105803  1
  O2-  O188  1  0.83395341  0.07130042  0.91118546  1
  O2-  O189  1  0.82433918  0.57232620  0.24419637  1
  O2-  O190  1  0.81936066  0.57210675  0.57559098  1
  O2-  O191  1  0.82176724  0.57275345  0.90848494  1
  O2-  O192  1  0.03549287  0.08398722  0.26306253  1
  O2-  O193  1  0.03829098  0.08719926  0.60409716  1
  O2-  O194  1  0.04151971  0.08720821  0.93650686  1
  O2-  O195  1  0.03781236  0.58912925  0.26576963  1
  O2-  O196  1  0.04070421  0.58866923  0.60155378  1
  O2-  O197  1  0.03505044  0.58810097  0.93447288  1
  O2-  O198  1  0.54708686  0.07850919  0.26888810  1
  O2-  O199  1  0.53991856  0.07634146  0.60117672  1
  O2-  O200  1  0.53810969  0.07929573  0.93385877  1
  O2-  O201  1  0.54643979  0.58705385  0.26633675  1
  O2-  O202  1  0.54445664  0.58308113  0.59867279  1
  O2-  O203  1  0.54727134  0.58844066  0.93685027  1
  O2-  O204  1  0.16428187  0.21059983  0.26488732  1
  O2-  O205  1  0.16762752  0.19409643  0.60896562  1
  O2-  O206  1  0.16063721  0.20677823  0.93707748  1
  O2-  O207  1  0.16119523  0.70420317  0.26621792  1
  O2-  O208  1  0.16867272  0.69928425  0.60795264  1
  O2-  O209  1  0.16376455  0.69848639  0.93647371  1
  O2-  O210  1  0.67231001  0.20901952  0.26855536  1
  O2-  O211  1  0.67165437  0.19780875  0.60223489  1
  O2-  O212  1  0.67384209  0.19983944  0.93213841  1
  O2-  O213  1  0.66986880  0.70074917  0.26882407  1
  O2-  O214  1  0.66629711  0.71024573  0.59668735  1
  O2-  O215  1  0.66526972  0.70893803  0.93970211  1
  O2-  O216  1  0.08515142  0.46661671  0.07003805  1
  O2-  O217  1  0.08542193  0.46654383  0.39961923  1
  O2-  O218  1  0.08079092  0.46236188  0.73378695  1
  O2-  O219  1  0.08011463  0.95055831  0.05832990  1
  O2-  O220  1  0.07994746  0.95535224  0.39475685  1
  O2-  O221  1  0.08065014  0.96153363  0.73500358  1
  O2-  O222  1  0.58766178  0.45877075  0.05787375  1
  O2-  O223  1  0.58300232  0.46475340  0.40056054  1
  O2-  O224  1  0.58984670  0.45684228  0.72877188  1
  O2-  O225  1  0.58220604  0.95509545  0.06546583  1
  O2-  O226  1  0.57802563  0.94881434  0.40151992  1
  O2-  O227  1  0.58119277  0.95352215  0.73502910  1
  O2-  O228  1  0.20624264  0.33244648  0.06673202  1
  O2-  O229  1  0.20227987  0.33177721  0.40105946  1
  O2-  O230  1  0.20006433  0.32654807  0.73424645  1
  O2-  O231  1  0.19697023  0.82958893  0.05637413  1
  O2-  O232  1  0.20332575  0.82729243  0.39632821  1
  O2-  O233  1  0.20298879  0.83248635  0.73585645  1
  O2-  O234  1  0.70742831  0.33668307  0.05743304  1
  O2-  O235  1  0.70981825  0.33689040  0.40295527  1
  O2-  O236  1  0.71097961  0.33549370  0.72744760  1
  O2-  O237  1  0.71578814  0.83535943  0.07024256  1
  O2-  O238  1  0.71159198  0.83066363  0.39902503  1
  O2-  O239  1  0.71668539  0.83279861  0.73318292  1
  O2-  O240  1  0.45440612  0.42222429  0.26642855  1
  O2-  O241  1  0.45422820  0.41948808  0.60146294  1
  O2-  O242  1  0.44907756  0.42390832  0.93581495  1
  O2-  O243  1  0.45779203  0.91618382  0.26598068  1
  O2-  O244  1  0.44747134  0.91468439  0.60904516  1
  O2-  O245  1  0.45525443  0.91139266  0.93753042  1
  O2-  O246  1  0.95531347  0.42021929  0.26912621  1
  O2-  O247  1  0.95561731  0.42116916  0.59830384  1
  O2-  O248  1  0.95912525  0.41539599  0.93867895  1
  O2-  O249  1  0.95583274  0.91192491  0.26587576  1
  O2-  O250  1  0.95694862  0.91941012  0.59920384  1
  O2-  O251  1  0.95195159  0.91210923  0.93649010  1
  O2-  O252  1  0.32785417  0.29336746  0.26849655  1
  O2-  O253  1  0.32813979  0.29153898  0.60253943  1
  O2-  O254  1  0.32968049  0.28767414  0.93332547  1
  O2-  O255  1  0.33426252  0.78504031  0.26323121  1
  O2-  O256  1  0.33157418  0.79203028  0.60896681  1
  O2-  O257  1  0.33591445  0.79218074  0.93787404  1
  O2-  O258  1  0.83419201  0.30376162  0.27151849  1
  O2-  O259  1  0.83602123  0.29132232  0.59727924  1
  O2-  O260  1  0.83828130  0.29817624  0.93658756  1
  O2-  O261  1  0.83860453  0.78935704  0.26529349  1
  O2-  O262  1  0.83773627  0.78398476  0.59525485  1
  O2-  O263  1  0.83890933  0.78522842  0.93759614  1
  O2-  O264  1  0.41356671  0.03663589  0.06895425  1
  O2-  O265  1  0.41933681  0.04328455  0.40291098  1
  O2-  O266  1  0.41369634  0.04169000  0.73557082  1
  O2-  O267  1  0.42005946  0.55672231  0.06395205  1
  O2-  O268  1  0.41891756  0.55854270  0.39029875  1
  O2-  O269  1  0.42537453  0.54806828  0.73462973  1
  O2-  O270  1  0.91611788  0.04083249  0.06501653  1
  O2-  O271  1  0.91656998  0.03707753  0.40250742  1
  O2-  O272  1  0.91314338  0.04263956  0.73486389  1
  O2-  O273  1  0.91144986  0.54322101  0.06314163  1
  O2-  O274  1  0.91652363  0.54883729  0.39731495  1
  O2-  O275  1  0.91209315  0.54592637  0.72875187  1
  O2-  O276  1  0.28512065  0.16336645  0.06875258  1
  O2-  O277  1  0.28787778  0.16752611  0.40423580  1
  O2-  O278  1  0.29519406  0.16296149  0.73456669  1
  O2-  O279  1  0.29136199  0.66638696  0.06750363  1
  O2-  O280  1  0.28728591  0.66270633  0.39681799  1
  O2-  O281  1  0.29178609  0.66506240  0.74083764  1
  O2-  O282  1  0.80696608  0.16972739  0.06003840  1
  O2-  O283  1  0.80671769  0.17519677  0.39808915  1
  O2-  O284  1  0.80140243  0.16849530  0.73040792  1
  O2-  O285  1  0.79261006  0.66077341  0.06427126  1
  O2-  O286  1  0.79969010  0.66704616  0.39517049  1
  O2-  O287  1  0.78953649  0.66171298  0.72921138  1
