# generated using pymatgen
data_Ca2Al2SiO7
_symmetry_space_group_name_H-M   'P 1'
_cell_length_a   15.45099014
_cell_length_b   15.45072567
_cell_length_c   15.27899521
_cell_angle_alpha   90.00204866
_cell_angle_beta   90.00302040
_cell_angle_gamma   89.99987997
_symmetry_Int_Tables_number   1
_chemical_formula_structural   Ca2Al2SiO7
_chemical_formula_sum   'Ca48 Al48 Si24 O168'
_cell_volume   3647.53939347
_cell_formula_units_Z   24
loop_
 _symmetry_equiv_pos_site_id
 _symmetry_equiv_pos_as_xyz
  1  'x, y, z'
loop_
 _atom_type_symbol
 _atom_type_oxidation_number
  Ca2+  2.0
  Al0+  0.0
  Si0+  0.0
  O2-  -2.0
loop_
 _atom_site_type_symbol
 _atom_site_label
 _atom_site_symmetry_multiplicity
 _atom_site_fract_x
 _atom_site_fract_y
 _atom_site_fract_z
 _atom_site_occupancy
  Ca2+  Ca0  1  0.16505558  0.07689055  0.17394860  1
  Ca2+  Ca1  1  0.17217210  0.07111371  0.50849375  1
  Ca2+  Ca2  1  0.16936759  0.08098514  0.83560543  1
  Ca2+  Ca3  1  0.16528983  0.57626511  0.17596815  1
  Ca2+  Ca4  1  0.16969814  0.58477970  0.49246944  1
  Ca2+  Ca5  1  0.16020287  0.57604359  0.84171149  1
  Ca2+  Ca6  1  0.66357359  0.07940613  0.17377155  1
  Ca2+  Ca7  1  0.66628315  0.08199691  0.49562863  1
  Ca2+  Ca8  1  0.66800930  0.07756861  0.84294627  1
  Ca2+  Ca9  1  0.67698619  0.58573312  0.16964932  1
  Ca2+  Ca10  1  0.66940870  0.57565772  0.51377627  1
  Ca2+  Ca11  1  0.67643231  0.58495402  0.83335174  1
  Ca2+  Ca12  1  0.08321507  0.33395641  0.16217780  1
  Ca2+  Ca13  1  0.07130131  0.33828795  0.49242444  1
  Ca2+  Ca14  1  0.08171610  0.33045595  0.83178838  1
  Ca2+  Ca15  1  0.09171789  0.81916480  0.16437174  1
  Ca2+  Ca16  1  0.08429260  0.83311005  0.49493623  1
  Ca2+  Ca17  1  0.07703608  0.82670796  0.82563516  1
  Ca2+  Ca18  1  0.57973502  0.32163197  0.16643240  1
  Ca2+  Ca19  1  0.57957374  0.32906806  0.48942487  1
  Ca2+  Ca20  1  0.58926960  0.32860053  0.82836011  1
  Ca2+  Ca21  1  0.57264164  0.84594486  0.16335563  1
  Ca2+  Ca22  1  0.57939982  0.82796200  0.49324555  1
  Ca2+  Ca23  1  0.58135171  0.83085646  0.83099510  1
  Ca2+  Ca24  1  0.32201529  0.42021090  0.17735664  1
  Ca2+  Ca25  1  0.33184129  0.41654390  0.49905156  1
  Ca2+  Ca26  1  0.32635004  0.42094661  0.84183407  1
  Ca2+  Ca27  1  0.33202694  0.91313191  0.17547032  1
  Ca2+  Ca28  1  0.32398327  0.91479687  0.50156610  1
  Ca2+  Ca29  1  0.33283838  0.91922458  0.83354896  1
  Ca2+  Ca30  1  0.83944763  0.42066045  0.16972443  1
  Ca2+  Ca31  1  0.83125057  0.41896993  0.50894112  1
  Ca2+  Ca32  1  0.83568027  0.42557055  0.83216011  1
  Ca2+  Ca33  1  0.81855377  0.92460208  0.17641083  1
  Ca2+  Ca34  1  0.83367188  0.92116115  0.50159007  1
  Ca2+  Ca35  1  0.82686390  0.91032243  0.83903282  1
  Ca2+  Ca36  1  0.42664601  0.16596527  0.16449476  1
  Ca2+  Ca37  1  0.42030785  0.16970730  0.49181172  1
  Ca2+  Ca38  1  0.42115068  0.16390225  0.83123179  1
  Ca2+  Ca39  1  0.40889320  0.67853108  0.16566378  1
  Ca2+  Ca40  1  0.42158702  0.66713856  0.49093539  1
  Ca2+  Ca41  1  0.42280005  0.67357148  0.82881038  1
  Ca2+  Ca42  1  0.91800173  0.17035912  0.16578708  1
  Ca2+  Ca43  1  0.91041316  0.17879877  0.49220688  1
  Ca2+  Ca44  1  0.92438986  0.17134345  0.82735193  1
  Ca2+  Ca45  1  0.92897711  0.66179469  0.16202860  1
  Ca2+  Ca46  1  0.91939461  0.67151846  0.49766769  1
  Ca2+  Ca47  1  0.91488044  0.66679801  0.82893597  1
  Al0+  Al48  1  0.00026777  0.00078116  -0.00379014  1
  Al0+  Al49  1  -0.00232957  0.00106140  0.34180507  1
  Al0+  Al50  1  0.00041938  -0.00182392  0.66736303  1
  Al0+  Al51  1  -0.00010104  0.50001980  0.00333696  1
  Al0+  Al52  1  0.00026342  0.50048742  0.33024374  1
  Al0+  Al53  1  0.00078224  0.50014321  0.66574322  1
  Al0+  Al54  1  0.49874068  0.00105874  -0.00657028  1
  Al0+  Al55  1  0.50029703  -0.00155408  0.33223295  1
  Al0+  Al56  1  0.49917550  0.00014217  0.66885415  1
  Al0+  Al57  1  0.50049950  0.50140054  0.00166081  1
  Al0+  Al58  1  0.50080524  0.50059824  0.32983803  1
  Al0+  Al59  1  0.50001730  0.49819158  0.66904656  1
  Al0+  Al60  1  0.24963876  0.24946024  0.00072335  1
  Al0+  Al61  1  0.24762060  0.25080960  0.33517824  1
  Al0+  Al62  1  0.25193890  0.24864067  0.67062931  1
  Al0+  Al63  1  0.25000894  0.75038029  -0.01344466  1
  Al0+  Al64  1  0.25067315  0.74851349  0.33467276  1
  Al0+  Al65  1  0.24963905  0.74977533  0.67187727  1
  Al0+  Al66  1  0.74988838  0.25104653  -0.00564261  1
  Al0+  Al67  1  0.75099508  0.25106472  0.32603846  1
  Al0+  Al68  1  0.75026757  0.24882039  0.66724293  1
  Al0+  Al69  1  0.74871351  0.75017030  0.01255793  1
  Al0+  Al70  1  0.75039710  0.75119238  0.33725686  1
  Al0+  Al71  1  0.75096524  0.74954941  0.66053276  1
  Al0+  Al72  1  0.18102452  0.42909876  0.01364679  1
  Al0+  Al73  1  0.93094116  0.31947698  0.65359002  1
  Al0+  Al74  1  0.82151947  0.57188062  0.68023273  1
  Al0+  Al75  1  0.67638009  0.92883491  0.35159647  1
  Al0+  Al76  1  0.67818132  0.93142704  0.01297826  1
  Al0+  Al77  1  0.67755176  0.42663067  0.68128978  1
  Al0+  Al78  1  0.92901673  0.82114279  0.65272783  1
  Al0+  Al79  1  0.06846403  0.68315157  0.32082593  1
  Al0+  Al80  1  0.07207955  0.17755518  0.98631639  1
  Al0+  Al81  1  0.06921281  0.67822204  0.98546347  1
  Al0+  Al82  1  0.56979030  0.67882434  0.65434862  1
  Al0+  Al83  1  0.56973083  0.17972762  0.31897088  1
  Al0+  Al84  1  0.42960726  0.82093207  0.98359106  1
  Al0+  Al85  1  0.17729309  0.92747624  0.68554158  1
  Al0+  Al86  1  0.17740241  0.42749158  0.35037083  1
  Al0+  Al87  1  0.17940585  0.92784062  0.34437637  1
  Al0+  Al88  1  0.81986935  0.07333968  0.34879269  1
  Al0+  Al89  1  0.32196408  0.57046923  0.34749165  1
  Al0+  Al90  1  0.42526779  0.32398937  0.31794790  1
  Al0+  Al91  1  0.92998993  0.32126155  0.31829539  1
  Al0+  Al92  1  0.32166759  0.07140083  0.68302589  1
  Al0+  Al93  1  0.43067270  0.81780200  0.32234869  1
  Al0+  Al94  1  0.81966352  0.56973024  0.01573017  1
  Al0+  Al95  1  0.57012056  0.18088881  0.98385699  1
  Si0+  Si96  1  0.42805327  0.82213664  0.64884726  1
  Si0+  Si97  1  0.57102174  0.17783448  0.65172072  1
  Si0+  Si98  1  0.32215260  0.07237052  0.34752884  1
  Si0+  Si99  1  0.07163823  0.17579748  0.31970489  1
  Si0+  Si100  1  0.07402683  0.67706121  0.64873406  1
  Si0+  Si101  1  0.42805790  0.32302157  0.98347829  1
  Si0+  Si102  1  0.82245358  0.57080414  0.34911178  1
  Si0+  Si103  1  0.67665285  0.42542325  0.01856846  1
  Si0+  Si104  1  0.67983975  0.92925970  0.68081425  1
  Si0+  Si105  1  0.82058812  0.07185495  0.68262408  1
  Si0+  Si106  1  0.82374392  0.07403915  0.01444728  1
  Si0+  Si107  1  0.92579491  0.82568101  0.31554842  1
  Si0+  Si108  1  0.68037490  0.43035484  0.34522291  1
  Si0+  Si109  1  0.92650627  0.82100401  0.98750824  1
  Si0+  Si110  1  0.32271880  0.57071371  0.68296117  1
  Si0+  Si111  1  0.31998083  0.06952361  0.01599046  1
  Si0+  Si112  1  0.92886034  0.32236583  0.98144877  1
  Si0+  Si113  1  0.07429993  0.17794495  0.64926207  1
  Si0+  Si114  1  0.32294991  0.57464063  0.01492105  1
  Si0+  Si115  1  0.57474106  0.67701915  0.98448804  1
  Si0+  Si116  1  0.57552182  0.67652925  0.31562963  1
  Si0+  Si117  1  0.42804952  0.32080769  0.65328338  1
  Si0+  Si118  1  0.17948127  0.42962698  0.68162517  1
  Si0+  Si119  1  0.17850880  0.92807851  0.01358647  1
  O2-  O120  1  0.24857376  -0.00112058  0.05784817  1
  O2-  O121  1  0.25116613  0.00565139  0.39088162  1
  O2-  O122  1  0.24956285  0.00000538  0.73455906  1
  O2-  O123  1  0.25573673  0.50453338  0.05841598  1
  O2-  O124  1  0.25396556  0.49531462  0.39955561  1
  O2-  O125  1  0.24886518  0.50211421  0.72459997  1
  O2-  O126  1  0.75337641  0.00672218  0.05776018  1
  O2-  O127  1  0.75006062  -0.00024014  0.40062590  1
  O2-  O128  1  0.75087469  -0.00047922  0.72505768  1
  O2-  O129  1  0.74497346  0.49448598  0.06285537  1
  O2-  O130  1  0.74752027  0.50369789  0.38976733  1
  O2-  O131  1  0.74962138  0.49940114  0.73007775  1
  O2-  O132  1  0.00588386  0.24655829  0.27395753  1
  O2-  O133  1  0.00515107  0.24551576  0.60460768  1
  O2-  O134  1  -0.00364550  0.25131337  0.93903751  1
  O2-  O135  1  -0.00444967  0.75840784  0.27115327  1
  O2-  O136  1  0.00620373  0.74799361  0.60710907  1
  O2-  O137  1  -0.00568760  0.75316934  0.94034703  1
  O2-  O138  1  0.49463221  0.24891185  0.26910649  1
  O2-  O139  1  0.50052784  0.25053376  0.61179050  1
  O2-  O140  1  0.49980716  0.25938176  0.93595670  1
  O2-  O141  1  0.50731241  0.74637572  0.27259800  1
  O2-  O142  1  0.49445866  0.75142409  0.60526221  1
  O2-  O143  1  0.50479929  0.74470345  0.94021866  1
  O2-  O144  1  0.07135981  0.17558216  0.09923649  1
  O2-  O145  1  0.07060740  0.17596075  0.42518517  1
  O2-  O146  1  0.07342650  0.18054249  0.75536204  1
  O2-  O147  1  0.07115920  0.67890464  0.09847760  1
  O2-  O148  1  0.06709790  0.68359141  0.43398213  1
  O2-  O149  1  0.07273316  0.67547282  0.75463283  1
  O2-  O150  1  0.56758756  0.17937670  0.09636847  1
  O2-  O151  1  0.56953257  0.18206670  0.43316286  1
  O2-  O152  1  0.57083889  0.17750664  0.75696040  1
  O2-  O153  1  0.57447959  0.67567962  0.08981344  1
  O2-  O154  1  0.57467832  0.67531336  0.42147535  1
  O2-  O155  1  0.56915591  0.68220513  0.76784020  1
  O2-  O156  1  0.17637317  0.43047608  0.23673876  1
  O2-  O157  1  0.18005584  0.42870406  0.57705488  1
  O2-  O158  1  0.18219643  0.43031961  0.89954845  1
  O2-  O159  1  0.18169674  0.92799496  0.23051586  1
  O2-  O160  1  0.17976839  0.92810560  0.57169068  1
  O2-  O161  1  0.17914278  0.93030146  0.90883913  1
  O2-  O162  1  0.68256084  0.43176911  0.23995696  1
  O2-  O163  1  0.67664937  0.42621788  0.56728475  1
  O2-  O164  1  0.67724991  0.42540621  0.91306841  1
  O2-  O165  1  0.67615833  0.93156043  0.23776031  1
  O2-  O166  1  0.67853262  0.93202943  0.57627852  1
  O2-  O167  1  0.68110139  0.93040444  0.89896336  1
  O2-  O168  1  0.42783437  0.31981341  0.08847293  1
  O2-  O169  1  0.42951202  0.32271780  0.43237437  1
  O2-  O170  1  0.42686020  0.32093219  0.75848491  1
  O2-  O171  1  0.42729603  0.82172697  0.09669930  1
  O2-  O172  1  0.43069614  0.81566348  0.43548731  1
  O2-  O173  1  0.43108814  0.82189784  0.75470425  1
  O2-  O174  1  0.92893255  0.32171695  0.08706658  1
  O2-  O175  1  0.92853609  0.32183963  0.43166670  1
  O2-  O176  1  0.93392870  0.31848196  0.76680051  1
  O2-  O177  1  0.92911459  0.82162490  0.09270713  1
  O2-  O178  1  0.92602504  0.82254111  0.42133009  1
  O2-  O179  1  0.92693221  0.81913792  0.76646664  1
  O2-  O180  1  0.32200634  0.07050517  0.24150328  1
  O2-  O181  1  0.32191868  0.07226910  0.56947011  1
  O2-  O182  1  0.31991689  0.06933518  0.91092131  1
  O2-  O183  1  0.31732120  0.57336968  0.23387704  1
  O2-  O184  1  0.32466125  0.57005671  0.57830675  1
  O2-  O185  1  0.32344623  0.57178113  0.90871893  1
  O2-  O186  1  0.81988150  0.07214681  0.23479620  1
  O2-  O187  1  0.81774947  0.07459332  0.57803271  1
  O2-  O188  1  0.82341604  0.07245199  0.90833828  1
  O2-  O189  1  0.82271491  0.56921944  0.24367945  1
  O2-  O190  1  0.82024857  0.56977175  0.56649387  1
  O2-  O191  1  0.81893391  0.57050461  0.90270616  1
  O2-  O192  1  0.04338361  0.08257618  0.27330077  1
  O2-  O193  1  0.05004514  0.08295595  0.60689288  1
  O2-  O194  1  0.04186522  0.08188241  0.92846134  1
  O2-  O195  1  0.03582126  0.58755388  0.26584821  1
  O2-  O196  1  0.04790705  0.58412274  0.60227190  1
  O2-  O197  1  0.03678232  0.58167394  0.93229891  1
  O2-  O198  1  0.54231273  0.08095679  0.26650677  1
  O2-  O199  1  0.54155614  0.08633273  0.60461502  1
  O2-  O200  1  0.53526869  0.08690065  0.92726071  1
  O2-  O201  1  0.55199676  0.58357453  0.26795546  1
  O2-  O202  1  0.53962296  0.58087393  0.60206690  1
  O2-  O203  1  0.55113047  0.58267844  0.93788697  1
  O2-  O204  1  0.16622320  0.19699640  0.27367728  1
  O2-  O205  1  0.16873363  0.20349466  0.60557954  1
  O2-  O206  1  0.16810423  0.21014894  0.93129968  1
  O2-  O207  1  0.16501758  0.71318801  0.26669029  1
  O2-  O208  1  0.16898030  0.70233165  0.60515400  1
  O2-  O209  1  0.16390475  0.70698983  0.92703890  1
  O2-  O210  1  0.66527780  0.21181770  0.26281717  1
  O2-  O211  1  0.66310720  0.20412883  0.60497227  1
  O2-  O212  1  0.66820962  0.20709316  0.92894379  1
  O2-  O213  1  0.67027141  0.70188879  0.27145460  1
  O2-  O214  1  0.66488552  0.70883518  0.59802970  1
  O2-  O215  1  0.66825458  0.70676435  0.94052385  1
  O2-  O216  1  0.08446301  0.45884257  0.06682398  1
  O2-  O217  1  0.08059701  0.46390783  0.40241284  1
  O2-  O218  1  0.08815530  0.45744415  0.73007521  1
  O2-  O219  1  0.08584514  0.95452682  0.05980542  1
  O2-  O220  1  0.08271083  0.95423963  0.40012952  1
  O2-  O221  1  0.07808700  0.95513418  0.73785739  1
  O2-  O222  1  0.58196240  0.44927028  0.06356140  1
  O2-  O223  1  0.58732187  0.45410903  0.39206576  1
  O2-  O224  1  0.57943192  0.45363941  0.73617446  1
  O2-  O225  1  0.58106268  0.96548116  0.06358354  1
  O2-  O226  1  0.57842961  0.95824630  0.40498686  1
  O2-  O227  1  0.58803107  0.95666701  0.72882079  1
  O2-  O228  1  0.21055336  0.33221828  0.06765639  1
  O2-  O229  1  0.19927025  0.32754905  0.40356984  1
  O2-  O230  1  0.20832858  0.33821830  0.72961822  1
  O2-  O231  1  0.20880442  0.83469837  0.05617481  1
  O2-  O232  1  0.21480074  0.83471197  0.40111911  1
  O2-  O233  1  0.20501375  0.82856530  0.73881142  1
  O2-  O234  1  0.70362997  0.33124196  0.06293790  1
  O2-  O235  1  0.71037450  0.33908598  0.39141584  1
  O2-  O236  1  0.70824738  0.32887815  0.73493850  1
  O2-  O237  1  0.70492190  0.83646315  0.07134317  1
  O2-  O238  1  0.70382542  0.82933993  0.40355276  1
  O2-  O239  1  0.70899230  0.83735354  0.72662172  1
  O2-  O240  1  0.45603936  0.42086422  0.26323786  1
  O2-  O241  1  0.45407792  0.41266891  0.60573419  1
  O2-  O242  1  0.44830749  0.41947070  0.93973374  1
  O2-  O243  1  0.45801224  0.91485375  0.26701576  1
  O2-  O244  1  0.45545538  0.91573580  0.60422167  1
  O2-  O245  1  0.46215261  0.91564030  0.92725150  1
  O2-  O246  1  0.96135302  0.41686556  0.26303491  1
  O2-  O247  1  0.96118033  0.41650035  0.59984662  1
  O2-  O248  1  0.95870726  0.41479800  0.93613856  1
  O2-  O249  1  0.94825999  0.92125708  0.27341408  1
  O2-  O250  1  0.95746478  0.91876701  0.59872020  1
  O2-  O251  1  0.94991844  0.91451683  0.93947340  1
  O2-  O252  1  0.32480457  0.29883332  0.26784668  1
  O2-  O253  1  0.33675943  0.29173846  0.60525552  1
  O2-  O254  1  0.33594893  0.29310526  0.93636429  1
  O2-  O255  1  0.33550773  0.78521235  0.26636680  1
  O2-  O256  1  0.33229119  0.79754575  0.60771687  1
  O2-  O257  1  0.33566855  0.79048143  0.92377840  1
  O2-  O258  1  0.83568818  0.29066127  0.26027421  1
  O2-  O259  1  0.83357586  0.28803789  0.60081077  1
  O2-  O260  1  0.83490819  0.29995891  0.93467287  1
  O2-  O261  1  0.83171795  0.79860978  0.27099849  1
  O2-  O262  1  0.83465756  0.79028096  0.59480485  1
  O2-  O263  1  0.83189074  0.79333158  0.94399146  1
  O2-  O264  1  0.41172912  0.03971478  0.06150035  1
  O2-  O265  1  0.41433698  0.04448962  0.39442885  1
  O2-  O266  1  0.41987981  0.04135709  0.73769286  1
  O2-  O267  1  0.41781570  0.55431395  0.06071566  1
  O2-  O268  1  0.42284382  0.54624650  0.39857846  1
  O2-  O269  1  0.41203839  0.53964305  0.73341629  1
  O2-  O270  1  0.91725307  0.04811426  0.06050430  1
  O2-  O271  1  0.91726708  0.04823287  0.40595621  1
  O2-  O272  1  0.91368424  0.04623588  0.72828495  1
  O2-  O273  1  0.91536988  0.53701336  0.07041184  1
  O2-  O274  1  0.91231061  0.53909740  0.39644614  1
  O2-  O275  1  0.92029916  0.54272270  0.73314723  1
  O2-  O276  1  0.29346132  0.16148789  0.06296707  1
  O2-  O277  1  0.30005534  0.16651824  0.39372514  1
  O2-  O278  1  0.29476897  0.16970770  0.73897384  1
  O2-  O279  1  0.29424603  0.66941681  0.05605029  1
  O2-  O280  1  0.28796489  0.66547328  0.40404389  1
  O2-  O281  1  0.29835888  0.66326458  0.73074593  1
  O2-  O282  1  0.79954024  0.16915715  0.05754653  1
  O2-  O283  1  0.78778756  0.17213803  0.39979958  1
  O2-  O284  1  0.79151635  0.16189814  0.73279193  1
  O2-  O285  1  0.79027505  0.66444165  0.07468993  1
  O2-  O286  1  0.80004651  0.66460967  0.39455376  1
  O2-  O287  1  0.79076392  0.67028337  0.73239044  1
