# generated using pymatgen
data_Ca2Al2SiO7
_symmetry_space_group_name_H-M   'P 1'
_cell_length_a   15.46267804
_cell_length_b   15.46352538
_cell_length_c   15.28726643
_cell_angle_alpha   89.99408996
_cell_angle_beta   90.01092190
_cell_angle_gamma   89.99203241
_symmetry_Int_Tables_number   1
_chemical_formula_structural   Ca2Al2SiO7
_chemical_formula_sum   'Ca48 Al48 Si24 O168'
_cell_volume   3655.30015453
_cell_formula_units_Z   24
loop_
 _symmetry_equiv_pos_site_id
 _symmetry_equiv_pos_as_xyz
  1  'x, y, z'
loop_
 _atom_type_symbol
 _atom_type_oxidation_number
  Ca2+  2.0
  Al0+  0.0
  Si0+  0.0
  O2-  -2.0
loop_
 _atom_site_type_symbol
 _atom_site_label
 _atom_site_symmetry_multiplicity
 _atom_site_fract_x
 _atom_site_fract_y
 _atom_site_fract_z
 _atom_site_occupancy
  Ca2+  Ca0  1  0.17413535  0.09172700  0.17005180  1
  Ca2+  Ca1  1  0.16744493  0.08502832  0.51314788  1
  Ca2+  Ca2  1  0.17477673  0.08660328  0.83543784  1
  Ca2+  Ca3  1  0.16661802  0.57717100  0.17153717  1
  Ca2+  Ca4  1  0.16105228  0.57076834  0.50739545  1
  Ca2+  Ca5  1  0.15601793  0.57846445  0.83548063  1
  Ca2+  Ca6  1  0.67418436  0.09356931  0.16702749  1
  Ca2+  Ca7  1  0.67506960  0.09260505  0.49924103  1
  Ca2+  Ca8  1  0.67107703  0.07938796  0.84686129  1
  Ca2+  Ca9  1  0.66424974  0.57595928  0.17213801  1
  Ca2+  Ca10  1  0.67193973  0.57047515  0.51254658  1
  Ca2+  Ca11  1  0.66641824  0.58280639  0.83349759  1
  Ca2+  Ca12  1  0.07370859  0.33173666  0.16579293  1
  Ca2+  Ca13  1  0.07736913  0.33053784  0.49650466  1
  Ca2+  Ca14  1  0.07157897  0.32991022  0.82345222  1
  Ca2+  Ca15  1  0.08287481  0.82455067  0.15953544  1
  Ca2+  Ca16  1  0.08858079  0.83000277  0.50236453  1
  Ca2+  Ca17  1  0.09002249  0.82328459  0.82714251  1
  Ca2+  Ca18  1  0.58323089  0.32512250  0.16091590  1
  Ca2+  Ca19  1  0.58647097  0.33312295  0.49428069  1
  Ca2+  Ca20  1  0.57827253  0.33122236  0.83210405  1
  Ca2+  Ca21  1  0.58074687  0.82789027  0.15296661  1
  Ca2+  Ca22  1  0.58662452  0.82529394  0.49964284  1
  Ca2+  Ca23  1  0.58529475  0.82888327  0.83167862  1
  Ca2+  Ca24  1  0.32860571  0.41288235  0.16987926  1
  Ca2+  Ca25  1  0.31809407  0.41159271  0.50554959  1
  Ca2+  Ca26  1  0.32565596  0.41163431  0.83737471  1
  Ca2+  Ca27  1  0.33958966  0.92064644  0.16297730  1
  Ca2+  Ca28  1  0.32509751  0.92694049  0.51081873  1
  Ca2+  Ca29  1  0.33192612  0.92450918  0.83673688  1
  Ca2+  Ca30  1  0.83082103  0.41047127  0.17144962  1
  Ca2+  Ca31  1  0.82680921  0.41162058  0.50652773  1
  Ca2+  Ca32  1  0.83503874  0.41652104  0.83235879  1
  Ca2+  Ca33  1  0.82759580  0.92984158  0.16755419  1
  Ca2+  Ca34  1  0.83672485  0.92617008  0.50169518  1
  Ca2+  Ca35  1  0.82813597  0.92491137  0.84377800  1
  Ca2+  Ca36  1  0.42740923  0.16976783  0.15598142  1
  Ca2+  Ca37  1  0.42203186  0.16465363  0.49621645  1
  Ca2+  Ca38  1  0.41706198  0.16170849  0.83499028  1
  Ca2+  Ca39  1  0.42357157  0.67368323  0.15344131  1
  Ca2+  Ca40  1  0.42148949  0.66409242  0.50153322  1
  Ca2+  Ca41  1  0.42829468  0.67147210  0.83150989  1
  Ca2+  Ca42  1  0.91187369  0.17493538  0.16418803  1
  Ca2+  Ca43  1  0.92629108  0.17520163  0.49179942  1
  Ca2+  Ca44  1  0.91557203  0.17555787  0.82705752  1
  Ca2+  Ca45  1  0.92305356  0.66695470  0.15949757  1
  Ca2+  Ca46  1  0.91805107  0.66067508  0.50525099  1
  Ca2+  Ca47  1  0.92393707  0.66549936  0.82600308  1
  Al0+  Al48  1  0.00058600  -0.00053423  0.00650780  1
  Al0+  Al49  1  0.00126773  -0.00141303  0.33260661  1
  Al0+  Al50  1  0.00057689  -0.00127443  0.66946759  1
  Al0+  Al51  1  -0.00158073  0.49815263  -0.00463570  1
  Al0+  Al52  1  0.00053974  0.50059794  0.33325012  1
  Al0+  Al53  1  -0.00213148  0.50124992  0.66578985  1
  Al0+  Al54  1  0.49830991  -0.00150515  0.00076013  1
  Al0+  Al55  1  0.50056213  -0.00181479  0.33075441  1
  Al0+  Al56  1  0.49974928  0.00020885  0.66727014  1
  Al0+  Al57  1  0.49803428  0.49981845  -0.00570883  1
  Al0+  Al58  1  0.49991856  0.50142384  0.33718604  1
  Al0+  Al59  1  0.49972706  0.49908824  0.66484738  1
  Al0+  Al60  1  0.24826064  0.24944902  0.00368245  1
  Al0+  Al61  1  0.25016687  0.25070800  0.33586335  1
  Al0+  Al62  1  0.25137003  0.25113600  0.67271261  1
  Al0+  Al63  1  0.25178976  0.74755856  -0.00690416  1
  Al0+  Al64  1  0.25168033  0.75127702  0.33334530  1
  Al0+  Al65  1  0.25103935  0.75104855  0.66353445  1
  Al0+  Al66  1  0.74939186  0.25225581  -0.00505581  1
  Al0+  Al67  1  0.75032402  0.25014217  0.33539922  1
  Al0+  Al68  1  0.74767441  0.25078574  0.66838024  1
  Al0+  Al69  1  0.75292939  0.74927217  0.00179391  1
  Al0+  Al70  1  0.75088610  0.75107017  0.33210157  1
  Al0+  Al71  1  0.75030441  0.74921703  0.66358557  1
  Al0+  Al72  1  0.42918173  0.82208252  0.98283213  1
  Al0+  Al73  1  0.07373208  0.17647097  0.31794408  1
  Al0+  Al74  1  0.32236836  0.07228649  0.68266201  1
  Al0+  Al75  1  0.82099596  0.07059320  0.34837615  1
  Al0+  Al76  1  0.06992659  0.67919347  0.98733054  1
  Al0+  Al77  1  0.42578193  0.32082950  0.98523742  1
  Al0+  Al78  1  0.31898290  0.07078854  0.01688201  1
  Al0+  Al79  1  0.57017617  0.17953929  0.32050875  1
  Al0+  Al80  1  0.92902998  0.31916176  0.98485034  1
  Al0+  Al81  1  0.81969353  0.57131484  0.68308225  1
  Al0+  Al82  1  0.07162367  0.67991515  0.65115727  1
  Al0+  Al83  1  0.17940747  0.42980854  0.34692662  1
  Al0+  Al84  1  0.92974472  0.32116027  0.31807543  1
  Al0+  Al85  1  0.17856637  0.43104423  0.68205810  1
  Al0+  Al86  1  0.67864523  0.92729753  0.01455828  1
  Al0+  Al87  1  0.57148088  0.67876872  0.65048957  1
  Al0+  Al88  1  0.67965046  0.42990360  0.34544695  1
  Al0+  Al89  1  0.67677221  0.42685602  0.68546054  1
  Al0+  Al90  1  0.57033818  0.17962439  0.98424130  1
  Al0+  Al91  1  0.17730926  0.92803171  0.68258620  1
  Al0+  Al92  1  0.82110307  0.07472174  0.01530445  1
  Al0+  Al93  1  0.92707635  0.32077668  0.64979596  1
  Al0+  Al94  1  0.07170923  0.17893202  0.65452225  1
  Al0+  Al95  1  0.57475471  0.67794581  0.98525333  1
  Si0+  Si96  1  0.92948024  0.82334431  0.98484514  1
  Si0+  Si97  1  0.42872094  0.32140272  0.65073376  1
  Si0+  Si98  1  0.92793511  0.82240832  0.31678711  1
  Si0+  Si99  1  0.32265701  0.57258244  0.68366957  1
  Si0+  Si100  1  0.92699286  0.82300384  0.64938450  1
  Si0+  Si101  1  0.67969846  0.92889143  0.67899736  1
  Si0+  Si102  1  0.67681454  0.43159794  0.01451473  1
  Si0+  Si103  1  0.56979683  0.17741283  0.65148587  1
  Si0+  Si104  1  0.67743214  0.92651728  0.35129170  1
  Si0+  Si105  1  0.82058802  0.07087326  0.68045923  1
  Si0+  Si106  1  0.17649783  0.42982410  0.01580824  1
  Si0+  Si107  1  0.32093203  0.56988204  0.01379231  1
  Si0+  Si108  1  0.57116731  0.67878830  0.31901123  1
  Si0+  Si109  1  0.82306569  0.56944226  0.01531914  1
  Si0+  Si110  1  0.07240189  0.17600261  0.98485698  1
  Si0+  Si111  1  0.17973077  0.92646335  0.34758127  1
  Si0+  Si112  1  0.07108649  0.68048531  0.31921387  1
  Si0+  Si113  1  0.42926299  0.81975615  0.31806485  1
  Si0+  Si114  1  0.42747536  0.32363178  0.31906207  1
  Si0+  Si115  1  0.82232565  0.57525552  0.34899824  1
  Si0+  Si116  1  0.42994366  0.82338251  0.64700923  1
  Si0+  Si117  1  0.32148814  0.57488024  0.35015106  1
  Si0+  Si118  1  0.32179829  0.06943544  0.34715049  1
  Si0+  Si119  1  0.17952188  0.92415114  0.01803453  1
  O2-  O120  1  0.24419729  -0.00447384  0.06457890  1
  O2-  O121  1  0.24554889  0.00325516  0.38824298  1
  O2-  O122  1  0.24717180  0.00243568  0.73098023  1
  O2-  O123  1  0.25029267  0.49901307  0.05735171  1
  O2-  O124  1  0.25492996  0.50430923  0.39366418  1
  O2-  O125  1  0.25111752  0.50801412  0.72951804  1
  O2-  O126  1  0.74661181  0.00357783  0.06445303  1
  O2-  O127  1  0.74478519  -0.00366261  0.39572450  1
  O2-  O128  1  0.75006690  -0.00070248  0.72166396  1
  O2-  O129  1  0.74734610  0.50343331  0.05732059  1
  O2-  O130  1  0.75402916  0.50558839  0.39101437  1
  O2-  O131  1  0.74888323  0.49918761  0.73450503  1
  O2-  O132  1  0.00053186  0.24748933  0.26801223  1
  O2-  O133  1  0.00063810  0.24955121  0.60136064  1
  O2-  O134  1  -0.00043733  0.23969177  0.94099835  1
  O2-  O135  1  -0.00109445  0.74983743  0.27643805  1
  O2-  O136  1  -0.00234071  0.75591359  0.60469526  1
  O2-  O137  1  -0.00032491  0.75724190  0.94004165  1
  O2-  O138  1  0.49662494  0.25597929  0.27491657  1
  O2-  O139  1  0.50004917  0.24996937  0.60949030  1
  O2-  O140  1  0.49608558  0.24864061  0.93331709  1
  O2-  O141  1  0.50068266  0.74920389  0.27606729  1
  O2-  O142  1  0.49678908  0.75311264  0.60180081  1
  O2-  O143  1  0.50671261  0.75416018  0.93604568  1
  O2-  O144  1  0.07471050  0.18033614  0.09052722  1
  O2-  O145  1  0.07456067  0.17622785  0.43119032  1
  O2-  O146  1  0.06875167  0.17965325  0.76811870  1
  O2-  O147  1  0.06861024  0.67887075  0.10150882  1
  O2-  O148  1  0.07225461  0.68195147  0.42383175  1
  O2-  O149  1  0.06969139  0.68117731  0.76406033  1
  O2-  O150  1  0.57115804  0.18451395  0.09816464  1
  O2-  O151  1  0.56725014  0.17837619  0.43409116  1
  O2-  O152  1  0.56954480  0.17429942  0.75592143  1
  O2-  O153  1  0.57030176  0.67546883  0.09988836  1
  O2-  O154  1  0.57029999  0.67991436  0.42386221  1
  O2-  O155  1  0.57095708  0.68225338  0.76293660  1
  O2-  O156  1  0.18012150  0.43362386  0.23340430  1
  O2-  O157  1  0.18080491  0.43084241  0.56859940  1
  O2-  O158  1  0.17553562  0.43172249  0.91100201  1
  O2-  O159  1  0.18356328  0.91852236  0.24302646  1
  O2-  O160  1  0.18069580  0.92825686  0.56799985  1
  O2-  O161  1  0.18068127  0.92324423  0.91304002  1
  O2-  O162  1  0.67721967  0.43291915  0.23201592  1
  O2-  O163  1  0.67659552  0.42742214  0.57132975  1
  O2-  O164  1  0.67618719  0.43240295  0.91003662  1
  O2-  O165  1  0.67862246  0.92196346  0.24648479  1
  O2-  O166  1  0.67991714  0.93017927  0.57346926  1
  O2-  O167  1  0.68386793  0.92649197  0.90037160  1
  O2-  O168  1  0.42741532  0.32182732  0.09945826  1
  O2-  O169  1  0.42661883  0.32205372  0.42476732  1
  O2-  O170  1  0.42870122  0.32275703  0.75535767  1
  O2-  O171  1  0.42689910  0.81591044  0.09753270  1
  O2-  O172  1  0.42853690  0.81918267  0.42294683  1
  O2-  O173  1  0.43249727  0.82458683  0.75188815  1
  O2-  O174  1  0.93073162  0.32317974  0.09798280  1
  O2-  O175  1  0.93049613  0.32139748  0.43101534  1
  O2-  O176  1  0.92729786  0.31751551  0.76349497  1
  O2-  O177  1  0.93055555  0.81988793  0.09096978  1
  O2-  O178  1  0.92692683  0.82349625  0.42161613  1
  O2-  O179  1  0.92432976  0.82264054  0.75461228  1
  O2-  O180  1  0.32323940  0.06706429  0.24234195  1
  O2-  O181  1  0.32561635  0.06954658  0.56808782  1
  O2-  O182  1  0.31587356  0.07159643  0.90451898  1
  O2-  O183  1  0.32013964  0.57829944  0.24444722  1
  O2-  O184  1  0.32247113  0.56903892  0.57742115  1
  O2-  O185  1  0.32063814  0.56987365  0.90927657  1
  O2-  O186  1  0.81911061  0.06946204  0.23585821  1
  O2-  O187  1  0.81971240  0.06973688  0.57504777  1
  O2-  O188  1  0.82117658  0.07152172  0.90122485  1
  O2-  O189  1  0.82103372  0.57909225  0.24306916  1
  O2-  O190  1  0.81673066  0.57242220  0.56892728  1
  O2-  O191  1  0.82624748  0.56818731  0.91106576  1
  O2-  O192  1  0.05115826  0.07559335  0.26692615  1
  O2-  O193  1  0.04563152  0.07852844  0.60357238  1
  O2-  O194  1  0.05390485  0.07895024  0.94383685  1
  O2-  O195  1  0.04470354  0.58916859  0.27064866  1
  O2-  O196  1  0.03769024  0.58499920  0.59612930  1
  O2-  O197  1  0.03488715  0.58506984  0.93299170  1
  O2-  O198  1  0.54024668  0.08217530  0.26727591  1
  O2-  O199  1  0.54146011  0.08645010  0.60179577  1
  O2-  O200  1  0.54522671  0.07936974  0.93552553  1
  O2-  O201  1  0.54306119  0.58682614  0.27189040  1
  O2-  O202  1  0.53845721  0.58247435  0.59627209  1
  O2-  O203  1  0.54029531  0.58288817  0.93087556  1
  O2-  O204  1  0.17232527  0.20803608  0.26623476  1
  O2-  O205  1  0.17217407  0.20641684  0.60490699  1
  O2-  O206  1  0.16400191  0.20636715  0.93872773  1
  O2-  O207  1  0.16299785  0.71024418  0.27203827  1
  O2-  O208  1  0.16883656  0.70877700  0.59598202  1
  O2-  O209  1  0.16669308  0.70414952  0.93264849  1
  O2-  O210  1  0.66644939  0.21075219  0.26796659  1
  O2-  O211  1  0.66158290  0.20554135  0.60424795  1
  O2-  O212  1  0.66698041  0.20953060  0.92995774  1
  O2-  O213  1  0.66377134  0.70529195  0.27243251  1
  O2-  O214  1  0.66674975  0.71170435  0.59465076  1
  O2-  O215  1  0.67532197  0.70149862  0.93541227  1
  O2-  O216  1  0.08643707  0.46316537  0.06367568  1
  O2-  O217  1  0.08388746  0.46394671  0.40085475  1
  O2-  O218  1  0.08180128  0.46195574  0.73414556  1
  O2-  O219  1  0.08436388  0.94418386  0.06406139  1
  O2-  O220  1  0.08568967  0.94618208  0.39317873  1
  O2-  O221  1  0.07729892  0.94861725  0.73559002  1
  O2-  O222  1  0.58443969  0.45887692  0.06191932  1
  O2-  O223  1  0.58268660  0.45973950  0.40087555  1
  O2-  O224  1  0.57744488  0.45663991  0.73498732  1
  O2-  O225  1  0.57769417  0.94736892  0.06486761  1
  O2-  O226  1  0.58256005  0.94977858  0.39623680  1
  O2-  O227  1  0.58802742  0.95609423  0.72577653  1
  O2-  O228  1  0.20252499  0.33831465  0.06415706  1
  O2-  O229  1  0.21069172  0.33397784  0.40261265  1
  O2-  O230  1  0.21169368  0.33649679  0.73744126  1
  O2-  O231  1  0.20914564  0.83050112  0.06356403  1
  O2-  O232  1  0.21347591  0.83752133  0.39852586  1
  O2-  O233  1  0.20935280  0.82957998  0.73313639  1
  O2-  O234  1  0.70701375  0.34006749  0.06054673  1
  O2-  O235  1  0.70889035  0.33428533  0.40105799  1
  O2-  O236  1  0.70315617  0.32787156  0.73782484  1
  O2-  O237  1  0.71080819  0.82968370  0.06973331  1
  O2-  O238  1  0.70632301  0.83343880  0.39846016  1
  O2-  O239  1  0.70693479  0.83713617  0.72523075  1
  O2-  O240  1  0.45016992  0.41919925  0.27484094  1
  O2-  O241  1  0.45504629  0.41241203  0.60095825  1
  O2-  O242  1  0.45292692  0.41834588  0.93098246  1
  O2-  O243  1  0.45652625  0.91091678  0.26955932  1
  O2-  O244  1  0.45881007  0.91583545  0.59918012  1
  O2-  O245  1  0.45078006  0.92153730  0.93150911  1
  O2-  O246  1  0.95801478  0.42084398  0.26546020  1
  O2-  O247  1  0.95312481  0.42028716  0.59971669  1
  O2-  O248  1  0.96436501  0.41329424  0.92980985  1
  O2-  O249  1  0.95748012  0.91208950  0.26728374  1
  O2-  O250  1  0.95286010  0.91638835  0.60250130  1
  O2-  O251  1  0.95160388  0.91841930  0.94086574  1
  O2-  O252  1  0.33433466  0.29811493  0.27289740  1
  O2-  O253  1  0.33725682  0.29216853  0.60340252  1
  O2-  O254  1  0.32598277  0.29385274  0.93492055  1
  O2-  O255  1  0.33798149  0.79141457  0.26943494  1
  O2-  O256  1  0.33643038  0.79839788  0.60019613  1
  O2-  O257  1  0.33411253  0.78777412  0.92784987  1
  O2-  O258  1  0.83098655  0.29220796  0.26645827  1
  O2-  O259  1  0.82758231  0.29071486  0.59958770  1
  O2-  O260  1  0.83220919  0.29424248  0.92994933  1
  O2-  O261  1  0.83639505  0.79440415  0.26829474  1
  O2-  O262  1  0.83523327  0.79610392  0.59954218  1
  O2-  O263  1  0.83708040  0.79613402  0.93851652  1
  O2-  O264  1  0.41572655  0.03991887  0.07070046  1
  O2-  O265  1  0.41185051  0.03603204  0.39548250  1
  O2-  O266  1  0.41973132  0.03900247  0.73547043  1
  O2-  O267  1  0.41251992  0.54230743  0.06301474  1
  O2-  O268  1  0.41567987  0.55192810  0.39617786  1
  O2-  O269  1  0.41516222  0.54415510  0.72900215  1
  O2-  O270  1  0.91917072  0.04547754  0.06988413  1
  O2-  O271  1  0.91769275  0.03599140  0.40096168  1
  O2-  O272  1  0.91161165  0.04365459  0.72849110  1
  O2-  O273  1  0.91271745  0.53642403  0.06521738  1
  O2-  O274  1  0.91689699  0.55167388  0.39321031  1
  O2-  O275  1  0.91870905  0.54551429  0.73489292  1
  O2-  O276  1  0.28793120  0.16738782  0.07281277  1
  O2-  O277  1  0.30080607  0.16320569  0.39335524  1
  O2-  O278  1  0.29889085  0.17063155  0.73653051  1
  O2-  O279  1  0.29215787  0.66146999  0.06212831  1
  O2-  O280  1  0.29457385  0.66753687  0.39802811  1
  O2-  O281  1  0.30255744  0.66869029  0.72508870  1
  O2-  O282  1  0.79057114  0.17370833  0.06680561  1
  O2-  O283  1  0.78893554  0.16566479  0.40381994  1
  O2-  O284  1  0.79043726  0.16133429  0.72763253  1
  O2-  O285  1  0.80225441  0.66297874  0.06298544  1
  O2-  O286  1  0.79707918  0.66875582  0.39594412  1
  O2-  O287  1  0.79156388  0.67110446  0.73397500  1
