# generated using pymatgen
data_Ca2Al2SiO7
_symmetry_space_group_name_H-M   'P 1'
_cell_length_a   15.46027325
_cell_length_b   15.46175604
_cell_length_c   15.28592623
_cell_angle_alpha   90.00249389
_cell_angle_beta   89.99788804
_cell_angle_gamma   90.00664320
_symmetry_Int_Tables_number   1
_chemical_formula_structural   Ca2Al2SiO7
_chemical_formula_sum   'Ca48 Al48 Si24 O168'
_cell_volume   3653.99322666
_cell_formula_units_Z   24
loop_
 _symmetry_equiv_pos_site_id
 _symmetry_equiv_pos_as_xyz
  1  'x, y, z'
loop_
 _atom_type_symbol
 _atom_type_oxidation_number
  Ca2+  2.0
  Al0+  0.0
  Si0+  0.0
  O2-  -2.0
loop_
 _atom_site_type_symbol
 _atom_site_label
 _atom_site_symmetry_multiplicity
 _atom_site_fract_x
 _atom_site_fract_y
 _atom_site_fract_z
 _atom_site_occupancy
  Ca2+  Ca0  1  0.15868099  0.07465762  0.17146345  1
  Ca2+  Ca1  1  0.16579674  0.07621685  0.50551764  1
  Ca2+  Ca2  1  0.17415698  0.07440855  0.83355532  1
  Ca2+  Ca3  1  0.18141690  0.59013853  0.17160349  1
  Ca2+  Ca4  1  0.17993372  0.57993885  0.50679901  1
  Ca2+  Ca5  1  0.18095688  0.58398687  0.83455502  1
  Ca2+  Ca6  1  0.66764212  0.07548578  0.17857882  1
  Ca2+  Ca7  1  0.66187879  0.07951209  0.49814837  1
  Ca2+  Ca8  1  0.66714859  0.07943525  0.83617018  1
  Ca2+  Ca9  1  0.67463202  0.58367629  0.17613042  1
  Ca2+  Ca10  1  0.66714447  0.57981775  0.49921046  1
  Ca2+  Ca11  1  0.66257245  0.58116486  0.83665191  1
  Ca2+  Ca12  1  0.07283129  0.33383361  0.16375819  1
  Ca2+  Ca13  1  0.08347497  0.32871458  0.48986345  1
  Ca2+  Ca14  1  0.07894157  0.34198795  0.82744788  1
  Ca2+  Ca15  1  0.07403562  0.83949848  0.16392923  1
  Ca2+  Ca16  1  0.08033922  0.83897661  0.49246507  1
  Ca2+  Ca17  1  0.08248482  0.83956274  0.83324341  1
  Ca2+  Ca18  1  0.59088501  0.33026391  0.17001864  1
  Ca2+  Ca19  1  0.58260285  0.33421787  0.49547359  1
  Ca2+  Ca20  1  0.57663165  0.33498481  0.82315699  1
  Ca2+  Ca21  1  0.58869582  0.81938767  0.16423780  1
  Ca2+  Ca22  1  0.57657981  0.82310269  0.49395633  1
  Ca2+  Ca23  1  0.57582484  0.81690263  0.82401477  1
  Ca2+  Ca24  1  0.33583061  0.42926872  0.17125348  1
  Ca2+  Ca25  1  0.33428940  0.42438571  0.50813109  1
  Ca2+  Ca26  1  0.33586311  0.42496525  0.83196013  1
  Ca2+  Ca27  1  0.31857773  0.91348943  0.17405787  1
  Ca2+  Ca28  1  0.32367934  0.92065215  0.51051862  1
  Ca2+  Ca29  1  0.32481256  0.90819106  0.83337821  1
  Ca2+  Ca30  1  0.83405185  0.42593902  0.17501952  1
  Ca2+  Ca31  1  0.82315969  0.41335294  0.50090733  1
  Ca2+  Ca32  1  0.82662074  0.42340149  0.84066864  1
  Ca2+  Ca33  1  0.83068818  0.91140668  0.17631307  1
  Ca2+  Ca34  1  0.82664038  0.91047449  0.49620253  1
  Ca2+  Ca35  1  0.83386453  0.91645178  0.83923209  1
  Ca2+  Ca36  1  0.42426582  0.16521537  0.16750557  1
  Ca2+  Ca37  1  0.41405780  0.17283054  0.49675270  1
  Ca2+  Ca38  1  0.41227919  0.17287494  0.82337426  1
  Ca2+  Ca39  1  0.42740496  0.65734600  0.16405102  1
  Ca2+  Ca40  1  0.42389095  0.65951299  0.49764378  1
  Ca2+  Ca41  1  0.42273377  0.66254661  0.82452963  1
  Ca2+  Ca42  1  0.91739288  0.18028745  0.16807143  1
  Ca2+  Ca43  1  0.92485669  0.17509410  0.48780702  1
  Ca2+  Ca44  1  0.91878777  0.17469150  0.83160925  1
  Ca2+  Ca45  1  0.90753154  0.67470302  0.16187648  1
  Ca2+  Ca46  1  0.91928831  0.66997074  0.49081186  1
  Ca2+  Ca47  1  0.91526501  0.66946225  0.83420727  1
  Al0+  Al48  1  -0.00045758  0.00219045  -0.00141923  1
  Al0+  Al49  1  -0.00100327  0.00059596  0.33023795  1
  Al0+  Al50  1  -0.00117602  0.00235523  0.67024752  1
  Al0+  Al51  1  -0.00075974  0.50142941  -0.00183355  1
  Al0+  Al52  1  0.00280810  0.50251835  0.33167744  1
  Al0+  Al53  1  -0.00262976  0.50276891  0.66737115  1
  Al0+  Al54  1  0.49945545  -0.00107730  -0.00055988  1
  Al0+  Al55  1  0.49817721  0.00013555  0.33274957  1
  Al0+  Al56  1  0.50143001  -0.00113933  0.66859368  1
  Al0+  Al57  1  0.50044819  0.49649891  0.00028189  1
  Al0+  Al58  1  0.50150137  0.50028509  0.33545446  1
  Al0+  Al59  1  0.50235076  0.49687210  0.66514048  1
  Al0+  Al60  1  0.25091391  0.24827646  0.00127068  1
  Al0+  Al61  1  0.25108548  0.24950637  0.32379889  1
  Al0+  Al62  1  0.24818575  0.24850609  0.66907198  1
  Al0+  Al63  1  0.24915627  0.75054697  0.01005780  1
  Al0+  Al64  1  0.25026525  0.75164605  0.34357763  1
  Al0+  Al65  1  0.24818494  0.74996255  0.67157888  1
  Al0+  Al66  1  0.75122933  0.24833251  -0.00528219  1
  Al0+  Al67  1  0.74989034  0.24956941  0.32888009  1
  Al0+  Al68  1  0.75032224  0.25085297  0.67154752  1
  Al0+  Al69  1  0.74923175  0.74902994  -0.00780309  1
  Al0+  Al70  1  0.74910147  0.74983519  0.33566908  1
  Al0+  Al71  1  0.75046068  0.75080855  0.66304018  1
  Al0+  Al72  1  0.68110990  0.42896654  0.68165205  1
  Al0+  Al73  1  0.42808649  0.31808299  0.65327320  1
  Al0+  Al74  1  0.42630701  0.82151702  0.65183860  1
  Al0+  Al75  1  0.32215750  0.56947640  0.68158013  1
  Al0+  Al76  1  0.68141381  0.42733007  0.34784414  1
  Al0+  Al77  1  0.32194132  0.56917138  0.01462965  1
  Al0+  Al78  1  0.17619080  0.42789701  0.67913533  1
  Al0+  Al79  1  0.07286922  0.17865687  0.31745283  1
  Al0+  Al80  1  0.93012736  0.32280068  0.98329092  1
  Al0+  Al81  1  0.17676258  0.92862179  0.68317734  1
  Al0+  Al82  1  0.92968363  0.82124784  0.98550980  1
  Al0+  Al83  1  0.17741095  0.93232815  0.34822388  1
  Al0+  Al84  1  0.92999115  0.81811104  0.32119534  1
  Al0+  Al85  1  0.81952237  0.57136302  0.01256749  1
  Al0+  Al86  1  0.56955986  0.67781303  0.98621897  1
  Al0+  Al87  1  0.82389177  0.57286237  0.34851249  1
  Al0+  Al88  1  0.32164148  0.57031303  0.34864230  1
  Al0+  Al89  1  0.56895170  0.67948004  0.31874976  1
  Al0+  Al90  1  0.57117270  0.67719063  0.64838896  1
  Al0+  Al91  1  0.67686357  0.92777889  0.34643994  1
  Al0+  Al92  1  0.17918401  0.93133758  0.01652659  1
  Al0+  Al93  1  0.56995572  0.17771889  0.32082205  1
  Al0+  Al94  1  0.32314072  0.07078346  0.68059584  1
  Al0+  Al95  1  0.92908475  0.32449892  0.31917143  1
  Si0+  Si96  1  0.82030757  0.07129986  0.34906287  1
  Si0+  Si97  1  0.67976852  0.92951802  0.01300014  1
  Si0+  Si98  1  0.57128819  0.17620763  0.98396029  1
  Si0+  Si99  1  0.17927129  0.42631525  0.34605143  1
  Si0+  Si100  1  0.07598889  0.67901415  0.31773976  1
  Si0+  Si101  1  0.06968006  0.67887263  0.65270006  1
  Si0+  Si102  1  0.82008845  0.07194697  0.01573939  1
  Si0+  Si103  1  0.67852988  0.42546978  0.01649031  1
  Si0+  Si104  1  0.82160379  0.57488180  0.68441099  1
  Si0+  Si105  1  0.42957596  0.31857639  0.98489348  1
  Si0+  Si106  1  0.07488783  0.67915874  0.98345023  1
  Si0+  Si107  1  0.42608625  0.82247245  0.31704506  1
  Si0+  Si108  1  0.06843152  0.17991611  0.65288842  1
  Si0+  Si109  1  0.82007063  0.07115967  0.68231821  1
  Si0+  Si110  1  0.93019521  0.82399112  0.65109203  1
  Si0+  Si111  1  0.17735059  0.42678042  0.01674884  1
  Si0+  Si112  1  0.07240842  0.17908105  0.98013487  1
  Si0+  Si113  1  0.42630776  0.82165253  0.98598320  1
  Si0+  Si114  1  0.32392376  0.07376536  0.01943552  1
  Si0+  Si115  1  0.42870906  0.32309479  0.31462235  1
  Si0+  Si116  1  0.32262098  0.07361013  0.34854775  1
  Si0+  Si117  1  0.57499505  0.17726622  0.65126971  1
  Si0+  Si118  1  0.92768651  0.32248438  0.65219463  1
  Si0+  Si119  1  0.67979305  0.92752578  0.68284110  1
  O2-  O120  1  0.25537132  0.00510212  0.06294963  1
  O2-  O121  1  0.25166008  0.00805699  0.39288971  1
  O2-  O122  1  0.25553981  -0.00524200  0.73144430  1
  O2-  O123  1  0.24512468  0.49589608  0.06137696  1
  O2-  O124  1  0.24668765  0.49432871  0.39200581  1
  O2-  O125  1  0.24941129  0.49736014  0.73121944  1
  O2-  O126  1  0.75020349  -0.00002358  0.05743650  1
  O2-  O127  1  0.75062164  0.00390148  0.39388801  1
  O2-  O128  1  0.74958992  -0.00008343  0.72549529  1
  O2-  O129  1  0.74693919  0.49459183  0.05900032  1
  O2-  O130  1  0.75533692  0.49738588  0.39802554  1
  O2-  O131  1  0.75228413  0.50689079  0.72816859  1
  O2-  O132  1  0.00358741  0.25431976  0.26929180  1
  O2-  O133  1  0.00283153  0.25599309  0.61062771  1
  O2-  O134  1  0.00848778  0.25200941  0.93495261  1
  O2-  O135  1  0.00333480  0.74314177  0.27278135  1
  O2-  O136  1  0.00215309  0.75383865  0.61053587  1
  O2-  O137  1  0.00534619  0.74755828  0.93870270  1
  O2-  O138  1  0.49748983  0.25325873  0.27147236  1
  O2-  O139  1  0.50195939  0.24126345  0.60819733  1
  O2-  O140  1  0.49978345  0.24633400  0.94246588  1
  O2-  O141  1  0.49421232  0.75416927  0.27109907  1
  O2-  O142  1  0.49552916  0.74738918  0.60077761  1
  O2-  O143  1  0.49212394  0.75076675  0.94136368  1
  O2-  O144  1  0.06937543  0.17871491  0.08541710  1
  O2-  O145  1  0.07129505  0.17928714  0.43172664  1
  O2-  O146  1  0.06388936  0.17715333  0.75789562  1
  O2-  O147  1  0.07634111  0.68051011  0.08887844  1
  O2-  O148  1  0.07600669  0.68121712  0.42356754  1
  O2-  O149  1  0.06642600  0.67692408  0.75780458  1
  O2-  O150  1  0.57210531  0.17475352  0.08883535  1
  O2-  O151  1  0.56750707  0.17716952  0.43360646  1
  O2-  O152  1  0.57803649  0.17991276  0.75742651  1
  O2-  O153  1  0.57122646  0.67940306  0.09922801  1
  O2-  O154  1  0.56842634  0.67945795  0.43118081  1
  O2-  O155  1  0.57263308  0.67951480  0.76260609  1
  O2-  O156  1  0.18133679  0.42749892  0.24024996  1
  O2-  O157  1  0.17513123  0.42994849  0.56554146  1
  O2-  O158  1  0.17960573  0.42655706  0.91128523  1
  O2-  O159  1  0.17743535  0.93247323  0.23498421  1
  O2-  O160  1  0.17006168  0.93468427  0.57019361  1
  O2-  O161  1  0.17996769  0.93268098  0.90370702  1
  O2-  O162  1  0.68164062  0.42817522  0.23377886  1
  O2-  O163  1  0.68498661  0.42216193  0.56957160  1
  O2-  O164  1  0.67811242  0.42473655  0.91072686  1
  O2-  O165  1  0.67990854  0.92874791  0.23269177  1
  O2-  O166  1  0.68156300  0.92774052  0.57797301  1
  O2-  O167  1  0.68105563  0.93353451  0.90767398  1
  O2-  O168  1  0.43067246  0.31822363  0.08986092  1
  O2-  O169  1  0.42573336  0.32143830  0.41992337  1
  O2-  O170  1  0.43091899  0.31737208  0.76710212  1
  O2-  O171  1  0.42954134  0.82479749  0.09138349  1
  O2-  O172  1  0.42772788  0.82306165  0.42225196  1
  O2-  O173  1  0.43044497  0.82020272  0.76616952  1
  O2-  O174  1  0.92868124  0.32009945  0.09579623  1
  O2-  O175  1  0.92954762  0.31976595  0.43332764  1
  O2-  O176  1  0.92729403  0.31946112  0.75746532  1
  O2-  O177  1  0.92799473  0.82164557  0.09816955  1
  O2-  O178  1  0.93163398  0.81962532  0.43474651  1
  O2-  O179  1  0.92882882  0.82452216  0.75635729  1
  O2-  O180  1  0.32476709  0.07048264  0.24278074  1
  O2-  O181  1  0.31833563  0.07293194  0.56710623  1
  O2-  O182  1  0.32458340  0.07613465  0.91428074  1
  O2-  O183  1  0.32153263  0.56924565  0.23500558  1
  O2-  O184  1  0.31996030  0.56757426  0.56826745  1
  O2-  O185  1  0.32269250  0.56769490  0.90195924  1
  O2-  O186  1  0.81871886  0.07040092  0.24314063  1
  O2-  O187  1  0.82125366  0.07202667  0.57767511  1
  O2-  O188  1  0.81794057  0.07248808  0.91005725  1
  O2-  O189  1  0.81975223  0.57446490  0.23463232  1
  O2-  O190  1  0.82459276  0.57455312  0.57934375  1
  O2-  O191  1  0.81732176  0.57066321  0.89922780  1
  O2-  O192  1  0.03748095  0.08343905  0.26283654  1
  O2-  O193  1  0.03357889  0.09048023  0.60451609  1
  O2-  O194  1  0.04018784  0.08822592  0.93247352  1
  O2-  O195  1  0.05901933  0.58374949  0.27189463  1
  O2-  O196  1  0.03805374  0.58941485  0.60220980  1
  O2-  O197  1  0.05006775  0.58569974  0.93695559  1
  O2-  O198  1  0.53799391  0.08221326  0.26318367  1
  O2-  O199  1  0.55650384  0.08102428  0.60879848  1
  O2-  O200  1  0.54474598  0.08398341  0.93561430  1
  O2-  O201  1  0.53881912  0.58243314  0.26496152  1
  O2-  O202  1  0.54686438  0.57741410  0.59806580  1
  O2-  O203  1  0.54109175  0.57926140  0.93446687  1
  O2-  O204  1  0.17131233  0.20086236  0.26099518  1
  O2-  O205  1  0.16128617  0.20160780  0.60621783  1
  O2-  O206  1  0.16913899  0.19878504  0.93775374  1
  O2-  O207  1  0.16847572  0.71024743  0.27230202  1
  O2-  O208  1  0.16302910  0.70214430  0.60722794  1
  O2-  O209  1  0.16828900  0.70781453  0.93807800  1
  O2-  O210  1  0.66631816  0.20520903  0.26403292  1
  O2-  O211  1  0.66754414  0.20712400  0.60521402  1
  O2-  O212  1  0.66305801  0.20226073  0.93531963  1
  O2-  O213  1  0.66522117  0.71341771  0.26613035  1
  O2-  O214  1  0.66950327  0.71026840  0.59733887  1
  O2-  O215  1  0.66289318  0.71206306  0.92825869  1
  O2-  O216  1  0.08285635  0.45136476  0.06056766  1
  O2-  O217  1  0.08508028  0.44856679  0.39163185  1
  O2-  O218  1  0.07795122  0.45913608  0.73247139  1
  O2-  O219  1  0.08169945  0.96529764  0.06750130  1
  O2-  O220  1  0.08034925  0.96359318  0.40106057  1
  O2-  O221  1  0.08044435  0.96468180  0.73780684  1
  O2-  O222  1  0.58446906  0.44785358  0.06202773  1
  O2-  O223  1  0.58327825  0.45598978  0.39989876  1
  O2-  O224  1  0.58407005  0.45642272  0.73562931  1
  O2-  O225  1  0.58742053  0.95642048  0.05983334  1
  O2-  O226  1  0.58066650  0.95973017  0.40001090  1
  O2-  O227  1  0.58891831  0.95371075  0.73251540  1
  O2-  O228  1  0.20305536  0.33246042  0.06195681  1
  O2-  O229  1  0.20438567  0.33115264  0.38947035  1
  O2-  O230  1  0.19891075  0.32875801  0.73266036  1
  O2-  O231  1  0.20655550  0.83518679  0.07281137  1
  O2-  O232  1  0.20727553  0.83707083  0.40438647  1
  O2-  O233  1  0.19804974  0.82903294  0.73673176  1
  O2-  O234  1  0.70498471  0.33038855  0.05946449  1
  O2-  O235  1  0.70724959  0.32731941  0.39958194  1
  O2-  O236  1  0.71384921  0.33365910  0.73917314  1
  O2-  O237  1  0.70858688  0.83733315  0.05736639  1
  O2-  O238  1  0.71101265  0.83474504  0.40353502  1
  O2-  O239  1  0.71170033  0.83707248  0.73076524  1
  O2-  O240  1  0.45773566  0.41521195  0.26818111  1
  O2-  O241  1  0.46124906  0.41267893  0.59851710  1
  O2-  O242  1  0.45903941  0.40890576  0.93604867  1
  O2-  O243  1  0.44926019  0.91637037  0.27040945  1
  O2-  O244  1  0.45747038  0.92039882  0.60052866  1
  O2-  O245  1  0.45267661  0.91506878  0.93850975  1
  O2-  O246  1  0.95630905  0.42316400  0.26538965  1
  O2-  O247  1  0.94827321  0.41666424  0.60737754  1
  O2-  O248  1  0.95715748  0.42039222  0.92885585  1
  O2-  O249  1  0.95873311  0.91504255  0.26673912  1
  O2-  O250  1  0.95641030  0.91690008  0.60515011  1
  O2-  O251  1  0.95869560  0.91922986  0.93173975  1
  O2-  O252  1  0.33665597  0.29848660  0.26419450  1
  O2-  O253  1  0.33044260  0.28883559  0.59991837  1
  O2-  O254  1  0.33680233  0.29209583  0.93827270  1
  O2-  O255  1  0.33153828  0.79547731  0.27363173  1
  O2-  O256  1  0.32393933  0.80050448  0.60408801  1
  O2-  O257  1  0.33089239  0.79778863  0.94369292  1
  O2-  O258  1  0.83319903  0.29126427  0.26396470  1
  O2-  O259  1  0.83800904  0.28715608  0.60587760  1
  O2-  O260  1  0.83495976  0.28595595  0.92821154  1
  O2-  O261  1  0.83270375  0.78974136  0.26756682  1
  O2-  O262  1  0.83857203  0.79625028  0.60363801  1
  O2-  O263  1  0.83464152  0.79035581  0.92786029  1
  O2-  O264  1  0.41870587  0.04788314  0.06407277  1
  O2-  O265  1  0.41502878  0.04812289  0.39614880  1
  O2-  O266  1  0.42448584  0.05119313  0.73286811  1
  O2-  O267  1  0.41724584  0.53302999  0.06868946  1
  O2-  O268  1  0.41700997  0.53745264  0.40172174  1
  O2-  O269  1  0.42021911  0.53868671  0.73296375  1
  O2-  O270  1  0.91265260  0.04691053  0.06098832  1
  O2-  O271  1  0.91285038  0.04392965  0.39554540  1
  O2-  O272  1  0.91011565  0.04261887  0.73302496  1
  O2-  O273  1  0.91847847  0.54561795  0.06430040  1
  O2-  O274  1  0.92578639  0.55167132  0.39803956  1
  O2-  O275  1  0.91416875  0.54840679  0.73216325  1
  O2-  O276  1  0.29961949  0.16743769  0.06662554  1
  O2-  O277  1  0.30009668  0.16988107  0.39021107  1
  O2-  O278  1  0.28852419  0.16609629  0.73685266  1
  O2-  O279  1  0.29343417  0.66531612  0.07064710  1
  O2-  O280  1  0.29115021  0.66555919  0.40444487  1
  O2-  O281  1  0.29274790  0.66713285  0.73557065  1
  O2-  O282  1  0.78987463  0.16312534  0.06275492  1
  O2-  O283  1  0.79523960  0.16467418  0.39494863  1
  O2-  O284  1  0.79171456  0.16143819  0.73308437  1
  O2-  O285  1  0.78684224  0.66893083  0.06370556  1
  O2-  O286  1  0.79179824  0.66891570  0.40336976  1
  O2-  O287  1  0.79751195  0.66979500  0.72919950  1
