# generated using pymatgen
data_Ca2Al2SiO7
_symmetry_space_group_name_H-M   'P 1'
_cell_length_a   15.46695030
_cell_length_b   15.46918394
_cell_length_c   15.29118362
_cell_angle_alpha   90.01490690
_cell_angle_beta   90.00021865
_cell_angle_gamma   90.00010518
_symmetry_Int_Tables_number   1
_chemical_formula_structural   Ca2Al2SiO7
_chemical_formula_sum   'Ca48 Al48 Si24 O168'
_cell_volume   3658.58527788
_cell_formula_units_Z   24
loop_
 _symmetry_equiv_pos_site_id
 _symmetry_equiv_pos_as_xyz
  1  'x, y, z'
loop_
 _atom_type_symbol
 _atom_type_oxidation_number
  Ca2+  2.0
  Al0+  0.0
  Si0+  0.0
  O2-  -2.0
loop_
 _atom_site_type_symbol
 _atom_site_label
 _atom_site_symmetry_multiplicity
 _atom_site_fract_x
 _atom_site_fract_y
 _atom_site_fract_z
 _atom_site_occupancy
  Ca2+  Ca0  1  0.17081905  0.09074302  0.16240117  1
  Ca2+  Ca1  1  0.16743387  0.08482446  0.50749685  1
  Ca2+  Ca2  1  0.16930038  0.08706448  0.84404852  1
  Ca2+  Ca3  1  0.17165009  0.58588033  0.16574417  1
  Ca2+  Ca4  1  0.16928151  0.57903375  0.50049845  1
  Ca2+  Ca5  1  0.16871893  0.57347845  0.84369799  1
  Ca2+  Ca6  1  0.65857187  0.08018382  0.16120570  1
  Ca2+  Ca7  1  0.67009923  0.07923370  0.50718117  1
  Ca2+  Ca8  1  0.65785556  0.07208562  0.84197460  1
  Ca2+  Ca9  1  0.67910337  0.57246796  0.16726469  1
  Ca2+  Ca10  1  0.67150444  0.57112531  0.50029322  1
  Ca2+  Ca11  1  0.67141348  0.57287283  0.84280314  1
  Ca2+  Ca12  1  0.07312072  0.33638054  0.15542335  1
  Ca2+  Ca13  1  0.08135418  0.33299775  0.49735612  1
  Ca2+  Ca14  1  0.08607850  0.33133028  0.83304246  1
  Ca2+  Ca15  1  0.07698930  0.81867106  0.15698214  1
  Ca2+  Ca16  1  0.08048747  0.82362611  0.49102457  1
  Ca2+  Ca17  1  0.07944840  0.82609448  0.83696042  1
  Ca2+  Ca18  1  0.57747689  0.33679123  0.15743955  1
  Ca2+  Ca19  1  0.58153338  0.34192218  0.49171100  1
  Ca2+  Ca20  1  0.58002761  0.34010120  0.83350624  1
  Ca2+  Ca21  1  0.57917582  0.82929020  0.15402660  1
  Ca2+  Ca22  1  0.57992160  0.83484910  0.50112988  1
  Ca2+  Ca23  1  0.57692918  0.83634578  0.83114058  1
  Ca2+  Ca24  1  0.33306173  0.42233755  0.16801905  1
  Ca2+  Ca25  1  0.33161917  0.42215083  0.50283848  1
  Ca2+  Ca26  1  0.32332810  0.41842227  0.84606050  1
  Ca2+  Ca27  1  0.33707909  0.92285233  0.16319880  1
  Ca2+  Ca28  1  0.33253707  0.91835194  0.50590581  1
  Ca2+  Ca29  1  0.33961140  0.92256105  0.84366891  1
  Ca2+  Ca30  1  0.83282131  0.41862688  0.17086881  1
  Ca2+  Ca31  1  0.82936178  0.41596569  0.49967536  1
  Ca2+  Ca32  1  0.82417820  0.41662207  0.84471601  1
  Ca2+  Ca33  1  0.83100524  0.91264141  0.16383645  1
  Ca2+  Ca34  1  0.82693514  0.91920152  0.50841317  1
  Ca2+  Ca35  1  0.82341790  0.91463006  0.84430775  1
  Ca2+  Ca36  1  0.41958831  0.18005401  0.15641401  1
  Ca2+  Ca37  1  0.42175512  0.17840774  0.49382432  1
  Ca2+  Ca38  1  0.41789618  0.17124963  0.84216956  1
  Ca2+  Ca39  1  0.41286325  0.66792207  0.15794150  1
  Ca2+  Ca40  1  0.41518979  0.66964941  0.49496653  1
  Ca2+  Ca41  1  0.40692374  0.67824735  0.83361342  1
  Ca2+  Ca42  1  0.92046439  0.18008129  0.15765690  1
  Ca2+  Ca43  1  0.92287214  0.17345464  0.49519415  1
  Ca2+  Ca44  1  0.92717671  0.17151920  0.83499151  1
  Ca2+  Ca45  1  0.92211630  0.66138423  0.15686932  1
  Ca2+  Ca46  1  0.92256376  0.66099043  0.49087702  1
  Ca2+  Ca47  1  0.91638311  0.66192816  0.83972232  1
  Al0+  Al48  1  -0.00186724  -0.00138765  -0.00512108  1
  Al0+  Al49  1  -0.00025558  -0.00191796  0.33521236  1
  Al0+  Al50  1  0.00121070  0.00003459  0.66178275  1
  Al0+  Al51  1  0.00003433  0.49951582  -0.00370186  1
  Al0+  Al52  1  0.00197000  0.49899126  0.32957729  1
  Al0+  Al53  1  0.00108111  0.49987775  0.66851194  1
  Al0+  Al54  1  0.49813227  0.00041327  0.00319476  1
  Al0+  Al55  1  0.49803803  0.00092885  0.33674504  1
  Al0+  Al56  1  0.49948843  0.00110101  0.66310524  1
  Al0+  Al57  1  0.49973648  0.50149833  0.00118232  1
  Al0+  Al58  1  0.49896625  0.50335780  0.33688618  1
  Al0+  Al59  1  0.50118556  0.50396913  0.66906951  1
  Al0+  Al60  1  0.25192451  0.24963969  0.00321964  1
  Al0+  Al61  1  0.25288709  0.24890211  0.33198835  1
  Al0+  Al62  1  0.25136287  0.25006717  0.66453231  1
  Al0+  Al63  1  0.24779285  0.75130171  -0.00554152  1
  Al0+  Al64  1  0.24888343  0.75100785  0.33410346  1
  Al0+  Al65  1  0.24904110  0.75271646  0.66023599  1
  Al0+  Al66  1  0.74960158  0.24410466  -0.00482923  1
  Al0+  Al67  1  0.75059075  0.24527930  0.33419483  1
  Al0+  Al68  1  0.75156050  0.24986826  0.67011555  1
  Al0+  Al69  1  0.74797712  0.74895203  0.00459156  1
  Al0+  Al70  1  0.74842982  0.74997459  0.33914386  1
  Al0+  Al71  1  0.74871766  0.75050566  0.66824045  1
  Al0+  Al72  1  0.67820015  0.42370245  0.01428782  1
  Al0+  Al73  1  0.31994792  0.57307009  0.34798617  1
  Al0+  Al74  1  0.82410390  0.57051307  0.34832606  1
  Al0+  Al75  1  0.92977339  0.31858600  0.32087807  1
  Al0+  Al76  1  0.67888488  0.42866099  0.68118039  1
  Al0+  Al77  1  0.57046205  0.17834087  0.98566622  1
  Al0+  Al78  1  0.43062485  0.32461464  0.98480712  1
  Al0+  Al79  1  0.07059648  0.67936351  0.31935841  1
  Al0+  Al80  1  0.67917574  0.93096927  0.68103220  1
  Al0+  Al81  1  0.17925306  0.42766809  0.01606008  1
  Al0+  Al82  1  0.43114621  0.32355943  0.32060301  1
  Al0+  Al83  1  0.92561663  0.81962910  0.98539583  1
  Al0+  Al84  1  0.92750579  0.32236714  0.98370064  1
  Al0+  Al85  1  0.18127554  0.42905050  0.67912741  1
  Al0+  Al86  1  0.42982290  0.82176054  0.65082667  1
  Al0+  Al87  1  0.07244579  0.17983056  0.65186095  1
  Al0+  Al88  1  0.42909661  0.82030671  0.98853332  1
  Al0+  Al89  1  0.07088874  0.67760847  0.98252488  1
  Al0+  Al90  1  0.32003199  0.07019665  0.01439131  1
  Al0+  Al91  1  0.67992280  0.42698477  0.34664953  1
  Al0+  Al92  1  0.67846263  0.92938946  0.01456577  1
  Al0+  Al93  1  0.07234076  0.17975041  0.98697615  1
  Al0+  Al94  1  0.31997236  0.57398464  0.01310402  1
  Al0+  Al95  1  0.82070281  0.56905594  0.01401200  1
  Si0+  Si96  1  0.06992131  0.67881506  0.64940828  1
  Si0+  Si97  1  0.92558421  0.82233188  0.31868440  1
  Si0+  Si98  1  0.31991362  0.07019971  0.68093963  1
  Si0+  Si99  1  0.92774860  0.82057522  0.65088914  1
  Si0+  Si100  1  0.82434477  0.06970984  0.01764205  1
  Si0+  Si101  1  0.17960765  0.93018827  0.34873658  1
  Si0+  Si102  1  0.17781051  0.92844174  0.68097928  1
  Si0+  Si103  1  0.57175945  0.17569736  0.31851211  1
  Si0+  Si104  1  0.57187335  0.67834596  0.98369635  1
  Si0+  Si105  1  0.32123217  0.57497505  0.68221862  1
  Si0+  Si106  1  0.57341810  0.67810776  0.64728037  1
  Si0+  Si107  1  0.82311807  0.57210970  0.68281627  1
  Si0+  Si108  1  0.17954903  0.42585262  0.34960298  1
  Si0+  Si109  1  0.07321214  0.17508501  0.31743061  1
  Si0+  Si110  1  0.67667405  0.92929177  0.34994266  1
  Si0+  Si111  1  0.92802410  0.32231261  0.64893257  1
  Si0+  Si112  1  0.43084922  0.32312668  0.65202104  1
  Si0+  Si113  1  0.82456926  0.07122044  0.68449526  1
  Si0+  Si114  1  0.57138646  0.68111011  0.31861077  1
  Si0+  Si115  1  0.82270275  0.06876734  0.34968087  1
  Si0+  Si116  1  0.17505072  0.92823762  0.01611921  1
  Si0+  Si117  1  0.57153927  0.17991321  0.65174804  1
  Si0+  Si118  1  0.42922664  0.82220986  0.31832560  1
  Si0+  Si119  1  0.32084199  0.07143305  0.35166867  1
  O2-  O120  1  0.24233044  -0.00203740  0.06118839  1
  O2-  O121  1  0.24737353  0.00315350  0.39412536  1
  O2-  O122  1  0.24781506  0.00004898  0.72264458  1
  O2-  O123  1  0.25094174  0.50058886  0.06516833  1
  O2-  O124  1  0.24817106  0.49504189  0.39412664  1
  O2-  O125  1  0.25586097  0.50373760  0.72527101  1
  O2-  O126  1  0.75422679  0.00217972  0.06248414  1
  O2-  O127  1  0.75030103  -0.00183318  0.39143251  1
  O2-  O128  1  0.75455626  0.00399933  0.72817486  1
  O2-  O129  1  0.75472570  0.49122125  0.06330805  1
  O2-  O130  1  0.75421571  0.49630798  0.39838081  1
  O2-  O131  1  0.75521968  0.50233241  0.72513952  1
  O2-  O132  1  0.00730793  0.24604504  0.27528763  1
  O2-  O133  1  -0.00211862  0.25415572  0.60460616  1
  O2-  O134  1  0.00392075  0.25360673  0.93505167  1
  O2-  O135  1  -0.01044614  0.74926752  0.27627813  1
  O2-  O136  1  -0.00319653  0.74834236  0.60734414  1
  O2-  O137  1  -0.00370408  0.74795399  0.93318207  1
  O2-  O138  1  0.51004118  0.25136626  0.27746693  1
  O2-  O139  1  0.50689264  0.25679635  0.60912201  1
  O2-  O140  1  0.50634651  0.25643030  0.93380441  1
  O2-  O141  1  0.50072258  0.75285357  0.27653747  1
  O2-  O142  1  0.50294023  0.74614673  0.60303633  1
  O2-  O143  1  0.49980396  0.74376166  0.93945011  1
  O2-  O144  1  0.06804079  0.17819340  0.10091691  1
  O2-  O145  1  0.07189248  0.17354892  0.42354253  1
  O2-  O146  1  0.07300759  0.17802742  0.76367914  1
  O2-  O147  1  0.07282912  0.68188078  0.09609299  1
  O2-  O148  1  0.07111656  0.68355548  0.43354368  1
  O2-  O149  1  0.07201305  0.68011298  0.75360672  1
  O2-  O150  1  0.56464575  0.17559837  0.09947409  1
  O2-  O151  1  0.56826939  0.17024881  0.42474952  1
  O2-  O152  1  0.56767986  0.17544194  0.75573582  1
  O2-  O153  1  0.57274439  0.68206756  0.08965754  1
  O2-  O154  1  0.57104404  0.68400978  0.42409226  1
  O2-  O155  1  0.57488172  0.67810871  0.75214036  1
  O2-  O156  1  0.18038043  0.42382949  0.24503683  1
  O2-  O157  1  0.18234799  0.43085102  0.56538822  1
  O2-  O158  1  0.18196873  0.42811189  0.90184339  1
  O2-  O159  1  0.18054041  0.93052856  0.24446939  1
  O2-  O160  1  0.17912380  0.92877640  0.57522141  1
  O2-  O161  1  0.17642250  0.92876217  0.91011718  1
  O2-  O162  1  0.68001472  0.42805057  0.23427483  1
  O2-  O163  1  0.67891586  0.42934396  0.56788115  1
  O2-  O164  1  0.67856386  0.42963040  0.90029566  1
  O2-  O165  1  0.67353571  0.92951855  0.24557977  1
  O2-  O166  1  0.68083816  0.93399364  0.56694835  1
  O2-  O167  1  0.67746024  0.93105488  0.90141548  1
  O2-  O168  1  0.42986606  0.32254403  0.09847353  1
  O2-  O169  1  0.43032265  0.31974246  0.43495702  1
  O2-  O170  1  0.42876010  0.32115850  0.75630621  1
  O2-  O171  1  0.43152021  0.82099773  0.10214980  1
  O2-  O172  1  0.43074994  0.82366188  0.42380899  1
  O2-  O173  1  0.42938751  0.82292684  0.76315229  1
  O2-  O174  1  0.92749916  0.31931662  0.09765746  1
  O2-  O175  1  0.93093240  0.31530609  0.43468146  1
  O2-  O176  1  0.92736721  0.32129492  0.75360165  1
  O2-  O177  1  0.92813430  0.81965074  0.09946413  1
  O2-  O178  1  0.92875536  0.82578366  0.42492016  1
  O2-  O179  1  0.92847823  0.82203444  0.75506219  1
  O2-  O180  1  0.32343172  0.06987152  0.24744686  1
  O2-  O181  1  0.31911175  0.06917311  0.57511305  1
  O2-  O182  1  0.32067538  0.06731799  0.90077842  1
  O2-  O183  1  0.31866802  0.57741768  0.23616772  1
  O2-  O184  1  0.31992932  0.57460780  0.57609607  1
  O2-  O185  1  0.31683271  0.57547779  0.89905755  1
  O2-  O186  1  0.82629372  0.06731247  0.24555522  1
  O2-  O187  1  0.82316792  0.06928465  0.57790014  1
  O2-  O188  1  0.82646776  0.06667041  0.91214218  1
  O2-  O189  1  0.82145074  0.57348000  0.23598588  1
  O2-  O190  1  0.82407106  0.57196552  0.57697409  1
  O2-  O191  1  0.81521467  0.57150456  0.89997828  1
  O2-  O192  1  0.04604217  0.08127670  0.27328187  1
  O2-  O193  1  0.04238313  0.08257049  0.59563284  1
  O2-  O194  1  0.04294483  0.08169535  0.93296042  1
  O2-  O195  1  0.04841347  0.58131786  0.26687648  1
  O2-  O196  1  0.04322286  0.58638635  0.60203579  1
  O2-  O197  1  0.04411618  0.58037608  0.92788228  1
  O2-  O198  1  0.53781768  0.08466396  0.27173527  1
  O2-  O199  1  0.53791835  0.09150720  0.59993758  1
  O2-  O200  1  0.53076252  0.08341800  0.93191300  1
  O2-  O201  1  0.54253872  0.59014787  0.27250593  1
  O2-  O202  1  0.54628955  0.58502419  0.59961976  1
  O2-  O203  1  0.55010477  0.58451643  0.93784766  1
  O2-  O204  1  0.16905874  0.19611815  0.27521510  1
  O2-  O205  1  0.16931658  0.20976289  0.59577501  1
  O2-  O206  1  0.17236120  0.20301767  0.93615681  1
  O2-  O207  1  0.16457270  0.71867353  0.26654407  1
  O2-  O208  1  0.16014832  0.71011865  0.59987139  1
  O2-  O209  1  0.16586053  0.71213033  0.92607601  1
  O2-  O210  1  0.66832139  0.18957310  0.27598730  1
  O2-  O211  1  0.66671904  0.20051408  0.60667059  1
  O2-  O212  1  0.67170329  0.18923031  0.93344465  1
  O2-  O213  1  0.66321314  0.71039297  0.27245708  1
  O2-  O214  1  0.66618150  0.70669666  0.59989354  1
  O2-  O215  1  0.66276374  0.70921931  0.93634047  1
  O2-  O216  1  0.07985633  0.45574146  0.06506055  1
  O2-  O217  1  0.08643964  0.45254411  0.39604640  1
  O2-  O218  1  0.08406759  0.45823606  0.73165903  1
  O2-  O219  1  0.08098962  0.95168371  0.06175791  1
  O2-  O220  1  0.08667553  0.95422011  0.39778346  1
  O2-  O221  1  0.08493902  0.95412859  0.72605854  1
  O2-  O222  1  0.58115519  0.45685750  0.06625220  1
  O2-  O223  1  0.58344435  0.46195279  0.40127156  1
  O2-  O224  1  0.58216394  0.46103718  0.73398286  1
  O2-  O225  1  0.58394120  0.96335180  0.07055882  1
  O2-  O226  1  0.58584811  0.96023775  0.39919302  1
  O2-  O227  1  0.58171258  0.96378786  0.73127589  1
  O2-  O228  1  0.20609891  0.32980082  0.06952052  1
  O2-  O229  1  0.20602347  0.33182839  0.39652008  1
  O2-  O230  1  0.21277135  0.33218135  0.73116896  1
  O2-  O231  1  0.20420892  0.83601547  0.06181412  1
  O2-  O232  1  0.21086782  0.84071704  0.39918249  1
  O2-  O233  1  0.20579791  0.83630665  0.72647889  1
  O2-  O234  1  0.69832466  0.32114948  0.06085743  1
  O2-  O235  1  0.70346649  0.32575360  0.39872586  1
  O2-  O236  1  0.70560335  0.33045573  0.73332881  1
  O2-  O237  1  0.70742071  0.83380892  0.07086160  1
  O2-  O238  1  0.70185863  0.83798325  0.39977784  1
  O2-  O239  1  0.70614446  0.83286248  0.73243540  1
  O2-  O240  1  0.45603607  0.42236016  0.26997820  1
  O2-  O241  1  0.45443748  0.41746309  0.60663161  1
  O2-  O242  1  0.45367543  0.42391603  0.93095670  1
  O2-  O243  1  0.45642175  0.91536679  0.27339655  1
  O2-  O244  1  0.46246544  0.91765513  0.59423875  1
  O2-  O245  1  0.46345372  0.91523315  0.93471266  1
  O2-  O246  1  0.95771165  0.41518696  0.26750373  1
  O2-  O247  1  0.95437422  0.41644202  0.60346851  1
  O2-  O248  1  0.95142309  0.42044145  0.92984871  1
  O2-  O249  1  0.95553582  0.91438180  0.27210847  1
  O2-  O250  1  0.95703666  0.91141657  0.60101316  1
  O2-  O251  1  0.95393568  0.91683193  0.93018667  1
  O2-  O252  1  0.33604684  0.28767603  0.26756310  1
  O2-  O253  1  0.34199347  0.28923406  0.60206780  1
  O2-  O254  1  0.33434826  0.28795722  0.93289899  1
  O2-  O255  1  0.33688528  0.79559609  0.27350760  1
  O2-  O256  1  0.33232934  0.79378927  0.59476151  1
  O2-  O257  1  0.33245949  0.79555223  0.93183804  1
  O2-  O258  1  0.83402116  0.28355013  0.26832435  1
  O2-  O259  1  0.83463886  0.29385420  0.60247110  1
  O2-  O260  1  0.83145947  0.28812903  0.92962096  1
  O2-  O261  1  0.82883688  0.80360203  0.27742143  1
  O2-  O262  1  0.83465070  0.79579172  0.60350106  1
  O2-  O263  1  0.82644709  0.79194199  0.93390674  1
  O2-  O264  1  0.41248631  0.03366639  0.07206393  1
  O2-  O265  1  0.41099545  0.04005027  0.40192805  1
  O2-  O266  1  0.41123000  0.03996584  0.72614879  1
  O2-  O267  1  0.41981627  0.55079216  0.06470632  1
  O2-  O268  1  0.41640284  0.54563657  0.40472516  1
  O2-  O269  1  0.41675915  0.55611639  0.72552981  1
  O2-  O270  1  0.91654796  0.04172411  0.06554435  1
  O2-  O271  1  0.91359186  0.03974052  0.40041512  1
  O2-  O272  1  0.91841613  0.04325933  0.72754252  1
  O2-  O273  1  0.92150311  0.54772899  0.06278548  1
  O2-  O274  1  0.92356981  0.54278349  0.40069784  1
  O2-  O275  1  0.91718118  0.54884202  0.72820644  1
  O2-  O276  1  0.29149842  0.16529502  0.07168338  1
  O2-  O277  1  0.29539350  0.16360796  0.40033621  1
  O2-  O278  1  0.29398878  0.16238976  0.72672839  1
  O2-  O279  1  0.28994671  0.67303075  0.06495941  1
  O2-  O280  1  0.28643954  0.66915910  0.40393684  1
  O2-  O281  1  0.29194116  0.66911446  0.72468221  1
  O2-  O282  1  0.79809595  0.16267172  0.06378451  1
  O2-  O283  1  0.79448732  0.15868706  0.40083853  1
  O2-  O284  1  0.80232387  0.16558192  0.72842742  1
  O2-  O285  1  0.78776593  0.66508287  0.06919553  1
  O2-  O286  1  0.79391157  0.66911632  0.40328301  1
  O2-  O287  1  0.79713095  0.66601521  0.72716903  1
