# generated using pymatgen
data_Ca2Al2SiO7
_symmetry_space_group_name_H-M   'P 1'
_cell_length_a   15.45425605
_cell_length_b   15.45516706
_cell_length_c   15.28117995
_cell_angle_alpha   89.98859680
_cell_angle_beta   90.00837661
_cell_angle_gamma   89.99426640
_symmetry_Int_Tables_number   1
_chemical_formula_structural   Ca2Al2SiO7
_chemical_formula_sum   'Ca48 Al48 Si24 O168'
_cell_volume   3649.88080589
_cell_formula_units_Z   24
loop_
 _symmetry_equiv_pos_site_id
 _symmetry_equiv_pos_as_xyz
  1  'x, y, z'
loop_
 _atom_type_symbol
 _atom_type_oxidation_number
  Ca2+  2.0
  Al0+  0.0
  Si0+  0.0
  O2-  -2.0
loop_
 _atom_site_type_symbol
 _atom_site_label
 _atom_site_symmetry_multiplicity
 _atom_site_fract_x
 _atom_site_fract_y
 _atom_site_fract_z
 _atom_site_occupancy
  Ca2+  Ca0  1  0.17663007  0.08264415  0.17532140  1
  Ca2+  Ca1  1  0.15818770  0.07823877  0.50095746  1
  Ca2+  Ca2  1  0.17413393  0.08907500  0.84047684  1
  Ca2+  Ca3  1  0.17019490  0.58082024  0.17021649  1
  Ca2+  Ca4  1  0.17443034  0.58865920  0.50385047  1
  Ca2+  Ca5  1  0.16509519  0.57809693  0.84249858  1
  Ca2+  Ca6  1  0.67469263  0.08657525  0.17663396  1
  Ca2+  Ca7  1  0.67142467  0.08451595  0.50279039  1
  Ca2+  Ca8  1  0.67350733  0.09450576  0.83853753  1
  Ca2+  Ca9  1  0.64899667  0.57246622  0.17107291  1
  Ca2+  Ca10  1  0.66709025  0.57944848  0.50220698  1
  Ca2+  Ca11  1  0.67109711  0.57955211  0.84076954  1
  Ca2+  Ca12  1  0.08288359  0.33124282  0.16362546  1
  Ca2+  Ca13  1  0.07880750  0.31929188  0.49564000  1
  Ca2+  Ca14  1  0.08325966  0.32936281  0.82705316  1
  Ca2+  Ca15  1  0.07990577  0.83401147  0.16714711  1
  Ca2+  Ca16  1  0.07695354  0.83215105  0.49064808  1
  Ca2+  Ca17  1  0.08407438  0.82045766  0.82976457  1
  Ca2+  Ca18  1  0.58411547  0.32723826  0.15908583  1
  Ca2+  Ca19  1  0.58737850  0.32516645  0.49549711  1
  Ca2+  Ca20  1  0.57669168  0.32752827  0.83245361  1
  Ca2+  Ca21  1  0.58681139  0.82489700  0.16644211  1
  Ca2+  Ca22  1  0.58041106  0.82818530  0.48518561  1
  Ca2+  Ca23  1  0.58510292  0.82912648  0.83425814  1
  Ca2+  Ca24  1  0.33307512  0.41913560  0.16887323  1
  Ca2+  Ca25  1  0.33749557  0.42047777  0.50082431  1
  Ca2+  Ca26  1  0.32859675  0.40683322  0.84107272  1
  Ca2+  Ca27  1  0.32994403  0.91740383  0.17324804  1
  Ca2+  Ca28  1  0.32921451  0.91243673  0.49845893  1
  Ca2+  Ca29  1  0.33138538  0.92731433  0.84010022  1
  Ca2+  Ca30  1  0.81839369  0.41876873  0.17114508  1
  Ca2+  Ca31  1  0.82660051  0.42083341  0.50173867  1
  Ca2+  Ca32  1  0.82740632  0.42060438  0.83889859  1
  Ca2+  Ca33  1  0.82845181  0.92412095  0.17594438  1
  Ca2+  Ca34  1  0.83124371  0.92193882  0.49791050  1
  Ca2+  Ca35  1  0.83217514  0.92996391  0.83681772  1
  Ca2+  Ca36  1  0.43027895  0.16686575  0.15762416  1
  Ca2+  Ca37  1  0.42879565  0.17275174  0.49527785  1
  Ca2+  Ca38  1  0.42333439  0.17458615  0.82899562  1
  Ca2+  Ca39  1  0.42147039  0.66835865  0.16991078  1
  Ca2+  Ca40  1  0.42097838  0.67129025  0.48675255  1
  Ca2+  Ca41  1  0.42410535  0.66463010  0.83403318  1
  Ca2+  Ca42  1  0.91962524  0.15707873  0.16667949  1
  Ca2+  Ca43  1  0.92259063  0.15290792  0.49514491  1
  Ca2+  Ca44  1  0.91773633  0.16467535  0.82795277  1
  Ca2+  Ca45  1  0.91780393  0.67727452  0.16102428  1
  Ca2+  Ca46  1  0.91893172  0.66976159  0.49533107  1
  Ca2+  Ca47  1  0.92730768  0.66003608  0.82653745  1
  Al0+  Al48  1  -0.00058963  -0.00109350  0.00135344  1
  Al0+  Al49  1  0.00240567  -0.00180650  0.33041267  1
  Al0+  Al50  1  -0.00162804  -0.00317961  0.67048860  1
  Al0+  Al51  1  0.00017581  0.49990671  0.00219875  1
  Al0+  Al52  1  0.00048574  0.49700493  0.33391357  1
  Al0+  Al53  1  0.00166222  0.49928146  0.66350485  1
  Al0+  Al54  1  0.50159977  -0.00081284  -0.00106388  1
  Al0+  Al55  1  0.49960860  0.00085566  0.32912001  1
  Al0+  Al56  1  0.49856953  -0.00076989  0.66479846  1
  Al0+  Al57  1  0.49845026  0.50102718  -0.00578417  1
  Al0+  Al58  1  0.49810009  0.49934713  0.34148270  1
  Al0+  Al59  1  0.49861306  0.50152836  0.66527545  1
  Al0+  Al60  1  0.24995657  0.24966378  0.00828711  1
  Al0+  Al61  1  0.24935697  0.25028039  0.33135563  1
  Al0+  Al62  1  0.24975074  0.24999062  0.65664730  1
  Al0+  Al63  1  0.24908207  0.75014479  -0.00496671  1
  Al0+  Al64  1  0.25082252  0.74990534  0.33751559  1
  Al0+  Al65  1  0.24983879  0.74879286  0.66677683  1
  Al0+  Al66  1  0.75233585  0.25217614  0.00481635  1
  Al0+  Al67  1  0.75216831  0.25261275  0.33960579  1
  Al0+  Al68  1  0.74945136  0.25090113  0.66848503  1
  Al0+  Al69  1  0.75128016  0.75335837  -0.00704379  1
  Al0+  Al70  1  0.75143457  0.74967707  0.32694528  1
  Al0+  Al71  1  0.75094804  0.75020255  0.67303468  1
  Al0+  Al72  1  0.06958763  0.17862755  0.31765518  1
  Al0+  Al73  1  0.82094461  0.06999747  0.34913489  1
  Al0+  Al74  1  0.82001482  0.07012768  0.68161091  1
  Al0+  Al75  1  0.42794494  0.32240613  0.64926637  1
  Al0+  Al76  1  0.07135798  0.67744585  0.65124249  1
  Al0+  Al77  1  0.82026624  0.07150907  0.01516689  1
  Al0+  Al78  1  0.06948838  0.67897301  0.98724291  1
  Al0+  Al79  1  0.92957957  0.81981031  0.31941523  1
  Al0+  Al80  1  0.42714004  0.82235848  0.31834458  1
  Al0+  Al81  1  0.67855941  0.43294697  0.01222922  1
  Al0+  Al82  1  0.57478277  0.17820241  0.98577438  1
  Al0+  Al83  1  0.57150942  0.67744545  0.32019106  1
  Al0+  Al84  1  0.67704310  0.92726678  0.34646367  1
  Al0+  Al85  1  0.42757709  0.31997358  0.98697405  1
  Al0+  Al86  1  0.31794662  0.56868323  0.34705487  1
  Al0+  Al87  1  0.18129839  0.93055799  0.34688256  1
  Al0+  Al88  1  0.57269501  0.17879503  0.65076855  1
  Al0+  Al89  1  0.82163779  0.57082833  0.67999243  1
  Al0+  Al90  1  0.57294117  0.18076180  0.31947061  1
  Al0+  Al91  1  0.17776066  0.42860206  0.01368880  1
  Al0+  Al92  1  0.06903487  0.17735495  0.65496627  1
  Al0+  Al93  1  0.32216774  0.07133779  0.01331437  1
  Al0+  Al94  1  0.67858737  0.43050554  0.34827025  1
  Al0+  Al95  1  0.57044895  0.67919325  0.98499384  1
  Si0+  Si96  1  0.92747982  0.32251612  0.65075183  1
  Si0+  Si97  1  0.42646455  0.82272188  0.98139367  1
  Si0+  Si98  1  0.57244241  0.68091741  0.65247252  1
  Si0+  Si99  1  0.92818225  0.32395370  0.31502521  1
  Si0+  Si100  1  0.67635189  0.42935283  0.68552266  1
  Si0+  Si101  1  0.07030480  0.17879871  0.98713626  1
  Si0+  Si102  1  0.67475104  0.92777670  0.68462814  1
  Si0+  Si103  1  0.42836011  0.32233107  0.31614424  1
  Si0+  Si104  1  0.17863172  0.92746031  0.68309431  1
  Si0+  Si105  1  0.82514467  0.57299850  0.34749659  1
  Si0+  Si106  1  0.32129383  0.57379784  0.01530178  1
  Si0+  Si107  1  0.18167251  0.42852152  0.67962687  1
  Si0+  Si108  1  0.92832762  0.82035849  0.65045870  1
  Si0+  Si109  1  0.31974085  0.07108283  0.67941371  1
  Si0+  Si110  1  0.42866277  0.82042027  0.65249090  1
  Si0+  Si111  1  0.32332432  0.07443530  0.35166868  1
  Si0+  Si112  1  0.17939440  0.92700366  0.01550592  1
  Si0+  Si113  1  0.07295246  0.67626855  0.31788558  1
  Si0+  Si114  1  0.67817018  0.92607970  0.01686124  1
  Si0+  Si115  1  0.32102072  0.57277175  0.68432650  1
  Si0+  Si116  1  0.82243419  0.57422646  0.01597941  1
  Si0+  Si117  1  0.92971761  0.32150529  0.98582748  1
  Si0+  Si118  1  0.92871250  0.82410794  0.97919317  1
  Si0+  Si119  1  0.17563529  0.42551034  0.35335843  1
  O2-  O120  1  0.24818022  -0.00476768  0.05903493  1
  O2-  O121  1  0.25508603  0.00499640  0.39651109  1
  O2-  O122  1  0.24709533  0.00173731  0.72379096  1
  O2-  O123  1  0.25273148  0.50421133  0.05813003  1
  O2-  O124  1  0.24248694  0.49593086  0.39700746  1
  O2-  O125  1  0.25227820  0.49881953  0.72487703  1
  O2-  O126  1  0.74224640  -0.00049964  0.05938906  1
  O2-  O127  1  0.74562241  0.00115687  0.39914874  1
  O2-  O128  1  0.74013940  0.00034442  0.72824398  1
  O2-  O129  1  0.74840756  0.51232659  0.06059109  1
  O2-  O130  1  0.75311693  0.50773415  0.39175043  1
  O2-  O131  1  0.74656286  0.49755948  0.72858914  1
  O2-  O132  1  -0.00451484  0.25371636  0.27086281  1
  O2-  O133  1  -0.01013656  0.24726806  0.60788299  1
  O2-  O134  1  0.00005790  0.24946360  0.94319348  1
  O2-  O135  1  0.00155199  0.74132070  0.27346015  1
  O2-  O136  1  -0.00477330  0.75027710  0.60551438  1
  O2-  O137  1  -0.00555383  0.75146191  0.93677692  1
  O2-  O138  1  0.49600495  0.25319059  0.27231441  1
  O2-  O139  1  0.50337140  0.25352320  0.60079719  1
  O2-  O140  1  0.49931090  0.24765645  0.93688506  1
  O2-  O141  1  0.50316468  0.75342950  0.27025725  1
  O2-  O142  1  0.50211182  0.75216878  0.61070642  1
  O2-  O143  1  0.49654464  0.75488640  0.93730998  1
  O2-  O144  1  0.06888955  0.17888810  0.09184217  1
  O2-  O145  1  0.06751250  0.17885234  0.43124073  1
  O2-  O146  1  0.07228702  0.18140701  0.76861167  1
  O2-  O147  1  0.06893329  0.68089210  0.10013135  1
  O2-  O148  1  0.07186665  0.67803644  0.42379467  1
  O2-  O149  1  0.07235514  0.67806684  0.76455415  1
  O2-  O150  1  0.57544628  0.18089453  0.09919300  1
  O2-  O151  1  0.57215225  0.18232147  0.43267845  1
  O2-  O152  1  0.57099511  0.17970273  0.76435084  1
  O2-  O153  1  0.56757145  0.67889625  0.09733835  1
  O2-  O154  1  0.56958950  0.67755534  0.43456642  1
  O2-  O155  1  0.57068872  0.68118276  0.75782776  1
  O2-  O156  1  0.17515567  0.42634342  0.24773107  1
  O2-  O157  1  0.18235669  0.43028165  0.57486380  1
  O2-  O158  1  0.17681180  0.42801634  0.89983734  1
  O2-  O159  1  0.18207949  0.93146147  0.23362904  1
  O2-  O160  1  0.17922765  0.92605402  0.57822773  1
  O2-  O161  1  0.18020690  0.92751260  0.90921088  1
  O2-  O162  1  0.67775841  0.43125045  0.23497401  1
  O2-  O163  1  0.67695089  0.43122643  0.57986983  1
  O2-  O164  1  0.68272856  0.43359872  0.89895599  1
  O2-  O165  1  0.68061611  0.92688559  0.23301964  1
  O2-  O166  1  0.67480852  0.92362881  0.57965454  1
  O2-  O167  1  0.68126880  0.92279412  0.91086754  1
  O2-  O168  1  0.42881240  0.32063202  0.10029356  1
  O2-  O169  1  0.42905657  0.32102413  0.42193540  1
  O2-  O170  1  0.42412900  0.31901582  0.76268839  1
  O2-  O171  1  0.42262475  0.82154646  0.08612873  1
  O2-  O172  1  0.42570360  0.81728965  0.43271192  1
  O2-  O173  1  0.42761913  0.81948823  0.75780180  1
  O2-  O174  1  0.93081918  0.32297572  0.09054953  1
  O2-  O175  1  0.93092897  0.32834908  0.42064905  1
  O2-  O176  1  0.93120824  0.32507616  0.75676797  1
  O2-  O177  1  0.92964214  0.82486964  0.08461068  1
  O2-  O178  1  0.93160027  0.81876523  0.43289652  1
  O2-  O179  1  0.93181288  0.82080228  0.75613970  1
  O2-  O180  1  0.32013178  0.07492109  0.24602259  1
  O2-  O181  1  0.32019943  0.06777615  0.57475293  1
  O2-  O182  1  0.31780384  0.07139189  0.89910267  1
  O2-  O183  1  0.31665285  0.56768226  0.23377781  1
  O2-  O184  1  0.31950014  0.57614444  0.57954552  1
  O2-  O185  1  0.31910202  0.57538505  0.90921875  1
  O2-  O186  1  0.82093409  0.06822912  0.23550304  1
  O2-  O187  1  0.82396055  0.06460823  0.56950675  1
  O2-  O188  1  0.82295232  0.07019386  0.90156196  1
  O2-  O189  1  0.83094111  0.56941054  0.24227257  1
  O2-  O190  1  0.81891789  0.57117578  0.56689830  1
  O2-  O191  1  0.82456354  0.56917930  0.91002793  1
  O2-  O192  1  0.04063859  0.08282052  0.26242798  1
  O2-  O193  1  0.04117225  0.07832055  0.60414066  1
  O2-  O194  1  0.04428697  0.08620708  0.93956320  1
  O2-  O195  1  0.05211742  0.58017268  0.27483812  1
  O2-  O196  1  0.04401614  0.58068825  0.59651221  1
  O2-  O197  1  0.03927679  0.58163902  0.93300956  1
  O2-  O198  1  0.54474572  0.08385603  0.26564702  1
  O2-  O199  1  0.54212279  0.07975467  0.59995640  1
  O2-  O200  1  0.55103943  0.07768553  0.93421268  1
  O2-  O201  1  0.53366369  0.58054476  0.26994989  1
  O2-  O202  1  0.54450984  0.58906710  0.60608450  1
  O2-  O203  1  0.53796482  0.58536806  0.92652133  1
  O2-  O204  1  0.16697295  0.20990105  0.26490710  1
  O2-  O205  1  0.16227586  0.20992051  0.59658139  1
  O2-  O206  1  0.16251273  0.20744298  0.94162533  1
  O2-  O207  1  0.16505188  0.70563639  0.27256695  1
  O2-  O208  1  0.16786885  0.71128180  0.59902855  1
  O2-  O209  1  0.16530758  0.70985218  0.93012250  1
  O2-  O210  1  0.67069807  0.21398614  0.26983130  1
  O2-  O211  1  0.67254157  0.20556724  0.59970380  1
  O2-  O212  1  0.67254418  0.21241565  0.93413598  1
  O2-  O213  1  0.67081666  0.69743040  0.26604757  1
  O2-  O214  1  0.66556161  0.70716814  0.60781093  1
  O2-  O215  1  0.66752479  0.70973428  0.92991660  1
  O2-  O216  1  0.08224997  0.46031174  0.06983998  1
  O2-  O217  1  0.08119530  0.44812676  0.39925616  1
  O2-  O218  1  0.08921363  0.45526778  0.72658664  1
  O2-  O219  1  0.08537494  0.95171280  0.06009670  1
  O2-  O220  1  0.08568261  0.96235362  0.40211784  1
  O2-  O221  1  0.08647106  0.95068252  0.73146845  1
  O2-  O222  1  0.58015110  0.46163314  0.06356615  1
  O2-  O223  1  0.58371376  0.45988471  0.40589879  1
  O2-  O224  1  0.58264997  0.45766006  0.73024099  1
  O2-  O225  1  0.58163715  0.94264994  0.05883246  1
  O2-  O226  1  0.57610954  0.95055570  0.39702555  1
  O2-  O227  1  0.57928841  0.94867991  0.73020262  1
  O2-  O228  1  0.20682002  0.33395902  0.07154474  1
  O2-  O229  1  0.20366355  0.33222185  0.39902600  1
  O2-  O230  1  0.20909237  0.33549773  0.72579785  1
  O2-  O231  1  0.20498776  0.83320830  0.06089415  1
  O2-  O232  1  0.21025287  0.83441650  0.40334717  1
  O2-  O233  1  0.21164128  0.83707784  0.73158618  1
  O2-  O234  1  0.71457504  0.33931694  0.06797031  1
  O2-  O235  1  0.71463908  0.33782410  0.40655273  1
  O2-  O236  1  0.70146200  0.33568125  0.73108953  1
  O2-  O237  1  0.70935240  0.83370638  0.06295662  1
  O2-  O238  1  0.70794796  0.82791274  0.39795001  1
  O2-  O239  1  0.70494688  0.83630731  0.73410001  1
  O2-  O240  1  0.45390818  0.41670185  0.27337735  1
  O2-  O241  1  0.45226794  0.42368327  0.59950684  1
  O2-  O242  1  0.45215868  0.41848794  0.93187556  1
  O2-  O243  1  0.44729578  0.92212018  0.26601643  1
  O2-  O244  1  0.45075870  0.91305422  0.60490915  1
  O2-  O245  1  0.45257043  0.91570896  0.93356424  1
  O2-  O246  1  0.95618121  0.41615851  0.26598521  1
  O2-  O247  1  0.95988608  0.41211170  0.60078382  1
  O2-  O248  1  0.95822487  0.41278371  0.93713901  1
  O2-  O249  1  0.96667981  0.91262862  0.26285325  1
  O2-  O250  1  0.95711466  0.91246563  0.60408693  1
  O2-  O251  1  0.96003045  0.91589062  0.93156193  1
  O2-  O252  1  0.33301165  0.30043777  0.27203412  1
  O2-  O253  1  0.33188448  0.29249201  0.59245891  1
  O2-  O254  1  0.32787399  0.28950444  0.93591018  1
  O2-  O255  1  0.33018659  0.78786488  0.26542218  1
  O2-  O256  1  0.33777122  0.78939346  0.60541055  1
  O2-  O257  1  0.33405993  0.79615566  0.93197817  1
  O2-  O258  1  0.83377596  0.30029020  0.27133150  1
  O2-  O259  1  0.83144864  0.30476173  0.60800609  1
  O2-  O260  1  0.83893377  0.29398007  0.93684948  1
  O2-  O261  1  0.83482723  0.79181378  0.26061071  1
  O2-  O262  1  0.83324473  0.79596110  0.60729719  1
  O2-  O263  1  0.83486305  0.80335139  0.93181199  1
  O2-  O264  1  0.41975302  0.04163773  0.06520440  1
  O2-  O265  1  0.41709068  0.04959093  0.39659119  1
  O2-  O266  1  0.41043030  0.04107456  0.72859510  1
  O2-  O267  1  0.41487476  0.54852559  0.05984537  1
  O2-  O268  1  0.41197293  0.53771737  0.40636635  1
  O2-  O269  1  0.41468467  0.54866275  0.73023362  1
  O2-  O270  1  0.91708560  0.03736263  0.06753991  1
  O2-  O271  1  0.91893991  0.03515530  0.39902309  1
  O2-  O272  1  0.91546979  0.03540951  0.73820867  1
  O2-  O273  1  0.91347430  0.54423007  0.06387699  1
  O2-  O274  1  0.91717208  0.54366424  0.39685375  1
  O2-  O275  1  0.91936199  0.53805164  0.73231088  1
  O2-  O276  1  0.28915628  0.16415238  0.07182924  1
  O2-  O277  1  0.29599230  0.16814497  0.39688083  1
  O2-  O278  1  0.29021796  0.16365787  0.72432167  1
  O2-  O279  1  0.29368229  0.66722850  0.06056651  1
  O2-  O280  1  0.28779673  0.66437040  0.40401389  1
  O2-  O281  1  0.29070251  0.66334382  0.73351141  1
  O2-  O282  1  0.79649756  0.16932648  0.06904561  1
  O2-  O283  1  0.80035075  0.17035294  0.40123000  1
  O2-  O284  1  0.79593299  0.17000036  0.73390546  1
  O2-  O285  1  0.80380401  0.67205160  0.05468952  1
  O2-  O286  1  0.80345063  0.66778113  0.39155421  1
  O2-  O287  1  0.79364725  0.66707322  0.73730482  1
