# generated using pymatgen
data_Ca2Al2SiO7
_symmetry_space_group_name_H-M   'P 1'
_cell_length_a   15.46507591
_cell_length_b   15.46317436
_cell_length_c   15.28800942
_cell_angle_alpha   89.98557064
_cell_angle_beta   89.98470000
_cell_angle_gamma   89.98726437
_symmetry_Int_Tables_number   1
_chemical_formula_structural   Ca2Al2SiO7
_chemical_formula_sum   'Ca48 Al48 Si24 O168'
_cell_volume   3655.96147486
_cell_formula_units_Z   24
loop_
 _symmetry_equiv_pos_site_id
 _symmetry_equiv_pos_as_xyz
  1  'x, y, z'
loop_
 _atom_type_symbol
 _atom_type_oxidation_number
  Ca2+  2.0
  Al0+  0.0
  Si0+  0.0
  O2-  -2.0
loop_
 _atom_site_type_symbol
 _atom_site_label
 _atom_site_symmetry_multiplicity
 _atom_site_fract_x
 _atom_site_fract_y
 _atom_site_fract_z
 _atom_site_occupancy
  Ca2+  Ca0  1  0.16700400  0.08606493  0.16725931  1
  Ca2+  Ca1  1  0.16929594  0.07999661  0.50297920  1
  Ca2+  Ca2  1  0.16430203  0.08341964  0.84169103  1
  Ca2+  Ca3  1  0.17499383  0.58090726  0.17051556  1
  Ca2+  Ca4  1  0.17581001  0.59496251  0.50098941  1
  Ca2+  Ca5  1  0.17774972  0.57627840  0.84269218  1
  Ca2+  Ca6  1  0.66795382  0.07919197  0.17244600  1
  Ca2+  Ca7  1  0.67158770  0.08091534  0.50076192  1
  Ca2+  Ca8  1  0.67302211  0.08440506  0.84095890  1
  Ca2+  Ca9  1  0.66785823  0.58295160  0.17004944  1
  Ca2+  Ca10  1  0.68023180  0.58684990  0.50267468  1
  Ca2+  Ca11  1  0.67173643  0.58609227  0.83863530  1
  Ca2+  Ca12  1  0.07772872  0.32927101  0.15468880  1
  Ca2+  Ca13  1  0.07750889  0.33407226  0.50017898  1
  Ca2+  Ca14  1  0.07716789  0.33242893  0.83690950  1
  Ca2+  Ca15  1  0.07719766  0.82721241  0.16898667  1
  Ca2+  Ca16  1  0.06811449  0.82818894  0.49245392  1
  Ca2+  Ca17  1  0.07442526  0.83255057  0.82759568  1
  Ca2+  Ca18  1  0.58275981  0.32174894  0.15841792  1
  Ca2+  Ca19  1  0.59143307  0.32018010  0.49780638  1
  Ca2+  Ca20  1  0.58434165  0.32315844  0.83295318  1
  Ca2+  Ca21  1  0.57877044  0.83392037  0.15915324  1
  Ca2+  Ca22  1  0.57768738  0.83527102  0.49125906  1
  Ca2+  Ca23  1  0.58399520  0.83232114  0.83888423  1
  Ca2+  Ca24  1  0.33665474  0.42422697  0.16836422  1
  Ca2+  Ca25  1  0.33130078  0.42965448  0.50651011  1
  Ca2+  Ca26  1  0.33246575  0.42316170  0.84666500  1
  Ca2+  Ca27  1  0.33743318  0.91081754  0.17011782  1
  Ca2+  Ca28  1  0.33236382  0.91213632  0.50009479  1
  Ca2+  Ca29  1  0.33166426  0.91548368  0.83999539  1
  Ca2+  Ca30  1  0.83492410  0.41954625  0.17033420  1
  Ca2+  Ca31  1  0.83895159  0.42825766  0.50495399  1
  Ca2+  Ca32  1  0.84075598  0.41859276  0.83478119  1
  Ca2+  Ca33  1  0.82099453  0.92630242  0.17447924  1
  Ca2+  Ca34  1  0.83500712  0.92340192  0.50414965  1
  Ca2+  Ca35  1  0.83023506  0.92830423  0.84231020  1
  Ca2+  Ca36  1  0.43015168  0.17000664  0.15728668  1
  Ca2+  Ca37  1  0.43238243  0.16492129  0.49269266  1
  Ca2+  Ca38  1  0.42890044  0.16974018  0.83183811  1
  Ca2+  Ca39  1  0.41762346  0.67315368  0.15848752  1
  Ca2+  Ca40  1  0.41456984  0.66838572  0.49239923  1
  Ca2+  Ca41  1  0.41842670  0.66304028  0.83581881  1
  Ca2+  Ca42  1  0.91582031  0.16853182  0.15659061  1
  Ca2+  Ca43  1  0.90446121  0.17102198  0.49890646  1
  Ca2+  Ca44  1  0.90956255  0.17569687  0.83090396  1
  Ca2+  Ca45  1  0.91540897  0.66818801  0.16699333  1
  Ca2+  Ca46  1  0.91464472  0.67415395  0.48986116  1
  Ca2+  Ca47  1  0.91512741  0.67408441  0.82300226  1
  Al0+  Al48  1  0.00082791  -0.00039980  0.00243503  1
  Al0+  Al49  1  0.00024431  0.00049300  0.33390455  1
  Al0+  Al50  1  0.00010080  -0.00029737  0.66648775  1
  Al0+  Al51  1  0.00289010  0.50025586  0.00034399  1
  Al0+  Al52  1  0.00121448  0.49839816  0.33368853  1
  Al0+  Al53  1  0.00315210  0.49934252  0.66655903  1
  Al0+  Al54  1  0.49865135  -0.00196391  -0.00579088  1
  Al0+  Al55  1  0.50022473  0.00041565  0.32920300  1
  Al0+  Al56  1  0.49926560  -0.00072329  0.66253446  1
  Al0+  Al57  1  0.50286776  0.50198150  -0.00213078  1
  Al0+  Al58  1  0.49837326  0.49855213  0.34120418  1
  Al0+  Al59  1  0.50055684  0.50021303  0.66940077  1
  Al0+  Al60  1  0.24809478  0.24961949  -0.00320579  1
  Al0+  Al61  1  0.24927930  0.25141391  0.33666418  1
  Al0+  Al62  1  0.25073232  0.25026426  0.66550442  1
  Al0+  Al63  1  0.24947289  0.75001320  -0.00028307  1
  Al0+  Al64  1  0.24824383  0.74980251  0.33045284  1
  Al0+  Al65  1  0.25005243  0.75019723  0.67273440  1
  Al0+  Al66  1  0.75188815  0.25334427  -0.00416658  1
  Al0+  Al67  1  0.74984005  0.24868602  0.33092847  1
  Al0+  Al68  1  0.75068860  0.24981862  0.66093987  1
  Al0+  Al69  1  0.74917479  0.75239131  0.00011443  1
  Al0+  Al70  1  0.74765864  0.75048116  0.33636173  1
  Al0+  Al71  1  0.74770629  0.75085262  0.66626909  1
  Al0+  Al72  1  0.57001784  0.17895869  0.65050529  1
  Al0+  Al73  1  0.92509294  0.82275525  0.31636621  1
  Al0+  Al74  1  0.57344913  0.67929077  0.98510033  1
  Al0+  Al75  1  0.32121858  0.57116771  0.68319063  1
  Al0+  Al76  1  0.42957938  0.81897584  0.32106151  1
  Al0+  Al77  1  0.92889271  0.32335373  0.98511551  1
  Al0+  Al78  1  0.32307931  0.57091227  0.01742833  1
  Al0+  Al79  1  0.42901048  0.32212048  0.98691910  1
  Al0+  Al80  1  0.17906467  0.42758067  0.01665131  1
  Al0+  Al81  1  0.07028570  0.17653927  0.98569806  1
  Al0+  Al82  1  0.57096018  0.18065447  0.31763786  1
  Al0+  Al83  1  0.42687461  0.81994940  0.98275777  1
  Al0+  Al84  1  0.57226133  0.17793247  0.98444565  1
  Al0+  Al85  1  0.82223406  0.07122747  0.34958345  1
  Al0+  Al86  1  0.92731132  0.82136308  0.65382141  1
  Al0+  Al87  1  0.67765851  0.92977052  0.01511395  1
  Al0+  Al88  1  0.67619471  0.92914809  0.34929001  1
  Al0+  Al89  1  0.06957569  0.67772743  0.31758127  1
  Al0+  Al90  1  0.81993420  0.07041354  0.68158253  1
  Al0+  Al91  1  0.82098348  0.07354103  0.01468793  1
  Al0+  Al92  1  0.82191161  0.57197409  0.68004587  1
  Al0+  Al93  1  0.93126031  0.32086782  0.65042795  1
  Al0+  Al94  1  0.82093145  0.56963032  0.34510583  1
  Al0+  Al95  1  0.31946606  0.57138332  0.34784070  1
  Si0+  Si96  1  0.67438747  0.92792415  0.68421435  1
  Si0+  Si97  1  0.32044876  0.07221081  0.34698446  1
  Si0+  Si98  1  0.32010414  0.07008379  0.01336834  1
  Si0+  Si99  1  0.68028796  0.42819496  0.68316785  1
  Si0+  Si100  1  0.07403443  0.17901188  0.32017691  1
  Si0+  Si101  1  0.93013520  0.31953497  0.31914312  1
  Si0+  Si102  1  0.42729419  0.32332796  0.64872324  1
  Si0+  Si103  1  0.42787032  0.81910650  0.65119350  1
  Si0+  Si104  1  0.57162842  0.67457752  0.31971460  1
  Si0+  Si105  1  0.42615399  0.32241682  0.31899751  1
  Si0+  Si106  1  0.07234084  0.67970547  0.65215381  1
  Si0+  Si107  1  0.82265215  0.57292091  0.01313670  1
  Si0+  Si108  1  0.68014292  0.43010168  0.01360954  1
  Si0+  Si109  1  0.92950558  0.81992900  0.98593608  1
  Si0+  Si110  1  0.07417921  0.17663990  0.64823558  1
  Si0+  Si111  1  0.67763893  0.42651988  0.34981960  1
  Si0+  Si112  1  0.17791133  0.42635451  0.35301278  1
  Si0+  Si113  1  0.17907195  0.42507895  0.68551506  1
  Si0+  Si114  1  0.57054341  0.67719956  0.65003043  1
  Si0+  Si115  1  0.17997645  0.93071433  0.68156492  1
  Si0+  Si116  1  0.32219886  0.07083718  0.68031438  1
  Si0+  Si117  1  0.17783207  0.92752621  0.01660229  1
  Si0+  Si118  1  0.17916663  0.92898560  0.34843668  1
  Si0+  Si119  1  0.07075289  0.67934093  0.98420288  1
  O2-  O120  1  0.24999424  -0.00160990  0.05706582  1
  O2-  O121  1  0.25027866  0.00055630  0.39053814  1
  O2-  O122  1  0.24842214  0.00382369  0.72406749  1
  O2-  O123  1  0.25357896  0.49638885  0.06724921  1
  O2-  O124  1  0.24472082  0.49727687  0.39651554  1
  O2-  O125  1  0.25022978  0.49224508  0.72746894  1
  O2-  O126  1  0.74558252  0.00555401  0.06467414  1
  O2-  O127  1  0.75255209  -0.00339773  0.39956395  1
  O2-  O128  1  0.74540906  -0.00509618  0.72685677  1
  O2-  O129  1  0.75218666  0.50111061  0.05468630  1
  O2-  O130  1  0.74457649  0.49724490  0.39352235  1
  O2-  O131  1  0.74841235  0.49719650  0.72841702  1
  O2-  O132  1  -0.00030029  0.24635769  0.27916961  1
  O2-  O133  1  0.00463203  0.24404284  0.60349824  1
  O2-  O134  1  -0.00308195  0.24676958  0.93596978  1
  O2-  O135  1  -0.00597628  0.74640039  0.26747690  1
  O2-  O136  1  -0.00205182  0.74183769  0.60793136  1
  O2-  O137  1  -0.00161438  0.74811714  0.94122838  1
  O2-  O138  1  0.49609297  0.25639286  0.27398495  1
  O2-  O139  1  0.49492243  0.25429154  0.60352974  1
  O2-  O140  1  0.49976151  0.25012779  0.93487811  1
  O2-  O141  1  0.50378283  0.74384117  0.27596932  1
  O2-  O142  1  0.49811394  0.74778417  0.60902167  1
  O2-  O143  1  0.49895888  0.74809371  0.93317073  1
  O2-  O144  1  0.06990652  0.17634032  0.09984247  1
  O2-  O145  1  0.07931428  0.18128415  0.42524647  1
  O2-  O146  1  0.07707777  0.17612567  0.75300378  1
  O2-  O147  1  0.07012775  0.68050007  0.08903997  1
  O2-  O148  1  0.07121219  0.68263137  0.43169826  1
  O2-  O149  1  0.07346645  0.68402281  0.75793170  1
  O2-  O150  1  0.57055985  0.17961005  0.09807181  1
  O2-  O151  1  0.56975332  0.18134814  0.43113289  1
  O2-  O152  1  0.56786475  0.17908095  0.76306260  1
  O2-  O153  1  0.57545628  0.67948009  0.09863036  1
  O2-  O154  1  0.56924592  0.67394821  0.42583153  1
  O2-  O155  1  0.57192234  0.67694725  0.75463040  1
  O2-  O156  1  0.17935103  0.42202451  0.24822535  1
  O2-  O157  1  0.17990641  0.42344337  0.57962494  1
  O2-  O158  1  0.17771678  0.43246990  0.90286557  1
  O2-  O159  1  0.17908235  0.93015377  0.24349960  1
  O2-  O160  1  0.18253729  0.92957196  0.57633484  1
  O2-  O161  1  0.17662128  0.92723573  0.91103972  1
  O2-  O162  1  0.67790113  0.42646853  0.24415134  1
  O2-  O163  1  0.68077578  0.43039470  0.57730699  1
  O2-  O164  1  0.68020570  0.43008123  0.90848259  1
  O2-  O165  1  0.67356035  0.93282156  0.23627572  1
  O2-  O166  1  0.67109162  0.92880594  0.57880461  1
  O2-  O167  1  0.68309526  0.92761007  0.90117649  1
  O2-  O168  1  0.43237252  0.31969284  0.10094951  1
  O2-  O169  1  0.42467834  0.31922081  0.42478363  1
  O2-  O170  1  0.42710397  0.32133207  0.75390801  1
  O2-  O171  1  0.42585738  0.81889012  0.09617236  1
  O2-  O172  1  0.42813747  0.81788799  0.43507097  1
  O2-  O173  1  0.42629852  0.82070023  0.75553663  1
  O2-  O174  1  0.93044564  0.32578529  0.09906801  1
  O2-  O175  1  0.93128947  0.32066543  0.42441466  1
  O2-  O176  1  0.93274832  0.32161268  0.76271135  1
  O2-  O177  1  0.93118774  0.81792443  0.09063711  1
  O2-  O178  1  0.92937502  0.82280500  0.43039865  1
  O2-  O179  1  0.93173889  0.82131761  0.76736506  1
  O2-  O180  1  0.31760212  0.07443344  0.24217741  1
  O2-  O181  1  0.32144030  0.06777714  0.57484514  1
  O2-  O182  1  0.31795482  0.06800007  0.90781867  1
  O2-  O183  1  0.32068138  0.57017425  0.23573265  1
  O2-  O184  1  0.31800119  0.57403285  0.56967742  1
  O2-  O185  1  0.31876847  0.57091738  0.90353225  1
  O2-  O186  1  0.82200442  0.07414071  0.23661073  1
  O2-  O187  1  0.81918320  0.06921645  0.56864435  1
  O2-  O188  1  0.82158421  0.07060933  0.90071249  1
  O2-  O189  1  0.82081136  0.56599641  0.23173004  1
  O2-  O190  1  0.82039007  0.57179295  0.56694722  1
  O2-  O191  1  0.82255357  0.57372675  0.90783113  1
  O2-  O192  1  0.05235850  0.08548036  0.27460882  1
  O2-  O193  1  0.05110985  0.08211900  0.60292141  1
  O2-  O194  1  0.04716254  0.07606898  0.93345970  1
  O2-  O195  1  0.04597625  0.57741834  0.26663713  1
  O2-  O196  1  0.05672970  0.58364166  0.60854478  1
  O2-  O197  1  0.04502497  0.58771323  0.93644749  1
  O2-  O198  1  0.53600808  0.08617871  0.26401432  1
  O2-  O199  1  0.53553391  0.08318842  0.59595887  1
  O2-  O200  1  0.54228631  0.08108531  0.93044232  1
  O2-  O201  1  0.54631595  0.57966103  0.27600485  1
  O2-  O202  1  0.54409958  0.58488194  0.60282701  1
  O2-  O203  1  0.54949897  0.58088272  0.93025822  1
  O2-  O204  1  0.16473589  0.20944243  0.27136433  1
  O2-  O205  1  0.16808808  0.20301508  0.60069775  1
  O2-  O206  1  0.16777659  0.20406186  0.93038261  1
  O2-  O207  1  0.16509940  0.71226438  0.26314515  1
  O2-  O208  1  0.16382607  0.71410820  0.60594203  1
  O2-  O209  1  0.16095126  0.71009824  0.93600607  1
  O2-  O210  1  0.66668311  0.21239831  0.26322540  1
  O2-  O211  1  0.66519762  0.21152150  0.59526250  1
  O2-  O212  1  0.66901245  0.21024679  0.93145955  1
  O2-  O213  1  0.66576574  0.69666491  0.27457161  1
  O2-  O214  1  0.66144231  0.70646228  0.60156071  1
  O2-  O215  1  0.67072760  0.71101453  0.92928347  1
  O2-  O216  1  0.08199534  0.46058406  0.07065190  1
  O2-  O217  1  0.08390247  0.45040592  0.39875182  1
  O2-  O218  1  0.08655971  0.45328713  0.73122949  1
  O2-  O219  1  0.08768212  0.95553356  0.06670143  1
  O2-  O220  1  0.08895314  0.95810093  0.39832330  1
  O2-  O221  1  0.08833378  0.95652422  0.72990793  1
  O2-  O222  1  0.58996949  0.45821412  0.06350933  1
  O2-  O223  1  0.58386347  0.44703602  0.39832977  1
  O2-  O224  1  0.58618202  0.45240018  0.72855055  1
  O2-  O225  1  0.57571761  0.95217165  0.06297125  1
  O2-  O226  1  0.57818582  0.96218860  0.40271954  1
  O2-  O227  1  0.58067498  0.95532163  0.72961289  1
  O2-  O228  1  0.20135129  0.32636855  0.06650301  1
  O2-  O229  1  0.20563588  0.33418957  0.40294463  1
  O2-  O230  1  0.20201243  0.33013724  0.73039836  1
  O2-  O231  1  0.20567816  0.83632633  0.06443946  1
  O2-  O232  1  0.20881076  0.83866765  0.39722811  1
  O2-  O233  1  0.20989910  0.84098905  0.73197379  1
  O2-  O234  1  0.70857509  0.33937195  0.06269430  1
  O2-  O235  1  0.70775445  0.33451751  0.39613492  1
  O2-  O236  1  0.70716610  0.33469738  0.72742984  1
  O2-  O237  1  0.70924526  0.83224029  0.06857905  1
  O2-  O238  1  0.69625245  0.82822057  0.40088848  1
  O2-  O239  1  0.69712235  0.83305522  0.72834568  1
  O2-  O240  1  0.45013393  0.41753228  0.27621146  1
  O2-  O241  1  0.45373582  0.41760059  0.60377136  1
  O2-  O242  1  0.45816920  0.41966405  0.93387218  1
  O2-  O243  1  0.45619621  0.91629437  0.26710264  1
  O2-  O244  1  0.45428852  0.91084855  0.60236220  1
  O2-  O245  1  0.45264071  0.91799870  0.92764054  1
  O2-  O246  1  0.95920020  0.41024733  0.27121097  1
  O2-  O247  1  0.96494792  0.41752060  0.59609009  1
  O2-  O248  1  0.96190013  0.42073329  0.93121644  1
  O2-  O249  1  0.96112469  0.91969622  0.26489950  1
  O2-  O250  1  0.96474780  0.91549986  0.59906046  1
  O2-  O251  1  0.96112954  0.91068616  0.93913492  1
  O2-  O252  1  0.33269759  0.29573867  0.27351455  1
  O2-  O253  1  0.33296188  0.29916195  0.60270036  1
  O2-  O254  1  0.33092384  0.29441678  0.93380039  1
  O2-  O255  1  0.33263780  0.79127586  0.26731566  1
  O2-  O256  1  0.33481966  0.79155558  0.60520829  1
  O2-  O257  1  0.32740719  0.79293228  0.92976433  1
  O2-  O258  1  0.83806454  0.29454698  0.27166961  1
  O2-  O259  1  0.83473835  0.29229086  0.59529518  1
  O2-  O260  1  0.83071108  0.30112203  0.92961556  1
  O2-  O261  1  0.82528250  0.79615507  0.26667365  1
  O2-  O262  1  0.82913008  0.79526922  0.60136762  1
  O2-  O263  1  0.83825396  0.79357753  0.93792370  1
  O2-  O264  1  0.41193539  0.04248189  0.06000275  1
  O2-  O265  1  0.41135877  0.04311821  0.39450379  1
  O2-  O266  1  0.41211406  0.03876416  0.72807852  1
  O2-  O267  1  0.42396964  0.54685455  0.06686101  1
  O2-  O268  1  0.41523386  0.54136741  0.40566528  1
  O2-  O269  1  0.41970599  0.54395512  0.73465182  1
  O2-  O270  1  0.91902145  0.04169112  0.06681451  1
  O2-  O271  1  0.92307678  0.04786922  0.40163407  1
  O2-  O272  1  0.91866117  0.04145777  0.73272975  1
  O2-  O273  1  0.91437804  0.54578612  0.06025098  1
  O2-  O274  1  0.91711155  0.53721070  0.39976382  1
  O2-  O275  1  0.92062444  0.54407587  0.73146477  1
  O2-  O276  1  0.29166366  0.16103303  0.06134001  1
  O2-  O277  1  0.29135503  0.16251055  0.39776000  1
  O2-  O278  1  0.29877384  0.16457216  0.72543698  1
  O2-  O279  1  0.28938262  0.66923299  0.06745786  1
  O2-  O280  1  0.28606537  0.66821526  0.40157126  1
  O2-  O281  1  0.28790507  0.66672276  0.73786121  1
  O2-  O282  1  0.79915436  0.17544736  0.06282320  1
  O2-  O283  1  0.78965190  0.16970813  0.40129338  1
  O2-  O284  1  0.78874486  0.16873040  0.73142831  1
  O2-  O285  1  0.79396791  0.66387001  0.06093301  1
  O2-  O286  1  0.79182746  0.66609846  0.40025993  1
  O2-  O287  1  0.78918083  0.66848863  0.73366344  1
