# generated using pymatgen
data_Ca2Al2SiO7
_symmetry_space_group_name_H-M   'P 1'
_cell_length_a   15.45694262
_cell_length_b   15.45559697
_cell_length_c   15.28242441
_cell_angle_alpha   89.99917122
_cell_angle_beta   90.00399647
_cell_angle_gamma   89.99804126
_symmetry_Int_Tables_number   1
_chemical_formula_structural   Ca2Al2SiO7
_chemical_formula_sum   'Ca48 Al48 Si24 O168'
_cell_volume   3650.91425900
_cell_formula_units_Z   24
loop_
 _symmetry_equiv_pos_site_id
 _symmetry_equiv_pos_as_xyz
  1  'x, y, z'
loop_
 _atom_type_symbol
 _atom_type_oxidation_number
  Ca2+  2.0
  Al0+  0.0
  Si0+  0.0
  O2-  -2.0
loop_
 _atom_site_type_symbol
 _atom_site_label
 _atom_site_symmetry_multiplicity
 _atom_site_fract_x
 _atom_site_fract_y
 _atom_site_fract_z
 _atom_site_occupancy
  Ca2+  Ca0  1  0.17006019  0.07833498  0.17217883  1
  Ca2+  Ca1  1  0.16933784  0.08482644  0.49615203  1
  Ca2+  Ca2  1  0.17086919  0.07950437  0.84728453  1
  Ca2+  Ca3  1  0.16403288  0.58031352  0.17287877  1
  Ca2+  Ca4  1  0.17302487  0.59090147  0.49661113  1
  Ca2+  Ca5  1  0.16178991  0.57521673  0.84210670  1
  Ca2+  Ca6  1  0.66489242  0.07399102  0.17322184  1
  Ca2+  Ca7  1  0.65574625  0.08008095  0.50112357  1
  Ca2+  Ca8  1  0.66808941  0.07907673  0.83856618  1
  Ca2+  Ca9  1  0.67466106  0.58449841  0.16831681  1
  Ca2+  Ca10  1  0.67051604  0.57566413  0.51327348  1
  Ca2+  Ca11  1  0.67661535  0.58437268  0.83423524  1
  Ca2+  Ca12  1  0.09574675  0.32129266  0.16176979  1
  Ca2+  Ca13  1  0.07546315  0.33038691  0.49533459  1
  Ca2+  Ca14  1  0.08292554  0.32975903  0.83458554  1
  Ca2+  Ca15  1  0.08783240  0.82632172  0.15823575  1
  Ca2+  Ca16  1  0.07858997  0.83073504  0.49100605  1
  Ca2+  Ca17  1  0.07313878  0.83379849  0.83333461  1
  Ca2+  Ca18  1  0.57021169  0.32728754  0.16478937  1
  Ca2+  Ca19  1  0.58477041  0.32367250  0.49290233  1
  Ca2+  Ca20  1  0.58062020  0.32966016  0.82651221  1
  Ca2+  Ca21  1  0.57822904  0.84419190  0.16621016  1
  Ca2+  Ca22  1  0.57999517  0.82741225  0.49300681  1
  Ca2+  Ca23  1  0.58684233  0.82835855  0.82956019  1
  Ca2+  Ca24  1  0.33389584  0.41846284  0.16998439  1
  Ca2+  Ca25  1  0.33790964  0.41855313  0.49671879  1
  Ca2+  Ca26  1  0.32926619  0.41698465  0.84313813  1
  Ca2+  Ca27  1  0.32530090  0.92676005  0.17648937  1
  Ca2+  Ca28  1  0.33052548  0.91633839  0.49465940  1
  Ca2+  Ca29  1  0.32576019  0.92590816  0.84465528  1
  Ca2+  Ca30  1  0.83851451  0.42546423  0.16827450  1
  Ca2+  Ca31  1  0.82865460  0.42103186  0.51384097  1
  Ca2+  Ca32  1  0.83404695  0.42436089  0.83491021  1
  Ca2+  Ca33  1  0.82335402  0.90872091  0.16760763  1
  Ca2+  Ca34  1  0.82946247  0.91580091  0.50242159  1
  Ca2+  Ca35  1  0.82960951  0.90848532  0.84059875  1
  Ca2+  Ca36  1  0.40777838  0.17124424  0.16372391  1
  Ca2+  Ca37  1  0.42572238  0.17063199  0.48894190  1
  Ca2+  Ca38  1  0.41774211  0.17019304  0.83302261  1
  Ca2+  Ca39  1  0.40945628  0.67453538  0.16784549  1
  Ca2+  Ca40  1  0.42180798  0.66833796  0.49029956  1
  Ca2+  Ca41  1  0.42497586  0.66889584  0.82746729  1
  Ca2+  Ca42  1  0.93087175  0.16367356  0.16274721  1
  Ca2+  Ca43  1  0.91900347  0.17452502  0.49492831  1
  Ca2+  Ca44  1  0.92413905  0.17004678  0.82853237  1
  Ca2+  Ca45  1  0.92709524  0.67105214  0.15736721  1
  Ca2+  Ca46  1  0.91884783  0.66952368  0.49825736  1
  Ca2+  Ca47  1  0.91316082  0.67181430  0.83321988  1
  Al0+  Al48  1  -0.00075824  -0.00050346  -0.00509409  1
  Al0+  Al49  1  -0.00342570  0.00075264  0.33399553  1
  Al0+  Al50  1  -0.00016408  -0.00168752  0.66202999  1
  Al0+  Al51  1  0.00047680  0.49922790  0.00644545  1
  Al0+  Al52  1  0.00013065  0.50216154  0.33299200  1
  Al0+  Al53  1  0.00185721  0.50043499  0.66602814  1
  Al0+  Al54  1  0.50061132  0.00151315  0.00507218  1
  Al0+  Al55  1  0.50049829  -0.00213908  0.33580778  1
  Al0+  Al56  1  0.49785844  0.00081381  0.66581994  1
  Al0+  Al57  1  0.50057109  0.49910562  -0.00426709  1
  Al0+  Al58  1  0.50189717  0.49901298  0.33315393  1
  Al0+  Al59  1  0.49954283  0.49985104  0.66772978  1
  Al0+  Al60  1  0.25079293  0.25261618  -0.00355607  1
  Al0+  Al61  1  0.24843214  0.25107324  0.33373859  1
  Al0+  Al62  1  0.25143422  0.24947785  0.66664347  1
  Al0+  Al63  1  0.25135563  0.74941193  -0.00594726  1
  Al0+  Al64  1  0.25066665  0.74883044  0.33424002  1
  Al0+  Al65  1  0.24896212  0.75130613  0.67010095  1
  Al0+  Al66  1  0.74863924  0.25013556  0.00185792  1
  Al0+  Al67  1  0.74977775  0.25108453  0.32657379  1
  Al0+  Al68  1  0.75011384  0.24837308  0.66394536  1
  Al0+  Al69  1  0.74986321  0.74865221  0.00670531  1
  Al0+  Al70  1  0.75059232  0.74978557  0.33922764  1
  Al0+  Al71  1  0.74993006  0.74945697  0.66082565  1
  Al0+  Al72  1  0.67805464  0.42572752  0.68225446  1
  Al0+  Al73  1  0.56956562  0.67924428  0.65351344  1
  Al0+  Al74  1  0.32001872  0.07197089  0.01481280  1
  Al0+  Al75  1  0.57185749  0.17677993  0.31587615  1
  Al0+  Al76  1  0.32165451  0.56993966  0.34591332  1
  Al0+  Al77  1  0.42923606  0.32169179  0.31823490  1
  Al0+  Al78  1  0.43022674  0.81891280  0.31990452  1
  Al0+  Al79  1  0.32011305  0.07309574  0.35053227  1
  Al0+  Al80  1  0.07062615  0.68117110  0.32011774  1
  Al0+  Al81  1  0.57027298  0.17871048  0.65419191  1
  Al0+  Al82  1  0.82217701  0.57204669  0.68248165  1
  Al0+  Al83  1  0.81978049  0.56913122  0.01539622  1
  Al0+  Al84  1  0.17991764  0.43112622  0.01359969  1
  Al0+  Al85  1  0.17675890  0.92788443  0.34883257  1
  Al0+  Al86  1  0.92900297  0.82063272  0.65075490  1
  Al0+  Al87  1  0.17681524  0.92739911  0.01357229  1
  Al0+  Al88  1  0.68055675  0.92931538  0.01232381  1
  Al0+  Al89  1  0.67937693  0.92961810  0.35016702  1
  Al0+  Al90  1  0.92749346  0.81919501  0.98614286  1
  Al0+  Al91  1  0.06906032  0.17929085  0.32037928  1
  Al0+  Al92  1  0.43015707  0.32107471  0.98411283  1
  Al0+  Al93  1  0.07052571  0.17978186  0.98610166  1
  Al0+  Al94  1  0.07316774  0.67662931  0.98391153  1
  Al0+  Al95  1  0.93092857  0.32107036  0.65536369  1
  Si0+  Si96  1  0.92533201  0.32238146  0.98448568  1
  Si0+  Si97  1  0.32535560  0.57252380  0.01445529  1
  Si0+  Si98  1  0.82307911  0.07050542  0.68078884  1
  Si0+  Si99  1  0.17656013  0.42839679  0.35227590  1
  Si0+  Si100  1  0.42630731  0.82195047  0.65059635  1
  Si0+  Si101  1  0.18062468  0.42824986  0.68088817  1
  Si0+  Si102  1  0.82211363  0.57014344  0.35078734  1
  Si0+  Si103  1  0.42649664  0.32204770  0.64955073  1
  Si0+  Si104  1  0.57278546  0.17691702  0.98269158  1
  Si0+  Si105  1  0.07396628  0.67778333  0.64919151  1
  Si0+  Si106  1  0.82289163  0.07488871  0.01531230  1
  Si0+  Si107  1  0.67567125  0.42647405  0.01830371  1
  Si0+  Si108  1  0.92609896  0.82194165  0.31650083  1
  Si0+  Si109  1  0.57110315  0.67945263  0.98630248  1
  Si0+  Si110  1  0.17700556  0.92894640  0.68277525  1
  Si0+  Si111  1  0.92785522  0.32402649  0.31574478  1
  Si0+  Si112  1  0.32031450  0.07064457  0.68238165  1
  Si0+  Si113  1  0.67903624  0.93005793  0.68048754  1
  Si0+  Si114  1  0.32122739  0.57251219  0.68210300  1
  Si0+  Si115  1  0.82084370  0.07457031  0.35058702  1
  Si0+  Si116  1  0.57419181  0.67725284  0.31615094  1
  Si0+  Si117  1  0.07364309  0.17739602  0.64951879  1
  Si0+  Si118  1  0.43000156  0.82346640  0.98489689  1
  Si0+  Si119  1  0.68057855  0.42917843  0.34739805  1
  O2-  O120  1  0.24814371  -0.00048898  0.06363789  1
  O2-  O121  1  0.24724790  0.00111352  0.40090474  1
  O2-  O122  1  0.24721259  0.00140283  0.72391737  1
  O2-  O123  1  0.25202081  0.50918216  0.05824414  1
  O2-  O124  1  0.24737148  0.49571161  0.39561431  1
  O2-  O125  1  0.25134206  0.50001143  0.72320081  1
  O2-  O126  1  0.75507283  0.00468551  0.05818661  1
  O2-  O127  1  0.75083133  0.00789812  0.39661001  1
  O2-  O128  1  0.75155967  -0.00059584  0.72301823  1
  O2-  O129  1  0.74710449  0.49216576  0.06290776  1
  O2-  O130  1  0.75190752  0.49845935  0.39194195  1
  O2-  O131  1  0.75012587  0.49867426  0.73138747  1
  O2-  O132  1  -0.00369497  0.25539387  0.27233082  1
  O2-  O133  1  0.00472399  0.24641606  0.60672880  1
  O2-  O134  1  -0.00761305  0.25196441  0.94027394  1
  O2-  O135  1  -0.00056776  0.75850799  0.27324175  1
  O2-  O136  1  0.00438885  0.74582556  0.60576822  1
  O2-  O137  1  0.00156843  0.74961665  0.93458573  1
  O2-  O138  1  0.49494564  0.24426113  0.26715538  1
  O2-  O139  1  0.49906274  0.25682397  0.60761312  1
  O2-  O140  1  0.50583862  0.24690701  0.93811582  1
  O2-  O141  1  0.50620550  0.74580447  0.27112928  1
  O2-  O142  1  0.49298114  0.75146760  0.60661217  1
  O2-  O143  1  0.50018494  0.75085613  0.94349528  1
  O2-  O144  1  0.07036021  0.18076933  0.09898112  1
  O2-  O145  1  0.06585119  0.18281814  0.43408470  1
  O2-  O146  1  0.07439932  0.17740723  0.75505497  1
  O2-  O147  1  0.07177735  0.67687465  0.09747494  1
  O2-  O148  1  0.06688150  0.67977198  0.43378469  1
  O2-  O149  1  0.07700717  0.67790886  0.75428282  1
  O2-  O150  1  0.57399838  0.17685650  0.08766370  1
  O2-  O151  1  0.57299611  0.18179885  0.42987305  1
  O2-  O152  1  0.56670740  0.17504329  0.76732419  1
  O2-  O153  1  0.57029516  0.67803889  0.09125920  1
  O2-  O154  1  0.57306945  0.67752581  0.42199913  1
  O2-  O155  1  0.56914607  0.68305739  0.76719186  1
  O2-  O156  1  0.17435658  0.42949868  0.24702200  1
  O2-  O157  1  0.18141846  0.42643000  0.57599812  1
  O2-  O158  1  0.18170197  0.43060910  0.89953344  1
  O2-  O159  1  0.17830361  0.92732114  0.23576406  1
  O2-  O160  1  0.17755773  0.92712430  0.57802049  1
  O2-  O161  1  0.17970234  0.93000355  0.89889652  1
  O2-  O162  1  0.68186315  0.43209696  0.24226022  1
  O2-  O163  1  0.68006862  0.42710107  0.56810124  1
  O2-  O164  1  0.67520086  0.42713455  0.91287564  1
  O2-  O165  1  0.68332374  0.92693882  0.23715282  1
  O2-  O166  1  0.67853014  0.93162152  0.57573134  1
  O2-  O167  1  0.68011828  0.92925797  0.89834195  1
  O2-  O168  1  0.43158336  0.32374578  0.09655491  1
  O2-  O169  1  0.43468052  0.32402747  0.43228309  1
  O2-  O170  1  0.42268591  0.31949319  0.75506711  1
  O2-  O171  1  0.42992796  0.82304033  0.08965772  1
  O2-  O172  1  0.43155586  0.81527769  0.43350309  1
  O2-  O173  1  0.42740025  0.82206401  0.75666509  1
  O2-  O174  1  0.92421432  0.32070318  0.09004377  1
  O2-  O175  1  0.92753124  0.32425420  0.42178437  1
  O2-  O176  1  0.93395703  0.31914401  0.76835145  1
  O2-  O177  1  0.92408412  0.81574508  0.09933585  1
  O2-  O178  1  0.92482887  0.81859240  0.42251017  1
  O2-  O179  1  0.92920079  0.82231289  0.76342506  1
  O2-  O180  1  0.31740764  0.07260992  0.23736879  1
  O2-  O181  1  0.32087267  0.07159072  0.57787661  1
  O2-  O182  1  0.32085998  0.06903010  0.90000217  1
  O2-  O183  1  0.32068408  0.56939848  0.23307770  1
  O2-  O184  1  0.32070035  0.57421525  0.57717812  1
  O2-  O185  1  0.32832619  0.56957412  0.90828275  1
  O2-  O186  1  0.82168894  0.07365662  0.24512143  1
  O2-  O187  1  0.82471283  0.06967392  0.57590902  1
  O2-  O188  1  0.82005601  0.07822354  0.90930306  1
  O2-  O189  1  0.82168665  0.56998800  0.24563734  1
  O2-  O190  1  0.82095474  0.56981468  0.56841412  1
  O2-  O191  1  0.81713291  0.56999700  0.90245609  1
  O2-  O192  1  0.03636382  0.08319463  0.26653728  1
  O2-  O193  1  0.04772938  0.08445267  0.60320203  1
  O2-  O194  1  0.04168257  0.08383856  0.92934489  1
  O2-  O195  1  0.03796514  0.58464811  0.26684426  1
  O2-  O196  1  0.05109568  0.58384360  0.60282715  1
  O2-  O197  1  0.04164350  0.57721269  0.93408337  1
  O2-  O198  1  0.55059989  0.07517593  0.26904070  1
  O2-  O199  1  0.53557195  0.08333592  0.59920382  1
  O2-  O200  1  0.54577963  0.08341452  0.93633831  1
  O2-  O201  1  0.55024301  0.58363820  0.27050854  1
  O2-  O202  1  0.54032729  0.58162602  0.60021701  1
  O2-  O203  1  0.54379926  0.58867838  0.93643861  1
  O2-  O204  1  0.16543175  0.20985183  0.26739277  1
  O2-  O205  1  0.16705828  0.20486933  0.60394342  1
  O2-  O206  1  0.16441492  0.21515110  0.92947593  1
  O2-  O207  1  0.16850607  0.70564280  0.26765527  1
  O2-  O208  1  0.16759653  0.70656987  0.60352844  1
  O2-  O209  1  0.17279653  0.69965667  0.92932607  1
  O2-  O210  1  0.66878816  0.20867981  0.26123285  1
  O2-  O211  1  0.66789818  0.20306293  0.59947303  1
  O2-  O212  1  0.66733381  0.20163095  0.93679595  1
  O2-  O213  1  0.66875561  0.70377117  0.27270232  1
  O2-  O214  1  0.66415970  0.71015428  0.59685244  1
  O2-  O215  1  0.66198321  0.70985446  0.93933283  1
  O2-  O216  1  0.08353073  0.45486876  0.07059275  1
  O2-  O217  1  0.08362154  0.45789299  0.39920349  1
  O2-  O218  1  0.08942312  0.45621404  0.72885759  1
  O2-  O219  1  0.07663636  0.95260975  0.06304113  1
  O2-  O220  1  0.07658593  0.95510738  0.40038768  1
  O2-  O221  1  0.08448070  0.95673455  0.72865177  1
  O2-  O222  1  0.58373976  0.45804603  0.06413461  1
  O2-  O223  1  0.58975885  0.45685594  0.39613102  1
  O2-  O224  1  0.57845052  0.45355572  0.73393048  1
  O2-  O225  1  0.58517845  0.96030863  0.06797691  1
  O2-  O226  1  0.58235682  0.95512546  0.40551922  1
  O2-  O227  1  0.58662962  0.95782384  0.72772076  1
  O2-  O228  1  0.21549603  0.33632019  0.06657262  1
  O2-  O229  1  0.19990046  0.33520009  0.39963540  1
  O2-  O230  1  0.20840939  0.33615241  0.72897329  1
  O2-  O231  1  0.20643966  0.82728275  0.06154612  1
  O2-  O232  1  0.20871530  0.83065618  0.40302573  1
  O2-  O233  1  0.20509433  0.83763036  0.73163823  1
  O2-  O234  1  0.69727426  0.33170679  0.06387060  1
  O2-  O235  1  0.70778934  0.33619361  0.39290252  1
  O2-  O236  1  0.70656139  0.32679069  0.73431213  1
  O2-  O237  1  0.70911020  0.83413768  0.06976587  1
  O2-  O238  1  0.71238637  0.83326355  0.40558304  1
  O2-  O239  1  0.70666050  0.83743869  0.72578185  1
  O2-  O240  1  0.46327267  0.41829718  0.26422130  1
  O2-  O241  1  0.44676119  0.41790931  0.60673729  1
  O2-  O242  1  0.46086323  0.41744737  0.92796446  1
  O2-  O243  1  0.46058862  0.91519873  0.26658029  1
  O2-  O244  1  0.45359977  0.91464626  0.60472164  1
  O2-  O245  1  0.46058298  0.91461196  0.93720504  1
  O2-  O246  1  0.95412031  0.41776378  0.27102338  1
  O2-  O247  1  0.96245525  0.41681796  0.59917031  1
  O2-  O248  1  0.95434293  0.41526318  0.94011582  1
  O2-  O249  1  0.94220887  0.91837649  0.27439266  1
  O2-  O250  1  0.95917223  0.91699112  0.59502328  1
  O2-  O251  1  0.94972158  0.91875903  0.93187676  1
  O2-  O252  1  0.32752799  0.30131813  0.26989761  1
  O2-  O253  1  0.33443449  0.29295229  0.60157733  1
  O2-  O254  1  0.33516173  0.29001015  0.92742223  1
  O2-  O255  1  0.33510803  0.78585821  0.26558005  1
  O2-  O256  1  0.33159714  0.79762673  0.60648471  1
  O2-  O257  1  0.33972723  0.79687035  0.93348263  1
  O2-  O258  1  0.83486246  0.30099291  0.26799398  1
  O2-  O259  1  0.83530931  0.28992565  0.59972475  1
  O2-  O260  1  0.83041271  0.29984196  0.93878202  1
  O2-  O261  1  0.83408153  0.78912509  0.27147386  1
  O2-  O262  1  0.83321752  0.79088248  0.59510030  1
  O2-  O263  1  0.82899441  0.78591552  0.93377664  1
  O2-  O264  1  0.41847855  0.04554573  0.06721002  1
  O2-  O265  1  0.41855349  0.04246159  0.40215600  1
  O2-  O266  1  0.41083306  0.04002154  0.73142721  1
  O2-  O267  1  0.41730051  0.54311195  0.06153847  1
  O2-  O268  1  0.41907992  0.53958524  0.40066678  1
  O2-  O269  1  0.41296261  0.54630703  0.73049549  1
  O2-  O270  1  0.91685337  0.04973559  0.05946766  1
  O2-  O271  1  0.91292012  0.04809360  0.39959318  1
  O2-  O272  1  0.91567109  0.04327314  0.72782334  1
  O2-  O273  1  0.91520641  0.53890231  0.07175061  1
  O2-  O274  1  0.91387923  0.54264689  0.39842734  1
  O2-  O275  1  0.92201465  0.54460818  0.73307090  1
  O2-  O276  1  0.29129736  0.17089631  0.06367080  1
  O2-  O277  1  0.29133685  0.17190881  0.40415225  1
  O2-  O278  1  0.29431406  0.16348008  0.72971624  1
  O2-  O279  1  0.30559048  0.66887492  0.05597256  1
  O2-  O280  1  0.29021306  0.66461311  0.40336626  1
  O2-  O281  1  0.29453272  0.66454884  0.73078058  1
  O2-  O282  1  0.79783928  0.16764508  0.06395004  1
  O2-  O283  1  0.79750649  0.17049641  0.39401137  1
  O2-  O284  1  0.79529237  0.16155431  0.72894797  1
  O2-  O285  1  0.78470138  0.66234077  0.07284672  1
  O2-  O286  1  0.79410237  0.66129212  0.39890374  1
  O2-  O287  1  0.78932409  0.67063953  0.73298770  1
