# generated using pymatgen
data_Ca2Al2SiO7
_symmetry_space_group_name_H-M   'P 1'
_cell_length_a   15.46671427
_cell_length_b   15.46416604
_cell_length_c   15.28869434
_cell_angle_alpha   89.98054078
_cell_angle_beta   89.98790302
_cell_angle_gamma   89.98596516
_symmetry_Int_Tables_number   1
_chemical_formula_structural   Ca2Al2SiO7
_chemical_formula_sum   'Ca48 Al48 Si24 O168'
_cell_volume   3656.74702423
_cell_formula_units_Z   24
loop_
 _symmetry_equiv_pos_site_id
 _symmetry_equiv_pos_as_xyz
  1  'x, y, z'
loop_
 _atom_type_symbol
 _atom_type_oxidation_number
  Ca2+  2.0
  Al0+  0.0
  Si0+  0.0
  O2-  -2.0
loop_
 _atom_site_type_symbol
 _atom_site_label
 _atom_site_symmetry_multiplicity
 _atom_site_fract_x
 _atom_site_fract_y
 _atom_site_fract_z
 _atom_site_occupancy
  Ca2+  Ca0  1  0.17118879  0.07407857  0.16955666  1
  Ca2+  Ca1  1  0.17769526  0.08395602  0.50611380  1
  Ca2+  Ca2  1  0.17136609  0.08437247  0.84267964  1
  Ca2+  Ca3  1  0.17242164  0.58929437  0.17311628  1
  Ca2+  Ca4  1  0.16804513  0.58586263  0.49884872  1
  Ca2+  Ca5  1  0.16792405  0.58479956  0.83923485  1
  Ca2+  Ca6  1  0.66669779  0.08545401  0.17347358  1
  Ca2+  Ca7  1  0.66301409  0.08894033  0.50398903  1
  Ca2+  Ca8  1  0.66806563  0.08548485  0.83336941  1
  Ca2+  Ca9  1  0.68223785  0.58344917  0.17201448  1
  Ca2+  Ca10  1  0.67254925  0.58673512  0.50510059  1
  Ca2+  Ca11  1  0.67063598  0.58499496  0.84119164  1
  Ca2+  Ca12  1  0.08233328  0.32887869  0.16503305  1
  Ca2+  Ca13  1  0.08145226  0.32744411  0.49746458  1
  Ca2+  Ca14  1  0.08951600  0.32079896  0.83204176  1
  Ca2+  Ca15  1  0.08763128  0.82680596  0.15981307  1
  Ca2+  Ca16  1  0.08906267  0.82403899  0.49529448  1
  Ca2+  Ca17  1  0.07936341  0.82765559  0.83188140  1
  Ca2+  Ca18  1  0.57178764  0.32968007  0.16703303  1
  Ca2+  Ca19  1  0.57268580  0.32234433  0.49504721  1
  Ca2+  Ca20  1  0.57003478  0.32870666  0.82718779  1
  Ca2+  Ca21  1  0.57246357  0.83511202  0.16815577  1
  Ca2+  Ca22  1  0.57556921  0.82884362  0.49739799  1
  Ca2+  Ca23  1  0.58157695  0.82506200  0.82764455  1
  Ca2+  Ca24  1  0.33759280  0.42418343  0.16869808  1
  Ca2+  Ca25  1  0.34361042  0.41882160  0.50054505  1
  Ca2+  Ca26  1  0.33695729  0.41913614  0.83980566  1
  Ca2+  Ca27  1  0.32153128  0.92163250  0.17696582  1
  Ca2+  Ca28  1  0.33251040  0.92420071  0.49884684  1
  Ca2+  Ca29  1  0.32506439  0.93151954  0.84246700  1
  Ca2+  Ca30  1  0.84009292  0.42662763  0.17636597  1
  Ca2+  Ca31  1  0.83823005  0.41992334  0.50024650  1
  Ca2+  Ca32  1  0.82876496  0.42510647  0.84200223  1
  Ca2+  Ca33  1  0.83282352  0.91266652  0.16729312  1
  Ca2+  Ca34  1  0.83137037  0.91328777  0.50481468  1
  Ca2+  Ca35  1  0.83616221  0.90878934  0.83664735  1
  Ca2+  Ca36  1  0.40569088  0.17364303  0.16430734  1
  Ca2+  Ca37  1  0.41737469  0.17031232  0.49199234  1
  Ca2+  Ca38  1  0.40941129  0.17559889  0.82597196  1
  Ca2+  Ca39  1  0.40502959  0.67105782  0.16489072  1
  Ca2+  Ca40  1  0.42029353  0.66869944  0.48988595  1
  Ca2+  Ca41  1  0.41939474  0.66627047  0.82839307  1
  Ca2+  Ca42  1  0.92216483  0.17362788  0.16213706  1
  Ca2+  Ca43  1  0.92567883  0.16974026  0.49415377  1
  Ca2+  Ca44  1  0.93291751  0.16173318  0.82999003  1
  Ca2+  Ca45  1  0.92824689  0.66584794  0.15931192  1
  Ca2+  Ca46  1  0.92780300  0.66887940  0.49508736  1
  Ca2+  Ca47  1  0.92511860  0.67364170  0.82976484  1
  Al0+  Al48  1  -0.00198429  0.00027708  -0.00238660  1
  Al0+  Al49  1  -0.00179149  -0.00290948  0.33780763  1
  Al0+  Al50  1  -0.00132918  0.00031851  0.65891435  1
  Al0+  Al51  1  -0.00011164  0.49996573  -0.00062158  1
  Al0+  Al52  1  0.00128393  0.50099316  0.33194321  1
  Al0+  Al53  1  0.00120164  0.50178256  0.66753797  1
  Al0+  Al54  1  0.50170905  0.00124698  0.00254087  1
  Al0+  Al55  1  0.50110146  -0.00279676  0.33011639  1
  Al0+  Al56  1  0.50153313  -0.00023155  0.67207311  1
  Al0+  Al57  1  0.50042843  0.49853420  0.00127158  1
  Al0+  Al58  1  0.50400935  0.49712290  0.33304451  1
  Al0+  Al59  1  0.50252682  0.49969965  0.66056247  1
  Al0+  Al60  1  0.24974191  0.25271245  -0.00342435  1
  Al0+  Al61  1  0.24937511  0.24992351  0.33192596  1
  Al0+  Al62  1  0.24842698  0.25319208  0.66192780  1
  Al0+  Al63  1  0.25006346  0.75120942  -0.00121288  1
  Al0+  Al64  1  0.25112067  0.74872711  0.33505841  1
  Al0+  Al65  1  0.24933361  0.75131535  0.66579760  1
  Al0+  Al66  1  0.74680983  0.25004901  0.00072919  1
  Al0+  Al67  1  0.75043309  0.25096705  0.32657990  1
  Al0+  Al68  1  0.74817357  0.25168127  0.66864066  1
  Al0+  Al69  1  0.74937364  0.74970696  0.00330963  1
  Al0+  Al70  1  0.75130541  0.74979669  0.33935669  1
  Al0+  Al71  1  0.75013347  0.75048964  0.66120632  1
  Al0+  Al72  1  0.07052358  0.68125698  0.31862111  1
  Al0+  Al73  1  0.32024960  0.07187146  0.68060408  1
  Al0+  Al74  1  0.17720065  0.92713070  0.35048264  1
  Al0+  Al75  1  0.82269945  0.57061217  0.35030115  1
  Al0+  Al76  1  0.57020325  0.17718020  0.31703408  1
  Al0+  Al77  1  0.57146430  0.17771798  0.65349028  1
  Al0+  Al78  1  0.32129961  0.57077636  0.01096673  1
  Al0+  Al79  1  0.92710000  0.81993467  0.98634204  1
  Al0+  Al80  1  0.32142091  0.07417847  0.01509456  1
  Al0+  Al81  1  0.92893364  0.82070753  0.64938461  1
  Al0+  Al82  1  0.82092659  0.57031297  0.01355137  1
  Al0+  Al83  1  0.32079859  0.07120779  0.34863433  1
  Al0+  Al84  1  0.42775682  0.32069389  0.65050272  1
  Al0+  Al85  1  0.42688262  0.32137642  0.31493029  1
  Al0+  Al86  1  0.07293270  0.67817612  0.64940402  1
  Al0+  Al87  1  0.93112529  0.32010793  0.32105612  1
  Al0+  Al88  1  0.43064184  0.32029506  0.98542091  1
  Al0+  Al89  1  0.32254040  0.56834135  0.34688650  1
  Al0+  Al90  1  0.07393209  0.67770734  0.98419742  1
  Al0+  Al91  1  0.43008391  0.81770143  0.32007372  1
  Al0+  Al92  1  0.17693673  0.93004907  0.01342162  1
  Al0+  Al93  1  0.07079768  0.17953460  0.65218129  1
  Al0+  Al94  1  0.57010447  0.67892301  0.65419444  1
  Al0+  Al95  1  0.06851408  0.18107681  0.98879488  1
  Si0+  Si96  1  0.67915124  0.92859845  0.34998441  1
  Si0+  Si97  1  0.82054871  0.57146804  0.68289837  1
  Si0+  Si98  1  0.17754406  0.42778440  0.35000114  1
  Si0+  Si99  1  0.17739756  0.42817485  0.01580519  1
  Si0+  Si100  1  0.42824564  0.82239433  0.65273608  1
  Si0+  Si101  1  0.56954761  0.68102079  0.98845045  1
  Si0+  Si102  1  0.57372298  0.17586990  0.98125822  1
  Si0+  Si103  1  0.81968013  0.07252695  0.34796716  1
  Si0+  Si104  1  0.68067109  0.92780114  0.68279665  1
  Si0+  Si105  1  0.07165344  0.17452951  0.31661482  1
  Si0+  Si106  1  0.67867949  0.42955140  0.68311327  1
  Si0+  Si107  1  0.67868838  0.92783476  0.01583875  1
  Si0+  Si108  1  0.82146897  0.07282541  0.68129903  1
  Si0+  Si109  1  0.92702598  0.32269786  0.65373637  1
  Si0+  Si110  1  0.92570129  0.82235083  0.31605422  1
  Si0+  Si111  1  0.92450481  0.32301157  0.98331490  1
  Si0+  Si112  1  0.68095629  0.42664954  0.35244656  1
  Si0+  Si113  1  0.32325376  0.57111541  0.67959712  1
  Si0+  Si114  1  0.42840704  0.82353859  0.98483500  1
  Si0+  Si115  1  0.57506885  0.67700406  0.31617071  1
  Si0+  Si116  1  0.81991498  0.07193396  0.01418445  1
  Si0+  Si117  1  0.17790090  0.43072473  0.68200087  1
  Si0+  Si118  1  0.67776854  0.42759665  0.01858654  1
  Si0+  Si119  1  0.17582031  0.92825686  0.68418941  1
  O2-  O120  1  0.25208069  -0.00101210  0.06329167  1
  O2-  O121  1  0.24597457  0.00268552  0.39994317  1
  O2-  O122  1  0.24363190  -0.00151300  0.72754579  1
  O2-  O123  1  0.24178651  0.50151911  0.05809279  1
  O2-  O124  1  0.25139670  0.49086517  0.39487813  1
  O2-  O125  1  0.25065337  0.50180044  0.72199214  1
  O2-  O126  1  0.74843277  0.00113200  0.05639914  1
  O2-  O127  1  0.74883517  0.00164876  0.39106044  1
  O2-  O128  1  0.75161381  -0.00002706  0.72387901  1
  O2-  O129  1  0.75163809  0.49100337  0.06185550  1
  O2-  O130  1  0.74701407  0.49732686  0.39842392  1
  O2-  O131  1  0.74957894  0.50071903  0.72619163  1
  O2-  O132  1  0.00380521  0.24456840  0.27318365  1
  O2-  O133  1  -0.00693713  0.25263299  0.60835620  1
  O2-  O134  1  -0.00705807  0.25470272  0.93925633  1
  O2-  O135  1  -0.00332109  0.75703131  0.27245272  1
  O2-  O136  1  0.00353508  0.75242332  0.59929302  1
  O2-  O137  1  0.00036173  0.74960878  0.93644574  1
  O2-  O138  1  0.49431115  0.24401691  0.26619224  1
  O2-  O139  1  0.49469888  0.24293153  0.60290026  1
  O2-  O140  1  0.50104323  0.24093014  0.93932970  1
  O2-  O141  1  0.50205531  0.74012977  0.27132169  1
  O2-  O142  1  0.49180450  0.74913823  0.60797092  1
  O2-  O143  1  0.49738277  0.74950528  0.94368561  1
  O2-  O144  1  0.06465434  0.18295297  0.10164541  1
  O2-  O145  1  0.06919549  0.17603890  0.42245652  1
  O2-  O146  1  0.06994930  0.18046101  0.76552848  1
  O2-  O147  1  0.07283507  0.67772077  0.09754599  1
  O2-  O148  1  0.06888270  0.68021485  0.43160931  1
  O2-  O149  1  0.07138751  0.67586043  0.76268347  1
  O2-  O150  1  0.57982935  0.17699591  0.08608805  1
  O2-  O151  1  0.57262506  0.17950967  0.43050292  1
  O2-  O152  1  0.57517966  0.18188143  0.76687887  1
  O2-  O153  1  0.57141595  0.68375509  0.09317236  1
  O2-  O154  1  0.57566788  0.68098334  0.42200395  1
  O2-  O155  1  0.57082155  0.68022397  0.76806961  1
  O2-  O156  1  0.17462734  0.42979456  0.24448378  1
  O2-  O157  1  0.17347883  0.43072324  0.57731652  1
  O2-  O158  1  0.17909965  0.42603900  0.90982384  1
  O2-  O159  1  0.17698082  0.92838602  0.23686473  1
  O2-  O160  1  0.17834764  0.92729102  0.57890847  1
  O2-  O161  1  0.17830044  0.93187357  0.89937491  1
  O2-  O162  1  0.68315251  0.42811226  0.24672737  1
  O2-  O163  1  0.68088101  0.42914948  0.57858459  1
  O2-  O164  1  0.67738401  0.42990369  0.91245395  1
  O2-  O165  1  0.68140764  0.92576569  0.24468274  1
  O2-  O166  1  0.68060800  0.92625509  0.57791319  1
  O2-  O167  1  0.67792085  0.92556116  0.91072664  1
  O2-  O168  1  0.43297490  0.32301474  0.09774801  1
  O2-  O169  1  0.43101665  0.32258255  0.42816481  1
  O2-  O170  1  0.43043941  0.32372895  0.76439213  1
  O2-  O171  1  0.43062569  0.82374039  0.08969973  1
  O2-  O172  1  0.43438928  0.81737757  0.43347907  1
  O2-  O173  1  0.43142813  0.82069419  0.75887362  1
  O2-  O174  1  0.92389703  0.32147106  0.08882107  1
  O2-  O175  1  0.93176574  0.31716044  0.43462908  1
  O2-  O176  1  0.92732776  0.32230093  0.75939623  1
  O2-  O177  1  0.92316621  0.81797945  0.09950064  1
  O2-  O178  1  0.92261791  0.82057852  0.42135583  1
  O2-  O179  1  0.92617354  0.81729247  0.76284629  1
  O2-  O180  1  0.31859099  0.06971664  0.23524160  1
  O2-  O181  1  0.32150289  0.06938639  0.56790674  1
  O2-  O182  1  0.31967896  0.07351033  0.90089423  1
  O2-  O183  1  0.31916940  0.56932058  0.23383324  1
  O2-  O184  1  0.32479624  0.56996634  0.57476137  1
  O2-  O185  1  0.32523042  0.56808260  0.89723581  1
  O2-  O186  1  0.81966898  0.07140211  0.24263199  1
  O2-  O187  1  0.81945719  0.07528955  0.57631125  1
  O2-  O188  1  0.81842587  0.07361709  0.90896871  1
  O2-  O189  1  0.82108957  0.57009139  0.23707325  1
  O2-  O190  1  0.82024526  0.56897396  0.57802289  1
  O2-  O191  1  0.81565629  0.57020830  0.89989336  1
  O2-  O192  1  0.04193161  0.08138253  0.27271076  1
  O2-  O193  1  0.04068992  0.08473059  0.59608747  1
  O2-  O194  1  0.03600123  0.08628819  0.93239439  1
  O2-  O195  1  0.03894707  0.58499895  0.26544209  1
  O2-  O196  1  0.04136955  0.58000952  0.59765213  1
  O2-  O197  1  0.04583123  0.57814498  0.93233951  1
  O2-  O198  1  0.55207636  0.07585392  0.26664204  1
  O2-  O199  1  0.55291804  0.07518866  0.60599129  1
  O2-  O200  1  0.55452506  0.07978529  0.93725935  1
  O2-  O201  1  0.55837035  0.58080789  0.27376544  1
  O2-  O202  1  0.54572714  0.58299158  0.59738415  1
  O2-  O203  1  0.54490615  0.58834672  0.94137129  1
  O2-  O204  1  0.16461849  0.19987439  0.27088345  1
  O2-  O205  1  0.16353227  0.21526422  0.59575987  1
  O2-  O206  1  0.16308100  0.21436295  0.93239407  1
  O2-  O207  1  0.16781736  0.71033153  0.26674261  1
  O2-  O208  1  0.17299867  0.70399582  0.59814320  1
  O2-  O209  1  0.17190948  0.70638193  0.92961893  1
  O2-  O210  1  0.66732402  0.20955863  0.26248667  1
  O2-  O211  1  0.66901985  0.21060179  0.60046882  1
  O2-  O212  1  0.66617437  0.20536018  0.93321252  1
  O2-  O213  1  0.66702691  0.71026686  0.27104017  1
  O2-  O214  1  0.66391660  0.71310543  0.59809847  1
  O2-  O215  1  0.65952117  0.71223136  0.93912220  1
  O2-  O216  1  0.08150857  0.44647520  0.06022984  1
  O2-  O217  1  0.08689469  0.45921736  0.39881786  1
  O2-  O218  1  0.08701009  0.45834807  0.73257812  1
  O2-  O219  1  0.07833017  0.95910138  0.06583134  1
  O2-  O220  1  0.07616886  0.94874518  0.40217668  1
  O2-  O221  1  0.08005365  0.95319278  0.72583283  1
  O2-  O222  1  0.58749366  0.45960409  0.06632597  1
  O2-  O223  1  0.58694467  0.44974951  0.39812935  1
  O2-  O224  1  0.58729694  0.45983370  0.73056167  1
  O2-  O225  1  0.58744017  0.95448870  0.06511713  1
  O2-  O226  1  0.58749123  0.95378034  0.39802193  1
  O2-  O227  1  0.58997542  0.95280353  0.73420234  1
  O2-  O228  1  0.20741869  0.33728753  0.06404955  1
  O2-  O229  1  0.19614621  0.33174587  0.39399413  1
  O2-  O230  1  0.20591841  0.33920805  0.72993768  1
  O2-  O231  1  0.20540452  0.83120361  0.06448552  1
  O2-  O232  1  0.21264007  0.83124449  0.40372141  1
  O2-  O233  1  0.20213777  0.83424256  0.73036758  1
  O2-  O234  1  0.69757056  0.33194070  0.06277176  1
  O2-  O235  1  0.71089689  0.33366320  0.39739280  1
  O2-  O236  1  0.70630990  0.33872449  0.73370545  1
  O2-  O237  1  0.70765727  0.83819892  0.06662375  1
  O2-  O238  1  0.70877386  0.83850067  0.40049571  1
  O2-  O239  1  0.71059175  0.83616791  0.73086644  1
  O2-  O240  1  0.46266289  0.41862782  0.26257512  1
  O2-  O241  1  0.46322098  0.41632955  0.59688756  1
  O2-  O242  1  0.46682039  0.41575134  0.93068929  1
  O2-  O243  1  0.46531093  0.91120996  0.26352288  1
  O2-  O244  1  0.46150998  0.91326401  0.60713213  1
  O2-  O245  1  0.46090861  0.91413276  0.93733383  1
  O2-  O246  1  0.96343244  0.41532017  0.26631649  1
  O2-  O247  1  0.95525183  0.41530208  0.60761830  1
  O2-  O248  1  0.94878087  0.41651971  0.93726761  1
  O2-  O249  1  0.94567470  0.91843497  0.27251443  1
  O2-  O250  1  0.94783527  0.92126966  0.59758736  1
  O2-  O251  1  0.95031534  0.91970511  0.93350674  1
  O2-  O252  1  0.32590817  0.29901021  0.26418781  1
  O2-  O253  1  0.32809094  0.30136792  0.59832991  1
  O2-  O254  1  0.33302173  0.29502489  0.93093419  1
  O2-  O255  1  0.33448802  0.78717118  0.26553007  1
  O2-  O256  1  0.33346879  0.80310434  0.60825514  1
  O2-  O257  1  0.33763937  0.79775430  0.93574512  1
  O2-  O258  1  0.83609771  0.29108752  0.26384750  1
  O2-  O259  1  0.83286997  0.29984736  0.60841923  1
  O2-  O260  1  0.82996238  0.29797844  0.93834959  1
  O2-  O261  1  0.83177483  0.79491671  0.27133366  1
  O2-  O262  1  0.83166976  0.79020559  0.59540373  1
  O2-  O263  1  0.82808115  0.79005646  0.93327754  1
  O2-  O264  1  0.42282321  0.05079087  0.06395700  1
  O2-  O265  1  0.41996501  0.03817935  0.39817701  1
  O2-  O266  1  0.41703850  0.04114014  0.73579147  1
  O2-  O267  1  0.41673907  0.53807982  0.06624997  1
  O2-  O268  1  0.42236507  0.54238176  0.39841343  1
  O2-  O269  1  0.41581901  0.54262803  0.72610515  1
  O2-  O270  1  0.91044099  0.04468713  0.06300538  1
  O2-  O271  1  0.91071614  0.04546386  0.39740389  1
  O2-  O272  1  0.91398385  0.04515572  0.72765198  1
  O2-  O273  1  0.91868985  0.54247326  0.06641498  1
  O2-  O274  1  0.91823282  0.53608226  0.40359080  1
  O2-  O275  1  0.91231366  0.54330870  0.73029852  1
  O2-  O276  1  0.28914473  0.17212305  0.06539562  1
  O2-  O277  1  0.29472604  0.17153055  0.39971060  1
  O2-  O278  1  0.28864238  0.17086479  0.73000284  1
  O2-  O279  1  0.29605946  0.66932411  0.06284414  1
  O2-  O280  1  0.29086045  0.66366504  0.40207840  1
  O2-  O281  1  0.29827452  0.66449725  0.72627493  1
  O2-  O282  1  0.79210148  0.16388722  0.06253673  1
  O2-  O283  1  0.79214084  0.16476061  0.39435407  1
  O2-  O284  1  0.79264409  0.16361528  0.73118886  1
  O2-  O285  1  0.78389038  0.66406525  0.06883795  1
  O2-  O286  1  0.79100460  0.66679219  0.40516003  1
  O2-  O287  1  0.78958158  0.66342855  0.72765797  1
