# generated using pymatgen
data_Ca2Al2SiO7
_symmetry_space_group_name_H-M   'P 1'
_cell_length_a   15.46195610
_cell_length_b   15.46089962
_cell_length_c   15.28691657
_cell_angle_alpha   89.99799664
_cell_angle_beta   89.99277602
_cell_angle_gamma   90.00169735
_symmetry_Int_Tables_number   1
_chemical_formula_structural   Ca2Al2SiO7
_chemical_formula_sum   'Ca48 Al48 Si24 O168'
_cell_volume   3654.42529189
_cell_formula_units_Z   24
loop_
 _symmetry_equiv_pos_site_id
 _symmetry_equiv_pos_as_xyz
  1  'x, y, z'
loop_
 _atom_type_symbol
 _atom_type_oxidation_number
  Ca2+  2.0
  Al0+  0.0
  Si0+  0.0
  O2-  -2.0
loop_
 _atom_site_type_symbol
 _atom_site_label
 _atom_site_symmetry_multiplicity
 _atom_site_fract_x
 _atom_site_fract_y
 _atom_site_fract_z
 _atom_site_occupancy
  Ca2+  Ca0  1  0.16846452  0.07741444  0.16643127  1
  Ca2+  Ca1  1  0.17031101  0.08296853  0.51178042  1
  Ca2+  Ca2  1  0.17459669  0.08791643  0.83613261  1
  Ca2+  Ca3  1  0.15553474  0.57929088  0.17311306  1
  Ca2+  Ca4  1  0.16250852  0.57719807  0.50735880  1
  Ca2+  Ca5  1  0.16346699  0.58416960  0.83086926  1
  Ca2+  Ca6  1  0.68036358  0.07566648  0.16861308  1
  Ca2+  Ca7  1  0.67679162  0.08062257  0.50350943  1
  Ca2+  Ca8  1  0.67657204  0.08448994  0.83729900  1
  Ca2+  Ca9  1  0.67393759  0.57593090  0.17155797  1
  Ca2+  Ca10  1  0.67657838  0.58819496  0.50133387  1
  Ca2+  Ca11  1  0.67043231  0.57296617  0.83936283  1
  Ca2+  Ca12  1  0.07645395  0.33345728  0.16200859  1
  Ca2+  Ca13  1  0.08755490  0.33163556  0.50255629  1
  Ca2+  Ca14  1  0.07237014  0.32745163  0.82344521  1
  Ca2+  Ca15  1  0.08046051  0.82363904  0.16106476  1
  Ca2+  Ca16  1  0.07418433  0.82400947  0.49513597  1
  Ca2+  Ca17  1  0.08516779  0.82782398  0.82758293  1
  Ca2+  Ca18  1  0.58370418  0.33310561  0.15880583  1
  Ca2+  Ca19  1  0.57897788  0.32666006  0.50345556  1
  Ca2+  Ca20  1  0.57852685  0.32654773  0.82241294  1
  Ca2+  Ca21  1  0.58229786  0.84528622  0.16632857  1
  Ca2+  Ca22  1  0.57543257  0.84012996  0.49165151  1
  Ca2+  Ca23  1  0.58504782  0.83724338  0.83200603  1
  Ca2+  Ca24  1  0.32229355  0.42119837  0.17530952  1
  Ca2+  Ca25  1  0.32173076  0.42086034  0.51215199  1
  Ca2+  Ca26  1  0.32755364  0.41555249  0.82885542  1
  Ca2+  Ca27  1  0.32933630  0.91670241  0.16603822  1
  Ca2+  Ca28  1  0.33250861  0.91871462  0.50631561  1
  Ca2+  Ca29  1  0.32590014  0.92954736  0.83976323  1
  Ca2+  Ca30  1  0.83299272  0.41916706  0.16920827  1
  Ca2+  Ca31  1  0.83964376  0.42292993  0.50401153  1
  Ca2+  Ca32  1  0.83139192  0.40772607  0.83948176  1
  Ca2+  Ca33  1  0.82883216  0.92175492  0.17839650  1
  Ca2+  Ca34  1  0.83873486  0.92098826  0.50450162  1
  Ca2+  Ca35  1  0.83572901  0.92823447  0.83801016  1
  Ca2+  Ca36  1  0.41830305  0.16522002  0.16062131  1
  Ca2+  Ca37  1  0.41825018  0.16599947  0.50143663  1
  Ca2+  Ca38  1  0.42102050  0.16594424  0.82121072  1
  Ca2+  Ca39  1  0.41659564  0.67529158  0.16510579  1
  Ca2+  Ca40  1  0.41568782  0.66967911  0.49556886  1
  Ca2+  Ca41  1  0.41785490  0.66584705  0.82613405  1
  Ca2+  Ca42  1  0.90866619  0.17014620  0.16102983  1
  Ca2+  Ca43  1  0.91578907  0.16744234  0.50214420  1
  Ca2+  Ca44  1  0.91443524  0.17183744  0.82428485  1
  Ca2+  Ca45  1  0.92214926  0.66688712  0.16580330  1
  Ca2+  Ca46  1  0.92266398  0.67446066  0.49307156  1
  Ca2+  Ca47  1  0.92934508  0.67547603  0.82464415  1
  Al0+  Al48  1  0.00330507  0.00092718  0.00753841  1
  Al0+  Al49  1  0.00224598  0.00028900  0.33335099  1
  Al0+  Al50  1  -0.00106972  0.00038137  0.66541447  1
  Al0+  Al51  1  0.00007150  0.50021267  -0.00973000  1
  Al0+  Al52  1  -0.00167377  0.49717115  0.33845927  1
  Al0+  Al53  1  0.00003584  0.50056594  0.66647425  1
  Al0+  Al54  1  0.50065305  0.00171838  0.00435406  1
  Al0+  Al55  1  0.50102945  0.00167649  0.33004465  1
  Al0+  Al56  1  0.50077411  -0.00100973  0.66629448  1
  Al0+  Al57  1  0.49962671  0.50107451  0.00442134  1
  Al0+  Al58  1  0.49820141  0.49901266  0.33213338  1
  Al0+  Al59  1  0.50015457  0.50025262  0.66479289  1
  Al0+  Al60  1  0.24988246  0.25354112  0.00489372  1
  Al0+  Al61  1  0.24972770  0.25084097  0.33480361  1
  Al0+  Al62  1  0.24972269  0.25215905  0.66867811  1
  Al0+  Al63  1  0.25225815  0.75054685  -0.00192396  1
  Al0+  Al64  1  0.25178039  0.74994591  0.32468183  1
  Al0+  Al65  1  0.25160377  0.74881058  0.66679439  1
  Al0+  Al66  1  0.74661822  0.25006864  0.00451454  1
  Al0+  Al67  1  0.74872699  0.24804998  0.33624135  1
  Al0+  Al68  1  0.74873294  0.24896300  0.66022506  1
  Al0+  Al69  1  0.74939871  0.74877950  0.00121388  1
  Al0+  Al70  1  0.74771868  0.74846327  0.33664180  1
  Al0+  Al71  1  0.74914671  0.74942381  0.66585991  1
  Al0+  Al72  1  0.07317392  0.68011065  0.65052371  1
  Al0+  Al73  1  0.81919814  0.56890553  0.34685812  1
  Al0+  Al74  1  0.92706111  0.32110457  0.65030786  1
  Al0+  Al75  1  0.67799465  0.42929813  0.01200457  1
  Al0+  Al76  1  0.67826554  0.92933176  0.34968313  1
  Al0+  Al77  1  0.07176461  0.17906368  0.65356651  1
  Al0+  Al78  1  0.57087928  0.17608463  0.65036526  1
  Al0+  Al79  1  0.68045626  0.92695808  0.01448362  1
  Al0+  Al80  1  0.82265522  0.07174848  0.01394833  1
  Al0+  Al81  1  0.42860448  0.32209409  0.65169396  1
  Al0+  Al82  1  0.82408312  0.07103626  0.35174108  1
  Al0+  Al83  1  0.92813239  0.31760264  0.98825204  1
  Al0+  Al84  1  0.92712943  0.82197537  0.65295355  1
  Al0+  Al85  1  0.43064969  0.82215746  0.31784907  1
  Al0+  Al86  1  0.06913608  0.67704164  0.31809268  1
  Al0+  Al87  1  0.17650736  0.42941826  0.68536710  1
  Al0+  Al88  1  0.17988467  0.92643162  0.01593182  1
  Al0+  Al89  1  0.32222399  0.57203244  0.68179830  1
  Al0+  Al90  1  0.07161376  0.68014711  0.98388372  1
  Al0+  Al91  1  0.82069412  0.07075098  0.68058530  1
  Al0+  Al92  1  0.32054735  0.07386165  0.01567117  1
  Al0+  Al93  1  0.92755935  0.82215931  0.31702714  1
  Al0+  Al94  1  0.32160813  0.07079992  0.67808135  1
  Al0+  Al95  1  0.17867342  0.42921056  0.34746507  1
  Si0+  Si96  1  0.17802482  0.92786963  0.68085536  1
  Si0+  Si97  1  0.57063967  0.18083046  0.31476056  1
  Si0+  Si98  1  0.56760839  0.18049949  0.98551463  1
  Si0+  Si99  1  0.42779098  0.32044044  0.31661974  1
  Si0+  Si100  1  0.32201962  0.57296149  0.34823811  1
  Si0+  Si101  1  0.32025993  0.07088135  0.34833509  1
  Si0+  Si102  1  0.57156297  0.67737103  0.65217809  1
  Si0+  Si103  1  0.57125342  0.67685162  0.98484708  1
  Si0+  Si104  1  0.43174664  0.82178614  0.98289131  1
  Si0+  Si105  1  0.07453283  0.17902839  0.31763082  1
  Si0+  Si106  1  0.42751704  0.32422510  0.98610159  1
  Si0+  Si107  1  0.32249998  0.57147510  0.01643838  1
  Si0+  Si108  1  0.82099609  0.57265816  0.68308252  1
  Si0+  Si109  1  0.18107489  0.92711901  0.34843267  1
  Si0+  Si110  1  0.57177212  0.67485035  0.31511035  1
  Si0+  Si111  1  0.43091465  0.82014994  0.65400686  1
  Si0+  Si112  1  0.07472373  0.17785028  0.98587352  1
  Si0+  Si113  1  0.82327223  0.57028766  0.01411855  1
  Si0+  Si114  1  0.92665740  0.82390099  0.98530415  1
  Si0+  Si115  1  0.17804968  0.43235509  0.01507639  1
  Si0+  Si116  1  0.67462622  0.42643979  0.35180397  1
  Si0+  Si117  1  0.68034435  0.43011236  0.67951440  1
  Si0+  Si118  1  0.67759353  0.92626581  0.68324082  1
  Si0+  Si119  1  0.92847436  0.31843257  0.31878555  1
  O2-  O120  1  0.24917813  0.00180243  0.06629012  1
  O2-  O121  1  0.25095358  -0.00081427  0.39110078  1
  O2-  O122  1  0.24347974  0.00014892  0.72486578  1
  O2-  O123  1  0.24785215  0.50431598  0.05840052  1
  O2-  O124  1  0.25164009  0.50664960  0.39149277  1
  O2-  O125  1  0.24912973  0.50260585  0.73395820  1
  O2-  O126  1  0.75897596  -0.00809919  0.06373296  1
  O2-  O127  1  0.75581630  -0.00574653  0.40018873  1
  O2-  O128  1  0.74718319  -0.00595566  0.72630664  1
  O2-  O129  1  0.75416017  0.50191611  0.05872365  1
  O2-  O130  1  0.74225531  0.49603422  0.39503867  1
  O2-  O131  1  0.75428339  0.49681306  0.72424957  1
  O2-  O132  1  -0.00197880  0.24549769  0.27677948  1
  O2-  O133  1  0.00077919  0.25063702  0.60065703  1
  O2-  O134  1  -0.00056994  0.23945861  0.94282616  1
  O2-  O135  1  -0.00139177  0.74944147  0.26620230  1
  O2-  O136  1  -0.00076350  0.75039289  0.60257607  1
  O2-  O137  1  -0.00166888  0.75822648  0.94055146  1
  O2-  O138  1  0.50105621  0.25358500  0.27165820  1
  O2-  O139  1  0.49594786  0.24602896  0.60080291  1
  O2-  O140  1  0.49490162  0.25019599  0.94387197  1
  O2-  O141  1  0.50608290  0.74697704  0.27128351  1
  O2-  O142  1  0.50113697  0.74903166  0.61099848  1
  O2-  O143  1  0.50457644  0.75170595  0.94158083  1
  O2-  O144  1  0.07896051  0.18348925  0.09175298  1
  O2-  O145  1  0.08039828  0.18117059  0.42199800  1
  O2-  O146  1  0.07076164  0.17925655  0.76748896  1
  O2-  O147  1  0.06849119  0.67620309  0.09680280  1
  O2-  O148  1  0.06973430  0.67849944  0.43096214  1
  O2-  O149  1  0.07247641  0.68423047  0.76450509  1
  O2-  O150  1  0.56664275  0.18333067  0.09096673  1
  O2-  O151  1  0.56854817  0.18108925  0.41942929  1
  O2-  O152  1  0.57099446  0.17849391  0.76461334  1
  O2-  O153  1  0.56743259  0.67205017  0.08944456  1
  O2-  O154  1  0.56762531  0.67057877  0.42065027  1
  O2-  O155  1  0.57206934  0.67669079  0.75764043  1
  O2-  O156  1  0.18022666  0.42855029  0.23333735  1
  O2-  O157  1  0.17928449  0.43074317  0.57164303  1
  O2-  O158  1  0.18011085  0.43051707  0.91091431  1
  O2-  O159  1  0.18306837  0.92850535  0.24339501  1
  O2-  O160  1  0.18256974  0.92663864  0.57492401  1
  O2-  O161  1  0.18410628  0.92471380  0.90235843  1
  O2-  O162  1  0.67447913  0.42689257  0.24577303  1
  O2-  O163  1  0.67893797  0.43440486  0.57447925  1
  O2-  O164  1  0.67556214  0.43039107  0.89895005  1
  O2-  O165  1  0.67714452  0.93536408  0.23625770  1
  O2-  O166  1  0.67474440  0.92530338  0.57811399  1
  O2-  O167  1  0.67789221  0.92939273  0.90087717  1
  O2-  O168  1  0.42904002  0.32495104  0.09173662  1
  O2-  O169  1  0.42743271  0.31895798  0.42094574  1
  O2-  O170  1  0.43354254  0.32348858  0.76586484  1
  O2-  O171  1  0.43164989  0.82001016  0.08803831  1
  O2-  O172  1  0.42990798  0.82149385  0.43132640  1
  O2-  O173  1  0.43327313  0.82054984  0.75918931  1
  O2-  O174  1  0.93098085  0.32090601  0.10198428  1
  O2-  O175  1  0.92851535  0.31925901  0.42323500  1
  O2-  O176  1  0.92426989  0.31758648  0.76423513  1
  O2-  O177  1  0.92507773  0.81929664  0.09060661  1
  O2-  O178  1  0.93133105  0.82132988  0.43022806  1
  O2-  O179  1  0.92580088  0.82004602  0.76704949  1
  O2-  O180  1  0.31848754  0.07257199  0.24319683  1
  O2-  O181  1  0.32293829  0.06505503  0.56455774  1
  O2-  O182  1  0.32176504  0.07345206  0.90223596  1
  O2-  O183  1  0.32517685  0.56956651  0.24220660  1
  O2-  O184  1  0.32474490  0.57249617  0.56827683  1
  O2-  O185  1  0.32736672  0.56942389  0.91199706  1
  O2-  O186  1  0.81985792  0.07546277  0.23808582  1
  O2-  O187  1  0.81878778  0.07049403  0.56803356  1
  O2-  O188  1  0.81805342  0.07464978  0.90052580  1
  O2-  O189  1  0.81896212  0.56376996  0.23320799  1
  O2-  O190  1  0.81676828  0.57429166  0.57803475  1
  O2-  O191  1  0.82005393  0.57014800  0.90853507  1
  O2-  O192  1  0.05266537  0.08552277  0.27132307  1
  O2-  O193  1  0.04644298  0.08035898  0.60011700  1
  O2-  O194  1  0.06033179  0.08033483  0.94473183  1
  O2-  O195  1  0.03715736  0.57751777  0.26739539  1
  O2-  O196  1  0.04531120  0.58095915  0.60148467  1
  O2-  O197  1  0.03907145  0.58558444  0.92710958  1
  O2-  O198  1  0.53932736  0.09111000  0.26609864  1
  O2-  O199  1  0.54284642  0.07771579  0.59713399  1
  O2-  O200  1  0.54136456  0.08828718  0.93865276  1
  O2-  O201  1  0.54275040  0.58208647  0.26669578  1
  O2-  O202  1  0.54407759  0.58749965  0.60189352  1
  O2-  O203  1  0.53808789  0.58676797  0.93592892  1
  O2-  O204  1  0.16381729  0.21245900  0.26728063  1
  O2-  O205  1  0.17042735  0.20659615  0.60030359  1
  O2-  O206  1  0.16615236  0.21152771  0.93915616  1
  O2-  O207  1  0.16863232  0.70260158  0.26487443  1
  O2-  O208  1  0.17233534  0.70728840  0.59841228  1
  O2-  O209  1  0.17056799  0.70795277  0.93251246  1
  O2-  O210  1  0.66282827  0.20908378  0.26786812  1
  O2-  O211  1  0.66493511  0.21022962  0.59366637  1
  O2-  O212  1  0.65846130  0.21116175  0.93882525  1
  O2-  O213  1  0.66659815  0.69527424  0.27063889  1
  O2-  O214  1  0.66269914  0.70450935  0.60375338  1
  O2-  O215  1  0.66457487  0.69902041  0.93725328  1
  O2-  O216  1  0.08532584  0.46093648  0.06050069  1
  O2-  O217  1  0.08213161  0.45460831  0.40187938  1
  O2-  O218  1  0.07754517  0.45733903  0.73804199  1
  O2-  O219  1  0.08182528  0.95022859  0.07160763  1
  O2-  O220  1  0.08957092  0.95413507  0.39536934  1
  O2-  O221  1  0.08370931  0.94882299  0.72607830  1
  O2-  O222  1  0.58343831  0.46268419  0.06991945  1
  O2-  O223  1  0.57980589  0.45090604  0.39589288  1
  O2-  O224  1  0.59024783  0.46177426  0.72808532  1
  O2-  O225  1  0.58411857  0.96140302  0.06799602  1
  O2-  O226  1  0.58056819  0.96479223  0.40130573  1
  O2-  O227  1  0.58441325  0.95250173  0.73014155  1
  O2-  O228  1  0.20643419  0.34199745  0.06565607  1
  O2-  O229  1  0.21433418  0.33414295  0.40118149  1
  O2-  O230  1  0.20688828  0.33191677  0.73906073  1
  O2-  O231  1  0.21516800  0.82990686  0.06974436  1
  O2-  O232  1  0.21228430  0.83532991  0.39344965  1
  O2-  O233  1  0.20938474  0.83664383  0.72805798  1
  O2-  O234  1  0.70587820  0.33445165  0.06994289  1
  O2-  O235  1  0.70057762  0.33318659  0.39669415  1
  O2-  O236  1  0.70413495  0.33661764  0.72483141  1
  O2-  O237  1  0.69654398  0.82448292  0.06510399  1
  O2-  O238  1  0.69174904  0.82617050  0.39743156  1
  O2-  O239  1  0.70013609  0.83146090  0.72939791  1
  O2-  O240  1  0.45212755  0.41378626  0.26916929  1
  O2-  O241  1  0.46276587  0.41819162  0.59666053  1
  O2-  O242  1  0.45871679  0.41518172  0.93969640  1
  O2-  O243  1  0.46105645  0.91871485  0.26262913  1
  O2-  O244  1  0.45906167  0.91037423  0.60398841  1
  O2-  O245  1  0.45913066  0.91473907  0.93746384  1
  O2-  O246  1  0.95853801  0.40918290  0.27083274  1
  O2-  O247  1  0.95313236  0.42114258  0.60069887  1
  O2-  O248  1  0.95929010  0.41253016  0.93167065  1
  O2-  O249  1  0.95737536  0.92139453  0.26567240  1
  O2-  O250  1  0.95437087  0.91965636  0.60002541  1
  O2-  O251  1  0.95034480  0.92001288  0.94355913  1
  O2-  O252  1  0.33702938  0.28957770  0.26791247  1
  O2-  O253  1  0.32938651  0.29797570  0.60066783  1
  O2-  O254  1  0.33379503  0.30055097  0.94127315  1
  O2-  O255  1  0.33658101  0.78991856  0.25925387  1
  O2-  O256  1  0.33967063  0.79362577  0.60551916  1
  O2-  O257  1  0.34151501  0.79168478  0.93479733  1
  O2-  O258  1  0.83477690  0.29299631  0.27238449  1
  O2-  O259  1  0.82966540  0.29446454  0.59512312  1
  O2-  O260  1  0.82878021  0.29091912  0.93736674  1
  O2-  O261  1  0.82678523  0.79379191  0.26858465  1
  O2-  O262  1  0.82870219  0.79200875  0.60020719  1
  O2-  O263  1  0.83332993  0.79649928  0.93873395  1
  O2-  O264  1  0.41802545  0.04370571  0.06929868  1
  O2-  O265  1  0.41309244  0.04413202  0.39275984  1
  O2-  O266  1  0.41686782  0.03616758  0.73313290  1
  O2-  O267  1  0.41158164  0.54052119  0.06778726  1
  O2-  O268  1  0.41537511  0.54592216  0.39437043  1
  O2-  O269  1  0.42153651  0.54273992  0.73470050  1
  O2-  O270  1  0.92451120  0.05770827  0.06453877  1
  O2-  O271  1  0.92580072  0.04943575  0.40057887  1
  O2-  O272  1  0.91795421  0.04243705  0.73496203  1
  O2-  O273  1  0.91638839  0.54171951  0.05887140  1
  O2-  O274  1  0.91273531  0.53472204  0.40351064  1
  O2-  O275  1  0.91401235  0.55014078  0.72885691  1
  O2-  O276  1  0.29432410  0.17293803  0.07024372  1
  O2-  O277  1  0.29197229  0.16250199  0.39514590  1
  O2-  O278  1  0.29666369  0.16839240  0.73161206  1
  O2-  O279  1  0.29920793  0.66500731  0.06155996  1
  O2-  O280  1  0.30065931  0.66870519  0.39073761  1
  O2-  O281  1  0.29704922  0.67125739  0.73610653  1
  O2-  O282  1  0.78373343  0.16574437  0.07009077  1
  O2-  O283  1  0.78894570  0.16826078  0.40375717  1
  O2-  O284  1  0.78560777  0.16782435  0.73191331  1
  O2-  O285  1  0.79717947  0.66305638  0.06105444  1
  O2-  O286  1  0.78884091  0.66446706  0.40298369  1
  O2-  O287  1  0.78699852  0.66181755  0.73232452  1
