# generated using pymatgen
data_Ca2Al2SiO7
_symmetry_space_group_name_H-M   'P 1'
_cell_length_a   15.45800901
_cell_length_b   15.45665129
_cell_length_c   15.28335710
_cell_angle_alpha   89.99821136
_cell_angle_beta   90.00422512
_cell_angle_gamma   89.98238768
_symmetry_Int_Tables_number   1
_chemical_formula_structural   Ca2Al2SiO7
_chemical_formula_sum   'Ca48 Al48 Si24 O168'
_cell_volume   3651.63788255
_cell_formula_units_Z   24
loop_
 _symmetry_equiv_pos_site_id
 _symmetry_equiv_pos_as_xyz
  1  'x, y, z'
loop_
 _atom_type_symbol
 _atom_type_oxidation_number
  Ca2+  2.0
  Al0+  0.0
  Si0+  0.0
  O2-  -2.0
loop_
 _atom_site_type_symbol
 _atom_site_label
 _atom_site_symmetry_multiplicity
 _atom_site_fract_x
 _atom_site_fract_y
 _atom_site_fract_z
 _atom_site_occupancy
  Ca2+  Ca0  1  0.16551191  0.09013792  0.16977407  1
  Ca2+  Ca1  1  0.17183587  0.08726360  0.50666269  1
  Ca2+  Ca2  1  0.17352901  0.08662426  0.83701145  1
  Ca2+  Ca3  1  0.17099015  0.58115011  0.16303392  1
  Ca2+  Ca4  1  0.16597480  0.58182021  0.50651630  1
  Ca2+  Ca5  1  0.16830837  0.57936941  0.84566984  1
  Ca2+  Ca6  1  0.66249535  0.07683242  0.17488215  1
  Ca2+  Ca7  1  0.67466769  0.08540347  0.50095764  1
  Ca2+  Ca8  1  0.67184288  0.08051902  0.84035297  1
  Ca2+  Ca9  1  0.65905780  0.57046337  0.17222481  1
  Ca2+  Ca10  1  0.65924088  0.57998450  0.50187951  1
  Ca2+  Ca11  1  0.66451639  0.57969357  0.83889010  1
  Ca2+  Ca12  1  0.07898285  0.32511432  0.16122095  1
  Ca2+  Ca13  1  0.06848370  0.32610691  0.49305229  1
  Ca2+  Ca14  1  0.08129269  0.33244844  0.83069880  1
  Ca2+  Ca15  1  0.07960272  0.82833930  0.15838618  1
  Ca2+  Ca16  1  0.07883013  0.83322972  0.50277631  1
  Ca2+  Ca17  1  0.08135693  0.81916904  0.82665651  1
  Ca2+  Ca18  1  0.58885503  0.32426792  0.16044772  1
  Ca2+  Ca19  1  0.57857604  0.32878622  0.49249776  1
  Ca2+  Ca20  1  0.57435067  0.33666494  0.83279778  1
  Ca2+  Ca21  1  0.58467492  0.83298882  0.16072727  1
  Ca2+  Ca22  1  0.58743726  0.82552877  0.49580464  1
  Ca2+  Ca23  1  0.57611921  0.83196337  0.82912153  1
  Ca2+  Ca24  1  0.33325827  0.41597682  0.16272560  1
  Ca2+  Ca25  1  0.33187865  0.41496131  0.50766855  1
  Ca2+  Ca26  1  0.33304239  0.42225958  0.84566137  1
  Ca2+  Ca27  1  0.33330301  0.91532121  0.16752904  1
  Ca2+  Ca28  1  0.33426213  0.92355131  0.50894624  1
  Ca2+  Ca29  1  0.34280174  0.91989667  0.83630926  1
  Ca2+  Ca30  1  0.82361760  0.41245092  0.17184198  1
  Ca2+  Ca31  1  0.82747429  0.40639016  0.50188809  1
  Ca2+  Ca32  1  0.82853034  0.41615190  0.83797860  1
  Ca2+  Ca33  1  0.81994161  0.92347369  0.17466936  1
  Ca2+  Ca34  1  0.83285627  0.92782650  0.50663668  1
  Ca2+  Ca35  1  0.83037703  0.91785228  0.83667867  1
  Ca2+  Ca36  1  0.43130630  0.17164117  0.15756717  1
  Ca2+  Ca37  1  0.41916721  0.16885877  0.49752655  1
  Ca2+  Ca38  1  0.42094324  0.17610053  0.83004408  1
  Ca2+  Ca39  1  0.42004489  0.67156722  0.16034199  1
  Ca2+  Ca40  1  0.42880059  0.67162034  0.49995549  1
  Ca2+  Ca41  1  0.41662093  0.67645317  0.82828817  1
  Ca2+  Ca42  1  0.92102308  0.16520831  0.16734372  1
  Ca2+  Ca43  1  0.91089746  0.17118194  0.49277693  1
  Ca2+  Ca44  1  0.92035033  0.16982439  0.82787080  1
  Ca2+  Ca45  1  0.92177100  0.66692961  0.16112441  1
  Ca2+  Ca46  1  0.91758204  0.67278841  0.50136980  1
  Ca2+  Ca47  1  0.92734831  0.66833392  0.82558667  1
  Al0+  Al48  1  0.00110424  0.00145946  -0.00409322  1
  Al0+  Al49  1  0.00038564  -0.00121162  0.33354612  1
  Al0+  Al50  1  0.00166886  -0.00156657  0.67034116  1
  Al0+  Al51  1  0.00117333  0.49962520  0.00172172  1
  Al0+  Al52  1  0.00022070  0.50018730  0.32984691  1
  Al0+  Al53  1  -0.00190665  0.49750932  0.65910257  1
  Al0+  Al54  1  0.50176142  0.00038530  -0.00306990  1
  Al0+  Al55  1  0.49730184  -0.00028711  0.33543264  1
  Al0+  Al56  1  0.50042010  0.00100613  0.66848480  1
  Al0+  Al57  1  0.50079198  0.50079522  0.00653882  1
  Al0+  Al58  1  0.49854814  0.50350220  0.33491272  1
  Al0+  Al59  1  0.49762349  0.49860283  0.66049040  1
  Al0+  Al60  1  0.24977049  0.25048518  -0.00176915  1
  Al0+  Al61  1  0.24777490  0.25179303  0.33237129  1
  Al0+  Al62  1  0.25022570  0.25000209  0.66822319  1
  Al0+  Al63  1  0.25015859  0.75089286  -0.00294273  1
  Al0+  Al64  1  0.25015496  0.75006178  0.33616516  1
  Al0+  Al65  1  0.25176103  0.74924000  0.65846716  1
  Al0+  Al66  1  0.75285647  0.24947250  -0.00019657  1
  Al0+  Al67  1  0.74761114  0.25087973  0.33325068  1
  Al0+  Al68  1  0.74940312  0.24863441  0.67097990  1
  Al0+  Al69  1  0.75024193  0.75203420  0.00466718  1
  Al0+  Al70  1  0.74979373  0.74768575  0.33092240  1
  Al0+  Al71  1  0.75169746  0.74784621  0.66140637  1
  Al0+  Al72  1  0.07134691  0.17760147  0.31929981  1
  Al0+  Al73  1  0.92683418  0.32124353  0.31626633  1
  Al0+  Al74  1  0.57451489  0.17813162  0.98358402  1
  Al0+  Al75  1  0.92926804  0.82235048  0.65187659  1
  Al0+  Al76  1  0.82048463  0.06967917  0.34804854  1
  Al0+  Al77  1  0.07150549  0.17851432  0.98389457  1
  Al0+  Al78  1  0.32121769  0.57378769  0.01494486  1
  Al0+  Al79  1  0.42813579  0.31986137  0.65287610  1
  Al0+  Al80  1  0.57125879  0.67809844  0.65313860  1
  Al0+  Al81  1  0.82186979  0.07129685  0.68292528  1
  Al0+  Al82  1  0.92719212  0.31846239  0.65380945  1
  Al0+  Al83  1  0.07181098  0.67679956  0.65046419  1
  Al0+  Al84  1  0.17786794  0.42683029  0.01629048  1
  Al0+  Al85  1  0.56813803  0.17926559  0.32164688  1
  Al0+  Al86  1  0.43094462  0.32225570  0.98661530  1
  Al0+  Al87  1  0.06964410  0.67924762  0.98800942  1
  Al0+  Al88  1  0.67890143  0.43034478  0.34867868  1
  Al0+  Al89  1  0.67861008  0.93055431  0.01331607  1
  Al0+  Al90  1  0.57150120  0.67989922  0.31664004  1
  Al0+  Al91  1  0.67987775  0.42932616  0.01276191  1
  Al0+  Al92  1  0.42998785  0.82430602  0.65012820  1
  Al0+  Al93  1  0.42973385  0.82069268  0.98739486  1
  Al0+  Al94  1  0.67604519  0.92672743  0.35013932  1
  Al0+  Al95  1  0.32183195  0.07156659  0.68223422  1
  Si0+  Si96  1  0.07298149  0.67965341  0.31697446  1
  Si0+  Si97  1  0.57227199  0.17877325  0.65050581  1
  Si0+  Si98  1  0.17891816  0.92695016  0.34831691  1
  Si0+  Si99  1  0.32073851  0.56973536  0.68013700  1
  Si0+  Si100  1  0.92690895  0.82220358  0.98461452  1
  Si0+  Si101  1  0.32109703  0.07111595  0.01518641  1
  Si0+  Si102  1  0.92952860  0.82081141  0.31752560  1
  Si0+  Si103  1  0.17887890  0.92993278  0.01359104  1
  Si0+  Si104  1  0.31897751  0.07216519  0.34646852  1
  Si0+  Si105  1  0.92888561  0.32240576  0.98280389  1
  Si0+  Si106  1  0.82168948  0.57044473  0.68042416  1
  Si0+  Si107  1  0.17974625  0.92587783  0.68486764  1
  Si0+  Si108  1  0.42699926  0.82149654  0.31664966  1
  Si0+  Si109  1  0.42603356  0.32409190  0.31698512  1
  Si0+  Si110  1  0.82522266  0.57172440  0.35109481  1
  Si0+  Si111  1  0.67978981  0.92524535  0.68339761  1
  Si0+  Si112  1  0.31903814  0.57253782  0.35178620  1
  Si0+  Si113  1  0.67724514  0.42959521  0.68130720  1
  Si0+  Si114  1  0.82286037  0.57303271  0.01570626  1
  Si0+  Si115  1  0.17721702  0.43031514  0.68018995  1
  Si0+  Si116  1  0.17840475  0.42948115  0.35004199  1
  Si0+  Si117  1  0.07209889  0.17806418  0.65188944  1
  Si0+  Si118  1  0.57364044  0.67802169  0.98579037  1
  Si0+  Si119  1  0.82472496  0.07164788  0.01714699  1
  O2-  O120  1  0.24881081  0.00101400  0.05790340  1
  O2-  O121  1  0.24666454  0.00189531  0.38851615  1
  O2-  O122  1  0.24952228  -0.00628667  0.72905279  1
  O2-  O123  1  0.25134629  0.49884905  0.06524485  1
  O2-  O124  1  0.24979324  0.49940689  0.39376641  1
  O2-  O125  1  0.24627747  0.50288438  0.72259249  1
  O2-  O126  1  0.75246132  0.00620969  0.05994827  1
  O2-  O127  1  0.74859489  -0.00184139  0.39998169  1
  O2-  O128  1  0.74879163  -0.00609363  0.72785768  1
  O2-  O129  1  0.75323082  0.50569897  0.05982011  1
  O2-  O130  1  0.75615839  0.50324668  0.39556784  1
  O2-  O131  1  0.74838724  0.50147643  0.72259291  1
  O2-  O132  1  -0.00139120  0.24792074  0.26826289  1
  O2-  O133  1  -0.00132684  0.24068645  0.60725788  1
  O2-  O134  1  -0.00170537  0.25464511  0.93824216  1
  O2-  O135  1  0.00018545  0.74882077  0.27521592  1
  O2-  O136  1  0.00189774  0.75103838  0.60065812  1
  O2-  O137  1  -0.00696364  0.75109625  0.94087609  1
  O2-  O138  1  0.49530063  0.25580608  0.27439769  1
  O2-  O139  1  0.50129967  0.24484616  0.60561045  1
  O2-  O140  1  0.50384636  0.25229284  0.93471654  1
  O2-  O141  1  0.49962223  0.75806030  0.27160094  1
  O2-  O142  1  0.50456204  0.75459276  0.60162187  1
  O2-  O143  1  0.50446753  0.74561545  0.94148254  1
  O2-  O144  1  0.06877277  0.17622430  0.09673721  1
  O2-  O145  1  0.07597002  0.18050791  0.43281577  1
  O2-  O146  1  0.07350188  0.18213355  0.75746776  1
  O2-  O147  1  0.06855945  0.68302562  0.10169882  1
  O2-  O148  1  0.07432058  0.68084541  0.42178366  1
  O2-  O149  1  0.07036703  0.67533325  0.76406147  1
  O2-  O150  1  0.57165074  0.17699486  0.09742621  1
  O2-  O151  1  0.56487971  0.18040341  0.43501029  1
  O2-  O152  1  0.57259252  0.18142084  0.75587441  1
  O2-  O153  1  0.57331463  0.68020114  0.09132956  1
  O2-  O154  1  0.56771617  0.67811084  0.42958758  1
  O2-  O155  1  0.56874194  0.67536649  0.76686197  1
  O2-  O156  1  0.17938242  0.42995590  0.24545765  1
  O2-  O157  1  0.17920292  0.43067545  0.57463499  1
  O2-  O158  1  0.17618869  0.42981612  0.90211164  1
  O2-  O159  1  0.18083801  0.92164901  0.24314056  1
  O2-  O160  1  0.17900061  0.92844047  0.57869640  1
  O2-  O161  1  0.17888134  0.92979784  0.90898717  1
  O2-  O162  1  0.67900362  0.43144134  0.23566832  1
  O2-  O163  1  0.67755585  0.42917685  0.57626719  1
  O2-  O164  1  0.68081208  0.43235701  0.89892622  1
  O2-  O165  1  0.67723459  0.92899626  0.23627671  1
  O2-  O166  1  0.68072379  0.92594929  0.57802365  1
  O2-  O167  1  0.68134987  0.92804800  0.90013560  1
  O2-  O168  1  0.43114572  0.31832387  0.10036493  1
  O2-  O169  1  0.42439387  0.32139245  0.42310276  1
  O2-  O170  1  0.42950784  0.32345705  0.76535131  1
  O2-  O171  1  0.42861543  0.82068578  0.10064937  1
  O2-  O172  1  0.42330715  0.81894501  0.42179829  1
  O2-  O173  1  0.42999280  0.82124895  0.76376639  1
  O2-  O174  1  0.92820760  0.32186912  0.08802059  1
  O2-  O175  1  0.92944236  0.32050932  0.43019756  1
  O2-  O176  1  0.92923714  0.32088097  0.76683695  1
  O2-  O177  1  0.92945221  0.82204146  0.09064389  1
  O2-  O178  1  0.93221900  0.82103617  0.42233477  1
  O2-  O179  1  0.92980184  0.81839395  0.76570429  1
  O2-  O180  1  0.31887827  0.07093608  0.24137486  1
  O2-  O181  1  0.31735874  0.07302291  0.56839787  1
  O2-  O182  1  0.32004683  0.06986578  0.91018498  1
  O2-  O183  1  0.31671145  0.57623249  0.24710551  1
  O2-  O184  1  0.32034532  0.56633659  0.57461133  1
  O2-  O185  1  0.31890666  0.57474956  0.90087358  1
  O2-  O186  1  0.82269720  0.06560299  0.23454140  1
  O2-  O187  1  0.81914716  0.07337185  0.57007316  1
  O2-  O188  1  0.82621536  0.06902100  0.91133116  1
  O2-  O189  1  0.82709032  0.57173853  0.24535136  1
  O2-  O190  1  0.82305370  0.56977413  0.57565911  1
  O2-  O191  1  0.82313113  0.57315713  0.90977141  1
  O2-  O192  1  0.04808050  0.07711460  0.26738510  1
  O2-  O193  1  0.05477187  0.08139371  0.61042852  1
  O2-  O194  1  0.04189092  0.08217955  0.92809292  1
  O2-  O195  1  0.04757540  0.58743774  0.26988060  1
  O2-  O196  1  0.04023168  0.58068367  0.59493734  1
  O2-  O197  1  0.04172571  0.58187284  0.93460277  1
  O2-  O198  1  0.53475610  0.08291628  0.26782123  1
  O2-  O199  1  0.54941150  0.08432732  0.60613379  1
  O2-  O200  1  0.54323707  0.08161786  0.92963419  1
  O2-  O201  1  0.53437130  0.58463814  0.26367373  1
  O2-  O202  1  0.53647479  0.58297779  0.59664089  1
  O2-  O203  1  0.55016725  0.58365178  0.94187392  1
  O2-  O204  1  0.16890171  0.20900660  0.26501293  1
  O2-  O205  1  0.16340698  0.20895299  0.60444491  1
  O2-  O206  1  0.16845510  0.20740066  0.93059845  1
  O2-  O207  1  0.16403327  0.71123846  0.27033651  1
  O2-  O208  1  0.16965638  0.70325380  0.59575994  1
  O2-  O209  1  0.16400997  0.71301496  0.93285945  1
  O2-  O210  1  0.66428754  0.20811734  0.26754261  1
  O2-  O211  1  0.66446466  0.20822891  0.60468008  1
  O2-  O212  1  0.67459841  0.20300688  0.93306321  1
  O2-  O213  1  0.67018999  0.70280778  0.26310601  1
  O2-  O214  1  0.67095196  0.69874066  0.59980563  1
  O2-  O215  1  0.66805671  0.70353188  0.94078702  1
  O2-  O216  1  0.08038498  0.45736118  0.07065058  1
  O2-  O217  1  0.08647042  0.45925736  0.39659709  1
  O2-  O218  1  0.08417691  0.45666296  0.72583238  1
  O2-  O219  1  0.08647900  0.95691100  0.06148131  1
  O2-  O220  1  0.08660192  0.95099464  0.39582241  1
  O2-  O221  1  0.08667030  0.94980934  0.73250646  1
  O2-  O222  1  0.58480002  0.45777638  0.07039469  1
  O2-  O223  1  0.58162551  0.46321163  0.40189884  1
  O2-  O224  1  0.58492180  0.45917115  0.72693175  1
  O2-  O225  1  0.58169053  0.96019388  0.06763610  1
  O2-  O226  1  0.57612940  0.95294045  0.40139534  1
  O2-  O227  1  0.58581390  0.95151138  0.72839453  1
  O2-  O228  1  0.20616328  0.32820328  0.06937539  1
  O2-  O229  1  0.20547329  0.33762773  0.39860227  1
  O2-  O230  1  0.20525197  0.33879046  0.72727922  1
  O2-  O231  1  0.20752455  0.83910427  0.06274908  1
  O2-  O232  1  0.20985237  0.83737660  0.39919686  1
  O2-  O233  1  0.20491293  0.83018350  0.72703861  1
  O2-  O234  1  0.71287150  0.33271462  0.06605997  1
  O2-  O235  1  0.70705550  0.33359908  0.40352696  1
  O2-  O236  1  0.70555262  0.33892485  0.73007642  1
  O2-  O237  1  0.70939251  0.83446886  0.06994324  1
  O2-  O238  1  0.70503937  0.82642123  0.39841255  1
  O2-  O239  1  0.70550424  0.83070065  0.72825070  1
  O2-  O240  1  0.44918474  0.41911872  0.27460651  1
  O2-  O241  1  0.45848657  0.41436639  0.59515746  1
  O2-  O242  1  0.45793637  0.42255153  0.93597167  1
  O2-  O243  1  0.44529990  0.91739516  0.27300244  1
  O2-  O244  1  0.45355837  0.92469063  0.59932132  1
  O2-  O245  1  0.46090499  0.91609885  0.93236645  1
  O2-  O246  1  0.95704908  0.41989768  0.26427463  1
  O2-  O247  1  0.95844800  0.41246692  0.59599689  1
  O2-  O248  1  0.95325152  0.41673036  0.93754818  1
  O2-  O249  1  0.95985915  0.91080213  0.26860637  1
  O2-  O250  1  0.95999881  0.92052120  0.59897378  1
  O2-  O251  1  0.95477169  0.91432489  0.93795289  1
  O2-  O252  1  0.33238370  0.29867271  0.27177962  1
  O2-  O253  1  0.33113577  0.28952049  0.59865047  1
  O2-  O254  1  0.33239593  0.29437545  0.93444014  1
  O2-  O255  1  0.33432926  0.79034266  0.27018762  1
  O2-  O256  1  0.33287145  0.79524076  0.59513388  1
  O2-  O257  1  0.33351967  0.79217464  0.93188081  1
  O2-  O258  1  0.82813637  0.29456170  0.26494041  1
  O2-  O259  1  0.82948495  0.28928426  0.60157591  1
  O2-  O260  1  0.83643265  0.29609077  0.93506141  1
  O2-  O261  1  0.83831534  0.79287431  0.26946285  1
  O2-  O262  1  0.83304132  0.79253956  0.59646654  1
  O2-  O263  1  0.83266657  0.79842147  0.93957229  1
  O2-  O264  1  0.41232694  0.04099973  0.06202954  1
  O2-  O265  1  0.40867523  0.04352598  0.39713105  1
  O2-  O266  1  0.41956036  0.04464249  0.73639032  1
  O2-  O267  1  0.41929802  0.54835474  0.07003775  1
  O2-  O268  1  0.41087971  0.54604068  0.39923684  1
  O2-  O269  1  0.41124541  0.53809066  0.72737483  1
  O2-  O270  1  0.91748050  0.04195470  0.06335402  1
  O2-  O271  1  0.92001907  0.04099825  0.40074387  1
  O2-  O272  1  0.92012453  0.04312822  0.73581290  1
  O2-  O273  1  0.91573093  0.54704004  0.06305558  1
  O2-  O274  1  0.91993324  0.54835105  0.39688570  1
  O2-  O275  1  0.91278653  0.53853896  0.72786912  1
  O2-  O276  1  0.29330294  0.16235566  0.06281778  1
  O2-  O277  1  0.29197664  0.16447361  0.39442205  1
  O2-  O278  1  0.28744154  0.16723901  0.73704797  1
  O2-  O279  1  0.28748922  0.67081375  0.06931429  1
  O2-  O280  1  0.28774426  0.66288716  0.40096020  1
  O2-  O281  1  0.29774657  0.66455434  0.72332571  1
  O2-  O282  1  0.80474543  0.16695674  0.06087878  1
  O2-  O283  1  0.79106042  0.16843657  0.39935204  1
  O2-  O284  1  0.78893353  0.16660315  0.73931022  1
  O2-  O285  1  0.80085793  0.66712380  0.06283768  1
  O2-  O286  1  0.79964318  0.66582195  0.39569784  1
  O2-  O287  1  0.79747488  0.66293962  0.72865625  1
