# generated using pymatgen
data_Ca2Al2SiO7
_symmetry_space_group_name_H-M   'P 1'
_cell_length_a   15.46085449
_cell_length_b   15.46205741
_cell_length_c   15.28618712
_cell_angle_alpha   90.01505486
_cell_angle_beta   90.00615321
_cell_angle_gamma   90.00394497
_symmetry_Int_Tables_number   1
_chemical_formula_structural   Ca2Al2SiO7
_chemical_formula_sum   'Ca48 Al48 Si24 O168'
_cell_volume   3654.26406556
_cell_formula_units_Z   24
loop_
 _symmetry_equiv_pos_site_id
 _symmetry_equiv_pos_as_xyz
  1  'x, y, z'
loop_
 _atom_type_symbol
 _atom_type_oxidation_number
  Ca2+  2.0
  Al0+  0.0
  Si0+  0.0
  O2-  -2.0
loop_
 _atom_site_type_symbol
 _atom_site_label
 _atom_site_symmetry_multiplicity
 _atom_site_fract_x
 _atom_site_fract_y
 _atom_site_fract_z
 _atom_site_occupancy
  Ca2+  Ca0  1  0.16905272  0.07146334  0.16617299  1
  Ca2+  Ca1  1  0.16252205  0.07221775  0.50450877  1
  Ca2+  Ca2  1  0.16838349  0.07389045  0.83694382  1
  Ca2+  Ca3  1  0.16376924  0.57840609  0.17139241  1
  Ca2+  Ca4  1  0.16912325  0.57952652  0.50396572  1
  Ca2+  Ca5  1  0.18071944  0.58223964  0.84363258  1
  Ca2+  Ca6  1  0.66710178  0.06955310  0.17028552  1
  Ca2+  Ca7  1  0.66775477  0.07660784  0.49988410  1
  Ca2+  Ca8  1  0.67007460  0.07567881  0.84204588  1
  Ca2+  Ca9  1  0.67169689  0.58350209  0.17260667  1
  Ca2+  Ca10  1  0.66921078  0.59601936  0.49985715  1
  Ca2+  Ca11  1  0.66447544  0.58137570  0.83820408  1
  Ca2+  Ca12  1  0.08848550  0.33803558  0.16161806  1
  Ca2+  Ca13  1  0.09256031  0.32593889  0.49480358  1
  Ca2+  Ca14  1  0.09399723  0.32536477  0.83176754  1
  Ca2+  Ca15  1  0.08033359  0.82661494  0.15855713  1
  Ca2+  Ca16  1  0.07656275  0.83251802  0.49110701  1
  Ca2+  Ca17  1  0.07830586  0.83880456  0.82861927  1
  Ca2+  Ca18  1  0.57099698  0.33738031  0.15901899  1
  Ca2+  Ca19  1  0.56907423  0.33452928  0.49413655  1
  Ca2+  Ca20  1  0.57172602  0.33775175  0.83088542  1
  Ca2+  Ca21  1  0.59041016  0.83006653  0.16395982  1
  Ca2+  Ca22  1  0.57922802  0.82476636  0.49380936  1
  Ca2+  Ca23  1  0.57458204  0.82944470  0.82519678  1
  Ca2+  Ca24  1  0.32755423  0.41862001  0.16681948  1
  Ca2+  Ca25  1  0.33585793  0.42016027  0.50282098  1
  Ca2+  Ca26  1  0.33684843  0.42577043  0.84107503  1
  Ca2+  Ca27  1  0.32072288  0.91584404  0.17002346  1
  Ca2+  Ca28  1  0.31952192  0.90682103  0.50665694  1
  Ca2+  Ca29  1  0.32273868  0.91637174  0.84088116  1
  Ca2+  Ca30  1  0.82699853  0.42452674  0.17380702  1
  Ca2+  Ca31  1  0.83395593  0.42923750  0.50238830  1
  Ca2+  Ca32  1  0.82320976  0.41931989  0.84273959  1
  Ca2+  Ca33  1  0.82682578  0.90204379  0.16908029  1
  Ca2+  Ca34  1  0.83017789  0.90329337  0.50004359  1
  Ca2+  Ca35  1  0.83106792  0.90952230  0.83800825  1
  Ca2+  Ca36  1  0.40784378  0.17638909  0.16038949  1
  Ca2+  Ca37  1  0.40860201  0.18009763  0.49579288  1
  Ca2+  Ca38  1  0.40414309  0.17804662  0.83322909  1
  Ca2+  Ca39  1  0.42255298  0.66150075  0.16385366  1
  Ca2+  Ca40  1  0.42381449  0.66540250  0.50191409  1
  Ca2+  Ca41  1  0.41853316  0.66557081  0.82476573  1
  Ca2+  Ca42  1  0.91868717  0.16879027  0.16300706  1
  Ca2+  Ca43  1  0.92328293  0.16790414  0.50014721  1
  Ca2+  Ca44  1  0.92498184  0.16805459  0.82688276  1
  Ca2+  Ca45  1  0.92705633  0.67114134  0.16477213  1
  Ca2+  Ca46  1  0.92178216  0.67517765  0.48890463  1
  Ca2+  Ca47  1  0.92661347  0.67635726  0.83368907  1
  Al0+  Al48  1  -0.00102449  0.00188964  -0.00064518  1
  Al0+  Al49  1  -0.00134743  0.00238178  0.33189329  1
  Al0+  Al50  1  -0.00151625  0.00162196  0.66199212  1
  Al0+  Al51  1  -0.00034821  0.50151118  -0.00405790  1
  Al0+  Al52  1  -0.00053766  0.49920047  0.34052610  1
  Al0+  Al53  1  -0.00199302  0.49936507  0.67159434  1
  Al0+  Al54  1  0.50257266  0.00136439  0.00767724  1
  Al0+  Al55  1  0.50050342  0.00204494  0.33954377  1
  Al0+  Al56  1  0.49874360  0.00137014  0.66351204  1
  Al0+  Al57  1  0.50052447  0.49888846  0.00343319  1
  Al0+  Al58  1  0.49897860  0.49943836  0.32447224  1
  Al0+  Al59  1  0.50081091  0.49888790  0.66121653  1
  Al0+  Al60  1  0.24996437  0.25132594  0.00116533  1
  Al0+  Al61  1  0.24922869  0.25066056  0.33122229  1
  Al0+  Al62  1  0.24897861  0.24785710  0.65663257  1
  Al0+  Al63  1  0.25292293  0.74880287  0.00534895  1
  Al0+  Al64  1  0.25123768  0.74853808  0.33526974  1
  Al0+  Al65  1  0.24903816  0.74761380  0.67277142  1
  Al0+  Al66  1  0.74853029  0.24919317  0.00400866  1
  Al0+  Al67  1  0.74849197  0.24879972  0.33446970  1
  Al0+  Al68  1  0.75015002  0.24977038  0.66666330  1
  Al0+  Al69  1  0.75180423  0.74932668  -0.00225590  1
  Al0+  Al70  1  0.74910706  0.74924026  0.33449391  1
  Al0+  Al71  1  0.75171337  0.74932784  0.66410182  1
  Al0+  Al72  1  0.56939483  0.68170213  0.31741263  1
  Al0+  Al73  1  0.67907901  0.42832598  0.01363980  1
  Al0+  Al74  1  0.43067622  0.31903417  0.65247953  1
  Al0+  Al75  1  0.17837370  0.43059360  0.01271389  1
  Al0+  Al76  1  0.17709802  0.92809116  0.01477751  1
  Al0+  Al77  1  0.32361562  0.57241482  0.01675141  1
  Al0+  Al78  1  0.57060233  0.67971728  0.65277089  1
  Al0+  Al79  1  0.42985953  0.31954102  0.98478889  1
  Al0+  Al80  1  0.32146714  0.56781027  0.67934723  1
  Al0+  Al81  1  0.07323502  0.67683370  0.32012853  1
  Al0+  Al82  1  0.17787873  0.92957141  0.67958964  1
  Al0+  Al83  1  0.17878424  0.92824634  0.34746416  1
  Al0+  Al84  1  0.68084655  0.92788182  0.01155733  1
  Al0+  Al85  1  0.68026892  0.92892559  0.34933645  1
  Al0+  Al86  1  0.93066297  0.82131516  0.98350266  1
  Al0+  Al87  1  0.06928543  0.18118850  0.65217496  1
  Al0+  Al88  1  0.17977884  0.42954483  0.34869437  1
  Al0+  Al89  1  0.32120478  0.07183864  0.01353274  1
  Al0+  Al90  1  0.42876140  0.31912946  0.31543993  1
  Al0+  Al91  1  0.93156631  0.81995194  0.65173870  1
  Al0+  Al92  1  0.81903352  0.56955687  0.34741897  1
  Al0+  Al93  1  0.92980328  0.82190112  0.31714484  1
  Al0+  Al94  1  0.42510202  0.82317249  0.65365739  1
  Al0+  Al95  1  0.07539444  0.67744838  0.98355218  1
  Si0+  Si96  1  0.92726931  0.32142653  0.31977796  1
  Si0+  Si97  1  0.82233470  0.07546044  0.35222941  1
  Si0+  Si98  1  0.82166192  0.57289697  0.68500109  1
  Si0+  Si99  1  0.57062884  0.67976804  0.98586804  1
  Si0+  Si100  1  0.06960864  0.18036127  0.31554090  1
  Si0+  Si101  1  0.42750458  0.82500038  0.31683472  1
  Si0+  Si102  1  0.82260180  0.07321232  0.01637545  1
  Si0+  Si103  1  0.57338756  0.17650331  0.98347154  1
  Si0+  Si104  1  0.57619497  0.17673051  0.64932770  1
  Si0+  Si105  1  0.92551382  0.32195745  0.98635593  1
  Si0+  Si106  1  0.67605140  0.42717973  0.35062965  1
  Si0+  Si107  1  0.67897844  0.92852905  0.68099564  1
  Si0+  Si108  1  0.43045789  0.82421151  0.98858245  1
  Si0+  Si109  1  0.17746967  0.42539481  0.68240925  1
  Si0+  Si110  1  0.57341651  0.17676453  0.31496816  1
  Si0+  Si111  1  0.92492135  0.32335234  0.65045757  1
  Si0+  Si112  1  0.06972524  0.18113059  0.98534777  1
  Si0+  Si113  1  0.68053911  0.42855139  0.68039066  1
  Si0+  Si114  1  0.32207285  0.07382921  0.68122982  1
  Si0+  Si115  1  0.32016907  0.07236403  0.35111212  1
  Si0+  Si116  1  0.82141645  0.57144571  0.01604633  1
  Si0+  Si117  1  0.07250640  0.67526906  0.65140686  1
  Si0+  Si118  1  0.81971450  0.07202564  0.68171952  1
  Si0+  Si119  1  0.32492114  0.57129834  0.35154548  1
  O2-  O120  1  0.25271934  -0.00288619  0.06404263  1
  O2-  O121  1  0.25675623  -0.00057042  0.39590336  1
  O2-  O122  1  0.25877645  -0.00027803  0.72428812  1
  O2-  O123  1  0.24595627  0.50513484  0.06458439  1
  O2-  O124  1  0.25288158  0.50542330  0.39529412  1
  O2-  O125  1  0.24464687  0.49477143  0.72609442  1
  O2-  O126  1  0.75713468  0.00108487  0.05861195  1
  O2-  O127  1  0.75651305  0.00334292  0.39532654  1
  O2-  O128  1  0.74793808  0.00176684  0.72347822  1
  O2-  O129  1  0.75513692  0.50064019  0.06039241  1
  O2-  O130  1  0.74350801  0.49568761  0.39664248  1
  O2-  O131  1  0.75058702  0.50004868  0.72440326  1
  O2-  O132  1  -0.00212702  0.25166505  0.27485946  1
  O2-  O133  1  -0.00170889  0.26036283  0.60584071  1
  O2-  O134  1  -0.00111420  0.25354103  0.94375017  1
  O2-  O135  1  0.00643451  0.75372773  0.26966161  1
  O2-  O136  1  0.00656091  0.74565103  0.60605157  1
  O2-  O137  1  0.00836136  0.75515646  0.93381378  1
  O2-  O138  1  0.50468714  0.24446391  0.27040492  1
  O2-  O139  1  0.50421036  0.24238396  0.60613780  1
  O2-  O140  1  0.50405848  0.24359484  0.93781268  1
  O2-  O141  1  0.49634307  0.75763093  0.27032720  1
  O2-  O142  1  0.49956506  0.75335768  0.60377473  1
  O2-  O143  1  0.49883897  0.75044118  0.94534763  1
  O2-  O144  1  0.06711449  0.18073498  0.09050568  1
  O2-  O145  1  0.06866608  0.18079129  0.42078069  1
  O2-  O146  1  0.06757538  0.18202786  0.76562551  1
  O2-  O147  1  0.06956404  0.67414977  0.09676422  1
  O2-  O148  1  0.07066271  0.67579519  0.43421120  1
  O2-  O149  1  0.06950351  0.67448690  0.75666053  1
  O2-  O150  1  0.57581253  0.17825882  0.08868215  1
  O2-  O151  1  0.57498298  0.17886036  0.42092033  1
  O2-  O152  1  0.58252274  0.17822302  0.75448587  1
  O2-  O153  1  0.57303377  0.68098926  0.09085326  1
  O2-  O154  1  0.56834616  0.68233877  0.43037880  1
  O2-  O155  1  0.57152679  0.67968174  0.76695921  1
  O2-  O156  1  0.17951217  0.42807657  0.23610560  1
  O2-  O157  1  0.17718623  0.42640593  0.57676538  1
  O2-  O158  1  0.18240974  0.42683089  0.89892293  1
  O2-  O159  1  0.17860551  0.93138077  0.23472958  1
  O2-  O160  1  0.17624235  0.93222202  0.56642805  1
  O2-  O161  1  0.17601568  0.93246211  0.90094644  1
  O2-  O162  1  0.67981270  0.42652399  0.24511469  1
  O2-  O163  1  0.68361131  0.42616242  0.57556854  1
  O2-  O164  1  0.67975802  0.43006077  0.89971391  1
  O2-  O165  1  0.68163848  0.93022174  0.23617638  1
  O2-  O166  1  0.68128724  0.92931877  0.57609888  1
  O2-  O167  1  0.68042885  0.92956225  0.89788532  1
  O2-  O168  1  0.43030406  0.31803716  0.09742607  1
  O2-  O169  1  0.43045073  0.31818186  0.42911133  1
  O2-  O170  1  0.43151624  0.31910003  0.76544702  1
  O2-  O171  1  0.43382795  0.82529043  0.09358943  1
  O2-  O172  1  0.42855596  0.82337323  0.42246558  1
  O2-  O173  1  0.42886294  0.82421301  0.76781759  1
  O2-  O174  1  0.92371813  0.31946820  0.09154005  1
  O2-  O175  1  0.92645188  0.31885033  0.42494044  1
  O2-  O176  1  0.91984505  0.31991104  0.75599092  1
  O2-  O177  1  0.92736983  0.81741837  0.09636192  1
  O2-  O178  1  0.93093371  0.81908329  0.43110896  1
  O2-  O179  1  0.92934686  0.81979291  0.76465788  1
  O2-  O180  1  0.31737782  0.07323836  0.24568192  1
  O2-  O181  1  0.31857083  0.07770273  0.57580478  1
  O2-  O182  1  0.31771625  0.07173192  0.89951030  1
  O2-  O183  1  0.32690929  0.56892529  0.24635335  1
  O2-  O184  1  0.32243941  0.56497390  0.56629471  1
  O2-  O185  1  0.32803421  0.56846527  0.90283936  1
  O2-  O186  1  0.82022216  0.08269905  0.24710115  1
  O2-  O187  1  0.81818419  0.07591336  0.57699647  1
  O2-  O188  1  0.82114620  0.07777350  0.91054964  1
  O2-  O189  1  0.81794322  0.56548091  0.23438566  1
  O2-  O190  1  0.82320128  0.57198119  0.58002545  1
  O2-  O191  1  0.81817980  0.57023865  0.90987718  1
  O2-  O192  1  0.04013330  0.09017951  0.26650864  1
  O2-  O193  1  0.03172670  0.08859502  0.59525898  1
  O2-  O194  1  0.04011096  0.09098313  0.93579134  1
  O2-  O195  1  0.03829791  0.57870789  0.26980155  1
  O2-  O196  1  0.04459194  0.58073136  0.60718005  1
  O2-  O197  1  0.04149183  0.58111092  0.92722984  1
  O2-  O198  1  0.54879158  0.08187575  0.27146300  1
  O2-  O199  1  0.55385934  0.08250280  0.60328958  1
  O2-  O200  1  0.55043837  0.08172602  0.93822678  1
  O2-  O201  1  0.54120693  0.58479068  0.26261746  1
  O2-  O202  1  0.54412673  0.58200958  0.59776715  1
  O2-  O203  1  0.54325165  0.58737683  0.93959960  1
  O2-  O204  1  0.16046858  0.20949814  0.26849257  1
  O2-  O205  1  0.16399997  0.20783802  0.59272504  1
  O2-  O206  1  0.16048538  0.20991717  0.93706992  1
  O2-  O207  1  0.17443632  0.69793076  0.27021089  1
  O2-  O208  1  0.16754516  0.69643810  0.60815660  1
  O2-  O209  1  0.17764265  0.69949731  0.93598922  1
  O2-  O210  1  0.66759015  0.20145542  0.26925208  1
  O2-  O211  1  0.66811411  0.20563538  0.60050192  1
  O2-  O212  1  0.66731557  0.20297903  0.93686591  1
  O2-  O213  1  0.66606542  0.71205292  0.26422327  1
  O2-  O214  1  0.66880835  0.70851876  0.60013843  1
  O2-  O215  1  0.66202585  0.70679603  0.93708683  1
  O2-  O216  1  0.07640197  0.45216824  0.06238928  1
  O2-  O217  1  0.08237870  0.45370021  0.40476003  1
  O2-  O218  1  0.08148554  0.44480895  0.72749332  1
  O2-  O219  1  0.07996810  0.96224937  0.06694634  1
  O2-  O220  1  0.08230859  0.96459204  0.39907151  1
  O2-  O221  1  0.08251342  0.96841329  0.73168263  1
  O2-  O222  1  0.58534258  0.46104099  0.06936665  1
  O2-  O223  1  0.58134593  0.45349362  0.39297387  1
  O2-  O224  1  0.58868941  0.45676266  0.72654980  1
  O2-  O225  1  0.58738435  0.95923942  0.07054836  1
  O2-  O226  1  0.58419830  0.96109158  0.40504183  1
  O2-  O227  1  0.58552408  0.95462491  0.72654221  1
  O2-  O228  1  0.20742112  0.33305965  0.06672916  1
  O2-  O229  1  0.21297229  0.33240468  0.40155336  1
  O2-  O230  1  0.20467589  0.33036139  0.72420594  1
  O2-  O231  1  0.20406075  0.83006071  0.06747306  1
  O2-  O232  1  0.20720127  0.83063962  0.40147013  1
  O2-  O233  1  0.20255192  0.83196951  0.73392156  1
  O2-  O234  1  0.70785523  0.33183922  0.06859709  1
  O2-  O235  1  0.70099636  0.33297218  0.39624001  1
  O2-  O236  1  0.70895588  0.33714754  0.72926022  1
  O2-  O237  1  0.71192188  0.83126729  0.06540600  1
  O2-  O238  1  0.71087542  0.83305304  0.40396819  1
  O2-  O239  1  0.70971787  0.83745019  0.72805767  1
  O2-  O240  1  0.45949168  0.41456640  0.26067673  1
  O2-  O241  1  0.46527948  0.41254196  0.59555966  1
  O2-  O242  1  0.46572745  0.41571825  0.93236657  1
  O2-  O243  1  0.45170127  0.92064565  0.27471857  1
  O2-  O244  1  0.44844850  0.92312321  0.60061593  1
  O2-  O245  1  0.46133943  0.91526988  0.94110008  1
  O2-  O246  1  0.95462259  0.41303922  0.27353434  1
  O2-  O247  1  0.94553503  0.41950326  0.60789691  1
  O2-  O248  1  0.94750108  0.41417920  0.93771025  1
  O2-  O249  1  0.94806203  0.92443100  0.26839436  1
  O2-  O250  1  0.95678679  0.91771957  0.59813808  1
  O2-  O251  1  0.95119843  0.92352360  0.93315294  1
  O2-  O252  1  0.33236045  0.28598320  0.26296701  1
  O2-  O253  1  0.33510224  0.28925393  0.59579035  1
  O2-  O254  1  0.33290131  0.28844344  0.93106717  1
  O2-  O255  1  0.33398353  0.79882444  0.27164042  1
  O2-  O256  1  0.32744284  0.79046793  0.60199691  1
  O2-  O257  1  0.33730202  0.80044463  0.94275813  1
  O2-  O258  1  0.83502683  0.29328611  0.27229888  1
  O2-  O259  1  0.83418561  0.29258167  0.60119547  1
  O2-  O260  1  0.83483785  0.29033650  0.93759471  1
  O2-  O261  1  0.83229961  0.78760620  0.26728700  1
  O2-  O262  1  0.83540104  0.78712862  0.59861834  1
  O2-  O263  1  0.83353230  0.78690366  0.92888961  1
  O2-  O264  1  0.42102085  0.05148452  0.06677097  1
  O2-  O265  1  0.41638061  0.05664198  0.39573468  1
  O2-  O266  1  0.41909456  0.05821706  0.72463767  1
  O2-  O267  1  0.41925151  0.53787174  0.07119672  1
  O2-  O268  1  0.41757557  0.53922252  0.39651918  1
  O2-  O269  1  0.41897760  0.53514353  0.73167761  1
  O2-  O270  1  0.91678925  0.05265852  0.06229994  1
  O2-  O271  1  0.91728852  0.05405553  0.39666130  1
  O2-  O272  1  0.91098998  0.04344553  0.72887597  1
  O2-  O273  1  0.91523940  0.54667056  0.06019268  1
  O2-  O274  1  0.91274592  0.53615314  0.40585825  1
  O2-  O275  1  0.91245510  0.54448105  0.73485395  1
  O2-  O276  1  0.28698711  0.16755774  0.06777693  1
  O2-  O277  1  0.28732797  0.16391972  0.39732080  1
  O2-  O278  1  0.28839673  0.16549557  0.72752916  1
  O2-  O279  1  0.30608064  0.67245738  0.06969721  1
  O2-  O280  1  0.30485728  0.66630114  0.39674116  1
  O2-  O281  1  0.29399482  0.66398498  0.73591061  1
  O2-  O282  1  0.79439407  0.16452345  0.06614973  1
  O2-  O283  1  0.79285482  0.16715847  0.40223822  1
  O2-  O284  1  0.79349940  0.16406353  0.73111187  1
  O2-  O285  1  0.79189246  0.66311463  0.06212878  1
  O2-  O286  1  0.78677724  0.66472214  0.40273054  1
  O2-  O287  1  0.79130239  0.66354363  0.73275901  1
