# generated using pymatgen
data_Ca2Al2SiO7
_symmetry_space_group_name_H-M   'P 1'
_cell_length_a   15.45338891
_cell_length_b   15.45369751
_cell_length_c   15.28088576
_cell_angle_alpha   90.00793474
_cell_angle_beta   90.00992420
_cell_angle_gamma   89.98791216
_symmetry_Int_Tables_number   1
_chemical_formula_structural   Ca2Al2SiO7
_chemical_formula_sum   'Ca48 Al48 Si24 O168'
_cell_volume   3649.25868437
_cell_formula_units_Z   24
loop_
 _symmetry_equiv_pos_site_id
 _symmetry_equiv_pos_as_xyz
  1  'x, y, z'
loop_
 _atom_type_symbol
 _atom_type_oxidation_number
  Ca2+  2.0
  Al0+  0.0
  Si0+  0.0
  O2-  -2.0
loop_
 _atom_site_type_symbol
 _atom_site_label
 _atom_site_symmetry_multiplicity
 _atom_site_fract_x
 _atom_site_fract_y
 _atom_site_fract_z
 _atom_site_occupancy
  Ca2+  Ca0  1  0.16753279  0.07797068  0.17713933  1
  Ca2+  Ca1  1  0.15749409  0.07291231  0.50367693  1
  Ca2+  Ca2  1  0.16472277  0.07719606  0.83369101  1
  Ca2+  Ca3  1  0.16295962  0.58186808  0.17505973  1
  Ca2+  Ca4  1  0.16861350  0.57590981  0.50578416  1
  Ca2+  Ca5  1  0.16858607  0.57946554  0.83219797  1
  Ca2+  Ca6  1  0.66846120  0.08715682  0.16656818  1
  Ca2+  Ca7  1  0.66982070  0.08829716  0.50567285  1
  Ca2+  Ca8  1  0.67471562  0.08677909  0.84031768  1
  Ca2+  Ca9  1  0.66751454  0.56811202  0.17234889  1
  Ca2+  Ca10  1  0.66312202  0.57665244  0.50450104  1
  Ca2+  Ca11  1  0.66564776  0.57917887  0.83958085  1
  Ca2+  Ca12  1  0.08132608  0.33283619  0.16762594  1
  Ca2+  Ca13  1  0.07560436  0.33798331  0.49192054  1
  Ca2+  Ca14  1  0.07621960  0.33127970  0.82331366  1
  Ca2+  Ca15  1  0.08383693  0.82274617  0.16083484  1
  Ca2+  Ca16  1  0.08534465  0.83235915  0.49497532  1
  Ca2+  Ca17  1  0.07370132  0.83372611  0.82934869  1
  Ca2+  Ca18  1  0.58689419  0.32621274  0.16003515  1
  Ca2+  Ca19  1  0.58165193  0.32313221  0.49629095  1
  Ca2+  Ca20  1  0.57870846  0.32848892  0.82769201  1
  Ca2+  Ca21  1  0.57796415  0.83837832  0.16230716  1
  Ca2+  Ca22  1  0.57695292  0.82511803  0.49544157  1
  Ca2+  Ca23  1  0.58946316  0.82792441  0.82723499  1
  Ca2+  Ca24  1  0.32908781  0.41674168  0.17266920  1
  Ca2+  Ca25  1  0.32115513  0.41641513  0.51073219  1
  Ca2+  Ca26  1  0.33707224  0.41545308  0.83302817  1
  Ca2+  Ca27  1  0.33005115  0.91779069  0.17764774  1
  Ca2+  Ca28  1  0.32379998  0.91283870  0.50145752  1
  Ca2+  Ca29  1  0.32654772  0.91539405  0.83416084  1
  Ca2+  Ca30  1  0.82353177  0.40887582  0.17269683  1
  Ca2+  Ca31  1  0.83199958  0.40891443  0.50193628  1
  Ca2+  Ca32  1  0.82626194  0.41387364  0.83843281  1
  Ca2+  Ca33  1  0.83259704  0.91873850  0.16346265  1
  Ca2+  Ca34  1  0.83744361  0.92659789  0.51090359  1
  Ca2+  Ca35  1  0.83332205  0.92598990  0.84169256  1
  Ca2+  Ca36  1  0.42891785  0.17314317  0.15785344  1
  Ca2+  Ca37  1  0.42612949  0.16726656  0.49715381  1
  Ca2+  Ca38  1  0.42936678  0.17637477  0.82759798  1
  Ca2+  Ca39  1  0.41278827  0.67475718  0.16686238  1
  Ca2+  Ca40  1  0.41482246  0.66657229  0.50194027  1
  Ca2+  Ca41  1  0.42311368  0.66309819  0.82541243  1
  Ca2+  Ca42  1  0.91896962  0.16677260  0.16991952  1
  Ca2+  Ca43  1  0.91963530  0.17573382  0.49705870  1
  Ca2+  Ca44  1  0.90893427  0.16877267  0.82654677  1
  Ca2+  Ca45  1  0.93046524  0.66908252  0.15933527  1
  Ca2+  Ca46  1  0.92299511  0.67538707  0.49458154  1
  Ca2+  Ca47  1  0.91676873  0.68011296  0.82952838  1
  Al0+  Al48  1  0.00034596  -0.00051634  0.00326580  1
  Al0+  Al49  1  -0.00127389  0.00127774  0.33416059  1
  Al0+  Al50  1  -0.00201601  0.00046614  0.67311669  1
  Al0+  Al51  1  0.00214508  0.49950407  -0.00518193  1
  Al0+  Al52  1  -0.00185125  0.50253076  0.32836515  1
  Al0+  Al53  1  -0.00099621  0.50139330  0.66814686  1
  Al0+  Al54  1  0.49950390  0.00122319  -0.00238338  1
  Al0+  Al55  1  0.50076582  -0.00023686  0.32672234  1
  Al0+  Al56  1  0.49924535  -0.00183993  0.66323281  1
  Al0+  Al57  1  0.49753953  0.50159073  0.00461503  1
  Al0+  Al58  1  0.50136377  0.49997812  0.33920586  1
  Al0+  Al59  1  0.49875928  0.49940993  0.66142744  1
  Al0+  Al60  1  0.24972265  0.25042052  -0.00344014  1
  Al0+  Al61  1  0.25105012  0.24971544  0.33565965  1
  Al0+  Al62  1  0.24968185  0.24714019  0.66830498  1
  Al0+  Al63  1  0.25057863  0.74721392  -0.00470862  1
  Al0+  Al64  1  0.25045851  0.75110397  0.32990515  1
  Al0+  Al65  1  0.24973368  0.74865597  0.67737436  1
  Al0+  Al66  1  0.75175981  0.24887140  0.00576648  1
  Al0+  Al67  1  0.74965046  0.24953770  0.33113852  1
  Al0+  Al68  1  0.75100995  0.24990701  0.66363160  1
  Al0+  Al69  1  0.75101560  0.75127028  0.00310930  1
  Al0+  Al70  1  0.74887680  0.74966649  0.33267417  1
  Al0+  Al71  1  0.75019355  0.74954911  0.65534922  1
  Al0+  Al72  1  0.57318693  0.17961583  0.98340101  1
  Al0+  Al73  1  0.57190572  0.17838412  0.65133990  1
  Al0+  Al74  1  0.57128050  0.67850339  0.65334668  1
  Al0+  Al75  1  0.07326367  0.67655765  0.98029970  1
  Al0+  Al76  1  0.17933204  0.92973608  0.34518248  1
  Al0+  Al77  1  0.93001793  0.32153849  0.31692419  1
  Al0+  Al78  1  0.67916335  0.43107529  0.01222526  1
  Al0+  Al79  1  0.17824632  0.42900936  0.34532164  1
  Al0+  Al80  1  0.32155885  0.56856876  0.68313377  1
  Al0+  Al81  1  0.17629047  0.42639663  0.68289446  1
  Al0+  Al82  1  0.17899786  0.92968277  0.68229699  1
  Al0+  Al83  1  0.67722509  0.92779128  0.01505940  1
  Al0+  Al84  1  0.42767737  0.32336573  0.98537764  1
  Al0+  Al85  1  0.82282087  0.07169020  0.01905701  1
  Al0+  Al86  1  0.93043484  0.32250509  0.65457387  1
  Al0+  Al87  1  0.81749418  0.07105408  0.67924583  1
  Al0+  Al88  1  0.07288983  0.17777666  0.31974393  1
  Al0+  Al89  1  0.57030768  0.18002216  0.31721451  1
  Al0+  Al90  1  0.68055309  0.42781221  0.35030117  1
  Al0+  Al91  1  0.06980494  0.68162937  0.32201521  1
  Al0+  Al92  1  0.92921226  0.82131568  0.98519241  1
  Al0+  Al93  1  0.42698437  0.32100446  0.64926701  1
  Al0+  Al94  1  0.43091096  0.81819217  0.32068892  1
  Al0+  Al95  1  0.93031921  0.82271387  0.65211120  1
  Si0+  Si96  1  0.32444026  0.07146451  0.34914261  1
  Si0+  Si97  1  0.31968889  0.07164997  0.01414465  1
  Si0+  Si98  1  0.82414134  0.57252894  0.01577969  1
  Si0+  Si99  1  0.07171204  0.17703312  0.65268399  1
  Si0+  Si100  1  0.32043107  0.57149716  0.01773238  1
  Si0+  Si101  1  0.42778872  0.32376588  0.31793380  1
  Si0+  Si102  1  0.81915111  0.06880732  0.35042636  1
  Si0+  Si103  1  0.67646388  0.92753064  0.34951959  1
  Si0+  Si104  1  0.18114942  0.92815349  0.01583667  1
  Si0+  Si105  1  0.57352945  0.67577586  0.31451736  1
  Si0+  Si106  1  0.67695218  0.92568477  0.67894609  1
  Si0+  Si107  1  0.42520173  0.82135067  0.65150500  1
  Si0+  Si108  1  0.42857492  0.82222956  0.98407609  1
  Si0+  Si109  1  0.32542390  0.07149133  0.68472687  1
  Si0+  Si110  1  0.82157859  0.57367450  0.35060000  1
  Si0+  Si111  1  0.92987319  0.31958871  0.98544738  1
  Si0+  Si112  1  0.56984218  0.67988155  0.98911666  1
  Si0+  Si113  1  0.17823837  0.42812189  0.01524190  1
  Si0+  Si114  1  0.92539063  0.82463294  0.31652895  1
  Si0+  Si115  1  0.32149380  0.57302229  0.34988454  1
  Si0+  Si116  1  0.82088172  0.57443513  0.68059718  1
  Si0+  Si117  1  0.07241112  0.67995743  0.65033857  1
  Si0+  Si118  1  0.68108584  0.43037072  0.68030666  1
  Si0+  Si119  1  0.07228207  0.17821915  0.98511959  1
  O2-  O120  1  0.25151657  -0.00098547  0.05884317  1
  O2-  O121  1  0.25055027  0.00766826  0.39293041  1
  O2-  O122  1  0.25507511  0.00365895  0.72882071  1
  O2-  O123  1  0.24855945  0.50022530  0.05764887  1
  O2-  O124  1  0.25556977  0.50113989  0.39207136  1
  O2-  O125  1  0.25138175  0.49502559  0.73425039  1
  O2-  O126  1  0.74808615  0.00032081  0.06669876  1
  O2-  O127  1  0.74996442  -0.00474673  0.39208727  1
  O2-  O128  1  0.74155368  -0.00332792  0.72437360  1
  O2-  O129  1  0.75570089  0.50393364  0.06032095  1
  O2-  O130  1  0.75387760  0.50467937  0.39642201  1
  O2-  O131  1  0.75091216  0.50245926  0.72351983  1
  O2-  O132  1  0.00525617  0.25241309  0.26706292  1
  O2-  O133  1  0.01062515  0.25273053  0.60949220  1
  O2-  O134  1  -0.00038259  0.24748595  0.94314607  1
  O2-  O135  1  -0.00502222  0.75610485  0.27433057  1
  O2-  O136  1  0.00622064  0.74996833  0.60466469  1
  O2-  O137  1  0.00031265  0.74912679  0.93361554  1
  O2-  O138  1  0.49626937  0.25632482  0.27197595  1
  O2-  O139  1  0.49774773  0.24749422  0.60023671  1
  O2-  O140  1  0.50290729  0.25458089  0.93605503  1
  O2-  O141  1  0.50572525  0.74515426  0.27051293  1
  O2-  O142  1  0.49571431  0.75380109  0.60874962  1
  O2-  O143  1  0.50459722  0.75536639  0.94473850  1
  O2-  O144  1  0.07589802  0.17997501  0.08998137  1
  O2-  O145  1  0.06770564  0.17353335  0.43292710  1
  O2-  O146  1  0.06828727  0.17583818  0.75892802  1
  O2-  O147  1  0.07459262  0.67769496  0.09435873  1
  O2-  O148  1  0.06986016  0.68333843  0.43506301  1
  O2-  O149  1  0.06938224  0.68071571  0.75577619  1
  O2-  O150  1  0.56983112  0.18060165  0.09719440  1
  O2-  O151  1  0.56963670  0.17850434  0.43012678  1
  O2-  O152  1  0.57378283  0.18121026  0.76459747  1
  O2-  O153  1  0.56520896  0.67853773  0.09404448  1
  O2-  O154  1  0.57385041  0.67723446  0.42001928  1
  O2-  O155  1  0.57308643  0.67977280  0.76726881  1
  O2-  O156  1  0.18052336  0.43131819  0.23151240  1
  O2-  O157  1  0.17405086  0.43143269  0.56921521  1
  O2-  O158  1  0.17753345  0.42747727  0.91061645  1
  O2-  O159  1  0.18302168  0.92870990  0.23171773  1
  O2-  O160  1  0.18006635  0.92927998  0.56895656  1
  O2-  O161  1  0.18205769  0.93013162  0.91061496  1
  O2-  O162  1  0.68071337  0.42945784  0.23682973  1
  O2-  O163  1  0.68364615  0.43068349  0.57524134  1
  O2-  O164  1  0.68003488  0.43377773  0.89861779  1
  O2-  O165  1  0.67624806  0.92749076  0.24463660  1
  O2-  O166  1  0.67861123  0.92537363  0.57313346  1
  O2-  O167  1  0.67790348  0.92464848  0.90141357  1
  O2-  O168  1  0.42459701  0.32099777  0.09914700  1
  O2-  O169  1  0.42868133  0.32183983  0.42309266  1
  O2-  O170  1  0.43241649  0.32164629  0.76295083  1
  O2-  O171  1  0.42506667  0.82027721  0.08930641  1
  O2-  O172  1  0.43090153  0.81645009  0.43366975  1
  O2-  O173  1  0.42673347  0.82195245  0.75741370  1
  O2-  O174  1  0.93236756  0.32174934  0.09019556  1
  O2-  O175  1  0.92983852  0.31928125  0.43057213  1
  O2-  O176  1  0.92717657  0.31994700  0.76823254  1
  O2-  O177  1  0.93306639  0.81938948  0.09908890  1
  O2-  O178  1  0.92532221  0.82423286  0.42231498  1
  O2-  O179  1  0.92879130  0.82149773  0.76483498  1
  O2-  O180  1  0.32503176  0.06828767  0.24307518  1
  O2-  O181  1  0.32724175  0.06949516  0.57921445  1
  O2-  O182  1  0.31678646  0.06960567  0.90916284  1
  O2-  O183  1  0.32121350  0.57392683  0.24375387  1
  O2-  O184  1  0.31762746  0.57159221  0.56947239  1
  O2-  O185  1  0.32379320  0.57313708  0.91334524  1
  O2-  O186  1  0.81966538  0.06777604  0.24551439  1
  O2-  O187  1  0.81875315  0.07055484  0.56586125  1
  O2-  O188  1  0.82265952  0.07220284  0.90533882  1
  O2-  O189  1  0.81888310  0.57488974  0.24495815  1
  O2-  O190  1  0.82052955  0.57514965  0.57566313  1
  O2-  O191  1  0.82127326  0.57222378  0.90974722  1
  O2-  O192  1  0.04016829  0.08073691  0.26459973  1
  O2-  O193  1  0.03793582  0.08627562  0.60645145  1
  O2-  O194  1  0.04693834  0.08506901  0.93983670  1
  O2-  O195  1  0.03849343  0.58740365  0.26352079  1
  O2-  O196  1  0.04451859  0.58686383  0.60516912  1
  O2-  O197  1  0.04568013  0.57804897  0.92740237  1
  O2-  O198  1  0.53991667  0.08397868  0.26222230  1
  O2-  O199  1  0.54646819  0.07795043  0.59948205  1
  O2-  O200  1  0.54227316  0.08152898  0.93103630  1
  O2-  O201  1  0.54639247  0.58172575  0.27031276  1
  O2-  O202  1  0.53973406  0.58409556  0.59637118  1
  O2-  O203  1  0.53702304  0.59049487  0.94026524  1
  O2-  O204  1  0.17385367  0.20055464  0.26838056  1
  O2-  O205  1  0.16846635  0.19015255  0.60963714  1
  O2-  O206  1  0.16219319  0.20713868  0.93461024  1
  O2-  O207  1  0.16536912  0.71196137  0.26534260  1
  O2-  O208  1  0.16768711  0.70506944  0.60844416  1
  O2-  O209  1  0.17151251  0.70578892  0.92782126  1
  O2-  O210  1  0.66616210  0.21171817  0.26369429  1
  O2-  O211  1  0.66790697  0.21153487  0.59674260  1
  O2-  O212  1  0.67362079  0.20696968  0.93523902  1
  O2-  O213  1  0.66750062  0.70017304  0.26870701  1
  O2-  O214  1  0.66484210  0.70814983  0.59279621  1
  O2-  O215  1  0.66398639  0.70117313  0.94351409  1
  O2-  O216  1  0.08581094  0.45587949  0.06199277  1
  O2-  O217  1  0.08088932  0.46237686  0.39598571  1
  O2-  O218  1  0.07859552  0.45876077  0.73699386  1
  O2-  O219  1  0.08968780  0.95479720  0.06313234  1
  O2-  O220  1  0.08135737  0.95712457  0.39897154  1
  O2-  O221  1  0.08465532  0.96397289  0.73873756  1
  O2-  O222  1  0.58373577  0.46385761  0.06832007  1
  O2-  O223  1  0.58378847  0.45842365  0.40479319  1
  O2-  O224  1  0.58852031  0.45828524  0.72491465  1
  O2-  O225  1  0.57655086  0.95463194  0.06629949  1
  O2-  O226  1  0.58496787  0.95743047  0.39592527  1
  O2-  O227  1  0.58077809  0.94400204  0.72327691  1
  O2-  O228  1  0.20633740  0.33582601  0.06217989  1
  O2-  O229  1  0.20445635  0.33120773  0.39972410  1
  O2-  O230  1  0.19904870  0.32518766  0.73339538  1
  O2-  O231  1  0.21099129  0.83500074  0.05953270  1
  O2-  O232  1  0.21500211  0.83471911  0.39939635  1
  O2-  O233  1  0.20930225  0.83485380  0.73984572  1
  O2-  O234  1  0.71093348  0.33572084  0.06723346  1
  O2-  O235  1  0.71359990  0.33144218  0.40302118  1
  O2-  O236  1  0.71178257  0.33978312  0.72778520  1
  O2-  O237  1  0.70461352  0.82934935  0.07104057  1
  O2-  O238  1  0.69973278  0.83311982  0.39499693  1
  O2-  O239  1  0.70549933  0.83175301  0.72303573  1
  O2-  O240  1  0.45207721  0.41920669  0.27444258  1
  O2-  O241  1  0.45454283  0.41870569  0.59582313  1
  O2-  O242  1  0.45350848  0.42400414  0.93593898  1
  O2-  O243  1  0.46062479  0.91365670  0.26370921  1
  O2-  O244  1  0.44745233  0.91445678  0.60327994  1
  O2-  O245  1  0.44974793  0.91511022  0.93673356  1
  O2-  O246  1  0.95232169  0.42099966  0.26362516  1
  O2-  O247  1  0.95464309  0.42117607  0.60111647  1
  O2-  O248  1  0.95693685  0.41099318  0.93661715  1
  O2-  O249  1  0.95000082  0.91806168  0.27140213  1
  O2-  O250  1  0.96165012  0.91999146  0.60029163  1
  O2-  O251  1  0.96009931  0.91999415  0.93382470  1
  O2-  O252  1  0.33373590  0.29947560  0.27214577  1
  O2-  O253  1  0.32670921  0.29318322  0.59954523  1
  O2-  O254  1  0.33048985  0.29207628  0.93094470  1
  O2-  O255  1  0.33620717  0.78686023  0.26260284  1
  O2-  O256  1  0.33186304  0.79189366  0.60732752  1
  O2-  O257  1  0.33959913  0.78892000  0.93484735  1
  O2-  O258  1  0.83374751  0.28665243  0.26410379  1
  O2-  O259  1  0.83674048  0.28728347  0.59857134  1
  O2-  O260  1  0.83765387  0.29249387  0.93938961  1
  O2-  O261  1  0.83126881  0.79873966  0.27111684  1
  O2-  O262  1  0.83601640  0.79125684  0.59419523  1
  O2-  O263  1  0.82957125  0.79377659  0.93347955  1
  O2-  O264  1  0.41215253  0.04558245  0.06077739  1
  O2-  O265  1  0.41579067  0.03830625  0.39543780  1
  O2-  O266  1  0.41803579  0.04262289  0.73229580  1
  O2-  O267  1  0.41075170  0.54550129  0.06942083  1
  O2-  O268  1  0.41665424  0.55289751  0.39523814  1
  O2-  O269  1  0.42196582  0.54179386  0.73461993  1
  O2-  O270  1  0.92121913  0.04116828  0.07275802  1
  O2-  O271  1  0.91122602  0.04285926  0.39854841  1
  O2-  O272  1  0.91250404  0.04062769  0.73619053  1
  O2-  O273  1  0.91877632  0.54549329  0.05924858  1
  O2-  O274  1  0.91579160  0.55002535  0.39551393  1
  O2-  O275  1  0.91230812  0.54939307  0.72950064  1
  O2-  O276  1  0.28975855  0.16296614  0.06163225  1
  O2-  O277  1  0.30602165  0.16658780  0.39415242  1
  O2-  O278  1  0.30062184  0.16451401  0.73194259  1
  O2-  O279  1  0.29141757  0.66390331  0.06500293  1
  O2-  O280  1  0.29233363  0.66541803  0.39566078  1
  O2-  O281  1  0.29470953  0.66598221  0.73999373  1
  O2-  O282  1  0.79648461  0.16967974  0.07384066  1
  O2-  O283  1  0.78837351  0.16020797  0.39591343  1
  O2-  O284  1  0.78696935  0.16771414  0.73406206  1
  O2-  O285  1  0.80040114  0.66556644  0.06321517  1
  O2-  O286  1  0.79576639  0.66785371  0.39734612  1
  O2-  O287  1  0.78930588  0.66583769  0.72720286  1
