# generated using pymatgen
data_Ca2Al2SiO7
_symmetry_space_group_name_H-M   'P 1'
_cell_length_a   15.45876441
_cell_length_b   15.45882146
_cell_length_c   15.28480875
_cell_angle_alpha   90.00764751
_cell_angle_beta   89.99354300
_cell_angle_gamma   90.00445318
_symmetry_Int_Tables_number   1
_chemical_formula_structural   Ca2Al2SiO7
_chemical_formula_sum   'Ca48 Al48 Si24 O168'
_cell_volume   3652.67608585
_cell_formula_units_Z   24
loop_
 _symmetry_equiv_pos_site_id
 _symmetry_equiv_pos_as_xyz
  1  'x, y, z'
loop_
 _atom_type_symbol
 _atom_type_oxidation_number
  Ca2+  2.0
  Al0+  0.0
  Si0+  0.0
  O2-  -2.0
loop_
 _atom_site_type_symbol
 _atom_site_label
 _atom_site_symmetry_multiplicity
 _atom_site_fract_x
 _atom_site_fract_y
 _atom_site_fract_z
 _atom_site_occupancy
  Ca2+  Ca0  1  0.16496115  0.08187177  0.16875976  1
  Ca2+  Ca1  1  0.17457475  0.08987460  0.50451884  1
  Ca2+  Ca2  1  0.17539422  0.07746751  0.83463580  1
  Ca2+  Ca3  1  0.17676725  0.57602030  0.17258659  1
  Ca2+  Ca4  1  0.17238980  0.56963584  0.50826098  1
  Ca2+  Ca5  1  0.18085252  0.58120652  0.83476879  1
  Ca2+  Ca6  1  0.67300750  0.07764806  0.17780830  1
  Ca2+  Ca7  1  0.66953760  0.08031869  0.50919757  1
  Ca2+  Ca8  1  0.66938725  0.07541621  0.83644151  1
  Ca2+  Ca9  1  0.66674026  0.58174830  0.16756641  1
  Ca2+  Ca10  1  0.66336604  0.57560866  0.49820050  1
  Ca2+  Ca11  1  0.66904577  0.58577057  0.84105275  1
  Ca2+  Ca12  1  0.08734493  0.32838082  0.16845127  1
  Ca2+  Ca13  1  0.08614131  0.33096270  0.49257999  1
  Ca2+  Ca14  1  0.08069348  0.33597138  0.82828422  1
  Ca2+  Ca15  1  0.07487495  0.83869861  0.16141332  1
  Ca2+  Ca16  1  0.06711059  0.83884489  0.49456731  1
  Ca2+  Ca17  1  0.07865770  0.83565077  0.82679435  1
  Ca2+  Ca18  1  0.57984867  0.33319305  0.16409600  1
  Ca2+  Ca19  1  0.57567428  0.32266821  0.49211189  1
  Ca2+  Ca20  1  0.57157313  0.32748552  0.82520147  1
  Ca2+  Ca21  1  0.58966748  0.83045334  0.16146733  1
  Ca2+  Ca22  1  0.58241349  0.84001753  0.49991450  1
  Ca2+  Ca23  1  0.58839082  0.82955089  0.82820829  1
  Ca2+  Ca24  1  0.33958976  0.41778690  0.17182138  1
  Ca2+  Ca25  1  0.32674627  0.40969015  0.50729137  1
  Ca2+  Ca26  1  0.33745221  0.41984324  0.83437658  1
  Ca2+  Ca27  1  0.32363321  0.91353124  0.16908427  1
  Ca2+  Ca28  1  0.33556657  0.92416874  0.51107499  1
  Ca2+  Ca29  1  0.33669472  0.92121138  0.83457446  1
  Ca2+  Ca30  1  0.82769615  0.42532426  0.17241102  1
  Ca2+  Ca31  1  0.82244411  0.40888829  0.50055354  1
  Ca2+  Ca32  1  0.83007069  0.42466783  0.84027142  1
  Ca2+  Ca33  1  0.82227863  0.92248344  0.17275606  1
  Ca2+  Ca34  1  0.82612543  0.92306262  0.50433536  1
  Ca2+  Ca35  1  0.82534311  0.92365160  0.83706133  1
  Ca2+  Ca36  1  0.42287343  0.18003898  0.16504924  1
  Ca2+  Ca37  1  0.42644159  0.16909301  0.49587998  1
  Ca2+  Ca38  1  0.42018570  0.17372091  0.82185538  1
  Ca2+  Ca39  1  0.42473774  0.66426219  0.15688729  1
  Ca2+  Ca40  1  0.41081179  0.67202240  0.50308092  1
  Ca2+  Ca41  1  0.41721699  0.66930426  0.82954210  1
  Ca2+  Ca42  1  0.91781064  0.15713534  0.16713696  1
  Ca2+  Ca43  1  0.92329735  0.15644105  0.49315714  1
  Ca2+  Ca44  1  0.91564379  0.15781951  0.83062664  1
  Ca2+  Ca45  1  0.91124824  0.67322396  0.16177128  1
  Ca2+  Ca46  1  0.91266227  0.68138922  0.49538448  1
  Ca2+  Ca47  1  0.91566221  0.67363776  0.82452629  1
  Al0+  Al48  1  0.00064516  0.00009258  0.00413074  1
  Al0+  Al49  1  -0.00102532  -0.00123689  0.32586299  1
  Al0+  Al50  1  -0.00135338  0.00004940  0.66470998  1
  Al0+  Al51  1  0.00104881  0.50031596  0.00395803  1
  Al0+  Al52  1  0.00328560  0.50185917  0.33742731  1
  Al0+  Al53  1  0.00030870  0.49842524  0.66815837  1
  Al0+  Al54  1  0.49842342  0.00109473  0.00555605  1
  Al0+  Al55  1  0.49861154  -0.00004218  0.32932391  1
  Al0+  Al56  1  0.50054322  -0.00225693  0.66923517  1
  Al0+  Al57  1  0.49965624  0.50118054  -0.00619602  1
  Al0+  Al58  1  0.50100009  0.50370396  0.33597363  1
  Al0+  Al59  1  0.49902262  0.50018132  0.66516670  1
  Al0+  Al60  1  0.24807980  0.24942362  -0.00616729  1
  Al0+  Al61  1  0.24939373  0.25049545  0.32691569  1
  Al0+  Al62  1  0.24757459  0.24874351  0.67418498  1
  Al0+  Al63  1  0.24918081  0.74805888  0.00890591  1
  Al0+  Al64  1  0.24841952  0.74957140  0.33436218  1
  Al0+  Al65  1  0.24928841  0.74601072  0.66410602  1
  Al0+  Al66  1  0.75141882  0.25028945  0.00173903  1
  Al0+  Al67  1  0.75222703  0.25129217  0.33643072  1
  Al0+  Al68  1  0.75103583  0.24995247  0.66955760  1
  Al0+  Al69  1  0.75044835  0.75070421  0.00140156  1
  Al0+  Al70  1  0.74905338  0.75238087  0.33252918  1
  Al0+  Al71  1  0.75028461  0.74960558  0.66240169  1
  Al0+  Al72  1  0.67876840  0.92724305  0.68274080  1
  Al0+  Al73  1  0.43020250  0.32203775  0.31898419  1
  Al0+  Al74  1  0.92891512  0.81921192  0.31543386  1
  Al0+  Al75  1  0.57246045  0.17796089  0.65330032  1
  Al0+  Al76  1  0.82081178  0.07213798  0.01739014  1
  Al0+  Al77  1  0.57418146  0.17789115  0.31753224  1
  Al0+  Al78  1  0.32223022  0.57150295  0.68279854  1
  Al0+  Al79  1  0.92959559  0.82097259  0.65288380  1
  Al0+  Al80  1  0.82258393  0.07206505  0.68263556  1
  Al0+  Al81  1  0.42710615  0.32077641  0.65071365  1
  Al0+  Al82  1  0.32189625  0.06961649  0.67878473  1
  Al0+  Al83  1  0.67698950  0.92904117  0.01590875  1
  Al0+  Al84  1  0.82264141  0.57169090  0.01194325  1
  Al0+  Al85  1  0.18193911  0.42856813  0.34618404  1
  Al0+  Al86  1  0.17821288  0.42691754  0.68415672  1
  Al0+  Al87  1  0.67900664  0.42975084  0.34618994  1
  Al0+  Al88  1  0.42955511  0.32032503  0.98377318  1
  Al0+  Al89  1  0.67630296  0.92902255  0.35103774  1
  Al0+  Al90  1  0.42840564  0.81952544  0.65550731  1
  Al0+  Al91  1  0.18124672  0.92946691  0.01255872  1
  Al0+  Al92  1  0.32169834  0.56841022  0.01485031  1
  Al0+  Al93  1  0.57135306  0.68221032  0.98642979  1
  Al0+  Al94  1  0.06995193  0.18051594  0.31913007  1
  Al0+  Al95  1  0.82212590  0.07069727  0.34953767  1
  Si0+  Si96  1  0.92878687  0.32392700  0.65254499  1
  Si0+  Si97  1  0.07132881  0.67565425  0.64892617  1
  Si0+  Si98  1  0.17705355  0.92725809  0.67841880  1
  Si0+  Si99  1  0.57381450  0.17697142  0.98375349  1
  Si0+  Si100  1  0.82279674  0.57313849  0.35034485  1
  Si0+  Si101  1  0.07287493  0.67744473  0.31484265  1
  Si0+  Si102  1  0.92795227  0.32634990  0.31699099  1
  Si0+  Si103  1  0.17760929  0.42670413  0.01802816  1
  Si0+  Si104  1  0.92928589  0.32331794  0.98608955  1
  Si0+  Si105  1  0.06861948  0.17945746  0.65383621  1
  Si0+  Si106  1  0.32145265  0.07522180  0.01801089  1
  Si0+  Si107  1  0.57373364  0.67715335  0.64775533  1
  Si0+  Si108  1  0.07224245  0.67736901  0.98535035  1
  Si0+  Si109  1  0.81971474  0.57002109  0.67884476  1
  Si0+  Si110  1  0.93132597  0.82007408  0.98378232  1
  Si0+  Si111  1  0.67827117  0.42964467  0.01384151  1
  Si0+  Si112  1  0.32358439  0.57385284  0.35190545  1
  Si0+  Si113  1  0.42545440  0.82218400  0.31784293  1
  Si0+  Si114  1  0.67850212  0.42852221  0.68188651  1
  Si0+  Si115  1  0.56924978  0.68088503  0.31847762  1
  Si0+  Si116  1  0.42455988  0.82218169  0.98650555  1
  Si0+  Si117  1  0.06899973  0.17795882  0.98205438  1
  Si0+  Si118  1  0.17820098  0.92763402  0.34852534  1
  Si0+  Si119  1  0.31832788  0.06971112  0.34539423  1
  O2-  O120  1  0.25677827  0.00216516  0.06162592  1
  O2-  O121  1  0.25004602  -0.00309197  0.39060640  1
  O2-  O122  1  0.25028554  -0.00990393  0.72351583  1
  O2-  O123  1  0.25026251  0.49089708  0.06204337  1
  O2-  O124  1  0.25732213  0.50184976  0.39344487  1
  O2-  O125  1  0.25288350  0.49664840  0.73269447  1
  O2-  O126  1  0.74432743  0.00496616  0.06608278  1
  O2-  O127  1  0.74475178  0.00502223  0.39977600  1
  O2-  O128  1  0.74910402  0.00145446  0.73142741  1
  O2-  O129  1  0.74828189  0.49704497  0.05829999  1
  O2-  O130  1  0.75793227  0.50075599  0.39422128  1
  O2-  O131  1  0.74821763  0.50131575  0.72360980  1
  O2-  O132  1  -0.00629897  0.25461095  0.27266151  1
  O2-  O133  1  -0.00207546  0.25068566  0.61183344  1
  O2-  O134  1  -0.00251175  0.24994458  0.94216472  1
  O2-  O135  1  0.00311586  0.74343954  0.26823414  1
  O2-  O136  1  0.00506317  0.74680664  0.60494891  1
  O2-  O137  1  0.00151531  0.74788925  0.94120307  1
  O2-  O138  1  0.50578137  0.25419998  0.26808941  1
  O2-  O139  1  0.49975711  0.24901475  0.60235016  1
  O2-  O140  1  0.50285359  0.24316402  0.93902593  1
  O2-  O141  1  0.49780527  0.75203446  0.27697263  1
  O2-  O142  1  0.50359047  0.74606154  0.60618967  1
  O2-  O143  1  0.49839659  0.75960861  0.94185992  1
  O2-  O144  1  0.07082307  0.17858352  0.08707527  1
  O2-  O145  1  0.07269565  0.18102290  0.43244042  1
  O2-  O146  1  0.06693752  0.17783521  0.75908935  1
  O2-  O147  1  0.07068569  0.67774649  0.09035855  1
  O2-  O148  1  0.07310580  0.67990802  0.42027135  1
  O2-  O149  1  0.06896347  0.67564410  0.75495511  1
  O2-  O150  1  0.57398151  0.18053147  0.08920092  1
  O2-  O151  1  0.57016383  0.17640494  0.43083090  1
  O2-  O152  1  0.57190536  0.18153010  0.76733951  1
  O2-  O153  1  0.56990847  0.68014429  0.09993577  1
  O2-  O154  1  0.56888187  0.67887029  0.42347452  1
  O2-  O155  1  0.57768549  0.67719088  0.75316655  1
  O2-  O156  1  0.18262378  0.43060760  0.23293979  1
  O2-  O157  1  0.17573629  0.42751145  0.57047474  1
  O2-  O158  1  0.17384730  0.42985355  0.91290158  1
  O2-  O159  1  0.18046331  0.92674075  0.24325746  1
  O2-  O160  1  0.17554339  0.93220806  0.57264173  1
  O2-  O161  1  0.18007699  0.93107223  0.89925085  1
  O2-  O162  1  0.67888402  0.43530664  0.23288675  1
  O2-  O163  1  0.68090393  0.42873482  0.57673746  1
  O2-  O164  1  0.68129329  0.43065548  0.90789103  1
  O2-  O165  1  0.67874611  0.92603043  0.23761212  1
  O2-  O166  1  0.68081966  0.92648876  0.56948875  1
  O2-  O167  1  0.68059902  0.92655371  0.90267478  1
  O2-  O168  1  0.43134362  0.32098910  0.09698037  1
  O2-  O169  1  0.42746391  0.31781085  0.43197721  1
  O2-  O170  1  0.43046060  0.31994205  0.76458769  1
  O2-  O171  1  0.42196847  0.81740289  0.09242246  1
  O2-  O172  1  0.42175084  0.82125328  0.42279799  1
  O2-  O173  1  0.42688354  0.81781783  0.76845276  1
  O2-  O174  1  0.93148465  0.32697995  0.09068811  1
  O2-  O175  1  0.93099346  0.32920659  0.42269899  1
  O2-  O176  1  0.93000686  0.32879852  0.75783593  1
  O2-  O177  1  0.93306488  0.81816362  0.08882329  1
  O2-  O178  1  0.93070123  0.81811076  0.42867410  1
  O2-  O179  1  0.93220748  0.81863233  0.76643698  1
  O2-  O180  1  0.31513631  0.06701772  0.24020818  1
  O2-  O181  1  0.31849667  0.07070685  0.56522474  1
  O2-  O182  1  0.31935416  0.07504616  0.91235119  1
  O2-  O183  1  0.32323250  0.57598102  0.24608462  1
  O2-  O184  1  0.31764692  0.57382777  0.56932912  1
  O2-  O185  1  0.31948189  0.57115182  0.90250674  1
  O2-  O186  1  0.82290080  0.06595823  0.23608412  1
  O2-  O187  1  0.82706108  0.07039396  0.56976784  1
  O2-  O188  1  0.82328867  0.06897785  0.90403450  1
  O2-  O189  1  0.82126515  0.57280712  0.24450966  1
  O2-  O190  1  0.81926336  0.56842289  0.57380837  1
  O2-  O191  1  0.82320741  0.57009934  0.89839067  1
  O2-  O192  1  0.04136421  0.08417086  0.26272860  1
  O2-  O193  1  0.04243062  0.08848772  0.60365923  1
  O2-  O194  1  0.04011429  0.08610339  0.93509285  1
  O2-  O195  1  0.05052628  0.58249758  0.26985853  1
  O2-  O196  1  0.04152660  0.58306923  0.60263323  1
  O2-  O197  1  0.04514883  0.58509358  0.93845718  1
  O2-  O198  1  0.54047030  0.08128417  0.26278423  1
  O2-  O199  1  0.54496598  0.07878413  0.60297972  1
  O2-  O200  1  0.54941600  0.08145372  0.94093200  1
  O2-  O201  1  0.54136663  0.59012196  0.26888593  1
  O2-  O202  1  0.54739035  0.58387621  0.60118146  1
  O2-  O203  1  0.54105484  0.58672416  0.93028484  1
  O2-  O204  1  0.16382448  0.21284118  0.26018011  1
  O2-  O205  1  0.16069764  0.20707898  0.60754352  1
  O2-  O206  1  0.16013688  0.20467985  0.93260535  1
  O2-  O207  1  0.16653884  0.70460632  0.26856549  1
  O2-  O208  1  0.16514956  0.69664052  0.60240640  1
  O2-  O209  1  0.16414915  0.70739761  0.93957112  1
  O2-  O210  1  0.67443502  0.20507892  0.26770197  1
  O2-  O211  1  0.67152176  0.20808426  0.60201745  1
  O2-  O212  1  0.66774109  0.20352410  0.93828215  1
  O2-  O213  1  0.66127896  0.70754722  0.27092842  1
  O2-  O214  1  0.66623584  0.70201861  0.59880082  1
  O2-  O215  1  0.66912097  0.71016660  0.93179137  1
  O2-  O216  1  0.08609935  0.45569659  0.06656689  1
  O2-  O217  1  0.08552794  0.45896107  0.40191563  1
  O2-  O218  1  0.07981367  0.45877964  0.73720369  1
  O2-  O219  1  0.08668114  0.96328615  0.06867676  1
  O2-  O220  1  0.08612725  0.95703702  0.39253898  1
  O2-  O221  1  0.08661496  0.95862088  0.72732861  1
  O2-  O222  1  0.58590823  0.45856850  0.05892108  1
  O2-  O223  1  0.58543951  0.46651088  0.40274435  1
  O2-  O224  1  0.58664189  0.45605568  0.72813664  1
  O2-  O225  1  0.57549227  0.94816200  0.06740236  1
  O2-  O226  1  0.57359816  0.95107607  0.39816133  1
  O2-  O227  1  0.57983097  0.95059795  0.73596149  1
  O2-  O228  1  0.19887535  0.33011425  0.05920137  1
  O2-  O229  1  0.21077601  0.33071012  0.39854154  1
  O2-  O230  1  0.20090393  0.32880631  0.73962587  1
  O2-  O231  1  0.20791657  0.83391070  0.07136031  1
  O2-  O232  1  0.20302063  0.83511813  0.39597953  1
  O2-  O233  1  0.19503283  0.83089152  0.72069950  1
  O2-  O234  1  0.70315521  0.33647953  0.06030792  1
  O2-  O235  1  0.70818787  0.33424359  0.40285257  1
  O2-  O236  1  0.70875479  0.33915649  0.73187751  1
  O2-  O237  1  0.71084861  0.83209996  0.06881119  1
  O2-  O238  1  0.70768617  0.83049699  0.40249005  1
  O2-  O239  1  0.71072140  0.82790157  0.73301003  1
  O2-  O240  1  0.45636465  0.42347181  0.27016754  1
  O2-  O241  1  0.45354088  0.42042302  0.59971809  1
  O2-  O242  1  0.46206397  0.41571386  0.92884031  1
  O2-  O243  1  0.44874197  0.91363113  0.26827269  1
  O2-  O244  1  0.45663234  0.91602412  0.60026305  1
  O2-  O245  1  0.44167880  0.92002662  0.94601749  1
  O2-  O246  1  0.95721072  0.41961284  0.27081167  1
  O2-  O247  1  0.95746057  0.41395767  0.60193380  1
  O2-  O248  1  0.96025033  0.41425467  0.93685472  1
  O2-  O249  1  0.96358745  0.91300321  0.25928175  1
  O2-  O250  1  0.96232294  0.91621611  0.59722016  1
  O2-  O251  1  0.96293297  0.91165867  0.93840806  1
  O2-  O252  1  0.33437142  0.28968606  0.26268455  1
  O2-  O253  1  0.32615405  0.29119066  0.60448569  1
  O2-  O254  1  0.33119015  0.29198828  0.93125966  1
  O2-  O255  1  0.33341479  0.79273610  0.27024661  1
  O2-  O256  1  0.33174773  0.78941801  0.59847000  1
  O2-  O257  1  0.33230881  0.79111220  0.94081752  1
  O2-  O258  1  0.83302753  0.30660631  0.27205510  1
  O2-  O259  1  0.83606849  0.29850813  0.60667200  1
  O2-  O260  1  0.83610432  0.30027240  0.93847210  1
  O2-  O261  1  0.83229674  0.78666814  0.26237069  1
  O2-  O262  1  0.83528860  0.78658081  0.59681702  1
  O2-  O263  1  0.83973179  0.79165912  0.93749634  1
  O2-  O264  1  0.41606338  0.05666806  0.06403130  1
  O2-  O265  1  0.41047560  0.04330962  0.39162131  1
  O2-  O266  1  0.41656462  0.04015641  0.73587492  1
  O2-  O267  1  0.41971072  0.53915309  0.06695517  1
  O2-  O268  1  0.41796173  0.55454922  0.39743659  1
  O2-  O269  1  0.42285770  0.54822679  0.73354117  1
  O2-  O270  1  0.91856460  0.04017291  0.06916687  1
  O2-  O271  1  0.92083761  0.03562607  0.39900760  1
  O2-  O272  1  0.92075567  0.04002012  0.73574202  1
  O2-  O273  1  0.91795958  0.54119651  0.06888921  1
  O2-  O274  1  0.91819124  0.55401438  0.39491948  1
  O2-  O275  1  0.91094586  0.54180139  0.72711115  1
  O2-  O276  1  0.28768441  0.16662158  0.06360904  1
  O2-  O277  1  0.28660988  0.16046086  0.39120246  1
  O2-  O278  1  0.28512729  0.16145466  0.73748512  1
  O2-  O279  1  0.28865329  0.66251140  0.07259937  1
  O2-  O280  1  0.29269787  0.66640885  0.39813916  1
  O2-  O281  1  0.28902401  0.66881708  0.73702512  1
  O2-  O282  1  0.80148558  0.17424334  0.06727985  1
  O2-  O283  1  0.80789622  0.17390665  0.39736140  1
  O2-  O284  1  0.79943821  0.17226474  0.73559082  1
  O2-  O285  1  0.79126889  0.66662069  0.06723731  1
  O2-  O286  1  0.79060173  0.66445454  0.39642144  1
  O2-  O287  1  0.79360539  0.66209647  0.72604621  1
