# generated using pymatgen
data_Ca2Al2SiO7
_symmetry_space_group_name_H-M   'P 1'
_cell_length_a   15.46042530
_cell_length_b   15.46029508
_cell_length_c   15.28592994
_cell_angle_alpha   90.00432053
_cell_angle_beta   89.99710280
_cell_angle_gamma   90.00496776
_symmetry_Int_Tables_number   1
_chemical_formula_structural   Ca2Al2SiO7
_chemical_formula_sum   'Ca48 Al48 Si24 O168'
_cell_volume   3653.68478722
_cell_formula_units_Z   24
loop_
 _symmetry_equiv_pos_site_id
 _symmetry_equiv_pos_as_xyz
  1  'x, y, z'
loop_
 _atom_type_symbol
 _atom_type_oxidation_number
  Ca2+  2.0
  Al0+  0.0
  Si0+  0.0
  O2-  -2.0
loop_
 _atom_site_type_symbol
 _atom_site_label
 _atom_site_symmetry_multiplicity
 _atom_site_fract_x
 _atom_site_fract_y
 _atom_site_fract_z
 _atom_site_occupancy
  Ca2+  Ca0  1  0.17144002  0.08073726  0.16519638  1
  Ca2+  Ca1  1  0.16177062  0.07656068  0.50931176  1
  Ca2+  Ca2  1  0.16339620  0.07283181  0.83785659  1
  Ca2+  Ca3  1  0.17174447  0.57842566  0.17105200  1
  Ca2+  Ca4  1  0.17085420  0.57981816  0.49906306  1
  Ca2+  Ca5  1  0.17504323  0.58073553  0.84074501  1
  Ca2+  Ca6  1  0.67089204  0.08747196  0.17448758  1
  Ca2+  Ca7  1  0.67500482  0.09418248  0.50482321  1
  Ca2+  Ca8  1  0.67114741  0.09034559  0.83000867  1
  Ca2+  Ca9  1  0.66606005  0.57444065  0.16773826  1
  Ca2+  Ca10  1  0.67504068  0.57308427  0.51304392  1
  Ca2+  Ca11  1  0.67382675  0.57229744  0.83438575  1
  Ca2+  Ca12  1  0.07948316  0.34513133  0.16307316  1
  Ca2+  Ca13  1  0.07235866  0.33700774  0.49502791  1
  Ca2+  Ca14  1  0.08282563  0.32658760  0.82533594  1
  Ca2+  Ca15  1  0.09086709  0.82174063  0.16178550  1
  Ca2+  Ca16  1  0.08072002  0.82836666  0.50083670  1
  Ca2+  Ca17  1  0.08813640  0.83017613  0.82716357  1
  Ca2+  Ca18  1  0.57146635  0.33317722  0.16360572  1
  Ca2+  Ca19  1  0.58317433  0.32734026  0.49660777  1
  Ca2+  Ca20  1  0.58040733  0.33487000  0.82952538  1
  Ca2+  Ca21  1  0.58141916  0.82900057  0.16219536  1
  Ca2+  Ca22  1  0.57654717  0.83185084  0.50001259  1
  Ca2+  Ca23  1  0.57320149  0.82956048  0.82425210  1
  Ca2+  Ca24  1  0.32479454  0.41871768  0.17294772  1
  Ca2+  Ca25  1  0.33628204  0.42576048  0.50205430  1
  Ca2+  Ca26  1  0.32988958  0.42490644  0.84449145  1
  Ca2+  Ca27  1  0.32945800  0.92072245  0.16450949  1
  Ca2+  Ca28  1  0.32677084  0.91642679  0.50978235  1
  Ca2+  Ca29  1  0.32471087  0.92138646  0.83613297  1
  Ca2+  Ca30  1  0.82739740  0.41001104  0.17139785  1
  Ca2+  Ca31  1  0.83151841  0.41421667  0.51089210  1
  Ca2+  Ca32  1  0.82257569  0.40654507  0.83031476  1
  Ca2+  Ca33  1  0.83150916  0.92464041  0.17439951  1
  Ca2+  Ca34  1  0.83731262  0.92778762  0.50875060  1
  Ca2+  Ca35  1  0.84145016  0.92281077  0.83172623  1
  Ca2+  Ca36  1  0.41337295  0.17833314  0.16038582  1
  Ca2+  Ca37  1  0.43105068  0.17202395  0.49127768  1
  Ca2+  Ca38  1  0.41745744  0.17189168  0.82803412  1
  Ca2+  Ca39  1  0.41053626  0.66119591  0.16261044  1
  Ca2+  Ca40  1  0.40519894  0.66897846  0.50040995  1
  Ca2+  Ca41  1  0.40816942  0.66899642  0.82622024  1
  Ca2+  Ca42  1  0.91578184  0.17068568  0.16976156  1
  Ca2+  Ca43  1  0.91634707  0.17275908  0.49970704  1
  Ca2+  Ca44  1  0.92334955  0.17053980  0.81982887  1
  Ca2+  Ca45  1  0.93336940  0.66399597  0.16081780  1
  Ca2+  Ca46  1  0.91829373  0.66891315  0.49488377  1
  Ca2+  Ca47  1  0.92357937  0.67112897  0.82461467  1
  Al0+  Al48  1  -0.00085406  0.00051917  0.00668229  1
  Al0+  Al49  1  -0.00171494  0.00102804  0.33646527  1
  Al0+  Al50  1  -0.00011761  -0.00250866  0.66816983  1
  Al0+  Al51  1  -0.00112367  0.50261229  -0.00652120  1
  Al0+  Al52  1  0.00017454  0.50080588  0.32744869  1
  Al0+  Al53  1  0.00192883  0.50058166  0.66695597  1
  Al0+  Al54  1  0.50294852  -0.00024769  0.00313898  1
  Al0+  Al55  1  0.50072005  -0.00241487  0.32922112  1
  Al0+  Al56  1  0.49986158  -0.00068840  0.65753266  1
  Al0+  Al57  1  0.50314085  0.49882430  0.00246424  1
  Al0+  Al58  1  0.49997374  0.50102921  0.33496870  1
  Al0+  Al59  1  0.50111983  0.50126650  0.67459044  1
  Al0+  Al60  1  0.24881246  0.25060754  0.00106418  1
  Al0+  Al61  1  0.24828578  0.24877967  0.33584175  1
  Al0+  Al62  1  0.25177535  0.24919594  0.66018090  1
  Al0+  Al63  1  0.24998562  0.75109642  0.00173559  1
  Al0+  Al64  1  0.24952761  0.75039519  0.33242561  1
  Al0+  Al65  1  0.24953494  0.75092045  0.66895658  1
  Al0+  Al66  1  0.74896959  0.25013689  0.00490311  1
  Al0+  Al67  1  0.75121799  0.24886910  0.32974185  1
  Al0+  Al68  1  0.74988500  0.24886973  0.66912718  1
  Al0+  Al69  1  0.75012964  0.75135193  -0.00022467  1
  Al0+  Al70  1  0.74787037  0.75159519  0.33181063  1
  Al0+  Al71  1  0.74956896  0.75052712  0.66607198  1
  Al0+  Al72  1  0.07292999  0.17641822  0.65242900  1
  Al0+  Al73  1  0.92768954  0.81979289  0.65351636  1
  Al0+  Al74  1  0.32113494  0.57101378  0.35016093  1
  Al0+  Al75  1  0.32178620  0.57108122  0.01451076  1
  Al0+  Al76  1  0.42773380  0.32073309  0.98545562  1
  Al0+  Al77  1  0.56939966  0.18015338  0.65391504  1
  Al0+  Al78  1  0.93073260  0.32072851  0.65325917  1
  Al0+  Al79  1  0.07010981  0.68068982  0.31940081  1
  Al0+  Al80  1  0.17591665  0.42716516  0.34964410  1
  Al0+  Al81  1  0.68152341  0.42857649  0.01693654  1
  Al0+  Al82  1  0.31844833  0.56929237  0.68130242  1
  Al0+  Al83  1  0.82481969  0.57405491  0.68078617  1
  Al0+  Al84  1  0.68059431  0.42747622  0.68196907  1
  Al0+  Al85  1  0.17943121  0.93115938  0.67933519  1
  Al0+  Al86  1  0.17803293  0.92943677  0.01663877  1
  Al0+  Al87  1  0.17636388  0.42850222  0.01299120  1
  Al0+  Al88  1  0.42813972  0.81905738  0.65326337  1
  Al0+  Al89  1  0.93107102  0.32046678  0.31882950  1
  Al0+  Al90  1  0.57135913  0.17894568  0.31640958  1
  Al0+  Al91  1  0.07215327  0.68040806  0.98365307  1
  Al0+  Al92  1  0.42748707  0.32246341  0.31858665  1
  Al0+  Al93  1  0.81908672  0.07039659  0.34928292  1
  Al0+  Al94  1  0.81955921  0.06890151  0.68104109  1
  Al0+  Al95  1  0.32341080  0.07185401  0.01339373  1
  Si0+  Si96  1  0.43109302  0.82124416  0.98522790  1
  Si0+  Si97  1  0.92675722  0.32031575  0.98486180  1
  Si0+  Si98  1  0.92747927  0.82340310  0.98440893  1
  Si0+  Si99  1  0.57256329  0.17766682  0.98276448  1
  Si0+  Si100  1  0.82091732  0.57254436  0.34516357  1
  Si0+  Si101  1  0.57190721  0.67723688  0.65060988  1
  Si0+  Si102  1  0.42806011  0.32585776  0.65077900  1
  Si0+  Si103  1  0.18064057  0.93031339  0.34913735  1
  Si0+  Si104  1  0.32320454  0.07092600  0.34872963  1
  Si0+  Si105  1  0.06958012  0.17791934  0.98659348  1
  Si0+  Si106  1  0.67527678  0.92762530  0.68283522  1
  Si0+  Si107  1  0.67916513  0.92755045  0.01532254  1
  Si0+  Si108  1  0.92674657  0.82322308  0.31654994  1
  Si0+  Si109  1  0.07199028  0.17467219  0.31570205  1
  Si0+  Si110  1  0.82015971  0.07079213  0.01632787  1
  Si0+  Si111  1  0.57264117  0.67920889  0.31813077  1
  Si0+  Si112  1  0.07289732  0.67852429  0.64955084  1
  Si0+  Si113  1  0.57341315  0.67847032  0.98432490  1
  Si0+  Si114  1  0.68054189  0.43018560  0.34808831  1
  Si0+  Si115  1  0.42838129  0.81944986  0.31634409  1
  Si0+  Si116  1  0.67622604  0.92575192  0.35176930  1
  Si0+  Si117  1  0.17790411  0.42471376  0.68237365  1
  Si0+  Si118  1  0.82068132  0.57521283  0.01713401  1
  Si0+  Si119  1  0.32514658  0.07236734  0.67914238  1
  O2-  O120  1  0.25089098  0.00111078  0.06577665  1
  O2-  O121  1  0.24922444  0.00330975  0.39169584  1
  O2-  O122  1  0.25113698  0.00997048  0.72385125  1
  O2-  O123  1  0.25028542  0.49843881  0.06350905  1
  O2-  O124  1  0.25197728  0.49568234  0.39903445  1
  O2-  O125  1  0.24810067  0.49114219  0.72743470  1
  O2-  O126  1  0.74962312  -0.00127428  0.05740565  1
  O2-  O127  1  0.74363384  -0.00452440  0.39481431  1
  O2-  O128  1  0.74517490  -0.00619492  0.72902399  1
  O2-  O129  1  0.75653336  0.50341127  0.06349419  1
  O2-  O130  1  0.75164957  0.50136767  0.38916511  1
  O2-  O131  1  0.75517899  0.49904699  0.73016463  1
  O2-  O132  1  0.00915837  0.24889581  0.27120206  1
  O2-  O133  1  0.00510543  0.25198937  0.60203777  1
  O2-  O134  1  0.00143565  0.25221306  0.94496348  1
  O2-  O135  1  -0.00599543  0.75457021  0.27165631  1
  O2-  O136  1  -0.00283907  0.74054558  0.60615761  1
  O2-  O137  1  -0.00287063  0.75667471  0.93983254  1
  O2-  O138  1  0.49632057  0.24747031  0.26697544  1
  O2-  O139  1  0.49459161  0.25462691  0.60747259  1
  O2-  O140  1  0.50060827  0.24285603  0.93942779  1
  O2-  O141  1  0.49952268  0.74798430  0.27504403  1
  O2-  O142  1  0.50199817  0.74399041  0.60504778  1
  O2-  O143  1  0.49796155  0.74574870  0.94335862  1
  O2-  O144  1  0.06623404  0.17401536  0.09158105  1
  O2-  O145  1  0.06786283  0.16951635  0.42078504  1
  O2-  O146  1  0.07064870  0.17629622  0.76680162  1
  O2-  O147  1  0.07007927  0.68170916  0.09702072  1
  O2-  O148  1  0.06856296  0.68343022  0.43245613  1
  O2-  O149  1  0.07501196  0.68245471  0.75506525  1
  O2-  O150  1  0.57481232  0.17840995  0.08814429  1
  O2-  O151  1  0.57207082  0.18092062  0.42997717  1
  O2-  O152  1  0.56718117  0.17878990  0.76727132  1
  O2-  O153  1  0.57695512  0.68294410  0.08984555  1
  O2-  O154  1  0.57737766  0.68179879  0.42261656  1
  O2-  O155  1  0.57181423  0.67990879  0.75634876  1
  O2-  O156  1  0.17467286  0.43186149  0.23616139  1
  O2-  O157  1  0.17705734  0.42669552  0.57701148  1
  O2-  O158  1  0.17732774  0.42808492  0.89925203  1
  O2-  O159  1  0.18232269  0.93024009  0.24414970  1
  O2-  O160  1  0.18170819  0.92920729  0.56567681  1
  O2-  O161  1  0.17733113  0.93101857  0.90325734  1
  O2-  O162  1  0.68110242  0.43247764  0.24271686  1
  O2-  O163  1  0.67999069  0.42882582  0.56779139  1
  O2-  O164  1  0.68341981  0.42679949  0.90436325  1
  O2-  O165  1  0.67813850  0.92211490  0.24565190  1
  O2-  O166  1  0.67510009  0.92789865  0.57735594  1
  O2-  O167  1  0.67725989  0.92537340  0.91074498  1
  O2-  O168  1  0.42975797  0.32052424  0.09828930  1
  O2-  O169  1  0.43328354  0.32286413  0.43238023  1
  O2-  O170  1  0.42793019  0.32479400  0.75646401  1
  O2-  O171  1  0.43469116  0.82258814  0.09075459  1
  O2-  O172  1  0.42822446  0.81997320  0.42134944  1
  O2-  O173  1  0.42973305  0.81966722  0.76662734  1
  O2-  O174  1  0.92511815  0.31770833  0.09018044  1
  O2-  O175  1  0.92799250  0.32006023  0.43127933  1
  O2-  O176  1  0.93035281  0.31640631  0.76741359  1
  O2-  O177  1  0.92462257  0.82226752  0.09015396  1
  O2-  O178  1  0.92599612  0.82235109  0.42195094  1
  O2-  O179  1  0.93101905  0.82118310  0.76674511  1
  O2-  O180  1  0.32321556  0.06766562  0.24368155  1
  O2-  O181  1  0.32673352  0.06744518  0.57339547  1
  O2-  O182  1  0.32457992  0.06842873  0.89979290  1
  O2-  O183  1  0.32028950  0.57342742  0.23710167  1
  O2-  O184  1  0.31685486  0.57053831  0.56838030  1
  O2-  O185  1  0.31993988  0.57159377  0.90081670  1
  O2-  O186  1  0.81842536  0.06712896  0.23527373  1
  O2-  O187  1  0.81813967  0.06898985  0.56834690  1
  O2-  O188  1  0.82075702  0.07087575  0.91148281  1
  O2-  O189  1  0.81727095  0.57307707  0.23995706  1
  O2-  O190  1  0.82028894  0.57440257  0.56634945  1
  O2-  O191  1  0.81622810  0.57937367  0.91217699  1
  O2-  O192  1  0.03882440  0.08363739  0.26700390  1
  O2-  O193  1  0.04005688  0.07941378  0.60006896  1
  O2-  O194  1  0.03721179  0.08658940  0.93975435  1
  O2-  O195  1  0.03880783  0.58622554  0.26229943  1
  O2-  O196  1  0.05564235  0.58265447  0.60566145  1
  O2-  O197  1  0.04048021  0.58524314  0.92705078  1
  O2-  O198  1  0.54900495  0.07704529  0.26639344  1
  O2-  O199  1  0.54150824  0.08461018  0.59612409  1
  O2-  O200  1  0.55321992  0.08125816  0.93938606  1
  O2-  O201  1  0.54683787  0.58713008  0.27077599  1
  O2-  O202  1  0.54785899  0.58269596  0.60631499  1
  O2-  O203  1  0.55191299  0.58497169  0.93911254  1
  O2-  O204  1  0.16869339  0.19154862  0.27349005  1
  O2-  O205  1  0.17369654  0.19555805  0.59970403  1
  O2-  O206  1  0.16198386  0.20118142  0.93919661  1
  O2-  O207  1  0.16544425  0.71567304  0.26520736  1
  O2-  O208  1  0.16225616  0.71433505  0.60190752  1
  O2-  O209  1  0.16891271  0.71288240  0.93086229  1
  O2-  O210  1  0.66842057  0.20947246  0.26276044  1
  O2-  O211  1  0.66570025  0.21214579  0.60098876  1
  O2-  O212  1  0.66573217  0.20800924  0.93771038  1
  O2-  O213  1  0.66231331  0.70990599  0.26615930  1
  O2-  O214  1  0.66418952  0.70420485  0.60262421  1
  O2-  O215  1  0.66286051  0.71236817  0.93573266  1
  O2-  O216  1  0.07648005  0.45893055  0.06271670  1
  O2-  O217  1  0.07805793  0.46228887  0.40082371  1
  O2-  O218  1  0.08464371  0.44978116  0.72887760  1
  O2-  O219  1  0.08016616  0.95742486  0.07190183  1
  O2-  O220  1  0.08713015  0.95537946  0.39444141  1
  O2-  O221  1  0.08369746  0.95842582  0.73565993  1
  O2-  O222  1  0.58666214  0.46184154  0.07193431  1
  O2-  O223  1  0.58968801  0.45887885  0.39569973  1
  O2-  O224  1  0.58431502  0.45851334  0.73782879  1
  O2-  O225  1  0.58888144  0.95420624  0.06648886  1
  O2-  O226  1  0.58085910  0.94816143  0.39538196  1
  O2-  O227  1  0.58191106  0.95628974  0.72826063  1
  O2-  O228  1  0.19901703  0.32907400  0.06591399  1
  O2-  O229  1  0.19507016  0.32534722  0.39962999  1
  O2-  O230  1  0.20136218  0.32897567  0.72578776  1
  O2-  O231  1  0.21054678  0.83308119  0.07032549  1
  O2-  O232  1  0.21190305  0.83993010  0.39643682  1
  O2-  O233  1  0.21522967  0.83731572  0.73472531  1
  O2-  O234  1  0.71317645  0.33300521  0.07289717  1
  O2-  O235  1  0.70965852  0.33799951  0.39245056  1
  O2-  O236  1  0.70955599  0.33077797  0.73783806  1
  O2-  O237  1  0.70764169  0.83661572  0.06544449  1
  O2-  O238  1  0.70184597  0.83223959  0.39848287  1
  O2-  O239  1  0.69711385  0.83317695  0.72839117  1
  O2-  O240  1  0.45950780  0.42073896  0.26667561  1
  O2-  O241  1  0.45791671  0.41896077  0.60624778  1
  O2-  O242  1  0.46375318  0.41687483  0.93315470  1
  O2-  O243  1  0.45748920  0.90994602  0.26675148  1
  O2-  O244  1  0.45964058  0.91308624  0.59460286  1
  O2-  O245  1  0.46469171  0.91146108  0.93812178  1
  O2-  O246  1  0.95571440  0.41766534  0.26232234  1
  O2-  O247  1  0.95424107  0.42132235  0.60146071  1
  O2-  O248  1  0.94656134  0.41417788  0.93898788  1
  O2-  O249  1  0.95360132  0.91684668  0.27114813  1
  O2-  O250  1  0.96333173  0.91375915  0.59817360  1
  O2-  O251  1  0.95153965  0.91896781  0.94143286  1
  O2-  O252  1  0.32696314  0.29535256  0.26894652  1
  O2-  O253  1  0.33430107  0.30488851  0.60351732  1
  O2-  O254  1  0.33017480  0.29223846  0.93159914  1
  O2-  O255  1  0.33715426  0.79252470  0.26806848  1
  O2-  O256  1  0.33248059  0.78687576  0.59798682  1
  O2-  O257  1  0.33784465  0.79796968  0.93972932  1
  O2-  O258  1  0.83664423  0.28494593  0.26261718  1
  O2-  O259  1  0.83261792  0.28928504  0.60203462  1
  O2-  O260  1  0.83640591  0.28576330  0.93856466  1
  O2-  O261  1  0.83179912  0.80005736  0.27084528  1
  O2-  O262  1  0.82898717  0.79681561  0.59915019  1
  O2-  O263  1  0.83358680  0.79844907  0.93791668  1
  O2-  O264  1  0.42130992  0.04164542  0.06800344  1
  O2-  O265  1  0.41467222  0.03828849  0.39442157  1
  O2-  O266  1  0.41619487  0.04003727  0.72610114  1
  O2-  O267  1  0.42258613  0.54802104  0.06447408  1
  O2-  O268  1  0.42192640  0.54794368  0.40238695  1
  O2-  O269  1  0.41702162  0.54649317  0.73493067  1
  O2-  O270  1  0.91041970  0.04366621  0.06692384  1
  O2-  O271  1  0.91551967  0.03916032  0.40313409  1
  O2-  O272  1  0.91483155  0.03586647  0.73624620  1
  O2-  O273  1  0.91615170  0.55150968  0.05856311  1
  O2-  O274  1  0.91350042  0.54770977  0.39018927  1
  O2-  O275  1  0.92509412  0.55185497  0.73205738  1
  O2-  O276  1  0.29258820  0.16869256  0.06723435  1
  O2-  O277  1  0.30132732  0.16361966  0.39594069  1
  O2-  O278  1  0.30748039  0.16915195  0.72139759  1
  O2-  O279  1  0.29506648  0.67017127  0.06636454  1
  O2-  O280  1  0.28876186  0.67000588  0.40132803  1
  O2-  O281  1  0.28512708  0.66529649  0.73469499  1
  O2-  O282  1  0.79008019  0.16087763  0.06551582  1
  O2-  O283  1  0.78750139  0.16749159  0.40107203  1
  O2-  O284  1  0.78737080  0.16354523  0.73734852  1
  O2-  O285  1  0.79186401  0.66738660  0.06562965  1
  O2-  O286  1  0.79246534  0.66509140  0.39161302  1
  O2-  O287  1  0.79320103  0.67168983  0.73438837  1
