# generated using pymatgen
data_Ca2Al2SiO7
_symmetry_space_group_name_H-M   'P 1'
_cell_length_a   15.45626955
_cell_length_b   15.45623651
_cell_length_c   15.28288294
_cell_angle_alpha   89.99914347
_cell_angle_beta   90.00856990
_cell_angle_gamma   89.99816100
_symmetry_Int_Tables_number   1
_chemical_formula_structural   Ca2Al2SiO7
_chemical_formula_sum   'Ca48 Al48 Si24 O168'
_cell_volume   3651.01585726
_cell_formula_units_Z   24
loop_
 _symmetry_equiv_pos_site_id
 _symmetry_equiv_pos_as_xyz
  1  'x, y, z'
loop_
 _atom_type_symbol
 _atom_type_oxidation_number
  Ca2+  2.0
  Al0+  0.0
  Si0+  0.0
  O2-  -2.0
loop_
 _atom_site_type_symbol
 _atom_site_label
 _atom_site_symmetry_multiplicity
 _atom_site_fract_x
 _atom_site_fract_y
 _atom_site_fract_z
 _atom_site_occupancy
  Ca2+  Ca0  1  0.17125198  0.08177380  0.17058727  1
  Ca2+  Ca1  1  0.17400071  0.07833825  0.51436067  1
  Ca2+  Ca2  1  0.17058568  0.08302497  0.82860676  1
  Ca2+  Ca3  1  0.16951870  0.57099061  0.17189992  1
  Ca2+  Ca4  1  0.16776032  0.57527339  0.51301079  1
  Ca2+  Ca5  1  0.17005457  0.57850379  0.83339093  1
  Ca2+  Ca6  1  0.67420692  0.08772659  0.16815688  1
  Ca2+  Ca7  1  0.67258831  0.08569261  0.50564468  1
  Ca2+  Ca8  1  0.66669722  0.07905360  0.84243825  1
  Ca2+  Ca9  1  0.65602932  0.57505234  0.16879646  1
  Ca2+  Ca10  1  0.66413238  0.58242227  0.50513356  1
  Ca2+  Ca11  1  0.66890987  0.58808379  0.83802401  1
  Ca2+  Ca12  1  0.07760997  0.34034371  0.16425192  1
  Ca2+  Ca13  1  0.08204499  0.33501274  0.49678588  1
  Ca2+  Ca14  1  0.08663916  0.33200533  0.82623977  1
  Ca2+  Ca15  1  0.08098619  0.83102112  0.16302318  1
  Ca2+  Ca16  1  0.08500754  0.83010148  0.50470880  1
  Ca2+  Ca17  1  0.07506976  0.83064145  0.81874772  1
  Ca2+  Ca18  1  0.58187840  0.33351456  0.15428705  1
  Ca2+  Ca19  1  0.58617004  0.33031793  0.49744476  1
  Ca2+  Ca20  1  0.58578722  0.32435689  0.83274433  1
  Ca2+  Ca21  1  0.58560291  0.82445792  0.16232953  1
  Ca2+  Ca22  1  0.57150741  0.82046039  0.49657883  1
  Ca2+  Ca23  1  0.58446051  0.82546332  0.82465427  1
  Ca2+  Ca24  1  0.32506285  0.40970169  0.16989748  1
  Ca2+  Ca25  1  0.32265518  0.42338141  0.50993951  1
  Ca2+  Ca26  1  0.32615676  0.41600677  0.83494078  1
  Ca2+  Ca27  1  0.33733575  0.91627240  0.17055963  1
  Ca2+  Ca28  1  0.33368759  0.91636474  0.51251623  1
  Ca2+  Ca29  1  0.33474151  0.91587810  0.82821451  1
  Ca2+  Ca30  1  0.81910943  0.41186294  0.17332792  1
  Ca2+  Ca31  1  0.82956949  0.42040008  0.50215854  1
  Ca2+  Ca32  1  0.82769548  0.42521288  0.83517401  1
  Ca2+  Ca33  1  0.82498816  0.92783672  0.16692138  1
  Ca2+  Ca34  1  0.83485715  0.91931710  0.50531915  1
  Ca2+  Ca35  1  0.82881104  0.92076416  0.84096893  1
  Ca2+  Ca36  1  0.42560384  0.17581811  0.15543716  1
  Ca2+  Ca37  1  0.42202386  0.16123450  0.50225356  1
  Ca2+  Ca38  1  0.42459331  0.16961504  0.82731817  1
  Ca2+  Ca39  1  0.42711141  0.66919217  0.16395589  1
  Ca2+  Ca40  1  0.41531450  0.67169208  0.49730687  1
  Ca2+  Ca41  1  0.42742664  0.66775838  0.82310525  1
  Ca2+  Ca42  1  0.91026059  0.16870535  0.16637365  1
  Ca2+  Ca43  1  0.92413095  0.17090307  0.49420147  1
  Ca2+  Ca44  1  0.92131293  0.16698215  0.82661654  1
  Ca2+  Ca45  1  0.91841297  0.66618519  0.16383263  1
  Ca2+  Ca46  1  0.91752722  0.66623305  0.50607105  1
  Ca2+  Ca47  1  0.91867542  0.67219889  0.81934141  1
  Al0+  Al48  1  0.00078041  0.00062372  0.00522997  1
  Al0+  Al49  1  0.00139103  0.00007245  0.33534733  1
  Al0+  Al50  1  0.00057124  0.00267796  0.66193269  1
  Al0+  Al51  1  0.00178834  0.49980367  0.00330143  1
  Al0+  Al52  1  -0.00187553  0.49853867  0.33156608  1
  Al0+  Al53  1  -0.00447045  0.50072445  0.67164951  1
  Al0+  Al54  1  0.49902789  -0.00117341  0.00242801  1
  Al0+  Al55  1  0.50153715  -0.00067482  0.32863205  1
  Al0+  Al56  1  0.50194875  0.00053942  0.66251820  1
  Al0+  Al57  1  0.49871868  0.50264831  -0.00605364  1
  Al0+  Al58  1  0.49838797  0.49904038  0.33519668  1
  Al0+  Al59  1  0.49889244  0.49572701  0.66725196  1
  Al0+  Al60  1  0.24851821  0.24991551  0.00185212  1
  Al0+  Al61  1  0.24988869  0.24707110  0.33796426  1
  Al0+  Al62  1  0.25061008  0.24821011  0.66961460  1
  Al0+  Al63  1  0.25024493  0.74872692  0.00190883  1
  Al0+  Al64  1  0.24972820  0.75026964  0.32681257  1
  Al0+  Al65  1  0.24842733  0.74886383  0.66898873  1
  Al0+  Al66  1  0.75204331  0.25258676  0.00092624  1
  Al0+  Al67  1  0.75266188  0.25076470  0.33930704  1
  Al0+  Al68  1  0.74999750  0.25011212  0.66346579  1
  Al0+  Al69  1  0.75180189  0.75279855  0.00229617  1
  Al0+  Al70  1  0.75102211  0.75043356  0.32827754  1
  Al0+  Al71  1  0.74987184  0.75010572  0.66105092  1
  Al0+  Al72  1  0.42907804  0.81976551  0.65382785  1
  Al0+  Al73  1  0.42803777  0.82199685  0.31604549  1
  Al0+  Al74  1  0.07186095  0.18108304  0.65363970  1
  Al0+  Al75  1  0.82246042  0.07247621  0.01422437  1
  Al0+  Al76  1  0.82020412  0.07012047  0.35030597  1
  Al0+  Al77  1  0.57182222  0.67484410  0.65140023  1
  Al0+  Al78  1  0.17758566  0.92872410  0.68146581  1
  Al0+  Al79  1  0.17772515  0.42834761  0.34819332  1
  Al0+  Al80  1  0.67720677  0.43024376  0.34729878  1
  Al0+  Al81  1  0.32454728  0.07002440  0.68280012  1
  Al0+  Al82  1  0.67924510  0.43238441  0.01085673  1
  Al0+  Al83  1  0.92775121  0.82334650  0.65146057  1
  Al0+  Al84  1  0.57158222  0.67693819  0.31663453  1
  Al0+  Al85  1  0.67666572  0.92807872  0.01510577  1
  Al0+  Al86  1  0.18006753  0.42850440  0.01612189  1
  Al0+  Al87  1  0.07022408  0.67730445  0.65368527  1
  Al0+  Al88  1  0.81639751  0.57152960  0.67918339  1
  Al0+  Al89  1  0.32272946  0.57207435  0.68240014  1
  Al0+  Al90  1  0.57167433  0.68146389  0.98474298  1
  Al0+  Al91  1  0.42603657  0.32204771  0.98408594  1
  Al0+  Al92  1  0.93037369  0.32023692  0.31886369  1
  Al0+  Al93  1  0.17697154  0.42870648  0.68227644  1
  Al0+  Al94  1  0.57287957  0.17920911  0.98611591  1
  Al0+  Al95  1  0.57188457  0.17931122  0.65193777  1
  Si0+  Si96  1  0.82141100  0.07253550  0.68049159  1
  Si0+  Si97  1  0.82311963  0.57337877  0.01731012  1
  Si0+  Si98  1  0.57261530  0.18069369  0.31859530  1
  Si0+  Si99  1  0.32026325  0.07086313  0.01593608  1
  Si0+  Si100  1  0.42703422  0.32017993  0.64822325  1
  Si0+  Si101  1  0.32184930  0.57341096  0.01868865  1
  Si0+  Si102  1  0.93236123  0.82167967  0.98711773  1
  Si0+  Si103  1  0.17914646  0.92794684  0.01598924  1
  Si0+  Si104  1  0.07006790  0.67854926  0.31722554  1
  Si0+  Si105  1  0.31968287  0.57186734  0.34891989  1
  Si0+  Si106  1  0.32271505  0.06933911  0.34723008  1
  Si0+  Si107  1  0.42730368  0.31887731  0.32084658  1
  Si0+  Si108  1  0.67801324  0.92691380  0.35173119  1
  Si0+  Si109  1  0.92992642  0.82409649  0.31558967  1
  Si0+  Si110  1  0.68090615  0.93059656  0.67832030  1
  Si0+  Si111  1  0.07099953  0.67806142  0.98592164  1
  Si0+  Si112  1  0.07062679  0.17773247  0.98623940  1
  Si0+  Si113  1  0.42533885  0.82250232  0.98200029  1
  Si0+  Si114  1  0.92977296  0.32234285  0.98474753  1
  Si0+  Si115  1  0.92734134  0.32255983  0.65030248  1
  Si0+  Si116  1  0.17985559  0.92764448  0.34763711  1
  Si0+  Si117  1  0.07302378  0.17719188  0.31550642  1
  Si0+  Si118  1  0.67721066  0.42507377  0.68397635  1
  Si0+  Si119  1  0.82239657  0.57409331  0.34896261  1
  O2-  O120  1  0.25208801  -0.00336843  0.05880968  1
  O2-  O121  1  0.25459294  -0.00498776  0.38776147  1
  O2-  O122  1  0.25207502  -0.00222513  0.73267583  1
  O2-  O123  1  0.25647768  0.50119789  0.06346883  1
  O2-  O124  1  0.25040448  0.50444984  0.39372720  1
  O2-  O125  1  0.24912679  0.50074870  0.73193287  1
  O2-  O126  1  0.74473559  0.00556020  0.06352832  1
  O2-  O127  1  0.74642105  -0.00488635  0.39760680  1
  O2-  O128  1  0.75227113  0.00059864  0.72242621  1
  O2-  O129  1  0.75200378  0.50761163  0.06125730  1
  O2-  O130  1  0.74894657  0.50940775  0.39104730  1
  O2-  O131  1  0.73911481  0.50036517  0.72716321  1
  O2-  O132  1  0.00597820  0.24657432  0.27004268  1
  O2-  O133  1  0.00003681  0.25784092  0.60658227  1
  O2-  O134  1  -0.00004058  0.24942573  0.94463639  1
  O2-  O135  1  -0.00099369  0.75008771  0.27420261  1
  O2-  O136  1  0.00127050  0.75191468  0.60213288  1
  O2-  O137  1  0.00042600  0.74901498  0.94426228  1
  O2-  O138  1  0.50132368  0.25163643  0.27708489  1
  O2-  O139  1  0.49765587  0.25340563  0.60344355  1
  O2-  O140  1  0.50025757  0.25066657  0.93598841  1
  O2-  O141  1  0.50133581  0.75124643  0.26673916  1
  O2-  O142  1  0.49463224  0.74231767  0.60304283  1
  O2-  O143  1  0.49780682  0.75776142  0.93939427  1
  O2-  O144  1  0.07147544  0.17624391  0.09159707  1
  O2-  O145  1  0.07299339  0.17649514  0.42060121  1
  O2-  O146  1  0.06749603  0.18002691  0.76739894  1
  O2-  O147  1  0.06960005  0.67969079  0.09183394  1
  O2-  O148  1  0.07123464  0.67912297  0.42147334  1
  O2-  O149  1  0.06559765  0.67767419  0.76773728  1
  O2-  O150  1  0.57136633  0.18216960  0.10056224  1
  O2-  O151  1  0.57067338  0.17972297  0.42366764  1
  O2-  O152  1  0.57482868  0.18008652  0.76466974  1
  O2-  O153  1  0.56966970  0.68058947  0.09782521  1
  O2-  O154  1  0.56932015  0.67756062  0.42959680  1
  O2-  O155  1  0.57511758  0.68094726  0.76502633  1
  O2-  O156  1  0.17995239  0.42902570  0.23470274  1
  O2-  O157  1  0.17813292  0.42946264  0.56829365  1
  O2-  O158  1  0.17685280  0.43006483  0.90400060  1
  O2-  O159  1  0.17785846  0.92967005  0.24172444  1
  O2-  O160  1  0.17732532  0.93198370  0.56734819  1
  O2-  O161  1  0.17535948  0.92816176  0.91185366  1
  O2-  O162  1  0.67756280  0.42791015  0.23386690  1
  O2-  O163  1  0.68159177  0.42186926  0.57827069  1
  O2-  O164  1  0.68425604  0.43108641  0.89826835  1
  O2-  O165  1  0.67973831  0.92894336  0.24606172  1
  O2-  O166  1  0.68248186  0.93337337  0.57318818  1
  O2-  O167  1  0.68178138  0.92622738  0.90118934  1
  O2-  O168  1  0.42500206  0.31792192  0.09891670  1
  O2-  O169  1  0.42608803  0.31571423  0.42550064  1
  O2-  O170  1  0.42726583  0.31874064  0.75362606  1
  O2-  O171  1  0.42183749  0.81916759  0.08765112  1
  O2-  O172  1  0.42500239  0.82178925  0.42888796  1
  O2-  O173  1  0.43557716  0.82274601  0.76740663  1
  O2-  O174  1  0.93025732  0.32331222  0.08998357  1
  O2-  O175  1  0.93179339  0.31952629  0.43169335  1
  O2-  O176  1  0.92411050  0.31932200  0.75619654  1
  O2-  O177  1  0.93585656  0.82144337  0.09277398  1
  O2-  O178  1  0.93105343  0.82633348  0.41996132  1
  O2-  O179  1  0.92689986  0.82330813  0.76575088  1
  O2-  O180  1  0.31950632  0.07171002  0.24165561  1
  O2-  O181  1  0.32342664  0.06842401  0.56848530  1
  O2-  O182  1  0.31865920  0.07170898  0.91158142  1
  O2-  O183  1  0.31812969  0.57034642  0.24297453  1
  O2-  O184  1  0.32111749  0.56908989  0.56806559  1
  O2-  O185  1  0.31687000  0.57793498  0.91400325  1
  O2-  O186  1  0.81851559  0.06960428  0.23719241  1
  O2-  O187  1  0.81974636  0.07322627  0.57530189  1
  O2-  O188  1  0.82842919  0.06797307  0.90079533  1
  O2-  O189  1  0.82606348  0.57229185  0.24313312  1
  O2-  O190  1  0.81779005  0.56853681  0.56605726  1
  O2-  O191  1  0.82522669  0.57281474  0.91193200  1
  O2-  O192  1  0.04648896  0.08339846  0.26898666  1
  O2-  O193  1  0.03916992  0.08725541  0.59588975  1
  O2-  O194  1  0.04250604  0.08556405  0.93964496  1
  O2-  O195  1  0.04018804  0.58786100  0.26812558  1
  O2-  O196  1  0.03572669  0.58044952  0.60046668  1
  O2-  O197  1  0.04369424  0.58601194  0.93999588  1
  O2-  O198  1  0.54623613  0.08870950  0.27073460  1
  O2-  O199  1  0.54189202  0.08433667  0.59474387  1
  O2-  O200  1  0.54495390  0.07884496  0.93712984  1
  O2-  O201  1  0.53897058  0.57827357  0.26477713  1
  O2-  O202  1  0.55071582  0.57284104  0.60322639  1
  O2-  O203  1  0.54187599  0.58593630  0.92934361  1
  O2-  O204  1  0.16804009  0.20095705  0.27044007  1
  O2-  O205  1  0.16996254  0.20632923  0.60009010  1
  O2-  O206  1  0.16196659  0.20525465  0.93920023  1
  O2-  O207  1  0.16033599  0.70690628  0.26618500  1
  O2-  O208  1  0.16886890  0.70204181  0.60042468  1
  O2-  O209  1  0.16342312  0.70569328  0.94114823  1
  O2-  O210  1  0.66490590  0.20941878  0.27410683  1
  O2-  O211  1  0.66772458  0.21154814  0.59598676  1
  O2-  O212  1  0.67213578  0.20726045  0.93421785  1
  O2-  O213  1  0.67163691  0.70278160  0.26407759  1
  O2-  O214  1  0.66714584  0.70833835  0.59602143  1
  O2-  O215  1  0.67104751  0.71120201  0.93483624  1
  O2-  O216  1  0.08428173  0.46303397  0.07160369  1
  O2-  O217  1  0.08003889  0.45872823  0.39877164  1
  O2-  O218  1  0.07769753  0.45429687  0.73453436  1
  O2-  O219  1  0.08971306  0.95868913  0.06754772  1
  O2-  O220  1  0.08942805  0.95728646  0.39542762  1
  O2-  O221  1  0.07973481  0.96297945  0.73373456  1
  O2-  O222  1  0.58050529  0.46039873  0.06283989  1
  O2-  O223  1  0.57932826  0.45501706  0.40206287  1
  O2-  O224  1  0.58080030  0.43959694  0.72634739  1
  O2-  O225  1  0.57616836  0.94828481  0.06783561  1
  O2-  O226  1  0.58343599  0.95334150  0.39493822  1
  O2-  O227  1  0.59057270  0.96000337  0.72631839  1
  O2-  O228  1  0.20706831  0.33066506  0.07093611  1
  O2-  O229  1  0.20782127  0.33076524  0.40031590  1
  O2-  O230  1  0.20665912  0.33040794  0.73438509  1
  O2-  O231  1  0.20469463  0.83543539  0.06464892  1
  O2-  O232  1  0.20325054  0.83349098  0.39163184  1
  O2-  O233  1  0.19918076  0.82935171  0.73446450  1
  O2-  O234  1  0.71187663  0.33685044  0.06661324  1
  O2-  O235  1  0.71304429  0.33631536  0.40316223  1
  O2-  O236  1  0.71206379  0.33441097  0.73144886  1
  O2-  O237  1  0.71411378  0.83369936  0.07209448  1
  O2-  O238  1  0.70515163  0.83261000  0.39492384  1
  O2-  O239  1  0.70829441  0.83853127  0.72466334  1
  O2-  O240  1  0.44930362  0.41234098  0.27469726  1
  O2-  O241  1  0.45081908  0.41357474  0.60105572  1
  O2-  O242  1  0.44915190  0.42135750  0.93268935  1
  O2-  O243  1  0.45577408  0.92106357  0.26191527  1
  O2-  O244  1  0.46192268  0.91598513  0.59851989  1
  O2-  O245  1  0.44438733  0.91890892  0.94038763  1
  O2-  O246  1  0.95883335  0.41672883  0.26241812  1
  O2-  O247  1  0.94884175  0.41715463  0.60585892  1
  O2-  O248  1  0.96014898  0.41403897  0.93818281  1
  O2-  O249  1  0.96332479  0.91391977  0.26671528  1
  O2-  O250  1  0.95575938  0.92101297  0.59719655  1
  O2-  O251  1  0.96326470  0.91293421  0.94073009  1
  O2-  O252  1  0.33675110  0.28619989  0.27229514  1
  O2-  O253  1  0.33438168  0.29210697  0.60200139  1
  O2-  O254  1  0.32796479  0.28970496  0.93286477  1
  O2-  O255  1  0.32926390  0.79466484  0.26056156  1
  O2-  O256  1  0.32778129  0.79879616  0.60412455  1
  O2-  O257  1  0.33151523  0.79460702  0.93686419  1
  O2-  O258  1  0.83374310  0.28599168  0.26603469  1
  O2-  O259  1  0.83647878  0.29227837  0.60148839  1
  O2-  O260  1  0.83886880  0.29660463  0.93568033  1
  O2-  O261  1  0.83800011  0.79878781  0.26712094  1
  O2-  O262  1  0.83219955  0.79270379  0.59475406  1
  O2-  O263  1  0.83969607  0.79765514  0.94106018  1
  O2-  O264  1  0.41208044  0.04623608  0.06532481  1
  O2-  O265  1  0.41662297  0.04542661  0.39198672  1
  O2-  O266  1  0.42358624  0.04194976  0.73459799  1
  O2-  O267  1  0.41683089  0.55092530  0.06199585  1
  O2-  O268  1  0.41230637  0.54594483  0.39529308  1
  O2-  O269  1  0.42087993  0.54117375  0.73529393  1
  O2-  O270  1  0.91834046  0.03862426  0.07164466  1
  O2-  O271  1  0.91875754  0.03980188  0.40102712  1
  O2-  O272  1  0.91382168  0.04693971  0.72654999  1
  O2-  O273  1  0.91586805  0.54515567  0.06451658  1
  O2-  O274  1  0.91390697  0.54317328  0.39594496  1
  O2-  O275  1  0.91038821  0.53929648  0.73785028  1
  O2-  O276  1  0.28768260  0.16009440  0.06610563  1
  O2-  O277  1  0.29287090  0.15871361  0.39765881  1
  O2-  O278  1  0.29422346  0.16700301  0.73647913  1
  O2-  O279  1  0.29143927  0.66502414  0.06852703  1
  O2-  O280  1  0.29333364  0.66689142  0.39129117  1
  O2-  O281  1  0.29683628  0.67020908  0.73611915  1
  O2-  O282  1  0.79876080  0.17226748  0.06647951  1
  O2-  O283  1  0.79007512  0.16568051  0.40554472  1
  O2-  O284  1  0.79267922  0.16414857  0.72770128  1
  O2-  O285  1  0.80273356  0.66836450  0.06263232  1
  O2-  O286  1  0.80343260  0.67043030  0.39203472  1
  O2-  O287  1  0.79032088  0.67009069  0.73264660  1
