# generated using pymatgen
data_Ca2Al2SiO7
_symmetry_space_group_name_H-M   'P 1'
_cell_length_a   15.45781513
_cell_length_b   15.45896571
_cell_length_c   15.28416040
_cell_angle_alpha   89.98798671
_cell_angle_beta   90.00156566
_cell_angle_gamma   89.99899188
_symmetry_Int_Tables_number   1
_chemical_formula_structural   Ca2Al2SiO7
_chemical_formula_sum   'Ca48 Al48 Si24 O168'
_cell_volume   3652.33092008
_cell_formula_units_Z   24
loop_
 _symmetry_equiv_pos_site_id
 _symmetry_equiv_pos_as_xyz
  1  'x, y, z'
loop_
 _atom_type_symbol
 _atom_type_oxidation_number
  Ca2+  2.0
  Al0+  0.0
  Si0+  0.0
  O2-  -2.0
loop_
 _atom_site_type_symbol
 _atom_site_label
 _atom_site_symmetry_multiplicity
 _atom_site_fract_x
 _atom_site_fract_y
 _atom_site_fract_z
 _atom_site_occupancy
  Ca2+  Ca0  1  0.16208582  0.08211668  0.17038144  1
  Ca2+  Ca1  1  0.17179438  0.08584298  0.50381374  1
  Ca2+  Ca2  1  0.17670596  0.08373387  0.84505850  1
  Ca2+  Ca3  1  0.16927419  0.59051828  0.17389005  1
  Ca2+  Ca4  1  0.17422469  0.59229484  0.50427368  1
  Ca2+  Ca5  1  0.16460219  0.58911110  0.83400116  1
  Ca2+  Ca6  1  0.67363029  0.07123263  0.17767969  1
  Ca2+  Ca7  1  0.67415984  0.08980754  0.50282344  1
  Ca2+  Ca8  1  0.67300260  0.08204714  0.83555679  1
  Ca2+  Ca9  1  0.67302266  0.58087179  0.18243492  1
  Ca2+  Ca10  1  0.66759163  0.57356970  0.49729918  1
  Ca2+  Ca11  1  0.66688371  0.57347759  0.83568723  1
  Ca2+  Ca12  1  0.08488559  0.32146760  0.16537157  1
  Ca2+  Ca13  1  0.07622891  0.32676832  0.49623813  1
  Ca2+  Ca14  1  0.07568287  0.32762441  0.82962706  1
  Ca2+  Ca15  1  0.07115574  0.82726531  0.16083485  1
  Ca2+  Ca16  1  0.07767302  0.82508066  0.49182236  1
  Ca2+  Ca17  1  0.08688378  0.82946638  0.83429587  1
  Ca2+  Ca18  1  0.58171445  0.33263302  0.17229401  1
  Ca2+  Ca19  1  0.58425155  0.32771639  0.49223879  1
  Ca2+  Ca20  1  0.58316616  0.32526034  0.82234318  1
  Ca2+  Ca21  1  0.59447547  0.82984628  0.16595108  1
  Ca2+  Ca22  1  0.58223520  0.82854790  0.48988401  1
  Ca2+  Ca23  1  0.58337648  0.83686186  0.83260922  1
  Ca2+  Ca24  1  0.33218438  0.42030923  0.17782774  1
  Ca2+  Ca25  1  0.33798093  0.42491899  0.49938271  1
  Ca2+  Ca26  1  0.33209899  0.42464219  0.83443223  1
  Ca2+  Ca27  1  0.32438077  0.92043737  0.16549430  1
  Ca2+  Ca28  1  0.33091408  0.92224653  0.50619808  1
  Ca2+  Ca29  1  0.32718418  0.92831407  0.84011114  1
  Ca2+  Ca30  1  0.82873670  0.42644791  0.17850012  1
  Ca2+  Ca31  1  0.82419441  0.41311032  0.50444467  1
  Ca2+  Ca32  1  0.83116283  0.41106591  0.83020214  1
  Ca2+  Ca33  1  0.83029133  0.91309979  0.17560906  1
  Ca2+  Ca34  1  0.83288376  0.92468982  0.49607002  1
  Ca2+  Ca35  1  0.83067648  0.91837548  0.83812642  1
  Ca2+  Ca36  1  0.41988705  0.16826489  0.16590311  1
  Ca2+  Ca37  1  0.42926855  0.16899396  0.49173770  1
  Ca2+  Ca38  1  0.42120051  0.15944902  0.82599248  1
  Ca2+  Ca39  1  0.42225635  0.66378542  0.17067353  1
  Ca2+  Ca40  1  0.41861528  0.66224194  0.49179099  1
  Ca2+  Ca41  1  0.41430217  0.67025979  0.82692031  1
  Ca2+  Ca42  1  0.92686053  0.15657108  0.16808776  1
  Ca2+  Ca43  1  0.91309950  0.16734621  0.49420674  1
  Ca2+  Ca44  1  0.92063609  0.16619386  0.82639207  1
  Ca2+  Ca45  1  0.91661439  0.67490071  0.16227967  1
  Ca2+  Ca46  1  0.92519170  0.66934684  0.48828126  1
  Ca2+  Ca47  1  0.92738484  0.67517921  0.82848507  1
  Al0+  Al48  1  0.00137126  0.00007186  -0.00707067  1
  Al0+  Al49  1  -0.00045688  -0.00208252  0.33179349  1
  Al0+  Al50  1  -0.00054760  -0.00205957  0.67064505  1
  Al0+  Al51  1  0.00000751  0.49976067  -0.00355397  1
  Al0+  Al52  1  0.00301909  0.49768714  0.33353455  1
  Al0+  Al53  1  0.00014324  0.49967042  0.65882460  1
  Al0+  Al54  1  0.50145455  -0.00016249  0.00790647  1
  Al0+  Al55  1  0.49836483  -0.00029307  0.33147293  1
  Al0+  Al56  1  0.49961098  -0.00094982  0.66533968  1
  Al0+  Al57  1  0.49947664  0.49892913  -0.00100903  1
  Al0+  Al58  1  0.49845482  0.50110910  0.33240937  1
  Al0+  Al59  1  0.49941252  0.49993971  0.67713516  1
  Al0+  Al60  1  0.25178398  0.25443701  -0.00151049  1
  Al0+  Al61  1  0.24991859  0.25132115  0.32805474  1
  Al0+  Al62  1  0.25036188  0.25295930  0.67132618  1
  Al0+  Al63  1  0.25276348  0.75220306  0.00092809  1
  Al0+  Al64  1  0.25006642  0.75107814  0.33396053  1
  Al0+  Al65  1  0.25108952  0.75077817  0.66741392  1
  Al0+  Al66  1  0.74748460  0.24974984  0.00228997  1
  Al0+  Al67  1  0.74922828  0.24927550  0.33252296  1
  Al0+  Al68  1  0.74988967  0.24873495  0.66906129  1
  Al0+  Al69  1  0.75072478  0.74796679  -0.00488237  1
  Al0+  Al70  1  0.74937558  0.74964819  0.33640189  1
  Al0+  Al71  1  0.75006671  0.74901304  0.66647376  1
  Al0+  Al72  1  0.07307352  0.67869083  0.98398594  1
  Al0+  Al73  1  0.17794183  0.92965169  0.01649344  1
  Al0+  Al74  1  0.43052187  0.32082487  0.31911947  1
  Al0+  Al75  1  0.67885172  0.42947215  0.34772069  1
  Al0+  Al76  1  0.07347150  0.67680132  0.31856404  1
  Al0+  Al77  1  0.32098602  0.07230203  0.67784259  1
  Al0+  Al78  1  0.07122801  0.68161918  0.65099211  1
  Al0+  Al79  1  0.68053877  0.42961984  0.68155917  1
  Al0+  Al80  1  0.82201574  0.06946981  0.34734031  1
  Al0+  Al81  1  0.57379470  0.17654660  0.31584292  1
  Al0+  Al82  1  0.07138858  0.18009491  0.98541679  1
  Al0+  Al83  1  0.56878725  0.68111008  0.32211214  1
  Al0+  Al84  1  0.82059389  0.07016670  0.68148917  1
  Al0+  Al85  1  0.82473773  0.57195777  0.34834381  1
  Al0+  Al86  1  0.92692722  0.82160736  0.98187860  1
  Al0+  Al87  1  0.31937134  0.57079340  0.68180839  1
  Al0+  Al88  1  0.67622473  0.92762600  0.34961452  1
  Al0+  Al89  1  0.31768121  0.57101821  0.34593366  1
  Al0+  Al90  1  0.68164968  0.92810296  0.01294499  1
  Al0+  Al91  1  0.32142531  0.07443816  0.01760451  1
  Al0+  Al92  1  0.56899012  0.17854208  0.65407413  1
  Al0+  Al93  1  0.92893665  0.81879894  0.31936764  1
  Al0+  Al94  1  0.92906178  0.31809388  0.65272562  1
  Al0+  Al95  1  0.07003281  0.17914529  0.32210637  1
  Si0+  Si96  1  0.82249360  0.07363556  0.01544194  1
  Si0+  Si97  1  0.43071157  0.81985048  0.65259134  1
  Si0+  Si98  1  0.07391361  0.17643397  0.65225550  1
  Si0+  Si99  1  0.17958929  0.93022241  0.34865297  1
  Si0+  Si100  1  0.42716542  0.32464234  0.65193925  1
  Si0+  Si101  1  0.17840485  0.42413068  0.35097794  1
  Si0+  Si102  1  0.67696012  0.42806047  0.01610709  1
  Si0+  Si103  1  0.17915876  0.92852511  0.68277075  1
  Si0+  Si104  1  0.92536935  0.82345447  0.64765351  1
  Si0+  Si105  1  0.17832476  0.43118287  0.01448400  1
  Si0+  Si106  1  0.17470291  0.42846209  0.68458646  1
  Si0+  Si107  1  0.67732820  0.92566941  0.68305088  1
  Si0+  Si108  1  0.43129931  0.82160583  0.98525365  1
  Si0+  Si109  1  0.43000286  0.32365512  0.98159904  1
  Si0+  Si110  1  0.92640556  0.32216177  0.31663220  1
  Si0+  Si111  1  0.81988417  0.56831068  0.01186952  1
  Si0+  Si112  1  0.42543333  0.82446464  0.31540846  1
  Si0+  Si113  1  0.32205259  0.57159715  0.01580453  1
  Si0+  Si114  1  0.31991956  0.07357173  0.34799576  1
  Si0+  Si115  1  0.82408949  0.57269364  0.68400764  1
  Si0+  Si116  1  0.57073387  0.67698258  0.98356208  1
  Si0+  Si117  1  0.57068233  0.67650546  0.65371257  1
  Si0+  Si118  1  0.56912114  0.17889943  0.98478875  1
  Si0+  Si119  1  0.92580025  0.32214198  0.98431486  1
  O2-  O120  1  0.24442356  0.00721521  0.06711192  1
  O2-  O121  1  0.25067233  0.00140142  0.39107627  1
  O2-  O122  1  0.24119538  0.00397697  0.72577193  1
  O2-  O123  1  0.24649683  0.50525670  0.05633221  1
  O2-  O124  1  0.24102455  0.49910709  0.39386335  1
  O2-  O125  1  0.24317865  0.49804449  0.72909914  1
  O2-  O126  1  0.75916310  -0.00020884  0.05837141  1
  O2-  O127  1  0.74478802  0.00328742  0.39865548  1
  O2-  O128  1  0.74747580  -0.00717784  0.72686351  1
  O2-  O129  1  0.74970950  0.49747198  0.05581898  1
  O2-  O130  1  0.75502788  0.49706866  0.39781731  1
  O2-  O131  1  0.75505353  0.50448440  0.72986483  1
  O2-  O132  1  -0.00591292  0.25190303  0.27348343  1
  O2-  O133  1  0.00306674  0.24185359  0.60727138  1
  O2-  O134  1  -0.00812515  0.25072310  0.94023982  1
  O2-  O135  1  -0.00369928  0.74244688  0.26888549  1
  O2-  O136  1  -0.00615913  0.75363653  0.60556844  1
  O2-  O137  1  0.00327962  0.75256124  0.93350201  1
  O2-  O138  1  0.50098407  0.24872006  0.26650167  1
  O2-  O139  1  0.49222665  0.25237378  0.60923932  1
  O2-  O140  1  0.49795161  0.24926344  0.94038603  1
  O2-  O141  1  0.49874498  0.75940010  0.27291036  1
  O2-  O142  1  0.50188640  0.74915114  0.61131802  1
  O2-  O143  1  0.50137886  0.74972287  0.94147011  1
  O2-  O144  1  0.07129305  0.18271929  0.09852087  1
  O2-  O145  1  0.07287836  0.18098934  0.43531945  1
  O2-  O146  1  0.07437562  0.17958500  0.75789754  1
  O2-  O147  1  0.07047658  0.67639289  0.09671081  1
  O2-  O148  1  0.07652671  0.68385542  0.43220402  1
  O2-  O149  1  0.07172791  0.68458419  0.76424225  1
  O2-  O150  1  0.56957231  0.18170878  0.08913226  1
  O2-  O151  1  0.57112205  0.17730136  0.42972233  1
  O2-  O152  1  0.56745639  0.17839144  0.76814498  1
  O2-  O153  1  0.56986182  0.67403691  0.08828691  1
  O2-  O154  1  0.56440186  0.67931071  0.43553771  1
  O2-  O155  1  0.56903016  0.67774870  0.75950136  1
  O2-  O156  1  0.18151611  0.42060617  0.24504510  1
  O2-  O157  1  0.17555052  0.42538458  0.57960123  1
  O2-  O158  1  0.18033447  0.43054515  0.90928772  1
  O2-  O159  1  0.18058405  0.93060519  0.24388834  1
  O2-  O160  1  0.18229245  0.92697497  0.57691162  1
  O2-  O161  1  0.18459658  0.92868296  0.90250363  1
  O2-  O162  1  0.67961772  0.43328888  0.23324580  1
  O2-  O163  1  0.67844929  0.43131762  0.56940555  1
  O2-  O164  1  0.67575823  0.42804918  0.91088684  1
  O2-  O165  1  0.67992198  0.92733949  0.23576147  1
  O2-  O166  1  0.67502475  0.92338147  0.57838453  1
  O2-  O167  1  0.67898962  0.93163156  0.89933603  1
  O2-  O168  1  0.43200230  0.32918370  0.08599156  1
  O2-  O169  1  0.42961017  0.31930048  0.43294364  1
  O2-  O170  1  0.42956296  0.32549915  0.75810748  1
  O2-  O171  1  0.43055412  0.81923956  0.08989463  1
  O2-  O172  1  0.42247613  0.82336716  0.42148004  1
  O2-  O173  1  0.43120760  0.82004443  0.75807591  1
  O2-  O174  1  0.92663310  0.32587085  0.08939400  1
  O2-  O175  1  0.92763476  0.32152825  0.42225212  1
  O2-  O176  1  0.93112944  0.31665931  0.76647217  1
  O2-  O177  1  0.92242261  0.81658334  0.09476194  1
  O2-  O178  1  0.93404261  0.82205676  0.43309766  1
  O2-  O179  1  0.92396051  0.82248634  0.75324565  1
  O2-  O180  1  0.31774496  0.07360844  0.24313991  1
  O2-  O181  1  0.32108096  0.06896727  0.56459911  1
  O2-  O182  1  0.32324246  0.07077620  0.90343076  1
  O2-  O183  1  0.31825528  0.56960179  0.23231526  1
  O2-  O184  1  0.32128236  0.57023898  0.56929869  1
  O2-  O185  1  0.32545991  0.56927198  0.91058529  1
  O2-  O186  1  0.82502428  0.06584974  0.23357348  1
  O2-  O187  1  0.82050978  0.07067119  0.56910876  1
  O2-  O188  1  0.81686518  0.07832889  0.90969878  1
  O2-  O189  1  0.82138910  0.57070633  0.23353227  1
  O2-  O190  1  0.82217719  0.57309918  0.57925137  1
  O2-  O191  1  0.81751273  0.56641358  0.90664908  1
  O2-  O192  1  0.04037060  0.08301951  0.26710349  1
  O2-  O193  1  0.05300255  0.08024387  0.61007704  1
  O2-  O194  1  0.04787848  0.08321519  0.92920143  1
  O2-  O195  1  0.05711700  0.57383106  0.27052361  1
  O2-  O196  1  0.04634188  0.58338127  0.59846959  1
  O2-  O197  1  0.04322862  0.58017293  0.93009957  1
  O2-  O198  1  0.54289631  0.07836461  0.26355973  1
  O2-  O199  1  0.53952559  0.08185738  0.59982809  1
  O2-  O200  1  0.54168429  0.08600602  0.93935195  1
  O2-  O201  1  0.53388293  0.58754525  0.26458332  1
  O2-  O202  1  0.53893433  0.58512059  0.60928286  1
  O2-  O203  1  0.53934140  0.58602199  0.93496536  1
  O2-  O204  1  0.16428023  0.21192551  0.26486739  1
  O2-  O205  1  0.16732308  0.20552012  0.60693010  1
  O2-  O206  1  0.16727419  0.21671420  0.93210311  1
  O2-  O207  1  0.16997485  0.71156980  0.26541909  1
  O2-  O208  1  0.16845268  0.71500466  0.59921667  1
  O2-  O209  1  0.17407585  0.70576741  0.93376966  1
  O2-  O210  1  0.67182071  0.20439959  0.26185476  1
  O2-  O211  1  0.66486426  0.21170092  0.60261285  1
  O2-  O212  1  0.66124303  0.20839377  0.93743355  1
  O2-  O213  1  0.66606755  0.70769988  0.26770575  1
  O2-  O214  1  0.66380525  0.70042959  0.60792909  1
  O2-  O215  1  0.66186337  0.70204559  0.93390031  1
  O2-  O216  1  0.08478435  0.45379172  0.06075840  1
  O2-  O217  1  0.08276339  0.44150777  0.39512420  1
  O2-  O218  1  0.08114178  0.45508062  0.73051671  1
  O2-  O219  1  0.07652731  0.95302784  0.06467274  1
  O2-  O220  1  0.08905349  0.95844800  0.39724978  1
  O2-  O221  1  0.08344037  0.94461849  0.72753780  1
  O2-  O222  1  0.58556407  0.45878526  0.06218702  1
  O2-  O223  1  0.58196637  0.46278360  0.39991339  1
  O2-  O224  1  0.58580872  0.46135138  0.74042461  1
  O2-  O225  1  0.58659824  0.95816297  0.06897756  1
  O2-  O226  1  0.57395072  0.94952614  0.39857151  1
  O2-  O227  1  0.58402025  0.95303181  0.72960793  1
  O2-  O228  1  0.21039509  0.34160761  0.06328827  1
  O2-  O229  1  0.21067327  0.33362559  0.39977197  1
  O2-  O230  1  0.20135005  0.33620977  0.73427603  1
  O2-  O231  1  0.21404346  0.83326112  0.06971090  1
  O2-  O232  1  0.21025099  0.83998820  0.39757290  1
  O2-  O233  1  0.21407504  0.83900113  0.73117549  1
  O2-  O234  1  0.70151183  0.33558528  0.06321614  1
  O2-  O235  1  0.70266953  0.32940798  0.39823241  1
  O2-  O236  1  0.71270704  0.33426965  0.73769223  1
  O2-  O237  1  0.70748525  0.82788477  0.06234516  1
  O2-  O238  1  0.70492039  0.83042334  0.40393914  1
  O2-  O239  1  0.70101505  0.83117365  0.73041775  1
  O2-  O240  1  0.45901355  0.41836933  0.26389759  1
  O2-  O241  1  0.45690613  0.41804142  0.60829221  1
  O2-  O242  1  0.46177249  0.41393667  0.93156881  1
  O2-  O243  1  0.44408730  0.91898171  0.26932310  1
  O2-  O244  1  0.45753305  0.91059771  0.60291364  1
  O2-  O245  1  0.46161594  0.91339392  0.93848032  1
  O2-  O246  1  0.95471128  0.41455008  0.26903948  1
  O2-  O247  1  0.95823614  0.41405607  0.59736389  1
  O2-  O248  1  0.95432755  0.41357191  0.93464145  1
  O2-  O249  1  0.96231044  0.91464817  0.26461064  1
  O2-  O250  1  0.95286447  0.91728692  0.60329949  1
  O2-  O251  1  0.95092254  0.92095073  0.92891437  1
  O2-  O252  1  0.33290233  0.29301148  0.26363151  1
  O2-  O253  1  0.33107975  0.30550416  0.60894381  1
  O2-  O254  1  0.33682957  0.30190210  0.93444290  1
  O2-  O255  1  0.33491853  0.79249168  0.26735875  1
  O2-  O256  1  0.33952759  0.79199586  0.60450586  1
  O2-  O257  1  0.34073506  0.79351994  0.93533062  1
  O2-  O258  1  0.83267248  0.30057025  0.26993506  1
  O2-  O259  1  0.83265163  0.28733412  0.60009423  1
  O2-  O260  1  0.83025730  0.29851691  0.93971245  1
  O2-  O261  1  0.82919072  0.79401338  0.26851930  1
  O2-  O262  1  0.83079859  0.79896463  0.60324236  1
  O2-  O263  1  0.83069459  0.78725589  0.92540365  1
  O2-  O264  1  0.41727045  0.04030479  0.07140273  1
  O2-  O265  1  0.41219232  0.04663769  0.39428281  1
  O2-  O266  1  0.41537242  0.03486371  0.73318199  1
  O2-  O267  1  0.41276387  0.53815108  0.06269214  1
  O2-  O268  1  0.41302008  0.53762196  0.40029051  1
  O2-  O269  1  0.41375262  0.53987858  0.74116370  1
  O2-  O270  1  0.91942525  0.05406097  0.05478409  1
  O2-  O271  1  0.91924710  0.03770468  0.40215332  1
  O2-  O272  1  0.91833890  0.04210165  0.73626679  1
  O2-  O273  1  0.91206635  0.54142489  0.05856344  1
  O2-  O274  1  0.92512879  0.54674013  0.39859638  1
  O2-  O275  1  0.91789553  0.54491766  0.72853213  1
  O2-  O276  1  0.29984748  0.17678241  0.06470957  1
  O2-  O277  1  0.28994405  0.16463467  0.39500693  1
  O2-  O278  1  0.29794480  0.17078051  0.73269034  1
  O2-  O279  1  0.30134087  0.66523094  0.06142272  1
  O2-  O280  1  0.29133715  0.66882042  0.40089852  1
  O2-  O281  1  0.29050196  0.66847028  0.73591153  1
  O2-  O282  1  0.79266861  0.16531765  0.06369837  1
  O2-  O283  1  0.79801243  0.17010875  0.39743447  1
  O2-  O284  1  0.78720577  0.16450130  0.73819938  1
  O2-  O285  1  0.79027080  0.65955962  0.05802814  1
  O2-  O286  1  0.79389557  0.66807945  0.40263710  1
  O2-  O287  1  0.79750577  0.66637638  0.73084959  1
