# generated using pymatgen
data_Ca2Al2SiO7
_symmetry_space_group_name_H-M   'P 1'
_cell_length_a   15.46304746
_cell_length_b   15.46528976
_cell_length_c   15.28821204
_cell_angle_alpha   89.99487631
_cell_angle_beta   90.00138519
_cell_angle_gamma   90.00293876
_symmetry_Int_Tables_number   1
_chemical_formula_structural   Ca2Al2SiO7
_chemical_formula_sum   'Ca48 Al48 Si24 O168'
_cell_volume   3656.03079631
_cell_formula_units_Z   24
loop_
 _symmetry_equiv_pos_site_id
 _symmetry_equiv_pos_as_xyz
  1  'x, y, z'
loop_
 _atom_type_symbol
 _atom_type_oxidation_number
  Ca2+  2.0
  Al0+  0.0
  Si0+  0.0
  O2-  -2.0
loop_
 _atom_site_type_symbol
 _atom_site_label
 _atom_site_symmetry_multiplicity
 _atom_site_fract_x
 _atom_site_fract_y
 _atom_site_fract_z
 _atom_site_occupancy
  Ca2+  Ca0  1  0.17688104  0.07908037  0.16955943  1
  Ca2+  Ca1  1  0.17025008  0.08744510  0.50629136  1
  Ca2+  Ca2  1  0.16706527  0.07262435  0.83805616  1
  Ca2+  Ca3  1  0.17431718  0.57828422  0.17765951  1
  Ca2+  Ca4  1  0.16842255  0.57300049  0.50448976  1
  Ca2+  Ca5  1  0.16149711  0.57543679  0.83280165  1
  Ca2+  Ca6  1  0.67091667  0.07651122  0.17465250  1
  Ca2+  Ca7  1  0.66581817  0.07604932  0.50919502  1
  Ca2+  Ca8  1  0.67595067  0.08233865  0.83271355  1
  Ca2+  Ca9  1  0.67092422  0.59227266  0.16531081  1
  Ca2+  Ca10  1  0.67066036  0.58196748  0.51080317  1
  Ca2+  Ca11  1  0.67309880  0.59462335  0.83350748  1
  Ca2+  Ca12  1  0.09051702  0.32818071  0.16938742  1
  Ca2+  Ca13  1  0.08333005  0.32934333  0.49964581  1
  Ca2+  Ca14  1  0.07747508  0.32471495  0.82038558  1
  Ca2+  Ca15  1  0.07838055  0.83493099  0.15678446  1
  Ca2+  Ca16  1  0.07465136  0.84467340  0.50252145  1
  Ca2+  Ca17  1  0.07509595  0.84201420  0.82700301  1
  Ca2+  Ca18  1  0.58214919  0.32573186  0.16488877  1
  Ca2+  Ca19  1  0.58733821  0.31766126  0.49710499  1
  Ca2+  Ca20  1  0.58096985  0.32544250  0.82541873  1
  Ca2+  Ca21  1  0.57765203  0.83111100  0.15828054  1
  Ca2+  Ca22  1  0.58423343  0.83579837  0.50099227  1
  Ca2+  Ca23  1  0.57451733  0.83152054  0.82387879  1
  Ca2+  Ca24  1  0.32889950  0.42574718  0.17875083  1
  Ca2+  Ca25  1  0.32319372  0.41765167  0.50329870  1
  Ca2+  Ca26  1  0.32671629  0.41360440  0.83379211  1
  Ca2+  Ca27  1  0.33589638  0.92261880  0.16801254  1
  Ca2+  Ca28  1  0.32906490  0.92141155  0.50775802  1
  Ca2+  Ca29  1  0.32557307  0.91225929  0.83734181  1
  Ca2+  Ca30  1  0.83284825  0.42471507  0.16666145  1
  Ca2+  Ca31  1  0.83887684  0.42314663  0.51059030  1
  Ca2+  Ca32  1  0.83913119  0.42871991  0.83408342  1
  Ca2+  Ca33  1  0.82938490  0.91836876  0.16656151  1
  Ca2+  Ca34  1  0.82161543  0.92032099  0.51163240  1
  Ca2+  Ca35  1  0.83543937  0.92313056  0.83484786  1
  Ca2+  Ca36  1  0.41860576  0.15658907  0.16651234  1
  Ca2+  Ca37  1  0.42768259  0.15794190  0.49523791  1
  Ca2+  Ca38  1  0.42130933  0.16124007  0.82852108  1
  Ca2+  Ca39  1  0.41986628  0.67291348  0.15485905  1
  Ca2+  Ca40  1  0.41604505  0.67161491  0.50006710  1
  Ca2+  Ca41  1  0.42694069  0.67727947  0.82602974  1
  Ca2+  Ca42  1  0.92434885  0.16216642  0.16185848  1
  Ca2+  Ca43  1  0.92994183  0.15982223  0.50136088  1
  Ca2+  Ca44  1  0.91756916  0.16796469  0.81969899  1
  Ca2+  Ca45  1  0.91809675  0.67350654  0.15668204  1
  Ca2+  Ca46  1  0.91179377  0.67251867  0.50404596  1
  Ca2+  Ca47  1  0.90883935  0.67766990  0.82819280  1
  Al0+  Al48  1  0.00096458  -0.00030037  0.00479810  1
  Al0+  Al49  1  -0.00102097  0.00178723  0.32501711  1
  Al0+  Al50  1  0.00049360  0.00055093  0.66375618  1
  Al0+  Al51  1  -0.00197595  0.49844951  0.00670911  1
  Al0+  Al52  1  -0.00007568  0.50136307  0.33470415  1
  Al0+  Al53  1  0.00029561  0.50036404  0.67230459  1
  Al0+  Al54  1  0.50010546  -0.00023277  -0.00241857  1
  Al0+  Al55  1  0.50027113  -0.00211436  0.33521177  1
  Al0+  Al56  1  0.49936777  -0.00074747  0.66346354  1
  Al0+  Al57  1  0.49977207  0.49626294  -0.00450048  1
  Al0+  Al58  1  0.50285703  0.50078396  0.33713910  1
  Al0+  Al59  1  0.49952564  0.50106059  0.66353452  1
  Al0+  Al60  1  0.25041721  0.24788049  0.00337198  1
  Al0+  Al61  1  0.25008790  0.25022913  0.33645970  1
  Al0+  Al62  1  0.25034646  0.25138223  0.66883974  1
  Al0+  Al63  1  0.24838674  0.74621181  -0.00101386  1
  Al0+  Al64  1  0.24895863  0.75056388  0.33614884  1
  Al0+  Al65  1  0.25045562  0.74943317  0.66680709  1
  Al0+  Al66  1  0.75111073  0.25117767  0.00524858  1
  Al0+  Al67  1  0.75162104  0.25119117  0.32674529  1
  Al0+  Al68  1  0.74914622  0.25230229  0.66158667  1
  Al0+  Al69  1  0.75229904  0.74961519  -0.00105232  1
  Al0+  Al70  1  0.74898230  0.75131073  0.33560077  1
  Al0+  Al71  1  0.74889650  0.75007947  0.66572076  1
  Al0+  Al72  1  0.92900665  0.32342998  0.65307293  1
  Al0+  Al73  1  0.82136977  0.07323978  0.01448331  1
  Al0+  Al74  1  0.57126820  0.67990458  0.64875596  1
  Al0+  Al75  1  0.42715568  0.82235348  0.98433092  1
  Al0+  Al76  1  0.67727904  0.92897905  0.68360257  1
  Al0+  Al77  1  0.07222790  0.17982866  0.31637371  1
  Al0+  Al78  1  0.93197581  0.82154871  0.98604754  1
  Al0+  Al79  1  0.32413468  0.57421803  0.34898058  1
  Al0+  Al80  1  0.82059798  0.07216364  0.67848600  1
  Al0+  Al81  1  0.81851556  0.57162544  0.01491859  1
  Al0+  Al82  1  0.92962153  0.82141890  0.65283213  1
  Al0+  Al83  1  0.17900212  0.92564042  0.01513441  1
  Al0+  Al84  1  0.32219978  0.07040360  0.01490836  1
  Al0+  Al85  1  0.81991926  0.57039485  0.68042364  1
  Al0+  Al86  1  0.07178019  0.17832005  0.65311743  1
  Al0+  Al87  1  0.17900792  0.92916561  0.67847976  1
  Al0+  Al88  1  0.17878280  0.42952817  0.34988647  1
  Al0+  Al89  1  0.57131079  0.67706563  0.98508923  1
  Al0+  Al90  1  0.42663259  0.82138394  0.64857194  1
  Al0+  Al91  1  0.68072753  0.92979899  0.34627114  1
  Al0+  Al92  1  0.57025368  0.17977494  0.65426764  1
  Al0+  Al93  1  0.57095769  0.17690202  0.31762709  1
  Al0+  Al94  1  0.18010336  0.42907075  0.68267059  1
  Al0+  Al95  1  0.32018312  0.06881259  0.34827484  1
  Si0+  Si96  1  0.67910741  0.92906186  0.01504141  1
  Si0+  Si97  1  0.42789343  0.81915059  0.31811026  1
  Si0+  Si98  1  0.67592400  0.42668604  0.01770542  1
  Si0+  Si99  1  0.07156583  0.67371744  0.98437821  1
  Si0+  Si100  1  0.42756084  0.31963567  0.98590785  1
  Si0+  Si101  1  0.43040275  0.32251576  0.31782707  1
  Si0+  Si102  1  0.81971567  0.57109938  0.34836227  1
  Si0+  Si103  1  0.57224916  0.67837948  0.31812622  1
  Si0+  Si104  1  0.32319281  0.57186646  0.68612520  1
  Si0+  Si105  1  0.68000093  0.42732202  0.34813899  1
  Si0+  Si106  1  0.32180893  0.56740761  0.01262669  1
  Si0+  Si107  1  0.42681685  0.32316284  0.64936429  1
  Si0+  Si108  1  0.07003066  0.67878044  0.31942059  1
  Si0+  Si109  1  0.17863659  0.42782106  0.01625646  1
  Si0+  Si110  1  0.82318771  0.07381913  0.34897157  1
  Si0+  Si111  1  0.92755027  0.81979566  0.31760178  1
  Si0+  Si112  1  0.32249010  0.07236001  0.68244416  1
  Si0+  Si113  1  0.17491340  0.92825299  0.34947795  1
  Si0+  Si114  1  0.07111501  0.18083301  0.98589681  1
  Si0+  Si115  1  0.07192376  0.67708660  0.65061018  1
  Si0+  Si116  1  0.57285675  0.17937720  0.98610673  1
  Si0+  Si117  1  0.92894669  0.32580107  0.31344561  1
  Si0+  Si118  1  0.67551969  0.42759337  0.68252765  1
  Si0+  Si119  1  0.92853407  0.32144355  0.98607177  1
  O2-  O120  1  0.25430503  -0.00565669  0.06493482  1
  O2-  O121  1  0.24239031  -0.00267373  0.39391486  1
  O2-  O122  1  0.25330350  0.00408616  0.72554212  1
  O2-  O123  1  0.24908653  0.49955541  0.05764913  1
  O2-  O124  1  0.25221046  0.50142779  0.39774239  1
  O2-  O125  1  0.25485808  0.50289861  0.73110681  1
  O2-  O126  1  0.74577046  -0.00084335  0.06089506  1
  O2-  O127  1  0.75252006  0.00756126  0.39202064  1
  O2-  O128  1  0.75063137  0.00035574  0.73210198  1
  O2-  O129  1  0.74060053  0.49979126  0.06176179  1
  O2-  O130  1  0.75183922  0.49736614  0.38993246  1
  O2-  O131  1  0.74389500  0.49627984  0.72671471  1
  O2-  O132  1  -0.00368433  0.25505363  0.26999050  1
  O2-  O133  1  -0.00132619  0.24964219  0.60290788  1
  O2-  O134  1  -0.00281053  0.24876042  0.94392727  1
  O2-  O135  1  0.00172542  0.75162936  0.27591370  1
  O2-  O136  1  0.00623973  0.74829638  0.60520308  1
  O2-  O137  1  0.00762103  0.74655332  0.94085322  1
  O2-  O138  1  0.49592461  0.25204077  0.27056919  1
  O2-  O139  1  0.49528372  0.25417461  0.60629003  1
  O2-  O140  1  0.49852933  0.24795286  0.94483964  1
  O2-  O141  1  0.49613812  0.74429117  0.27674907  1
  O2-  O142  1  0.50000691  0.75133104  0.59716670  1
  O2-  O143  1  0.50139553  0.75138940  0.93643779  1
  O2-  O144  1  0.07195848  0.18477463  0.09116636  1
  O2-  O145  1  0.07028367  0.17755172  0.42873260  1
  O2-  O146  1  0.07193703  0.17983110  0.76727830  1
  O2-  O147  1  0.06937778  0.67135236  0.09062440  1
  O2-  O148  1  0.06754458  0.67619291  0.42389744  1
  O2-  O149  1  0.07010889  0.67589797  0.75628795  1
  O2-  O150  1  0.57288635  0.18135940  0.09126600  1
  O2-  O151  1  0.57107227  0.17890660  0.43023927  1
  O2-  O152  1  0.56910580  0.18251535  0.76811364  1
  O2-  O153  1  0.56790581  0.67763631  0.09989418  1
  O2-  O154  1  0.57619630  0.67941203  0.42227240  1
  O2-  O155  1  0.56878023  0.67925172  0.76217548  1
  O2-  O156  1  0.18023662  0.43301427  0.23527061  1
  O2-  O157  1  0.18114582  0.43073058  0.56998760  1
  O2-  O158  1  0.17862253  0.42721018  0.91148872  1
  O2-  O159  1  0.17618048  0.92655002  0.24393656  1
  O2-  O160  1  0.17949892  0.93166063  0.56507457  1
  O2-  O161  1  0.17704249  0.93016133  0.90190527  1
  O2-  O162  1  0.67897757  0.42849919  0.24293454  1
  O2-  O163  1  0.67574299  0.42855729  0.57659365  1
  O2-  O164  1  0.67725852  0.42085827  0.91286758  1
  O2-  O165  1  0.68296086  0.92758239  0.23259141  1
  O2-  O166  1  0.67894493  0.93135388  0.56961777  1
  O2-  O167  1  0.67923391  0.93116796  0.91020776  1
  O2-  O168  1  0.42818911  0.32352224  0.09067394  1
  O2-  O169  1  0.43433178  0.32350750  0.42299571  1
  O2-  O170  1  0.42736777  0.32269590  0.75570643  1
  O2-  O171  1  0.42896189  0.82012937  0.09901266  1
  O2-  O172  1  0.42741494  0.81950936  0.42246247  1
  O2-  O173  1  0.42550737  0.81899263  0.76201320  1
  O2-  O174  1  0.93014513  0.32326998  0.09130578  1
  O2-  O175  1  0.92842811  0.32968270  0.41828719  1
  O2-  O176  1  0.93165144  0.32376327  0.76731884  1
  O2-  O177  1  0.93146120  0.81810854  0.10019117  1
  O2-  O178  1  0.92670093  0.81894886  0.42237910  1
  O2-  O179  1  0.93081410  0.82109087  0.76574322  1
  O2-  O180  1  0.32139761  0.06497298  0.23523158  1
  O2-  O181  1  0.32195459  0.07249201  0.57664504  1
  O2-  O182  1  0.31863992  0.07764809  0.90208519  1
  O2-  O183  1  0.32245745  0.57298474  0.23422990  1
  O2-  O184  1  0.32207188  0.57015121  0.58054503  1
  O2-  O185  1  0.32132809  0.56334129  0.90816966  1
  O2-  O186  1  0.82304742  0.07061347  0.24281609  1
  O2-  O187  1  0.82020805  0.06980856  0.56475392  1
  O2-  O188  1  0.82020805  0.07736725  0.90214046  1
  O2-  O189  1  0.81844140  0.57217519  0.24316740  1
  O2-  O190  1  0.81988646  0.56853102  0.56654939  1
  O2-  O191  1  0.82204449  0.56866686  0.90276314  1
  O2-  O192  1  0.04062619  0.08416748  0.25887378  1
  O2-  O193  1  0.04403227  0.08187624  0.59644887  1
  O2-  O194  1  0.04614331  0.08722554  0.94288762  1
  O2-  O195  1  0.04051683  0.58829839  0.26923204  1
  O2-  O196  1  0.04147093  0.58521068  0.60426043  1
  O2-  O197  1  0.04123845  0.58059579  0.93954361  1
  O2-  O198  1  0.53880713  0.08023095  0.26417756  1
  O2-  O199  1  0.53909969  0.08462024  0.59881757  1
  O2-  O200  1  0.54845809  0.08745753  0.93858961  1
  O2-  O201  1  0.55140175  0.58397764  0.27208298  1
  O2-  O202  1  0.54351392  0.58012547  0.59665523  1
  O2-  O203  1  0.54385321  0.57789290  0.93308232  1
  O2-  O204  1  0.16929841  0.21244662  0.26317800  1
  O2-  O205  1  0.17026726  0.20929569  0.60173936  1
  O2-  O206  1  0.16211942  0.21157254  0.93901058  1
  O2-  O207  1  0.16326192  0.70385941  0.27234591  1
  O2-  O208  1  0.16677927  0.69757356  0.60590518  1
  O2-  O209  1  0.16692237  0.69049976  0.93928336  1
  O2-  O210  1  0.66752747  0.20906671  0.26273218  1
  O2-  O211  1  0.66457973  0.21143123  0.59664023  1
  O2-  O212  1  0.66370358  0.21225251  0.94014075  1
  O2-  O213  1  0.66248759  0.71186984  0.26932413  1
  O2-  O214  1  0.66992720  0.70603433  0.59579350  1
  O2-  O215  1  0.67158081  0.70191990  0.93668775  1
  O2-  O216  1  0.08733447  0.45423916  0.06530161  1
  O2-  O217  1  0.08050679  0.46074478  0.40112494  1
  O2-  O218  1  0.08547857  0.46187258  0.73899986  1
  O2-  O219  1  0.08327083  0.95841454  0.07123371  1
  O2-  O220  1  0.07943907  0.95411894  0.39120051  1
  O2-  O221  1  0.08292876  0.96046291  0.73228953  1
  O2-  O222  1  0.58041093  0.44774515  0.06266532  1
  O2-  O223  1  0.58952916  0.45457411  0.39741588  1
  O2-  O224  1  0.58103858  0.45142346  0.72824199  1
  O2-  O225  1  0.58497649  0.95354227  0.06108093  1
  O2-  O226  1  0.58396847  0.95724620  0.39965603  1
  O2-  O227  1  0.57842120  0.95869970  0.73418218  1
  O2-  O228  1  0.20909933  0.33726456  0.06424931  1
  O2-  O229  1  0.20620575  0.33166318  0.40220585  1
  O2-  O230  1  0.21209773  0.33345176  0.73888017  1
  O2-  O231  1  0.19921854  0.82343690  0.06563880  1
  O2-  O232  1  0.19824299  0.83435656  0.39524167  1
  O2-  O233  1  0.20648568  0.83130847  0.73195906  1
  O2-  O234  1  0.70723198  0.33689163  0.06916682  1
  O2-  O235  1  0.70726721  0.33452789  0.39368244  1
  O2-  O236  1  0.70015594  0.33421375  0.72871648  1
  O2-  O237  1  0.70688444  0.83611660  0.06162151  1
  O2-  O238  1  0.71411409  0.83467333  0.40175981  1
  O2-  O239  1  0.70450362  0.82993992  0.73338528  1
  O2-  O240  1  0.45981908  0.41588803  0.27083077  1
  O2-  O241  1  0.45055763  0.41661388  0.60317923  1
  O2-  O242  1  0.45489076  0.40922383  0.93385670  1
  O2-  O243  1  0.46068496  0.90890573  0.26998093  1
  O2-  O244  1  0.45318521  0.92017512  0.59634909  1
  O2-  O245  1  0.45287411  0.92152977  0.93177982  1
  O2-  O246  1  0.95692457  0.41912710  0.26584551  1
  O2-  O247  1  0.96197720  0.42093856  0.60052004  1
  O2-  O248  1  0.95912773  0.41301355  0.93995955  1
  O2-  O249  1  0.95138381  0.91212906  0.26920453  1
  O2-  O250  1  0.96032517  0.91631606  0.59579514  1
  O2-  O251  1  0.96168064  0.91931600  0.93423599  1
  O2-  O252  1  0.33519887  0.30096933  0.27381560  1
  O2-  O253  1  0.33330072  0.29829228  0.60403150  1
  O2-  O254  1  0.33558620  0.29166834  0.93836480  1
  O2-  O255  1  0.33438792  0.79496688  0.27108032  1
  O2-  O256  1  0.32860900  0.79034133  0.59528998  1
  O2-  O257  1  0.32840619  0.79117846  0.93378778  1
  O2-  O258  1  0.83489303  0.30295600  0.26608410  1
  O2-  O259  1  0.82922413  0.30351115  0.60012061  1
  O2-  O260  1  0.83476627  0.29796023  0.94134333  1
  O2-  O261  1  0.83740212  0.78664280  0.26956029  1
  O2-  O262  1  0.83472587  0.78739001  0.59788772  1
  O2-  O263  1  0.83587522  0.78974191  0.93346422  1
  O2-  O264  1  0.42275605  0.04559420  0.06661242  1
  O2-  O265  1  0.41572781  0.03535801  0.40171577  1
  O2-  O266  1  0.41557645  0.04628627  0.72810724  1
  O2-  O267  1  0.41286845  0.53689974  0.06070884  1
  O2-  O268  1  0.42321831  0.54767164  0.40072026  1
  O2-  O269  1  0.41676023  0.54451611  0.73128235  1
  O2-  O270  1  0.91652705  0.04053790  0.06997724  1
  O2-  O271  1  0.91702722  0.04539156  0.39206050  1
  O2-  O272  1  0.91938426  0.04467196  0.73043214  1
  O2-  O273  1  0.91337859  0.53653660  0.07235782  1
  O2-  O274  1  0.91240603  0.54644210  0.39444307  1
  O2-  O275  1  0.91507218  0.53988482  0.73687368  1
  O2-  O276  1  0.29069314  0.16762555  0.07104216  1
  O2-  O277  1  0.29519019  0.16728113  0.39995834  1
  O2-  O278  1  0.30057427  0.16689668  0.72807097  1
  O2-  O279  1  0.29669156  0.65963631  0.06037201  1
  O2-  O280  1  0.29306273  0.67128121  0.40237664  1
  O2-  O281  1  0.29642880  0.66473295  0.73180476  1
  O2-  O282  1  0.79251907  0.16951226  0.07132203  1
  O2-  O283  1  0.80214735  0.17024607  0.38949991  1
  O2-  O284  1  0.79191136  0.17193274  0.72947128  1
  O2-  O285  1  0.79061517  0.66816812  0.07174010  1
  O2-  O286  1  0.78923311  0.66165535  0.39578306  1
  O2-  O287  1  0.78884379  0.66652547  0.73372835  1
