# generated using pymatgen
data_Ca2Al2SiO7
_symmetry_space_group_name_H-M   'P 1'
_cell_length_a   15.46393984
_cell_length_b   15.46250897
_cell_length_c   15.28803632
_cell_angle_alpha   89.99832002
_cell_angle_beta   90.00676998
_cell_angle_gamma   90.01056894
_symmetry_Int_Tables_number   1
_chemical_formula_structural   Ca2Al2SiO7
_chemical_formula_sum   'Ca48 Al48 Si24 O168'
_cell_volume   3655.54227819
_cell_formula_units_Z   24
loop_
 _symmetry_equiv_pos_site_id
 _symmetry_equiv_pos_as_xyz
  1  'x, y, z'
loop_
 _atom_type_symbol
 _atom_type_oxidation_number
  Ca2+  2.0
  Al0+  0.0
  Si0+  0.0
  O2-  -2.0
loop_
 _atom_site_type_symbol
 _atom_site_label
 _atom_site_symmetry_multiplicity
 _atom_site_fract_x
 _atom_site_fract_y
 _atom_site_fract_z
 _atom_site_occupancy
  Ca2+  Ca0  1  0.17377925  0.08874328  0.17006758  1
  Ca2+  Ca1  1  0.16589298  0.08372835  0.50399311  1
  Ca2+  Ca2  1  0.17701473  0.08012286  0.84188914  1
  Ca2+  Ca3  1  0.17431637  0.58269773  0.16586576  1
  Ca2+  Ca4  1  0.17330786  0.58785116  0.50177438  1
  Ca2+  Ca5  1  0.17214268  0.58139844  0.84256293  1
  Ca2+  Ca6  1  0.65814339  0.07358501  0.17264645  1
  Ca2+  Ca7  1  0.66060360  0.07898374  0.50685901  1
  Ca2+  Ca8  1  0.65668697  0.07307864  0.83022901  1
  Ca2+  Ca9  1  0.67456363  0.57026269  0.17347844  1
  Ca2+  Ca10  1  0.66589396  0.57242460  0.50537286  1
  Ca2+  Ca11  1  0.66206903  0.57461464  0.83931015  1
  Ca2+  Ca12  1  0.07968309  0.33820440  0.16473586  1
  Ca2+  Ca13  1  0.07248720  0.32546508  0.48915781  1
  Ca2+  Ca14  1  0.08282057  0.33752789  0.83143295  1
  Ca2+  Ca15  1  0.07650373  0.82430049  0.15867649  1
  Ca2+  Ca16  1  0.07998792  0.82773163  0.49759295  1
  Ca2+  Ca17  1  0.08295925  0.81804939  0.82750991  1
  Ca2+  Ca18  1  0.58660304  0.33171620  0.16187060  1
  Ca2+  Ca19  1  0.59387771  0.32477084  0.49734576  1
  Ca2+  Ca20  1  0.57373894  0.33813437  0.82464887  1
  Ca2+  Ca21  1  0.58230676  0.83584857  0.16480543  1
  Ca2+  Ca22  1  0.57756974  0.83866478  0.49594234  1
  Ca2+  Ca23  1  0.58292118  0.82835807  0.82488493  1
  Ca2+  Ca24  1  0.33468316  0.42586450  0.16664754  1
  Ca2+  Ca25  1  0.33686773  0.42082967  0.50294373  1
  Ca2+  Ca26  1  0.33151809  0.41888472  0.84621828  1
  Ca2+  Ca27  1  0.33757622  0.92366539  0.17208845  1
  Ca2+  Ca28  1  0.33827628  0.91236449  0.50297098  1
  Ca2+  Ca29  1  0.34200736  0.92402023  0.83712431  1
  Ca2+  Ca30  1  0.83018473  0.42416508  0.17263890  1
  Ca2+  Ca31  1  0.82521358  0.41356470  0.49844858  1
  Ca2+  Ca32  1  0.81692469  0.42093450  0.83869139  1
  Ca2+  Ca33  1  0.81815170  0.91405675  0.17163179  1
  Ca2+  Ca34  1  0.81975354  0.92563074  0.50793603  1
  Ca2+  Ca35  1  0.82224305  0.92172256  0.83541241  1
  Ca2+  Ca36  1  0.42166715  0.17331272  0.16038724  1
  Ca2+  Ca37  1  0.42958191  0.17429562  0.49868444  1
  Ca2+  Ca38  1  0.41956037  0.17858958  0.82927495  1
  Ca2+  Ca39  1  0.40993486  0.66967459  0.16429298  1
  Ca2+  Ca40  1  0.42608025  0.67368685  0.49793443  1
  Ca2+  Ca41  1  0.42266611  0.67018005  0.82415567  1
  Ca2+  Ca42  1  0.91992887  0.17335761  0.16782015  1
  Ca2+  Ca43  1  0.91581980  0.16963893  0.49033919  1
  Ca2+  Ca44  1  0.91517052  0.16593043  0.82736909  1
  Ca2+  Ca45  1  0.91668429  0.65790665  0.15782257  1
  Ca2+  Ca46  1  0.92152901  0.65864188  0.49584971  1
  Ca2+  Ca47  1  0.92737078  0.65350694  0.83272323  1
  Al0+  Al48  1  -0.00130879  -0.00046199  -0.00204304  1
  Al0+  Al49  1  0.00137428  -0.00303222  0.32722124  1
  Al0+  Al50  1  0.00115139  -0.00205742  0.67223347  1
  Al0+  Al51  1  0.00062418  0.49815468  -0.00031296  1
  Al0+  Al52  1  0.00212138  0.49858920  0.33236328  1
  Al0+  Al53  1  0.00229005  0.49768770  0.66035608  1
  Al0+  Al54  1  0.49930583  0.00114143  0.00725307  1
  Al0+  Al55  1  0.49724112  0.00132698  0.33007079  1
  Al0+  Al56  1  0.49815050  0.00279459  0.66528385  1
  Al0+  Al57  1  0.49901387  0.50078657  0.00488361  1
  Al0+  Al58  1  0.50023473  0.50113172  0.34242491  1
  Al0+  Al59  1  0.49759226  0.50404860  0.66279563  1
  Al0+  Al60  1  0.25093079  0.24939729  0.00449610  1
  Al0+  Al61  1  0.25204578  0.24982690  0.33229438  1
  Al0+  Al62  1  0.24879731  0.25028403  0.66292706  1
  Al0+  Al63  1  0.24751297  0.75174847  -0.00261695  1
  Al0+  Al64  1  0.25005666  0.75152680  0.33306403  1
  Al0+  Al65  1  0.24829466  0.74943103  0.65946673  1
  Al0+  Al66  1  0.75127449  0.24566576  -0.00070276  1
  Al0+  Al67  1  0.75215201  0.24905874  0.32386633  1
  Al0+  Al68  1  0.75047849  0.25200674  0.67254421  1
  Al0+  Al69  1  0.74892840  0.75207178  0.00528666  1
  Al0+  Al70  1  0.74953684  0.74995404  0.34246671  1
  Al0+  Al71  1  0.75399164  0.74931968  0.66777189  1
  Al0+  Al72  1  0.67951717  0.93112103  0.01461756  1
  Al0+  Al73  1  0.57144512  0.18286840  0.65367423  1
  Al0+  Al74  1  0.67997884  0.42597700  0.34916498  1
  Al0+  Al75  1  0.82232541  0.07245946  0.68097454  1
  Al0+  Al76  1  0.67624857  0.93110047  0.34872821  1
  Al0+  Al77  1  0.32166557  0.57458415  0.01302559  1
  Al0+  Al78  1  0.31985948  0.57344958  0.35002118  1
  Al0+  Al79  1  0.57603182  0.67843391  0.65261066  1
  Al0+  Al80  1  0.82367730  0.57091644  0.34977914  1
  Al0+  Al81  1  0.07331028  0.17593907  0.31751003  1
  Al0+  Al82  1  0.67612262  0.42615132  0.01393520  1
  Al0+  Al83  1  0.42557482  0.32402895  0.65170652  1
  Al0+  Al84  1  0.06878072  0.67795209  0.65037520  1
  Al0+  Al85  1  0.42997670  0.81896730  0.31728017  1
  Al0+  Al86  1  0.57028649  0.18047476  0.31842501  1
  Al0+  Al87  1  0.06931096  0.67870148  0.98610868  1
  Al0+  Al88  1  0.17889239  0.42794283  0.01469089  1
  Al0+  Al89  1  0.93012400  0.32110860  0.31552352  1
  Al0+  Al90  1  0.67772911  0.43185971  0.68069260  1
  Al0+  Al91  1  0.67626150  0.92837199  0.68173902  1
  Al0+  Al92  1  0.43105520  0.32146702  0.98883554  1
  Al0+  Al93  1  0.43072346  0.82181964  0.65348441  1
  Al0+  Al94  1  0.81978588  0.56945077  0.01165060  1
  Al0+  Al95  1  0.31955340  0.06970781  0.01452142  1
  Si0+  Si96  1  0.42819405  0.32504303  0.31618660  1
  Si0+  Si97  1  0.82660494  0.57017585  0.68214246  1
  Si0+  Si98  1  0.17958795  0.42812168  0.67968717  1
  Si0+  Si99  1  0.31803911  0.57238391  0.68054070  1
  Si0+  Si100  1  0.57085628  0.68065698  0.98887976  1
  Si0+  Si101  1  0.82605194  0.07165166  0.01945535  1
  Si0+  Si102  1  0.93002635  0.31893626  0.65321034  1
  Si0+  Si103  1  0.57353892  0.67722504  0.31642256  1
  Si0+  Si104  1  0.92730061  0.81989859  0.31883887  1
  Si0+  Si105  1  0.17908380  0.92714788  0.68214285  1
  Si0+  Si106  1  0.18005521  0.42712359  0.35184999  1
  Si0+  Si107  1  0.31992775  0.07196998  0.35107023  1
  Si0+  Si108  1  0.07045448  0.67994498  0.31723320  1
  Si0+  Si109  1  0.82371916  0.06888523  0.34581952  1
  Si0+  Si110  1  0.07168408  0.17809634  0.98348586  1
  Si0+  Si111  1  0.92502880  0.82247467  0.98164306  1
  Si0+  Si112  1  0.07122722  0.17659785  0.65474445  1
  Si0+  Si113  1  0.92922524  0.31981918  0.98179648  1
  Si0+  Si114  1  0.17593109  0.92810152  0.01634889  1
  Si0+  Si115  1  0.42889073  0.82293367  0.98694930  1
  Si0+  Si116  1  0.17854929  0.92968553  0.34837210  1
  Si0+  Si117  1  0.57246121  0.17595997  0.98253157  1
  Si0+  Si118  1  0.92968203  0.82453536  0.64945720  1
  Si0+  Si119  1  0.31861650  0.07233755  0.68082660  1
  O2-  O120  1  0.24421684  -0.00433483  0.06217338  1
  O2-  O121  1  0.24562759  0.00345705  0.39243131  1
  O2-  O122  1  0.25093433  -0.00237010  0.72346748  1
  O2-  O123  1  0.25084519  0.50092560  0.06267302  1
  O2-  O124  1  0.24823586  0.49536845  0.39737980  1
  O2-  O125  1  0.25277758  0.49596692  0.72261475  1
  O2-  O126  1  0.75433812  0.00562825  0.06183021  1
  O2-  O127  1  0.75153046  0.00641609  0.39266740  1
  O2-  O128  1  0.74868747  0.00141321  0.73059953  1
  O2-  O129  1  0.74990921  0.49677613  0.06272160  1
  O2-  O130  1  0.75046896  0.50012730  0.39903091  1
  O2-  O131  1  0.74972446  0.51097901  0.72592693  1
  O2-  O132  1  0.00460168  0.25006129  0.26655404  1
  O2-  O133  1  -0.00387519  0.24212048  0.61259032  1
  O2-  O134  1  0.00035623  0.24776189  0.93952713  1
  O2-  O135  1  -0.00719569  0.74383914  0.27579452  1
  O2-  O136  1  -0.00804673  0.75045232  0.60369432  1
  O2-  O137  1  -0.00712903  0.75205792  0.93846372  1
  O2-  O138  1  0.50025670  0.26003281  0.27240745  1
  O2-  O139  1  0.50318130  0.25794548  0.60237093  1
  O2-  O140  1  0.51012606  0.25152009  0.94074121  1
  O2-  O141  1  0.50431340  0.74468088  0.26970024  1
  O2-  O142  1  0.50891320  0.75645939  0.60392423  1
  O2-  O143  1  0.49674297  0.74911228  0.94611485  1
  O2-  O144  1  0.06990343  0.17646025  0.08799886  1
  O2-  O145  1  0.07022500  0.17517694  0.43193437  1
  O2-  O146  1  0.07459579  0.17913997  0.75976656  1
  O2-  O147  1  0.06956953  0.68193286  0.09935092  1
  O2-  O148  1  0.07137321  0.68328670  0.42258429  1
  O2-  O149  1  0.06991846  0.67746684  0.76337398  1
  O2-  O150  1  0.56879944  0.17301433  0.08813166  1
  O2-  O151  1  0.56823522  0.17875466  0.43144670  1
  O2-  O152  1  0.56621601  0.18086287  0.76723904  1
  O2-  O153  1  0.57205991  0.68321459  0.09371904  1
  O2-  O154  1  0.57185924  0.67975850  0.42175916  1
  O2-  O155  1  0.56946429  0.67671990  0.76711505  1
  O2-  O156  1  0.18018233  0.42822936  0.24659472  1
  O2-  O157  1  0.17802595  0.42793690  0.57485750  1
  O2-  O158  1  0.17950962  0.42836570  0.90019976  1
  O2-  O159  1  0.17969707  0.92829496  0.24351235  1
  O2-  O160  1  0.17638713  0.92947551  0.57691530  1
  O2-  O161  1  0.17693689  0.92962987  0.91043291  1
  O2-  O162  1  0.68119877  0.42742241  0.23564802  1
  O2-  O163  1  0.68319065  0.42775197  0.56825662  1
  O2-  O164  1  0.67531578  0.42984854  0.90002230  1
  O2-  O165  1  0.67801434  0.93109027  0.23538290  1
  O2-  O166  1  0.67625270  0.93301122  0.56837128  1
  O2-  O167  1  0.67813939  0.93081209  0.90179352  1
  O2-  O168  1  0.42993268  0.31868863  0.10172701  1
  O2-  O169  1  0.42375847  0.32048928  0.42154999  1
  O2-  O170  1  0.42077031  0.32036926  0.76548382  1
  O2-  O171  1  0.42942568  0.82389271  0.09192159  1
  O2-  O172  1  0.42930747  0.81941251  0.43002830  1
  O2-  O173  1  0.42699651  0.81956909  0.76772532  1
  O2-  O174  1  0.93056580  0.31932189  0.08627638  1
  O2-  O175  1  0.93108019  0.31793598  0.42990729  1
  O2-  O176  1  0.93424629  0.32152733  0.75832543  1
  O2-  O177  1  0.92735888  0.82385955  0.08756187  1
  O2-  O178  1  0.93313680  0.82451779  0.42349505  1
  O2-  O179  1  0.93507583  0.82756238  0.75481214  1
  O2-  O180  1  0.31941196  0.07017465  0.24595461  1
  O2-  O181  1  0.31456615  0.07396178  0.57592137  1
  O2-  O182  1  0.31891593  0.06801044  0.90084369  1
  O2-  O183  1  0.31522953  0.57529046  0.23709674  1
  O2-  O184  1  0.31370353  0.57409240  0.57568988  1
  O2-  O185  1  0.32046082  0.57579082  0.89906781  1
  O2-  O186  1  0.82565663  0.06329771  0.24033010  1
  O2-  O187  1  0.82782495  0.07016395  0.56743539  1
  O2-  O188  1  0.83038554  0.06986145  0.91412817  1
  O2-  O189  1  0.82321231  0.57037854  0.23615629  1
  O2-  O190  1  0.83172650  0.56341474  0.57715124  1
  O2-  O191  1  0.81944742  0.56757945  0.89781540  1
  O2-  O192  1  0.04580901  0.07784597  0.26257489  1
  O2-  O193  1  0.04964989  0.08222044  0.60972158  1
  O2-  O194  1  0.04539737  0.08529294  0.93552437  1
  O2-  O195  1  0.05104685  0.58558377  0.27264818  1
  O2-  O196  1  0.04141362  0.58120698  0.59444044  1
  O2-  O197  1  0.04078741  0.58135226  0.93135406  1
  O2-  O198  1  0.53171853  0.08690412  0.26323350  1
  O2-  O199  1  0.53807457  0.08623775  0.60000442  1
  O2-  O200  1  0.53669973  0.08481742  0.93702172  1
  O2-  O201  1  0.54813139  0.58203200  0.27387454  1
  O2-  O202  1  0.53975012  0.58478392  0.59541429  1
  O2-  O203  1  0.54468044  0.58831504  0.94203403  1
  O2-  O204  1  0.17330992  0.20259631  0.26723589  1
  O2-  O205  1  0.15985207  0.20749443  0.60313869  1
  O2-  O206  1  0.16382039  0.20582841  0.93686748  1
  O2-  O207  1  0.15892798  0.71651916  0.26976224  1
  O2-  O208  1  0.16230290  0.71395939  0.59383929  1
  O2-  O209  1  0.16453456  0.71288090  0.92956346  1
  O2-  O210  1  0.66793082  0.20233492  0.26270676  1
  O2-  O211  1  0.67212452  0.20736177  0.60314329  1
  O2-  O212  1  0.66982199  0.18973367  0.94002639  1
  O2-  O213  1  0.66810762  0.70433054  0.27315796  1
  O2-  O214  1  0.67880174  0.69441570  0.60423626  1
  O2-  O215  1  0.66134741  0.71165668  0.94044517  1
  O2-  O216  1  0.08131732  0.45698448  0.06752061  1
  O2-  O217  1  0.08639999  0.45280422  0.39749889  1
  O2-  O218  1  0.08843955  0.45851267  0.72726764  1
  O2-  O219  1  0.08167836  0.95284827  0.06134211  1
  O2-  O220  1  0.08557462  0.95462968  0.39572500  1
  O2-  O221  1  0.08951011  0.95472307  0.73347535  1
  O2-  O222  1  0.58009209  0.45550851  0.06932612  1
  O2-  O223  1  0.58107344  0.45053045  0.40279194  1
  O2-  O224  1  0.57872038  0.46165046  0.73127698  1
  O2-  O225  1  0.58423899  0.96212915  0.07068948  1
  O2-  O226  1  0.57930323  0.96440305  0.39959818  1
  O2-  O227  1  0.57743272  0.95880157  0.73462154  1
  O2-  O228  1  0.20468133  0.33012610  0.06860112  1
  O2-  O229  1  0.20460582  0.33241616  0.39724063  1
  O2-  O230  1  0.20289284  0.33467822  0.72688472  1
  O2-  O231  1  0.19997299  0.83462408  0.06217562  1
  O2-  O232  1  0.20925274  0.83981324  0.39784535  1
  O2-  O233  1  0.20676847  0.83449261  0.72757499  1
  O2-  O234  1  0.70260159  0.32498508  0.06116934  1
  O2-  O235  1  0.71354664  0.32660131  0.39816476  1
  O2-  O236  1  0.71099769  0.33744219  0.73730441  1
  O2-  O237  1  0.71025967  0.83601071  0.07156611  1
  O2-  O238  1  0.70605286  0.83516106  0.40318746  1
  O2-  O239  1  0.70536342  0.82881959  0.73347045  1
  O2-  O240  1  0.44905333  0.42173821  0.27512481  1
  O2-  O241  1  0.44505150  0.42469084  0.60224728  1
  O2-  O242  1  0.45563662  0.42057772  0.93555587  1
  O2-  O243  1  0.45902860  0.91628754  0.26386600  1
  O2-  O244  1  0.45036938  0.92241127  0.60135810  1
  O2-  O245  1  0.46025973  0.91420749  0.94023382  1
  O2-  O246  1  0.96152558  0.41920937  0.26274844  1
  O2-  O247  1  0.96474879  0.40619013  0.60178849  1
  O2-  O248  1  0.95895294  0.41029444  0.93322422  1
  O2-  O249  1  0.96061077  0.90756050  0.26634179  1
  O2-  O250  1  0.96372921  0.91517345  0.60156207  1
  O2-  O251  1  0.95269993  0.91562505  0.93509976  1
  O2-  O252  1  0.33589657  0.29549692  0.26949117  1
  O2-  O253  1  0.32955383  0.28942189  0.59597136  1
  O2-  O254  1  0.33431445  0.28640864  0.93578494  1
  O2-  O255  1  0.33193176  0.78985391  0.26399314  1
  O2-  O256  1  0.33371892  0.79007306  0.59880582  1
  O2-  O257  1  0.33505109  0.80204594  0.94036086  1
  O2-  O258  1  0.83501567  0.29125051  0.25786446  1
  O2-  O259  1  0.83748165  0.29524643  0.60698424  1
  O2-  O260  1  0.83734826  0.29066301  0.93406670  1
  O2-  O261  1  0.83290805  0.79718641  0.27456295  1
  O2-  O262  1  0.83379862  0.80674446  0.60632347  1
  O2-  O263  1  0.83060374  0.79885468  0.93699902  1
  O2-  O264  1  0.41349863  0.03771985  0.07182717  1
  O2-  O265  1  0.40953652  0.03903370  0.39823422  1
  O2-  O266  1  0.41003649  0.04717317  0.72913965  1
  O2-  O267  1  0.41841991  0.54838649  0.06910117  1
  O2-  O268  1  0.41687592  0.54747441  0.40482142  1
  O2-  O269  1  0.41198792  0.55248826  0.72602596  1
  O2-  O270  1  0.91904667  0.04450738  0.06615525  1
  O2-  O271  1  0.91664790  0.03924651  0.39212650  1
  O2-  O272  1  0.92044254  0.04193879  0.73669786  1
  O2-  O273  1  0.91824052  0.54099959  0.06363950  1
  O2-  O274  1  0.92343017  0.54178772  0.40067756  1
  O2-  O275  1  0.91755971  0.53415107  0.72906787  1
  O2-  O276  1  0.28783776  0.16407720  0.07070714  1
  O2-  O277  1  0.29497686  0.16442827  0.39853444  1
  O2-  O278  1  0.28502553  0.16227183  0.72936443  1
  O2-  O279  1  0.28990747  0.67271340  0.06551219  1
  O2-  O280  1  0.28257108  0.66854639  0.40341309  1
  O2-  O281  1  0.28362162  0.66251470  0.72737385  1
  O2-  O282  1  0.80382025  0.16638736  0.06351870  1
  O2-  O283  1  0.80413921  0.16545984  0.38605116  1
  O2-  O284  1  0.79896430  0.17093970  0.73575811  1
  O2-  O285  1  0.79540046  0.66860641  0.06452505  1
  O2-  O286  1  0.80102389  0.67024265  0.40349371  1
  O2-  O287  1  0.81604261  0.66842672  0.72321347  1
