# generated using pymatgen
data_Ca2Al2SiO7
_symmetry_space_group_name_H-M   'P 1'
_cell_length_a   15.46963984
_cell_length_b   15.47116229
_cell_length_c   15.29135494
_cell_angle_alpha   89.99089367
_cell_angle_beta   90.01014668
_cell_angle_gamma   90.03667542
_symmetry_Int_Tables_number   1
_chemical_formula_structural   Ca2Al2SiO7
_chemical_formula_sum   'Ca48 Al48 Si24 O168'
_cell_volume   3659.72971761
_cell_formula_units_Z   24
loop_
 _symmetry_equiv_pos_site_id
 _symmetry_equiv_pos_as_xyz
  1  'x, y, z'
loop_
 _atom_type_symbol
 _atom_type_oxidation_number
  Ca2+  2.0
  Al0+  0.0
  Si0+  0.0
  O2-  -2.0
loop_
 _atom_site_type_symbol
 _atom_site_label
 _atom_site_symmetry_multiplicity
 _atom_site_fract_x
 _atom_site_fract_y
 _atom_site_fract_z
 _atom_site_occupancy
  Ca2+  Ca0  1  0.17190366  0.08228710  0.16784734  1
  Ca2+  Ca1  1  0.17223620  0.08622861  0.50403328  1
  Ca2+  Ca2  1  0.17955734  0.07838686  0.84175944  1
  Ca2+  Ca3  1  0.17360725  0.57495373  0.17177180  1
  Ca2+  Ca4  1  0.16523301  0.57470586  0.50676726  1
  Ca2+  Ca5  1  0.17201827  0.57775025  0.83619197  1
  Ca2+  Ca6  1  0.66890253  0.08805806  0.16995596  1
  Ca2+  Ca7  1  0.66519879  0.07906582  0.50906930  1
  Ca2+  Ca8  1  0.67697510  0.08180366  0.83459548  1
  Ca2+  Ca9  1  0.66603467  0.57447799  0.17616470  1
  Ca2+  Ca10  1  0.67063575  0.57770511  0.50347806  1
  Ca2+  Ca11  1  0.66770934  0.57264877  0.83520625  1
  Ca2+  Ca12  1  0.08841135  0.33295453  0.16509528  1
  Ca2+  Ca13  1  0.08545103  0.33305779  0.49164363  1
  Ca2+  Ca14  1  0.08672136  0.33743772  0.82877328  1
  Ca2+  Ca15  1  0.08697298  0.82760210  0.16142052  1
  Ca2+  Ca16  1  0.08159358  0.81643820  0.49487433  1
  Ca2+  Ca17  1  0.08757903  0.82783636  0.82800345  1
  Ca2+  Ca18  1  0.57588037  0.33874995  0.16155387  1
  Ca2+  Ca19  1  0.57789208  0.33504332  0.49021408  1
  Ca2+  Ca20  1  0.58049625  0.33932973  0.83247311  1
  Ca2+  Ca21  1  0.57824938  0.82286802  0.16193748  1
  Ca2+  Ca22  1  0.58435875  0.82921381  0.49385039  1
  Ca2+  Ca23  1  0.57857403  0.83600235  0.83038187  1
  Ca2+  Ca24  1  0.32777934  0.40827346  0.16813053  1
  Ca2+  Ca25  1  0.32454586  0.41757394  0.50433596  1
  Ca2+  Ca26  1  0.32554007  0.42601058  0.84075250  1
  Ca2+  Ca27  1  0.33538267  0.91726370  0.16252920  1
  Ca2+  Ca28  1  0.33419771  0.92644161  0.50717194  1
  Ca2+  Ca29  1  0.33316036  0.92625844  0.84363764  1
  Ca2+  Ca30  1  0.81930622  0.41987477  0.17327834  1
  Ca2+  Ca31  1  0.82187230  0.42460711  0.50277802  1
  Ca2+  Ca32  1  0.82276979  0.41828730  0.83334935  1
  Ca2+  Ca33  1  0.83684228  0.92375511  0.16746304  1
  Ca2+  Ca34  1  0.82537275  0.92438254  0.50835034  1
  Ca2+  Ca35  1  0.83102398  0.92470694  0.83475746  1
  Ca2+  Ca36  1  0.42025604  0.17850167  0.16362523  1
  Ca2+  Ca37  1  0.42166267  0.17368984  0.49060039  1
  Ca2+  Ca38  1  0.40783963  0.17202716  0.83134744  1
  Ca2+  Ca39  1  0.42023784  0.66520822  0.15863518  1
  Ca2+  Ca40  1  0.42167968  0.66428142  0.49689927  1
  Ca2+  Ca41  1  0.40619373  0.66942747  0.83146641  1
  Ca2+  Ca42  1  0.92260451  0.16530411  0.16088371  1
  Ca2+  Ca43  1  0.92211621  0.16762692  0.49393235  1
  Ca2+  Ca44  1  0.91426429  0.16483542  0.82873302  1
  Ca2+  Ca45  1  0.92365459  0.65523231  0.16782847  1
  Ca2+  Ca46  1  0.92237163  0.65476601  0.49537469  1
  Ca2+  Ca47  1  0.92438352  0.66304278  0.82215271  1
  Al0+  Al48  1  0.00060153  -0.00125257  0.00476791  1
  Al0+  Al49  1  0.00143234  -0.00123243  0.33119294  1
  Al0+  Al50  1  -0.00002693  -0.00058677  0.66610177  1
  Al0+  Al51  1  0.00020329  0.49785000  -0.00001680  1
  Al0+  Al52  1  0.00071949  0.49902950  0.33349511  1
  Al0+  Al53  1  -0.00215596  0.49738092  0.66713455  1
  Al0+  Al54  1  0.50294372  -0.00146864  0.00022517  1
  Al0+  Al55  1  0.49994346  0.00243764  0.32936178  1
  Al0+  Al56  1  0.49941993  0.00110881  0.67385658  1
  Al0+  Al57  1  0.50102089  0.49876207  0.00004905  1
  Al0+  Al58  1  0.49748992  0.50216189  0.32887938  1
  Al0+  Al59  1  0.49747804  0.50160274  0.67128989  1
  Al0+  Al60  1  0.25139744  0.24825806  0.00133311  1
  Al0+  Al61  1  0.25017501  0.24874236  0.33024534  1
  Al0+  Al62  1  0.24951796  0.25021178  0.67170469  1
  Al0+  Al63  1  0.25108618  0.74962542  0.00200605  1
  Al0+  Al64  1  0.24737515  0.75167433  0.33041727  1
  Al0+  Al65  1  0.24909910  0.75011170  0.66006810  1
  Al0+  Al66  1  0.75198459  0.25046182  0.00685583  1
  Al0+  Al67  1  0.75168440  0.24989049  0.33486638  1
  Al0+  Al68  1  0.74940936  0.24913290  0.67090560  1
  Al0+  Al69  1  0.75290912  0.75076179  -0.00223561  1
  Al0+  Al70  1  0.74998811  0.75347171  0.33159405  1
  Al0+  Al71  1  0.74885272  0.75095089  0.67329122  1
  Al0+  Al72  1  0.06988578  0.67710258  0.31742932  1
  Al0+  Al73  1  0.67636019  0.42833309  0.68108503  1
  Al0+  Al74  1  0.32086562  0.57100712  0.01583712  1
  Al0+  Al75  1  0.57383676  0.17843977  0.31979469  1
  Al0+  Al76  1  0.67505081  0.42842465  0.34824987  1
  Al0+  Al77  1  0.32483114  0.07154514  0.01845089  1
  Al0+  Al78  1  0.17791628  0.42833349  0.68038224  1
  Al0+  Al79  1  0.67715394  0.92791755  0.68206812  1
  Al0+  Al80  1  0.81983770  0.57278864  0.34702312  1
  Al0+  Al81  1  0.18004243  0.92868432  0.01507237  1
  Al0+  Al82  1  0.82000119  0.06978562  0.01550752  1
  Al0+  Al83  1  0.32028404  0.57332594  0.67987957  1
  Al0+  Al84  1  0.06923696  0.67799333  0.65240760  1
  Al0+  Al85  1  0.17793305  0.42835866  0.01657556  1
  Al0+  Al86  1  0.32028683  0.07108025  0.67880281  1
  Al0+  Al87  1  0.82281841  0.07101790  0.67991006  1
  Al0+  Al88  1  0.18197163  0.42847161  0.34696451  1
  Al0+  Al89  1  0.42919938  0.31974535  0.98272885  1
  Al0+  Al90  1  0.43013192  0.81941637  0.98529190  1
  Al0+  Al91  1  0.82121551  0.57098332  0.68117492  1
  Al0+  Al92  1  0.68035855  0.43069011  0.01463338  1
  Al0+  Al93  1  0.07043880  0.17790558  0.31918417  1
  Al0+  Al94  1  0.57093797  0.68090151  0.32148322  1
  Al0+  Al95  1  0.42953616  0.32226772  0.31957928  1
  Si0+  Si96  1  0.82297337  0.57378772  0.01551549  1
  Si0+  Si97  1  0.32008329  0.06874545  0.34826760  1
  Si0+  Si98  1  0.06974250  0.67847370  0.98441095  1
  Si0+  Si99  1  0.57536897  0.17874474  0.98195936  1
  Si0+  Si100  1  0.92868442  0.32150336  0.31571782  1
  Si0+  Si101  1  0.17857274  0.92769414  0.67958335  1
  Si0+  Si102  1  0.42802528  0.32165028  0.65277796  1
  Si0+  Si103  1  0.92858254  0.82245437  0.31552060  1
  Si0+  Si104  1  0.92589894  0.82290023  0.64972659  1
  Si0+  Si105  1  0.92913264  0.31949988  0.98403473  1
  Si0+  Si106  1  0.42954985  0.82331263  0.65157089  1
  Si0+  Si107  1  0.82400993  0.07059941  0.34789685  1
  Si0+  Si108  1  0.92662850  0.31899345  0.65085820  1
  Si0+  Si109  1  0.32100260  0.57686424  0.34989778  1
  Si0+  Si110  1  0.07021169  0.17730539  0.98379477  1
  Si0+  Si111  1  0.42716695  0.82438317  0.31780898  1
  Si0+  Si112  1  0.67810607  0.93230686  0.34647859  1
  Si0+  Si113  1  0.07192580  0.17895889  0.65305526  1
  Si0+  Si114  1  0.57016332  0.17942674  0.65445258  1
  Si0+  Si115  1  0.57424021  0.67743203  0.98124886  1
  Si0+  Si116  1  0.93007105  0.82323779  0.98307165  1
  Si0+  Si117  1  0.67939870  0.92545204  0.01938278  1
  Si0+  Si118  1  0.17702575  0.92787267  0.35094384  1
  Si0+  Si119  1  0.57113439  0.67917024  0.65295284  1
  O2-  O120  1  0.25221210  -0.00074727  0.06743566  1
  O2-  O121  1  0.24990986  -0.00262542  0.39228822  1
  O2-  O122  1  0.24600648  -0.00389774  0.72466669  1
  O2-  O123  1  0.25222305  0.49702175  0.06734665  1
  O2-  O124  1  0.25397867  0.50598643  0.39308256  1
  O2-  O125  1  0.24780515  0.50210756  0.72915953  1
  O2-  O126  1  0.74522071  -0.00351513  0.06415534  1
  O2-  O127  1  0.74705124  0.00552633  0.38892403  1
  O2-  O128  1  0.75195372  -0.00180692  0.72977921  1
  O2-  O129  1  0.75070659  0.50997386  0.05960370  1
  O2-  O130  1  0.74570729  0.50277446  0.39660081  1
  O2-  O131  1  0.74799084  0.50087997  0.73111362  1
  O2-  O132  1  -0.00400426  0.25157519  0.27088757  1
  O2-  O133  1  -0.00006869  0.24872208  0.61024048  1
  O2-  O134  1  0.00198195  0.25050374  0.94064458  1
  O2-  O135  1  -0.00693416  0.75012378  0.27074422  1
  O2-  O136  1  -0.00876894  0.75096149  0.60573043  1
  O2-  O137  1  -0.00169395  0.74942525  0.94168044  1
  O2-  O138  1  0.50850662  0.25647077  0.27078190  1
  O2-  O139  1  0.50132000  0.25208264  0.61135074  1
  O2-  O140  1  0.50314733  0.24279878  0.93608838  1
  O2-  O141  1  0.49217559  0.75181087  0.27529453  1
  O2-  O142  1  0.50065045  0.75183001  0.61055218  1
  O2-  O143  1  0.50440369  0.74500094  0.93658550  1
  O2-  O144  1  0.06711045  0.17611652  0.08891302  1
  O2-  O145  1  0.06892242  0.17698319  0.43295949  1
  O2-  O146  1  0.07179515  0.17806254  0.75798254  1
  O2-  O147  1  0.06703208  0.67830868  0.08946268  1
  O2-  O148  1  0.07019306  0.67915774  0.43054776  1
  O2-  O149  1  0.06997910  0.68206390  0.76577736  1
  O2-  O150  1  0.57678050  0.18211688  0.08747790  1
  O2-  O151  1  0.56824000  0.17159314  0.43374456  1
  O2-  O152  1  0.57030102  0.17861803  0.75921970  1
  O2-  O153  1  0.57607971  0.68098197  0.08699857  1
  O2-  O154  1  0.57111720  0.68464442  0.43511032  1
  O2-  O155  1  0.57054395  0.67928410  0.75772115  1
  O2-  O156  1  0.18304279  0.42823237  0.23443444  1
  O2-  O157  1  0.18047395  0.42557768  0.56660463  1
  O2-  O158  1  0.17473759  0.43217882  0.90315632  1
  O2-  O159  1  0.17595257  0.92771418  0.24640850  1
  O2-  O160  1  0.18028226  0.92942554  0.57364385  1
  O2-  O161  1  0.17923885  0.93077992  0.90093238  1
  O2-  O162  1  0.67822136  0.42930194  0.23476424  1
  O2-  O163  1  0.67576254  0.42843680  0.56781105  1
  O2-  O164  1  0.68336619  0.42987941  0.90156142  1
  O2-  O165  1  0.67899129  0.93203263  0.24168992  1
  O2-  O166  1  0.67565294  0.93070856  0.56767602  1
  O2-  O167  1  0.68196113  0.92465903  0.91400725  1
  O2-  O168  1  0.43059204  0.31883370  0.09549851  1
  O2-  O169  1  0.42685204  0.31746984  0.43404808  1
  O2-  O170  1  0.42721623  0.31973617  0.75758023  1
  O2-  O171  1  0.43327942  0.81790110  0.09860872  1
  O2-  O172  1  0.42968732  0.82855535  0.42382666  1
  O2-  O173  1  0.42859602  0.82427094  0.75620592  1
  O2-  O174  1  0.92878210  0.31813416  0.08891094  1
  O2-  O175  1  0.92872646  0.31911949  0.42163635  1
  O2-  O176  1  0.92554363  0.31736823  0.75615947  1
  O2-  O177  1  0.92965700  0.82473539  0.08803259  1
  O2-  O178  1  0.93125543  0.82700736  0.42087601  1
  O2-  O179  1  0.92983235  0.82583040  0.75529404  1
  O2-  O180  1  0.32000773  0.06646017  0.24383352  1
  O2-  O181  1  0.32012136  0.07073981  0.56508492  1
  O2-  O182  1  0.32030397  0.07066150  0.90448513  1
  O2-  O183  1  0.31865899  0.58103429  0.24484395  1
  O2-  O184  1  0.32235756  0.57169977  0.56617657  1
  O2-  O185  1  0.31532496  0.57231948  0.90228139  1
  O2-  O186  1  0.82682715  0.06649461  0.24299127  1
  O2-  O187  1  0.82224896  0.07033964  0.56596909  1
  O2-  O188  1  0.82039297  0.06814339  0.90263791  1
  O2-  O189  1  0.81902670  0.57016695  0.23311245  1
  O2-  O190  1  0.82004520  0.56864551  0.56786036  1
  O2-  O191  1  0.82423437  0.57255711  0.91006456  1
  O2-  O192  1  0.03945123  0.08156622  0.26467573  1
  O2-  O193  1  0.04643941  0.08628888  0.60475591  1
  O2-  O194  1  0.03907178  0.08590012  0.93722691  1
  O2-  O195  1  0.03988623  0.58074185  0.26275558  1
  O2-  O196  1  0.03924148  0.58013332  0.59983571  1
  O2-  O197  1  0.04076852  0.58670845  0.93706019  1
  O2-  O198  1  0.54066478  0.08296371  0.26280468  1
  O2-  O199  1  0.54002679  0.08752871  0.60753326  1
  O2-  O200  1  0.55673334  0.08177449  0.94020120  1
  O2-  O201  1  0.54328642  0.58517553  0.26529214  1
  O2-  O202  1  0.54083173  0.58813788  0.60488488  1
  O2-  O203  1  0.55096899  0.58324384  0.93684970  1
  O2-  O204  1  0.16629251  0.20742726  0.26484158  1
  O2-  O205  1  0.16352387  0.20775939  0.60492821  1
  O2-  O206  1  0.16332062  0.20176988  0.93806416  1
  O2-  O207  1  0.16529736  0.71193011  0.26340702  1
  O2-  O208  1  0.16404627  0.71131812  0.59489022  1
  O2-  O209  1  0.16124478  0.70805939  0.93849624  1
  O2-  O210  1  0.67609874  0.19640378  0.27083308  1
  O2-  O211  1  0.66345542  0.20301678  0.60743475  1
  O2-  O212  1  0.66861391  0.20927268  0.93704070  1
  O2-  O213  1  0.66529944  0.71618299  0.26521421  1
  O2-  O214  1  0.66362262  0.70693662  0.60653803  1
  O2-  O215  1  0.66821719  0.70491144  0.93567789  1
  O2-  O216  1  0.07889250  0.45676789  0.06854257  1
  O2-  O217  1  0.08379263  0.45638432  0.39889894  1
  O2-  O218  1  0.07851520  0.45193637  0.73155550  1
  O2-  O219  1  0.08250137  0.95674990  0.06957734  1
  O2-  O220  1  0.08628347  0.95809344  0.39880935  1
  O2-  O221  1  0.08453616  0.95056876  0.72497039  1
  O2-  O222  1  0.58336476  0.45831282  0.06721424  1
  O2-  O223  1  0.57520268  0.45600204  0.39824688  1
  O2-  O224  1  0.57941598  0.45777669  0.73516202  1
  O2-  O225  1  0.58514230  0.94737650  0.06414575  1
  O2-  O226  1  0.58559166  0.95825375  0.39407586  1
  O2-  O227  1  0.58166282  0.95925553  0.73804376  1
  O2-  O228  1  0.20317120  0.32800735  0.06550412  1
  O2-  O229  1  0.21260239  0.33092181  0.40031246  1
  O2-  O230  1  0.20659245  0.33148181  0.73540251  1
  O2-  O231  1  0.20773684  0.83096837  0.06859301  1
  O2-  O232  1  0.20391174  0.83576772  0.39841316  1
  O2-  O233  1  0.20445576  0.83443082  0.72418975  1
  O2-  O234  1  0.71564374  0.33681666  0.06979392  1
  O2-  O235  1  0.70520214  0.32944918  0.40044826  1
  O2-  O236  1  0.70629083  0.33111483  0.73475393  1
  O2-  O237  1  0.70923038  0.83269915  0.06537086  1
  O2-  O238  1  0.70779675  0.84198461  0.39546944  1
  O2-  O239  1  0.70155847  0.83063428  0.73768165  1
  O2-  O240  1  0.44718237  0.42241332  0.26665175  1
  O2-  O241  1  0.45374740  0.41448013  0.60648865  1
  O2-  O242  1  0.46143703  0.41687479  0.92990469  1
  O2-  O243  1  0.45699490  0.91520090  0.26906500  1
  O2-  O244  1  0.45908539  0.91542929  0.60437053  1
  O2-  O245  1  0.46152199  0.91690575  0.93157666  1
  O2-  O246  1  0.95557112  0.41375387  0.26892309  1
  O2-  O247  1  0.95320536  0.41032953  0.60266794  1
  O2-  O248  1  0.95484902  0.41195427  0.93606685  1
  O2-  O249  1  0.96014756  0.91340744  0.26675481  1
  O2-  O250  1  0.95399765  0.91558603  0.60134897  1
  O2-  O251  1  0.96062506  0.91402831  0.93495450  1
  O2-  O252  1  0.33528927  0.28380336  0.26504803  1
  O2-  O253  1  0.33662426  0.29026645  0.60598239  1
  O2-  O254  1  0.33149339  0.28849959  0.92974456  1
  O2-  O255  1  0.33188973  0.80401900  0.27381947  1
  O2-  O256  1  0.33843910  0.79766579  0.60101985  1
  O2-  O257  1  0.33228377  0.79068535  0.93167376  1
  O2-  O258  1  0.83496951  0.29618187  0.26983898  1
  O2-  O259  1  0.83567995  0.28864418  0.60255020  1
  O2-  O260  1  0.83830082  0.28788257  0.93666043  1
  O2-  O261  1  0.83354702  0.80397863  0.26965282  1
  O2-  O262  1  0.82950518  0.80261467  0.60701397  1
  O2-  O263  1  0.83717709  0.79912125  0.93550525  1
  O2-  O264  1  0.42423180  0.04311901  0.06825495  1
  O2-  O265  1  0.41224233  0.04046021  0.39565232  1
  O2-  O266  1  0.41457113  0.04161763  0.73567237  1
  O2-  O267  1  0.42194655  0.54815196  0.06377729  1
  O2-  O268  1  0.41582292  0.55344157  0.39338757  1
  O2-  O269  1  0.41720878  0.54732192  0.73526858  1
  O2-  O270  1  0.91545166  0.03674246  0.06985985  1
  O2-  O271  1  0.91347842  0.03654993  0.39647187  1
  O2-  O272  1  0.92162058  0.04394850  0.73315723  1
  O2-  O273  1  0.91462927  0.54265535  0.06160326  1
  O2-  O274  1  0.91770705  0.54082050  0.39848346  1
  O2-  O275  1  0.91764289  0.53937579  0.73530066  1
  O2-  O276  1  0.29349715  0.16846022  0.07064288  1
  O2-  O277  1  0.28989058  0.15940834  0.39571750  1
  O2-  O278  1  0.28774701  0.16498083  0.73500793  1
  O2-  O279  1  0.29195754  0.66841137  0.06923453  1
  O2-  O280  1  0.29498316  0.67071484  0.39637525  1
  O2-  O281  1  0.29207998  0.67319703  0.72973285  1
  O2-  O282  1  0.79235356  0.16570275  0.07121458  1
  O2-  O283  1  0.80479186  0.16451606  0.39360878  1
  O2-  O284  1  0.79316228  0.16716942  0.73525570  1
  O2-  O285  1  0.80443118  0.66980526  0.05942406  1
  O2-  O286  1  0.79602999  0.67390447  0.39718036  1
  O2-  O287  1  0.79900210  0.67046646  0.73374558  1
