# generated using pymatgen
data_Ca2Al2SiO7
_symmetry_space_group_name_H-M   'P 1'
_cell_length_a   15.45836302
_cell_length_b   15.45775958
_cell_length_c   15.28400468
_cell_angle_alpha   90.00322630
_cell_angle_beta   90.00624785
_cell_angle_gamma   90.01409295
_symmetry_Int_Tables_number   1
_chemical_formula_structural   Ca2Al2SiO7
_chemical_formula_sum   'Ca48 Al48 Si24 O168'
_cell_volume   3652.13813703
_cell_formula_units_Z   24
loop_
 _symmetry_equiv_pos_site_id
 _symmetry_equiv_pos_as_xyz
  1  'x, y, z'
loop_
 _atom_type_symbol
 _atom_type_oxidation_number
  Ca2+  2.0
  Al0+  0.0
  Si0+  0.0
  O2-  -2.0
loop_
 _atom_site_type_symbol
 _atom_site_label
 _atom_site_symmetry_multiplicity
 _atom_site_fract_x
 _atom_site_fract_y
 _atom_site_fract_z
 _atom_site_occupancy
  Ca2+  Ca0  1  0.17283359  0.07562222  0.16836600  1
  Ca2+  Ca1  1  0.17624464  0.07694964  0.49909871  1
  Ca2+  Ca2  1  0.17556918  0.08092441  0.84295563  1
  Ca2+  Ca3  1  0.17220931  0.58167368  0.17460563  1
  Ca2+  Ca4  1  0.16543809  0.57576796  0.50481574  1
  Ca2+  Ca5  1  0.15841091  0.58023172  0.83617187  1
  Ca2+  Ca6  1  0.67262914  0.07454427  0.16999763  1
  Ca2+  Ca7  1  0.67361002  0.07794091  0.50484202  1
  Ca2+  Ca8  1  0.66637418  0.06992121  0.83824054  1
  Ca2+  Ca9  1  0.66611235  0.58379674  0.17551085  1
  Ca2+  Ca10  1  0.66723635  0.57870955  0.49810718  1
  Ca2+  Ca11  1  0.66163657  0.58053697  0.83698887  1
  Ca2+  Ca12  1  0.08867588  0.32649664  0.16109172  1
  Ca2+  Ca13  1  0.08927913  0.33505978  0.49673159  1
  Ca2+  Ca14  1  0.08886952  0.32628958  0.82849492  1
  Ca2+  Ca15  1  0.07635246  0.83791849  0.15831213  1
  Ca2+  Ca16  1  0.08029351  0.83001174  0.49136779  1
  Ca2+  Ca17  1  0.08906534  0.82430698  0.83256110  1
  Ca2+  Ca18  1  0.57765264  0.33233823  0.16070898  1
  Ca2+  Ca19  1  0.57996270  0.34050571  0.49604177  1
  Ca2+  Ca20  1  0.57038605  0.33290627  0.82642609  1
  Ca2+  Ca21  1  0.58055795  0.82202219  0.15673116  1
  Ca2+  Ca22  1  0.58411032  0.82929733  0.49322882  1
  Ca2+  Ca23  1  0.58407002  0.83592164  0.83353848  1
  Ca2+  Ca24  1  0.33061604  0.42233254  0.17372939  1
  Ca2+  Ca25  1  0.32591252  0.42128032  0.50195058  1
  Ca2+  Ca26  1  0.33342284  0.41333837  0.83478674  1
  Ca2+  Ca27  1  0.32378045  0.91753902  0.17008755  1
  Ca2+  Ca28  1  0.33350830  0.92588094  0.50335438  1
  Ca2+  Ca29  1  0.33269816  0.92808049  0.84649469  1
  Ca2+  Ca30  1  0.82601985  0.42840799  0.17854891  1
  Ca2+  Ca31  1  0.82150319  0.42169950  0.50254487  1
  Ca2+  Ca32  1  0.82637267  0.41772763  0.83596794  1
  Ca2+  Ca33  1  0.83399974  0.91284809  0.17091157  1
  Ca2+  Ca34  1  0.83199084  0.91662861  0.49841831  1
  Ca2+  Ca35  1  0.82368387  0.90650541  0.83836671  1
  Ca2+  Ca36  1  0.40606534  0.17219089  0.16144002  1
  Ca2+  Ca37  1  0.41013731  0.16873222  0.49972216  1
  Ca2+  Ca38  1  0.40677712  0.17410338  0.82877528  1
  Ca2+  Ca39  1  0.42482847  0.66700367  0.16075097  1
  Ca2+  Ca40  1  0.42333008  0.66244484  0.49106874  1
  Ca2+  Ca41  1  0.41881431  0.67644730  0.83577793  1
  Ca2+  Ca42  1  0.92244410  0.16551693  0.16225955  1
  Ca2+  Ca43  1  0.91565011  0.16720295  0.49110831  1
  Ca2+  Ca44  1  0.92671419  0.16236887  0.83330134  1
  Ca2+  Ca45  1  0.91960793  0.67605088  0.16087818  1
  Ca2+  Ca46  1  0.91914253  0.67047238  0.49266879  1
  Ca2+  Ca47  1  0.92737135  0.67164830  0.83409999  1
  Al0+  Al48  1  -0.00048231  0.00169823  -0.00833629  1
  Al0+  Al49  1  -0.00012828  0.00040099  0.33727829  1
  Al0+  Al50  1  0.00099697  -0.00042011  0.66461987  1
  Al0+  Al51  1  -0.00293648  0.49975850  -0.00137600  1
  Al0+  Al52  1  -0.00225251  0.49969405  0.33916455  1
  Al0+  Al53  1  0.00020076  0.49945465  0.66688752  1
  Al0+  Al54  1  0.50277903  0.00165728  0.00830417  1
  Al0+  Al55  1  0.50024111  0.00143416  0.33484785  1
  Al0+  Al56  1  0.50154056  0.00214073  0.67312158  1
  Al0+  Al57  1  0.49829194  0.49846186  -0.00807461  1
  Al0+  Al58  1  0.49816955  0.49895302  0.33465950  1
  Al0+  Al59  1  0.49897129  0.50028313  0.66618512  1
  Al0+  Al60  1  0.24854565  0.25077227  -0.00470617  1
  Al0+  Al61  1  0.24994815  0.24897730  0.33881930  1
  Al0+  Al62  1  0.25021598  0.25163110  0.66706031  1
  Al0+  Al63  1  0.25159177  0.74868303  -0.00359030  1
  Al0+  Al64  1  0.25052745  0.75000701  0.34072528  1
  Al0+  Al65  1  0.25115982  0.74941515  0.65962252  1
  Al0+  Al66  1  0.74782290  0.25017864  -0.00047091  1
  Al0+  Al67  1  0.74893908  0.24881340  0.33795846  1
  Al0+  Al68  1  0.75048632  0.24997539  0.67264229  1
  Al0+  Al69  1  0.75115478  0.74733459  -0.00405869  1
  Al0+  Al70  1  0.75043299  0.74889093  0.32924547  1
  Al0+  Al71  1  0.75122816  0.74974786  0.66922761  1
  Al0+  Al72  1  0.17742615  0.92818558  0.34832393  1
  Al0+  Al73  1  0.32259837  0.07105167  0.34932986  1
  Al0+  Al74  1  0.82049382  0.57430189  0.34824323  1
  Al0+  Al75  1  0.67762568  0.42837994  0.34656796  1
  Al0+  Al76  1  0.32145829  0.07387767  0.01583559  1
  Al0+  Al77  1  0.06960598  0.18072258  0.98651665  1
  Al0+  Al78  1  0.17800007  0.42874209  0.34642166  1
  Al0+  Al79  1  0.42951538  0.31842692  0.98691225  1
  Al0+  Al80  1  0.32152270  0.57190235  0.34700431  1
  Al0+  Al81  1  0.07304313  0.67709130  0.98737455  1
  Al0+  Al82  1  0.68158606  0.92920275  0.67958967  1
  Al0+  Al83  1  0.93159295  0.82091638  0.31952462  1
  Al0+  Al84  1  0.92939703  0.82272006  0.98384646  1
  Al0+  Al85  1  0.31893031  0.06970375  0.68198220  1
  Al0+  Al86  1  0.57138281  0.67851915  0.98325762  1
  Al0+  Al87  1  0.67751382  0.42953729  0.68287416  1
  Al0+  Al88  1  0.42929677  0.32079374  0.64888801  1
  Al0+  Al89  1  0.17978766  0.43186850  0.68280675  1
  Al0+  Al90  1  0.07113545  0.67848451  0.64997862  1
  Al0+  Al91  1  0.68100212  0.92669446  0.01603467  1
  Al0+  Al92  1  0.82099200  0.07012048  0.34494279  1
  Al0+  Al93  1  0.17860891  0.92673106  0.01250452  1
  Al0+  Al94  1  0.56835855  0.67920400  0.32062449  1
  Al0+  Al95  1  0.42969582  0.82379928  0.98714470  1
  Si0+  Si96  1  0.07081839  0.17944028  0.64895589  1
  Si0+  Si97  1  0.82163488  0.57116159  0.68588018  1
  Si0+  Si98  1  0.07045319  0.18135536  0.31963881  1
  Si0+  Si99  1  0.67648246  0.42969242  0.01405493  1
  Si0+  Si100  1  0.57407388  0.17724620  0.31841745  1
  Si0+  Si101  1  0.32190344  0.56971214  0.01254225  1
  Si0+  Si102  1  0.82511914  0.07306620  0.68486038  1
  Si0+  Si103  1  0.43107223  0.82429046  0.65170333  1
  Si0+  Si104  1  0.82218935  0.07359918  0.01533674  1
  Si0+  Si105  1  0.32300359  0.57413931  0.68545403  1
  Si0+  Si106  1  0.42929138  0.31769207  0.31900535  1
  Si0+  Si107  1  0.57294215  0.17794158  0.64999276  1
  Si0+  Si108  1  0.92581660  0.32142371  0.31991455  1
  Si0+  Si109  1  0.92528386  0.32278727  0.98390287  1
  Si0+  Si110  1  0.17782419  0.92597719  0.68303746  1
  Si0+  Si111  1  0.17742067  0.42972402  0.01287635  1
  Si0+  Si112  1  0.92748723  0.31988013  0.65096494  1
  Si0+  Si113  1  0.42661348  0.82527209  0.31824415  1
  Si0+  Si114  1  0.67867319  0.92716755  0.34783765  1
  Si0+  Si115  1  0.57537955  0.17776433  0.98345464  1
  Si0+  Si116  1  0.92730903  0.82127258  0.64804200  1
  Si0+  Si117  1  0.07341639  0.67586057  0.31823930  1
  Si0+  Si118  1  0.57136097  0.68015128  0.65080319  1
  Si0+  Si119  1  0.82088410  0.56866096  0.01505303  1
  O2-  O120  1  0.25280814  -0.00308868  0.06284755  1
  O2-  O121  1  0.25476883  -0.00519175  0.39827224  1
  O2-  O122  1  0.24609715  -0.00630382  0.72833574  1
  O2-  O123  1  0.24580650  0.50315125  0.05401886  1
  O2-  O124  1  0.24481268  0.50500287  0.39703105  1
  O2-  O125  1  0.25188001  0.50829095  0.73072742  1
  O2-  O126  1  0.75754536  0.00152706  0.05999335  1
  O2-  O127  1  0.74631869  -0.00353645  0.39265848  1
  O2-  O128  1  0.75769807  0.00262284  0.72703311  1
  O2-  O129  1  0.74763325  0.49941319  0.05663595  1
  O2-  O130  1  0.74926768  0.50062790  0.39687804  1
  O2-  O131  1  0.75133169  0.50421487  0.73117457  1
  O2-  O132  1  0.00040373  0.25421995  0.27741506  1
  O2-  O133  1  -0.00370364  0.24731233  0.60711888  1
  O2-  O134  1  -0.00635838  0.25455247  0.93888534  1
  O2-  O135  1  0.00752923  0.74670661  0.27357427  1
  O2-  O136  1  -0.00131378  0.75575230  0.60401556  1
  O2-  O137  1  0.00665311  0.75437470  0.93651569  1
  O2-  O138  1  0.50037292  0.24637984  0.27697255  1
  O2-  O139  1  0.50721549  0.24812194  0.60322287  1
  O2-  O140  1  0.50181997  0.24146707  0.94001362  1
  O2-  O141  1  0.49363136  0.75434179  0.27506431  1
  O2-  O142  1  0.50082300  0.75184510  0.60904950  1
  O2-  O143  1  0.50408156  0.75537777  0.93389460  1
  O2-  O144  1  0.06952441  0.18337581  0.09999165  1
  O2-  O145  1  0.06912754  0.18288017  0.42511207  1
  O2-  O146  1  0.06967537  0.18036988  0.75406054  1
  O2-  O147  1  0.06909076  0.66965520  0.10041717  1
  O2-  O148  1  0.06956650  0.67600333  0.42392752  1
  O2-  O149  1  0.06901877  0.67884406  0.76300875  1
  O2-  O150  1  0.58274731  0.18377299  0.08885385  1
  O2-  O151  1  0.57677990  0.17692887  0.42335520  1
  O2-  O152  1  0.57182102  0.17826232  0.75554571  1
  O2-  O153  1  0.56882818  0.67478432  0.09679908  1
  O2-  O154  1  0.56852035  0.68119759  0.43443684  1
  O2-  O155  1  0.57077811  0.68042504  0.75570345  1
  O2-  O156  1  0.18131718  0.42551820  0.23225188  1
  O2-  O157  1  0.18034805  0.43169840  0.57005329  1
  O2-  O158  1  0.17785653  0.42935568  0.90781005  1
  O2-  O159  1  0.17496449  0.93132422  0.23492361  1
  O2-  O160  1  0.17777079  0.92858543  0.57748372  1
  O2-  O161  1  0.18063318  0.92904489  0.89856455  1
  O2-  O162  1  0.67867178  0.42765737  0.23247687  1
  O2-  O163  1  0.67947283  0.43110980  0.57009951  1
  O2-  O164  1  0.67849815  0.43013689  0.90884262  1
  O2-  O165  1  0.67966966  0.92829015  0.24262971  1
  O2-  O166  1  0.68236824  0.92977686  0.56619717  1
  O2-  O167  1  0.68211094  0.92898347  0.90254464  1
  O2-  O168  1  0.43101270  0.32124685  0.10048441  1
  O2-  O169  1  0.42959588  0.31711564  0.42391657  1
  O2-  O170  1  0.42948537  0.31889389  0.76211105  1
  O2-  O171  1  0.42902542  0.81825870  0.10066881  1
  O2-  O172  1  0.43160216  0.82751942  0.42435048  1
  O2-  O173  1  0.43158154  0.82413612  0.75653821  1
  O2-  O174  1  0.92517478  0.32330660  0.08960243  1
  O2-  O175  1  0.92371823  0.31798909  0.42510180  1
  O2-  O176  1  0.92803755  0.31873221  0.75627227  1
  O2-  O177  1  0.92887103  0.81990771  0.09758495  1
  O2-  O178  1  0.93127723  0.82047381  0.43298060  1
  O2-  O179  1  0.92585733  0.81991993  0.75322791  1
  O2-  O180  1  0.31851268  0.07537588  0.23651171  1
  O2-  O181  1  0.31817640  0.06795558  0.56891753  1
  O2-  O182  1  0.31712739  0.07585328  0.90211177  1
  O2-  O183  1  0.32313921  0.56795419  0.23281979  1
  O2-  O184  1  0.32404004  0.57195674  0.58003314  1
  O2-  O185  1  0.32450972  0.56705396  0.90753194  1
  O2-  O186  1  0.82040184  0.07163091  0.23214765  1
  O2-  O187  1  0.82451629  0.07495884  0.57915073  1
  O2-  O188  1  0.81819567  0.07799778  0.90980517  1
  O2-  O189  1  0.82015198  0.57198061  0.23428251  1
  O2-  O190  1  0.82012435  0.57096259  0.58049377  1
  O2-  O191  1  0.82315070  0.56463547  0.90987105  1
  O2-  O192  1  0.03938910  0.09067632  0.27325861  1
  O2-  O193  1  0.04598593  0.08611851  0.60221945  1
  O2-  O194  1  0.04037783  0.08686244  0.92650033  1
  O2-  O195  1  0.04725990  0.58123954  0.27395505  1
  O2-  O196  1  0.03779801  0.58145404  0.59793568  1
  O2-  O197  1  0.03668867  0.58088359  0.93172062  1
  O2-  O198  1  0.54932830  0.08453123  0.27085146  1
  O2-  O199  1  0.54564162  0.08460181  0.60377577  1
  O2-  O200  1  0.55568247  0.08155487  0.94218020  1
  O2-  O201  1  0.53760857  0.58186371  0.26693220  1
  O2-  O202  1  0.54233536  0.58866649  0.60384688  1
  O2-  O203  1  0.53759513  0.58269980  0.92785911  1
  O2-  O204  1  0.16228471  0.20982682  0.27258632  1
  O2-  O205  1  0.16066913  0.21224369  0.60183482  1
  O2-  O206  1  0.16276878  0.21584382  0.92869856  1
  O2-  O207  1  0.17001828  0.69695016  0.27649029  1
  O2-  O208  1  0.16916326  0.70460985  0.59571474  1
  O2-  O209  1  0.17232489  0.69739165  0.93258278  1
  O2-  O210  1  0.66445397  0.20760391  0.26914751  1
  O2-  O211  1  0.66930978  0.20070139  0.60740355  1
  O2-  O212  1  0.66588218  0.20763346  0.93229219  1
  O2-  O213  1  0.66470749  0.70861957  0.26577947  1
  O2-  O214  1  0.66436389  0.70737399  0.60523756  1
  O2-  O215  1  0.67065596  0.70094528  0.93037754  1
  O2-  O216  1  0.08349378  0.45202577  0.05892475  1
  O2-  O217  1  0.07804277  0.44891007  0.39955482  1
  O2-  O218  1  0.08124618  0.45832073  0.73589900  1
  O2-  O219  1  0.07885021  0.95886084  0.06077477  1
  O2-  O220  1  0.08305760  0.96359415  0.40511989  1
  O2-  O221  1  0.08283513  0.95067363  0.72664921  1
  O2-  O222  1  0.58417975  0.45787447  0.05956510  1
  O2-  O223  1  0.58039203  0.45688144  0.40010777  1
  O2-  O224  1  0.58068843  0.46110502  0.73557101  1
  O2-  O225  1  0.58639520  0.95776366  0.07323195  1
  O2-  O226  1  0.58543597  0.95260169  0.39461857  1
  O2-  O227  1  0.58702304  0.96187465  0.73604981  1
  O2-  O228  1  0.20841751  0.33930526  0.06015555  1
  O2-  O229  1  0.21056708  0.33319551  0.40230917  1
  O2-  O230  1  0.21218019  0.33522017  0.73538922  1
  O2-  O231  1  0.20335897  0.82649271  0.06418999  1
  O2-  O232  1  0.19898967  0.82890473  0.40208330  1
  O2-  O233  1  0.20305328  0.83073081  0.72489168  1
  O2-  O234  1  0.70270344  0.33693253  0.06035044  1
  O2-  O235  1  0.70672128  0.33145394  0.40180484  1
  O2-  O236  1  0.70871747  0.33297229  0.73742694  1
  O2-  O237  1  0.71105790  0.82821048  0.06643808  1
  O2-  O238  1  0.70575384  0.83460911  0.39413966  1
  O2-  O239  1  0.71107513  0.83257456  0.73468071  1
  O2-  O240  1  0.45677059  0.40936593  0.27129717  1
  O2-  O241  1  0.45923495  0.41886702  0.59702660  1
  O2-  O242  1  0.46235799  0.41192012  0.92830437  1
  O2-  O243  1  0.45230696  0.91872458  0.27178140  1
  O2-  O244  1  0.46212867  0.91568157  0.60501806  1
  O2-  O245  1  0.45679019  0.92454149  0.93809147  1
  O2-  O246  1  0.94924239  0.41515819  0.27406707  1
  O2-  O247  1  0.95603051  0.41143302  0.60428057  1
  O2-  O248  1  0.95014726  0.41534458  0.93597343  1
  O2-  O249  1  0.96030816  0.91935333  0.26739042  1
  O2-  O250  1  0.94901480  0.91734587  0.60410160  1
  O2-  O251  1  0.94679298  0.92265367  0.92991661  1
  O2-  O252  1  0.33710449  0.28882760  0.27214352  1
  O2-  O253  1  0.33270645  0.28762454  0.59617075  1
  O2-  O254  1  0.33307711  0.29111948  0.93101552  1
  O2-  O255  1  0.33096132  0.80187459  0.27604185  1
  O2-  O256  1  0.33909826  0.79931850  0.60317047  1
  O2-  O257  1  0.33383035  0.79245035  0.93050435  1
  O2-  O258  1  0.83554571  0.29022614  0.27104845  1
  O2-  O259  1  0.83456767  0.29283947  0.60466076  1
  O2-  O260  1  0.83148808  0.29736473  0.93716203  1
  O2-  O261  1  0.83497926  0.79054062  0.26540748  1
  O2-  O262  1  0.83432018  0.79241215  0.60162004  1
  O2-  O263  1  0.83472000  0.78530180  0.92891093  1
  O2-  O264  1  0.42278046  0.05669386  0.06657478  1
  O2-  O265  1  0.42304026  0.04845549  0.40209432  1
  O2-  O266  1  0.41675142  0.04365708  0.73520406  1
  O2-  O267  1  0.41172299  0.53492824  0.06019394  1
  O2-  O268  1  0.41616927  0.53681550  0.40302923  1
  O2-  O269  1  0.41551409  0.54596086  0.73172545  1
  O2-  O270  1  0.91814284  0.05348805  0.05743428  1
  O2-  O271  1  0.91553076  0.04115074  0.40312389  1
  O2-  O272  1  0.91991093  0.04832817  0.72911539  1
  O2-  O273  1  0.91078382  0.53799026  0.06510186  1
  O2-  O274  1  0.91734847  0.54566189  0.40341653  1
  O2-  O275  1  0.91386586  0.54128089  0.73175773  1
  O2-  O276  1  0.28498717  0.17124923  0.06732944  1
  O2-  O277  1  0.28839564  0.16627500  0.40505957  1
  O2-  O278  1  0.28499026  0.16609999  0.73330282  1
  O2-  O279  1  0.29964879  0.66226750  0.05980015  1
  O2-  O280  1  0.30386576  0.67148962  0.40138854  1
  O2-  O281  1  0.30015913  0.67016827  0.72766056  1
  O2-  O282  1  0.79380696  0.16666243  0.06292277  1
  O2-  O283  1  0.78995225  0.16494259  0.40252029  1
  O2-  O284  1  0.80054078  0.16582453  0.73278812  1
  O2-  O285  1  0.79492124  0.66087464  0.06067061  1
  O2-  O286  1  0.79004100  0.67118329  0.40261424  1
  O2-  O287  1  0.79706936  0.66495506  0.73155908  1
