# generated using pymatgen
data_Ca2Al2SiO7
_symmetry_space_group_name_H-M   'P 1'
_cell_length_a   15.45576472
_cell_length_b   15.45574139
_cell_length_c   15.28230715
_cell_angle_alpha   89.99446814
_cell_angle_beta   90.00058106
_cell_angle_gamma   90.01309941
_symmetry_Int_Tables_number   1
_chemical_formula_structural   Ca2Al2SiO7
_chemical_formula_sum   'Ca48 Al48 Si24 O168'
_cell_volume   3650.64204183
_cell_formula_units_Z   24
loop_
 _symmetry_equiv_pos_site_id
 _symmetry_equiv_pos_as_xyz
  1  'x, y, z'
loop_
 _atom_type_symbol
 _atom_type_oxidation_number
  Ca2+  2.0
  Al0+  0.0
  Si0+  0.0
  O2-  -2.0
loop_
 _atom_site_type_symbol
 _atom_site_label
 _atom_site_symmetry_multiplicity
 _atom_site_fract_x
 _atom_site_fract_y
 _atom_site_fract_z
 _atom_site_occupancy
  Ca2+  Ca0  1  0.16520990  0.07997586  0.16971367  1
  Ca2+  Ca1  1  0.17515414  0.09045452  0.50394808  1
  Ca2+  Ca2  1  0.17198022  0.08664133  0.83796869  1
  Ca2+  Ca3  1  0.17705049  0.58183643  0.16715460  1
  Ca2+  Ca4  1  0.17950056  0.57762130  0.51048311  1
  Ca2+  Ca5  1  0.17733154  0.57016079  0.84092812  1
  Ca2+  Ca6  1  0.67323867  0.07657608  0.17042809  1
  Ca2+  Ca7  1  0.66466409  0.07809954  0.50212468  1
  Ca2+  Ca8  1  0.66964940  0.08465331  0.84580525  1
  Ca2+  Ca9  1  0.66298028  0.57590479  0.16490039  1
  Ca2+  Ca10  1  0.67026967  0.58592211  0.50933210  1
  Ca2+  Ca11  1  0.66469246  0.58049109  0.83476619  1
  Ca2+  Ca12  1  0.08551337  0.32140573  0.15984435  1
  Ca2+  Ca13  1  0.09282509  0.32404440  0.50018684  1
  Ca2+  Ca14  1  0.09342330  0.32678435  0.82969163  1
  Ca2+  Ca15  1  0.07861271  0.83790335  0.15411657  1
  Ca2+  Ca16  1  0.08211231  0.83092195  0.49622399  1
  Ca2+  Ca17  1  0.07811784  0.83909057  0.83589254  1
  Ca2+  Ca18  1  0.58299624  0.32709644  0.15575214  1
  Ca2+  Ca19  1  0.57613582  0.32941184  0.50201190  1
  Ca2+  Ca20  1  0.58142604  0.32539765  0.82818112  1
  Ca2+  Ca21  1  0.57416013  0.84232640  0.16142319  1
  Ca2+  Ca22  1  0.57887520  0.82817528  0.49409005  1
  Ca2+  Ca23  1  0.57695630  0.83235451  0.83072756  1
  Ca2+  Ca24  1  0.33247016  0.42789674  0.16777665  1
  Ca2+  Ca25  1  0.33209882  0.42378157  0.51171876  1
  Ca2+  Ca26  1  0.33243858  0.42066766  0.83552975  1
  Ca2+  Ca27  1  0.33315867  0.91854683  0.17090612  1
  Ca2+  Ca28  1  0.34076975  0.92790143  0.49976123  1
  Ca2+  Ca29  1  0.33043627  0.92128538  0.84015549  1
  Ca2+  Ca30  1  0.82504983  0.41030586  0.16498227  1
  Ca2+  Ca31  1  0.83180771  0.42300179  0.50709747  1
  Ca2+  Ca32  1  0.82847925  0.42239371  0.83802521  1
  Ca2+  Ca33  1  0.82644472  0.92437469  0.16702317  1
  Ca2+  Ca34  1  0.82810565  0.92148647  0.49934276  1
  Ca2+  Ca35  1  0.82506945  0.92214629  0.84579225  1
  Ca2+  Ca36  1  0.42301136  0.16265293  0.16081981  1
  Ca2+  Ca37  1  0.41161469  0.16915238  0.50050878  1
  Ca2+  Ca38  1  0.42811713  0.16815175  0.82307383  1
  Ca2+  Ca39  1  0.40877946  0.67655231  0.16128071  1
  Ca2+  Ca40  1  0.41737442  0.66672739  0.49443349  1
  Ca2+  Ca41  1  0.41565829  0.66785962  0.83018471  1
  Ca2+  Ca42  1  0.92416761  0.15519517  0.16059019  1
  Ca2+  Ca43  1  0.92910581  0.16327444  0.49369315  1
  Ca2+  Ca44  1  0.92875430  0.16121579  0.83182686  1
  Ca2+  Ca45  1  0.92032566  0.67635233  0.15768547  1
  Ca2+  Ca46  1  0.91714005  0.66453691  0.49733355  1
  Ca2+  Ca47  1  0.91048746  0.67347184  0.82892842  1
  Al0+  Al48  1  0.00108579  -0.00029523  -0.00332757  1
  Al0+  Al49  1  -0.00110510  -0.00127342  0.33390766  1
  Al0+  Al50  1  -0.00223146  0.00000959  0.66019063  1
  Al0+  Al51  1  0.00175059  0.49908591  0.00470893  1
  Al0+  Al52  1  -0.00123789  0.49774012  0.33026975  1
  Al0+  Al53  1  -0.00092012  0.50153273  0.67501568  1
  Al0+  Al54  1  0.50026275  -0.00086812  -0.00691473  1
  Al0+  Al55  1  0.49929716  -0.00122534  0.33767948  1
  Al0+  Al56  1  0.49984858  -0.00150982  0.66686851  1
  Al0+  Al57  1  0.50087656  0.50163427  0.00846539  1
  Al0+  Al58  1  0.50044215  0.49968593  0.33632447  1
  Al0+  Al59  1  0.50168838  0.50052798  0.66228257  1
  Al0+  Al60  1  0.25127350  0.25210208  0.00051475  1
  Al0+  Al61  1  0.24947014  0.24975931  0.32888890  1
  Al0+  Al62  1  0.25148401  0.24838652  0.66659984  1
  Al0+  Al63  1  0.24905852  0.75169948  0.00084531  1
  Al0+  Al64  1  0.25050654  0.74854943  0.33450538  1
  Al0+  Al65  1  0.24703943  0.75115536  0.66906060  1
  Al0+  Al66  1  0.75277216  0.25142032  0.00350445  1
  Al0+  Al67  1  0.75087883  0.25006741  0.33922979  1
  Al0+  Al68  1  0.75175511  0.24905416  0.66130360  1
  Al0+  Al69  1  0.74872332  0.75056434  0.00027352  1
  Al0+  Al70  1  0.74947993  0.74823743  0.33426224  1
  Al0+  Al71  1  0.74820627  0.75167462  0.66557435  1
  Al0+  Al72  1  0.67608735  0.92803689  0.01379739  1
  Al0+  Al73  1  0.81998337  0.57282036  0.68028549  1
  Al0+  Al74  1  0.57191363  0.17973684  0.98914315  1
  Al0+  Al75  1  0.07126929  0.17999004  0.98550801  1
  Al0+  Al76  1  0.32079647  0.06885404  0.68102647  1
  Al0+  Al77  1  0.07044368  0.17948397  0.31782252  1
  Al0+  Al78  1  0.82241438  0.07119741  0.35110192  1
  Al0+  Al79  1  0.07027165  0.17974703  0.65204370  1
  Al0+  Al80  1  0.31986494  0.07126891  0.34532200  1
  Al0+  Al81  1  0.82199265  0.07127627  0.01292568  1
  Al0+  Al82  1  0.17818422  0.42586371  0.01853249  1
  Al0+  Al83  1  0.68039318  0.42964459  0.01183067  1
  Al0+  Al84  1  0.43037815  0.82005864  0.31985770  1
  Al0+  Al85  1  0.32451677  0.57336002  0.68253666  1
  Al0+  Al86  1  0.18026334  0.93193978  0.01151357  1
  Al0+  Al87  1  0.42741335  0.82100059  0.98521481  1
  Al0+  Al88  1  0.17997053  0.42800827  0.68156432  1
  Al0+  Al89  1  0.32004607  0.57112897  0.34939233  1
  Al0+  Al90  1  0.32138568  0.57190137  0.01609393  1
  Al0+  Al91  1  0.57379170  0.17586480  0.64971042  1
  Al0+  Al92  1  0.92839542  0.81986796  0.98607960  1
  Al0+  Al93  1  0.67803503  0.92826653  0.34999851  1
  Al0+  Al94  1  0.56968604  0.68091146  0.65382256  1
  Al0+  Al95  1  0.42985997  0.31991003  0.65219769  1
  Si0+  Si96  1  0.92855249  0.81901474  0.31793223  1
  Si0+  Si97  1  0.67831640  0.42811721  0.35076535  1
  Si0+  Si98  1  0.32353444  0.07248146  0.01461513  1
  Si0+  Si99  1  0.06952729  0.67820110  0.65303961  1
  Si0+  Si100  1  0.07085245  0.67742331  0.31897086  1
  Si0+  Si101  1  0.43004410  0.32443718  0.98556492  1
  Si0+  Si102  1  0.57125510  0.17974344  0.31918595  1
  Si0+  Si103  1  0.68002148  0.92998399  0.68216373  1
  Si0+  Si104  1  0.57373761  0.67626236  0.31465072  1
  Si0+  Si105  1  0.82282741  0.57376078  0.01732810  1
  Si0+  Si106  1  0.67920941  0.42649647  0.68167934  1
  Si0+  Si107  1  0.82178565  0.07104496  0.68105637  1
  Si0+  Si108  1  0.42427162  0.82137966  0.64942284  1
  Si0+  Si109  1  0.17372511  0.92817840  0.68255897  1
  Si0+  Si110  1  0.92802789  0.32492980  0.65072742  1
  Si0+  Si111  1  0.92810441  0.32446172  0.98268368  1
  Si0+  Si112  1  0.17758209  0.42853505  0.34959493  1
  Si0+  Si113  1  0.92558925  0.32289917  0.31555852  1
  Si0+  Si114  1  0.17665633  0.92687191  0.34949543  1
  Si0+  Si115  1  0.57114754  0.67644947  0.98442646  1
  Si0+  Si116  1  0.92775394  0.82027399  0.64927965  1
  Si0+  Si117  1  0.42969414  0.32230559  0.31687118  1
  Si0+  Si118  1  0.82120463  0.56970353  0.34670983  1
  Si0+  Si119  1  0.07169113  0.67680921  0.98243544  1
  O2-  O120  1  0.25391873  0.00578557  0.06030063  1
  O2-  O121  1  0.24418094  -0.00316559  0.39262255  1
  O2-  O122  1  0.24460847  -0.00535626  0.72563724  1
  O2-  O123  1  0.24941746  0.49959775  0.06637719  1
  O2-  O124  1  0.24558691  0.49641999  0.39553995  1
  O2-  O125  1  0.25350267  0.49939004  0.73015171  1
  O2-  O126  1  0.74723798  0.00162787  0.06225050  1
  O2-  O127  1  0.74865639  0.00113071  0.40166875  1
  O2-  O128  1  0.74523534  0.00666495  0.72325881  1
  O2-  O129  1  0.75558505  0.50354330  0.06124314  1
  O2-  O130  1  0.74984595  0.50010200  0.39038120  1
  O2-  O131  1  0.74736079  0.49609444  0.72551538  1
  O2-  O132  1  -0.00748299  0.25218440  0.27274161  1
  O2-  O133  1  -0.00252466  0.25740970  0.60591861  1
  O2-  O134  1  -0.00141097  0.25763736  0.93900795  1
  O2-  O135  1  0.00196472  0.75021151  0.27620203  1
  O2-  O136  1  -0.00053426  0.74931138  0.60769906  1
  O2-  O137  1  -0.00053541  0.74197084  0.93776048  1
  O2-  O138  1  0.50074237  0.25071364  0.27533343  1
  O2-  O139  1  0.50023677  0.24662054  0.59992079  1
  O2-  O140  1  0.49689241  0.25379356  0.94213427  1
  O2-  O141  1  0.50506855  0.74511220  0.27192174  1
  O2-  O142  1  0.48981773  0.74913244  0.60585501  1
  O2-  O143  1  0.50315625  0.74585750  0.94077835  1
  O2-  O144  1  0.06904860  0.17844063  0.09874386  1
  O2-  O145  1  0.07130422  0.18256249  0.43107274  1
  O2-  O146  1  0.06790162  0.17660490  0.76476373  1
  O2-  O147  1  0.06985001  0.67932303  0.08881534  1
  O2-  O148  1  0.06775709  0.67704633  0.42446110  1
  O2-  O149  1  0.06776498  0.68002079  0.75750357  1
  O2-  O150  1  0.57006686  0.18057555  0.10303913  1
  O2-  O151  1  0.57056832  0.18235764  0.42408285  1
  O2-  O152  1  0.57605953  0.17820453  0.76332985  1
  O2-  O153  1  0.57135831  0.67475526  0.09006381  1
  O2-  O154  1  0.57563320  0.67609016  0.42041290  1
  O2-  O155  1  0.57403999  0.68508640  0.76652135  1
  O2-  O156  1  0.17821305  0.43118178  0.24436268  1
  O2-  O157  1  0.17913281  0.43169162  0.56722800  1
  O2-  O158  1  0.17963613  0.42643882  0.90528949  1
  O2-  O159  1  0.17524828  0.92642965  0.24403521  1
  O2-  O160  1  0.17158503  0.92689376  0.57671657  1
  O2-  O161  1  0.17999937  0.93335165  0.89838640  1
  O2-  O162  1  0.67805722  0.42734437  0.24558962  1
  O2-  O163  1  0.68180386  0.42783001  0.57553530  1
  O2-  O164  1  0.68088571  0.43132325  0.89894670  1
  O2-  O165  1  0.67896147  0.92957399  0.23692806  1
  O2-  O166  1  0.68329989  0.92751193  0.57699993  1
  O2-  O167  1  0.67818471  0.92805547  0.89968034  1
  O2-  O168  1  0.43263000  0.32415630  0.09189688  1
  O2-  O169  1  0.43046217  0.32352773  0.42168687  1
  O2-  O170  1  0.43327218  0.31945435  0.76584929  1
  O2-  O171  1  0.42750983  0.82151244  0.09854423  1
  O2-  O172  1  0.43144489  0.81793975  0.43307322  1
  O2-  O173  1  0.42613974  0.82261498  0.75489158  1
  O2-  O174  1  0.92708426  0.32444944  0.08843783  1
  O2-  O175  1  0.92623238  0.32877854  0.42090750  1
  O2-  O176  1  0.92445196  0.32351044  0.75589905  1
  O2-  O177  1  0.93084964  0.81822996  0.09966367  1
  O2-  O178  1  0.92882357  0.81608493  0.42360719  1
  O2-  O179  1  0.92714077  0.82130745  0.75403128  1
  O2-  O180  1  0.32107825  0.07020765  0.23232985  1
  O2-  O181  1  0.31914565  0.06798439  0.56742214  1
  O2-  O182  1  0.32261545  0.07096017  0.90902696  1
  O2-  O183  1  0.31852490  0.57169871  0.23674140  1
  O2-  O184  1  0.32089953  0.57354912  0.56847515  1
  O2-  O185  1  0.32237467  0.56998199  0.90280917  1
  O2-  O186  1  0.82264243  0.06872375  0.23797065  1
  O2-  O187  1  0.82453428  0.06644217  0.57610028  1
  O2-  O188  1  0.82116526  0.06977582  0.89868413  1
  O2-  O189  1  0.82152130  0.56974129  0.24191871  1
  O2-  O190  1  0.81952919  0.57184708  0.56633119  1
  O2-  O191  1  0.82140400  0.57415889  0.91180248  1
  O2-  O192  1  0.04115334  0.08027603  0.26743566  1
  O2-  O193  1  0.03644691  0.08433977  0.59577900  1
  O2-  O194  1  0.03847160  0.08506361  0.92974134  1
  O2-  O195  1  0.04044292  0.58687129  0.27026382  1
  O2-  O196  1  0.03969888  0.58701823  0.60507315  1
  O2-  O197  1  0.04932110  0.58119299  0.93955097  1
  O2-  O198  1  0.54289044  0.08737600  0.27436220  1
  O2-  O199  1  0.54528189  0.07650823  0.59866985  1
  O2-  O200  1  0.54276499  0.08485382  0.93179838  1
  O2-  O201  1  0.54810775  0.58135442  0.27078328  1
  O2-  O202  1  0.54879917  0.58277031  0.59812498  1
  O2-  O203  1  0.54444121  0.58291052  0.93840741  1
  O2-  O204  1  0.16606908  0.21096280  0.26196404  1
  O2-  O205  1  0.16702790  0.20922321  0.59813933  1
  O2-  O206  1  0.16978352  0.20923979  0.93359456  1
  O2-  O207  1  0.16294229  0.70340633  0.27243318  1
  O2-  O208  1  0.16094717  0.70640409  0.60376573  1
  O2-  O209  1  0.16320710  0.70665095  0.93618045  1
  O2-  O210  1  0.66436947  0.20836175  0.27461180  1
  O2-  O211  1  0.67201945  0.20453833  0.59514044  1
  O2-  O212  1  0.66916989  0.21182715  0.93704152  1
  O2-  O213  1  0.66848463  0.69913747  0.26906554  1
  O2-  O214  1  0.66465591  0.71665106  0.59693958  1
  O2-  O215  1  0.66578300  0.69913871  0.93915391  1
  O2-  O216  1  0.07908781  0.45266158  0.07196302  1
  O2-  O217  1  0.08234436  0.45287177  0.39354869  1
  O2-  O218  1  0.08216248  0.45659064  0.73548476  1
  O2-  O219  1  0.08419153  0.96221415  0.06648744  1
  O2-  O220  1  0.08257048  0.94932841  0.39609625  1
  O2-  O221  1  0.07962698  0.95557098  0.72690050  1
  O2-  O222  1  0.58685503  0.46086404  0.07188024  1
  O2-  O223  1  0.58750700  0.45659021  0.39908821  1
  O2-  O224  1  0.58612902  0.45252752  0.72648519  1
  O2-  O225  1  0.57746707  0.95734044  0.06501835  1
  O2-  O226  1  0.58077067  0.95618293  0.40497614  1
  O2-  O227  1  0.58582001  0.95010161  0.72707683  1
  O2-  O228  1  0.20875067  0.32851082  0.07263170  1
  O2-  O229  1  0.20433665  0.33448530  0.39301556  1
  O2-  O230  1  0.20763830  0.32948122  0.73276284  1
  O2-  O231  1  0.20607030  0.83472362  0.06644153  1
  O2-  O232  1  0.20207382  0.83332348  0.39616422  1
  O2-  O233  1  0.19480291  0.83380603  0.72880547  1
  O2-  O234  1  0.71239117  0.33559369  0.07072904  1
  O2-  O235  1  0.70628190  0.33783283  0.40038833  1
  O2-  O236  1  0.70657438  0.33280378  0.72647705  1
  O2-  O237  1  0.70409359  0.82963350  0.06694336  1
  O2-  O238  1  0.70888076  0.82885335  0.40160826  1
  O2-  O239  1  0.71465623  0.84110747  0.73020417  1
  O2-  O240  1  0.46049427  0.41385306  0.26984326  1
  O2-  O241  1  0.46014782  0.41727306  0.59651889  1
  O2-  O242  1  0.45937818  0.41760010  0.94132322  1
  O2-  O243  1  0.46042621  0.91770000  0.26696066  1
  O2-  O244  1  0.45586123  0.91298814  0.60281867  1
  O2-  O245  1  0.45839281  0.91567613  0.92750166  1
  O2-  O246  1  0.95091308  0.41581991  0.26628315  1
  O2-  O247  1  0.95180481  0.42047023  0.60643048  1
  O2-  O248  1  0.95045503  0.42017131  0.93861016  1
  O2-  O249  1  0.95442063  0.91124473  0.27180306  1
  O2-  O250  1  0.95620759  0.91049609  0.59871465  1
  O2-  O251  1  0.96297006  0.91367158  0.92949033  1
  O2-  O252  1  0.33801558  0.29594536  0.26917602  1
  O2-  O253  1  0.33216188  0.29148820  0.59755610  1
  O2-  O254  1  0.33567778  0.30255045  0.94088822  1
  O2-  O255  1  0.33212462  0.78998294  0.26764845  1
  O2-  O256  1  0.32833076  0.80199329  0.60500752  1
  O2-  O257  1  0.33058067  0.79115955  0.93109798  1
  O2-  O258  1  0.83021786  0.29904925  0.27161936  1
  O2-  O259  1  0.83572358  0.29963104  0.60104828  1
  O2-  O260  1  0.83470727  0.29930358  0.93620014  1
  O2-  O261  1  0.83780695  0.78744211  0.27087200  1
  O2-  O262  1  0.83749570  0.78997518  0.60036759  1
  O2-  O263  1  0.83111800  0.79031513  0.93169705  1
  O2-  O264  1  0.41641794  0.04383005  0.05967446  1
  O2-  O265  1  0.41469561  0.04002167  0.40210608  1
  O2-  O266  1  0.41780546  0.03800570  0.73466978  1
  O2-  O267  1  0.41856918  0.54491254  0.07252930  1
  O2-  O268  1  0.41827015  0.54140514  0.40080963  1
  O2-  O269  1  0.42484887  0.54727296  0.73165399  1
  O2-  O270  1  0.91807993  0.03622609  0.06548077  1
  O2-  O271  1  0.91958403  0.03764851  0.40480221  1
  O2-  O272  1  0.91170928  0.03661367  0.72799068  1
  O2-  O273  1  0.91693540  0.55110481  0.06348533  1
  O2-  O274  1  0.91318305  0.54142591  0.39481590  1
  O2-  O275  1  0.91534793  0.54638573  0.73758284  1
  O2-  O276  1  0.30263385  0.16735427  0.05932093  1
  O2-  O277  1  0.28889891  0.16873860  0.39822152  1
  O2-  O278  1  0.29177648  0.16518587  0.73462077  1
  O2-  O279  1  0.28839705  0.66924311  0.06849747  1
  O2-  O280  1  0.28825049  0.66715967  0.40395725  1
  O2-  O281  1  0.29329263  0.67184459  0.73347462  1
  O2-  O282  1  0.79986172  0.17035150  0.06660473  1
  O2-  O283  1  0.79859403  0.17115994  0.40344965  1
  O2-  O284  1  0.80166619  0.16613780  0.72439311  1
  O2-  O285  1  0.79525974  0.66594954  0.06504247  1
  O2-  O286  1  0.79532410  0.66121246  0.39574938  1
  O2-  O287  1  0.78682435  0.66901300  0.73332660  1
