# generated using pymatgen
data_Ca2Al2SiO7
_symmetry_space_group_name_H-M   'P 1'
_cell_length_a   15.45837431
_cell_length_b   15.45958995
_cell_length_c   15.28460952
_cell_angle_alpha   90.00172133
_cell_angle_beta   89.99569246
_cell_angle_gamma   89.99827037
_symmetry_Int_Tables_number   1
_chemical_formula_structural   Ca2Al2SiO7
_chemical_formula_sum   'Ca48 Al48 Si24 O168'
_cell_volume   3652.71792727
_cell_formula_units_Z   24
loop_
 _symmetry_equiv_pos_site_id
 _symmetry_equiv_pos_as_xyz
  1  'x, y, z'
loop_
 _atom_type_symbol
 _atom_type_oxidation_number
  Ca2+  2.0
  Al0+  0.0
  Si0+  0.0
  O2-  -2.0
loop_
 _atom_site_type_symbol
 _atom_site_label
 _atom_site_symmetry_multiplicity
 _atom_site_fract_x
 _atom_site_fract_y
 _atom_site_fract_z
 _atom_site_occupancy
  Ca2+  Ca0  1  0.16129970  0.07885508  0.17309402  1
  Ca2+  Ca1  1  0.17279872  0.07705280  0.50505222  1
  Ca2+  Ca2  1  0.16964320  0.08532118  0.83825644  1
  Ca2+  Ca3  1  0.17160991  0.58194017  0.17817052  1
  Ca2+  Ca4  1  0.17132015  0.58495212  0.49950233  1
  Ca2+  Ca5  1  0.16896954  0.59297154  0.83386577  1
  Ca2+  Ca6  1  0.66475162  0.07598128  0.17070380  1
  Ca2+  Ca7  1  0.66121895  0.08042753  0.49949015  1
  Ca2+  Ca8  1  0.67508983  0.07371898  0.84435447  1
  Ca2+  Ca9  1  0.67282907  0.58016925  0.16853099  1
  Ca2+  Ca10  1  0.67022128  0.57827301  0.50772071  1
  Ca2+  Ca11  1  0.67959946  0.57761896  0.83915289  1
  Ca2+  Ca12  1  0.07361130  0.33545510  0.16064323  1
  Ca2+  Ca13  1  0.07733985  0.33906982  0.49113507  1
  Ca2+  Ca14  1  0.07553694  0.32999147  0.83668895  1
  Ca2+  Ca15  1  0.09026477  0.82276813  0.16324859  1
  Ca2+  Ca16  1  0.08179034  0.82365550  0.49669945  1
  Ca2+  Ca17  1  0.07286350  0.82179899  0.82413747  1
  Ca2+  Ca18  1  0.57128265  0.33818373  0.16183119  1
  Ca2+  Ca19  1  0.57987375  0.32889248  0.48883152  1
  Ca2+  Ca20  1  0.58447260  0.34177052  0.83339765  1
  Ca2+  Ca21  1  0.59030694  0.83154012  0.16800555  1
  Ca2+  Ca22  1  0.57763630  0.82784731  0.49154918  1
  Ca2+  Ca23  1  0.58131269  0.83446459  0.82775825  1
  Ca2+  Ca24  1  0.32736670  0.41607036  0.17657696  1
  Ca2+  Ca25  1  0.33478439  0.42743982  0.50073579  1
  Ca2+  Ca26  1  0.33409897  0.42361400  0.83723899  1
  Ca2+  Ca27  1  0.32538484  0.92033412  0.17547001  1
  Ca2+  Ca28  1  0.32972350  0.91757553  0.50551926  1
  Ca2+  Ca29  1  0.33759474  0.92229843  0.83307138  1
  Ca2+  Ca30  1  0.83892377  0.41709301  0.16755376  1
  Ca2+  Ca31  1  0.82806592  0.42101323  0.50796796  1
  Ca2+  Ca32  1  0.82590190  0.42292934  0.84052537  1
  Ca2+  Ca33  1  0.82621222  0.92314477  0.16987297  1
  Ca2+  Ca34  1  0.82827878  0.91170120  0.50202723  1
  Ca2+  Ca35  1  0.83187423  0.91731746  0.84352218  1
  Ca2+  Ca36  1  0.41934928  0.17824587  0.16447350  1
  Ca2+  Ca37  1  0.42065795  0.17167551  0.49241610  1
  Ca2+  Ca38  1  0.41591603  0.17387533  0.82953723  1
  Ca2+  Ca39  1  0.42484003  0.65900929  0.16774768  1
  Ca2+  Ca40  1  0.41753039  0.66466940  0.49484816  1
  Ca2+  Ca41  1  0.41768816  0.67382208  0.82376528  1
  Ca2+  Ca42  1  0.91929085  0.17662630  0.15820101  1
  Ca2+  Ca43  1  0.91716978  0.17698104  0.49215986  1
  Ca2+  Ca44  1  0.91527677  0.16554980  0.83598230  1
  Ca2+  Ca45  1  0.93041003  0.66152884  0.15928134  1
  Ca2+  Ca46  1  0.92577004  0.66307905  0.49751109  1
  Ca2+  Ca47  1  0.92239134  0.66054924  0.82705672  1
  Al0+  Al48  1  0.00137890  -0.00177642  0.00107149  1
  Al0+  Al49  1  -0.00203704  0.00014543  0.34040889  1
  Al0+  Al50  1  -0.00037267  -0.00069670  0.66177441  1
  Al0+  Al51  1  0.00242581  0.49796931  -0.00740779  1
  Al0+  Al52  1  0.00101438  0.50160791  0.32949063  1
  Al0+  Al53  1  0.00044850  0.49746248  0.66580603  1
  Al0+  Al54  1  0.49801500  0.00141715  0.00502381  1
  Al0+  Al55  1  0.50079895  -0.00065266  0.33333003  1
  Al0+  Al56  1  0.49891628  0.00109673  0.66703656  1
  Al0+  Al57  1  0.50095200  0.50292754  -0.00304046  1
  Al0+  Al58  1  0.50101934  0.50130143  0.32902138  1
  Al0+  Al59  1  0.49636502  0.49944971  0.67382277  1
  Al0+  Al60  1  0.25177924  0.25163760  -0.00814775  1
  Al0+  Al61  1  0.24856799  0.24967909  0.33515136  1
  Al0+  Al62  1  0.25075415  0.24928867  0.67000965  1
  Al0+  Al63  1  0.25192251  0.75137802  -0.00435733  1
  Al0+  Al64  1  0.24993791  0.75169042  0.33753563  1
  Al0+  Al65  1  0.24889781  0.75081752  0.66368884  1
  Al0+  Al66  1  0.74756735  0.24962626  0.00328617  1
  Al0+  Al67  1  0.75086491  0.24902166  0.32533101  1
  Al0+  Al68  1  0.74859215  0.24732552  0.67008150  1
  Al0+  Al69  1  0.75086698  0.74812938  0.00794737  1
  Al0+  Al70  1  0.74969491  0.75173736  0.33397801  1
  Al0+  Al71  1  0.74998102  0.74902232  0.66751231  1
  Al0+  Al72  1  0.92607463  0.82241167  0.65070001  1
  Al0+  Al73  1  0.07097081  0.17652274  0.98565068  1
  Al0+  Al74  1  0.93022210  0.32231181  0.32074224  1
  Al0+  Al75  1  0.67688651  0.42970606  0.01798788  1
  Al0+  Al76  1  0.67762541  0.42644086  0.67993653  1
  Al0+  Al77  1  0.92563352  0.32018677  0.98226329  1
  Al0+  Al78  1  0.32101559  0.07073128  0.68127879  1
  Al0+  Al79  1  0.07094378  0.68250399  0.31856623  1
  Al0+  Al80  1  0.43059718  0.32265807  0.98324237  1
  Al0+  Al81  1  0.57268826  0.67919387  0.32000944  1
  Al0+  Al82  1  0.07022157  0.67642534  0.64850272  1
  Al0+  Al83  1  0.42802346  0.32193497  0.31982894  1
  Al0+  Al84  1  0.67934644  0.92941491  0.35027337  1
  Al0+  Al85  1  0.43058518  0.82262868  0.65287833  1
  Al0+  Al86  1  0.82389810  0.07090953  0.01614317  1
  Al0+  Al87  1  0.67663722  0.92808525  0.01625613  1
  Al0+  Al88  1  0.82492560  0.56837949  0.01708939  1
  Al0+  Al89  1  0.17684616  0.42823214  0.34657175  1
  Al0+  Al90  1  0.57112945  0.17694977  0.31696737  1
  Al0+  Al91  1  0.32324158  0.57030921  0.34721099  1
  Al0+  Al92  1  0.82207930  0.57112499  0.68029719  1
  Al0+  Al93  1  0.07323425  0.67863598  0.98552340  1
  Al0+  Al94  1  0.17708798  0.92883780  0.34838146  1
  Al0+  Al95  1  0.31806044  0.57222479  0.68178386  1
  Si0+  Si96  1  0.67996737  0.42858982  0.34566908  1
  Si0+  Si97  1  0.31962047  0.07370352  0.01603619  1
  Si0+  Si98  1  0.57268209  0.68101748  0.98412997  1
  Si0+  Si99  1  0.17704987  0.92938142  0.68502458  1
  Si0+  Si100  1  0.67900562  0.92955813  0.67951093  1
  Si0+  Si101  1  0.92712849  0.82366783  0.31532103  1
  Si0+  Si102  1  0.82188211  0.07075693  0.68033219  1
  Si0+  Si103  1  0.42942454  0.82240935  0.98598727  1
  Si0+  Si104  1  0.18241561  0.42867296  0.01245480  1
  Si0+  Si105  1  0.42796927  0.82166241  0.31656723  1
  Si0+  Si106  1  0.07296529  0.17861177  0.65054900  1
  Si0+  Si107  1  0.57023625  0.67687162  0.65216231  1
  Si0+  Si108  1  0.92810717  0.81962953  0.98674776  1
  Si0+  Si109  1  0.32021522  0.57426101  0.01402052  1
  Si0+  Si110  1  0.42783803  0.32193661  0.65172458  1
  Si0+  Si111  1  0.07141834  0.17609479  0.32054802  1
  Si0+  Si112  1  0.17734407  0.42587162  0.68554039  1
  Si0+  Si113  1  0.32174217  0.07192398  0.34945481  1
  Si0+  Si114  1  0.82169640  0.57118804  0.34746247  1
  Si0+  Si115  1  0.56971026  0.17593855  0.98223209  1
  Si0+  Si116  1  0.82059975  0.07368807  0.35245333  1
  Si0+  Si117  1  0.92810694  0.31725097  0.65241466  1
  Si0+  Si118  1  0.57060845  0.17971017  0.65332572  1
  Si0+  Si119  1  0.18167130  0.92862529  0.01299748  1
  O2-  O120  1  0.24696044  0.00418397  0.05730180  1
  O2-  O121  1  0.25189851  0.00438365  0.39368933  1
  O2-  O122  1  0.24593535  -0.00256599  0.73046617  1
  O2-  O123  1  0.25035037  0.50234104  0.05527297  1
  O2-  O124  1  0.25142079  0.49754527  0.39673085  1
  O2-  O125  1  0.24211555  0.49897707  0.72927857  1
  O2-  O126  1  0.74875747  0.00103604  0.06471842  1
  O2-  O127  1  0.75209314  0.00537287  0.39818964  1
  O2-  O128  1  0.75572055  -0.00555700  0.72116709  1
  O2-  O129  1  0.75434408  0.49552289  0.06879000  1
  O2-  O130  1  0.75046338  0.49955440  0.38903171  1
  O2-  O131  1  0.74894119  0.49951642  0.72880725  1
  O2-  O132  1  0.00674218  0.24796237  0.27664881  1
  O2-  O133  1  0.00161251  0.24925732  0.60872598  1
  O2-  O134  1  -0.00487426  0.24374777  0.93390409  1
  O2-  O135  1  -0.00221889  0.75781226  0.27004183  1
  O2-  O136  1  -0.00403480  0.74812248  0.60092960  1
  O2-  O137  1  -0.00689297  0.74852303  0.94098409  1
  O2-  O138  1  0.50012538  0.25059308  0.26848710  1
  O2-  O139  1  0.50239038  0.25371517  0.61136232  1
  O2-  O140  1  0.50706286  0.24934933  0.93598007  1
  O2-  O141  1  0.49622041  0.75263481  0.27237002  1
  O2-  O142  1  0.50283801  0.74595553  0.60627536  1
  O2-  O143  1  0.50479547  0.75615289  0.94387285  1
  O2-  O144  1  0.07378212  0.17864365  0.09920752  1
  O2-  O145  1  0.06873687  0.17537988  0.42662764  1
  O2-  O146  1  0.07219673  0.17779878  0.75536329  1
  O2-  O147  1  0.07826559  0.68207163  0.09854056  1
  O2-  O148  1  0.06899448  0.68120598  0.43111262  1
  O2-  O149  1  0.06977112  0.68042817  0.76242598  1
  O2-  O150  1  0.56246875  0.17174027  0.08713561  1
  O2-  O151  1  0.56973359  0.17909910  0.43174952  1
  O2-  O152  1  0.57006057  0.17708272  0.75805748  1
  O2-  O153  1  0.57033218  0.67910666  0.08921917  1
  O2-  O154  1  0.57332218  0.67951060  0.43332779  1
  O2-  O155  1  0.56920725  0.68032603  0.75801050  1
  O2-  O156  1  0.17648868  0.43026821  0.23255458  1
  O2-  O157  1  0.17917334  0.42224710  0.58016781  1
  O2-  O158  1  0.18537524  0.42793626  0.90718958  1
  O2-  O159  1  0.17966897  0.93029285  0.23438712  1
  O2-  O160  1  0.17824749  0.93271987  0.57944810  1
  O2-  O161  1  0.18601582  0.92766196  0.90815795  1
  O2-  O162  1  0.67988591  0.43062390  0.24117851  1
  O2-  O163  1  0.67944112  0.42446577  0.56550365  1
  O2-  O164  1  0.67565410  0.43643287  0.90439023  1
  O2-  O165  1  0.68172000  0.93006134  0.23772360  1
  O2-  O166  1  0.67688131  0.93276857  0.57461808  1
  O2-  O167  1  0.67549481  0.92905521  0.90167709  1
  O2-  O168  1  0.42685900  0.32045040  0.09589569  1
  O2-  O169  1  0.43127285  0.32143490  0.43405522  1
  O2-  O170  1  0.42671277  0.32029431  0.75680834  1
  O2-  O171  1  0.42415866  0.82040095  0.09061711  1
  O2-  O172  1  0.42995854  0.82274458  0.42227796  1
  O2-  O173  1  0.43503711  0.82402326  0.76671214  1
  O2-  O174  1  0.93263690  0.32211700  0.09571753  1
  O2-  O175  1  0.92825747  0.32072603  0.43477069  1
  O2-  O176  1  0.92728745  0.31392850  0.75688009  1
  O2-  O177  1  0.93184893  0.82095407  0.09216422  1
  O2-  O178  1  0.92670673  0.82060197  0.42089412  1
  O2-  O179  1  0.92818369  0.82748213  0.76440304  1
  O2-  O180  1  0.32049247  0.07105480  0.24351008  1
  O2-  O181  1  0.31968994  0.07113228  0.56833603  1
  O2-  O182  1  0.32153837  0.07110268  0.91078828  1
  O2-  O183  1  0.32192934  0.57028632  0.23298995  1
  O2-  O184  1  0.32289544  0.56872711  0.56937630  1
  O2-  O185  1  0.31883394  0.57610923  0.90877653  1
  O2-  O186  1  0.82303217  0.07162420  0.24752253  1
  O2-  O187  1  0.81858987  0.07615956  0.57556832  1
  O2-  O188  1  0.82304566  0.06495649  0.90137782  1
  O2-  O189  1  0.82240900  0.57037585  0.24268551  1
  O2-  O190  1  0.82064753  0.56801495  0.56596540  1
  O2-  O191  1  0.82216730  0.57029614  0.90356729  1
  O2-  O192  1  0.04252571  0.08321288  0.27454790  1
  O2-  O193  1  0.04624806  0.08710451  0.60226732  1
  O2-  O194  1  0.04795468  0.07605123  0.93254439  1
  O2-  O195  1  0.03964074  0.58664460  0.26412268  1
  O2-  O196  1  0.04494483  0.57597764  0.59735506  1
  O2-  O197  1  0.04905872  0.58151861  0.93060957  1
  O2-  O198  1  0.54132251  0.07883823  0.26455988  1
  O2-  O199  1  0.53904242  0.08983418  0.60421896  1
  O2-  O200  1  0.53781216  0.08387589  0.93464515  1
  O2-  O201  1  0.54271892  0.58440268  0.26251796  1
  O2-  O202  1  0.54238496  0.58280110  0.60825929  1
  O2-  O203  1  0.54057301  0.59238788  0.93390294  1
  O2-  O204  1  0.16683500  0.19420908  0.27613914  1
  O2-  O205  1  0.16539991  0.20643273  0.60440882  1
  O2-  O206  1  0.16718240  0.20933506  0.92955491  1
  O2-  O207  1  0.16866098  0.71372177  0.26650756  1
  O2-  O208  1  0.16816388  0.70779653  0.59693199  1
  O2-  O209  1  0.16743304  0.71630628  0.92988918  1
  O2-  O210  1  0.66987944  0.20056397  0.26453535  1
  O2-  O211  1  0.66324027  0.20387691  0.60495093  1
  O2-  O212  1  0.66621270  0.19376709  0.94003433  1
  O2-  O213  1  0.66787813  0.71291873  0.26494209  1
  O2-  O214  1  0.66454915  0.69997588  0.60720783  1
  O2-  O215  1  0.66588144  0.70675371  0.93848939  1
  O2-  O216  1  0.08880995  0.45237687  0.05646073  1
  O2-  O217  1  0.07983003  0.46087489  0.40086417  1
  O2-  O218  1  0.08200871  0.44641893  0.72961812  1
  O2-  O219  1  0.08884577  0.94961972  0.06055924  1
  O2-  O220  1  0.08109215  0.95796574  0.40452167  1
  O2-  O221  1  0.08309224  0.95693378  0.72951217  1
  O2-  O222  1  0.57952414  0.46627025  0.06951843  1
  O2-  O223  1  0.58822703  0.45647797  0.39291662  1
  O2-  O224  1  0.57898599  0.45204349  0.73295643  1
  O2-  O225  1  0.57790325  0.95649310  0.06971941  1
  O2-  O226  1  0.58140968  0.95865704  0.40321112  1
  O2-  O227  1  0.58995196  0.96338789  0.72861919  1
  O2-  O228  1  0.21364315  0.33774640  0.05930908  1
  O2-  O229  1  0.19815723  0.32774829  0.39940839  1
  O2-  O230  1  0.20757070  0.33439302  0.73343568  1
  O2-  O231  1  0.21686450  0.83942091  0.06184202  1
  O2-  O232  1  0.21010674  0.83485057  0.40477631  1
  O2-  O233  1  0.20234951  0.83549543  0.72935307  1
  O2-  O234  1  0.69206116  0.32687404  0.06509921  1
  O2-  O235  1  0.70744804  0.33554355  0.39104699  1
  O2-  O236  1  0.70649276  0.32850825  0.73457220  1
  O2-  O237  1  0.70391499  0.83017734  0.06968094  1
  O2-  O238  1  0.71105761  0.83303072  0.40479463  1
  O2-  O239  1  0.69904123  0.83574786  0.72611449  1
  O2-  O240  1  0.45654167  0.41902247  0.26505017  1
  O2-  O241  1  0.45230560  0.41532665  0.60648386  1
  O2-  O242  1  0.45968797  0.42055935  0.92985163  1
  O2-  O243  1  0.45396150  0.91474103  0.26990489  1
  O2-  O244  1  0.46265024  0.91853261  0.59814461  1
  O2-  O245  1  0.45323150  0.91630586  0.94014007  1
  O2-  O246  1  0.96093399  0.41732318  0.26468833  1
  O2-  O247  1  0.95346365  0.40951214  0.60521292  1
  O2-  O248  1  0.96120028  0.41504768  0.92612023  1
  O2-  O249  1  0.95041545  0.91963829  0.27371562  1
  O2-  O250  1  0.95481403  0.92052768  0.59528946  1
  O2-  O251  1  0.95647222  0.91182851  0.93924007  1
  O2-  O252  1  0.32865828  0.29299766  0.26800776  1
  O2-  O253  1  0.33712112  0.29002835  0.60489499  1
  O2-  O254  1  0.33670960  0.28900636  0.92573023  1
  O2-  O255  1  0.33378032  0.79832619  0.27140105  1
  O2-  O256  1  0.33253728  0.79643572  0.60115155  1
  O2-  O257  1  0.34115599  0.79063397  0.93370791  1
  O2-  O258  1  0.83588903  0.29112886  0.26422324  1
  O2-  O259  1  0.83687093  0.28572462  0.60503309  1
  O2-  O260  1  0.82468396  0.29614393  0.93244768  1
  O2-  O261  1  0.83404211  0.79736322  0.26983924  1
  O2-  O262  1  0.82565918  0.79766199  0.59930968  1
  O2-  O263  1  0.83230891  0.79811303  0.94311855  1
  O2-  O264  1  0.40917399  0.04363540  0.06561619  1
  O2-  O265  1  0.41465757  0.04451359  0.39549447  1
  O2-  O266  1  0.41678590  0.03832248  0.73694603  1
  O2-  O267  1  0.41339025  0.54811223  0.05817885  1
  O2-  O268  1  0.42233464  0.54245801  0.40026063  1
  O2-  O269  1  0.41312820  0.54103187  0.73934882  1
  O2-  O270  1  0.92203395  0.04094092  0.06954532  1
  O2-  O271  1  0.91338158  0.04903237  0.40139999  1
  O2-  O272  1  0.91616857  0.04824263  0.72501317  1
  O2-  O273  1  0.92580963  0.54040490  0.06584603  1
  O2-  O274  1  0.91292497  0.54207452  0.39453460  1
  O2-  O275  1  0.92036442  0.54098021  0.73195587  1
  O2-  O276  1  0.29273229  0.16659145  0.06063112  1
  O2-  O277  1  0.29799424  0.16525072  0.39693874  1
  O2-  O278  1  0.29053789  0.16681177  0.73693259  1
  O2-  O279  1  0.29228045  0.66588003  0.06152577  1
  O2-  O280  1  0.29573254  0.66889129  0.39943509  1
  O2-  O281  1  0.28992396  0.67058019  0.73488109  1
  O2-  O282  1  0.79952077  0.17071844  0.06622984  1
  O2-  O283  1  0.79369710  0.16790548  0.39777416  1
  O2-  O284  1  0.78917282  0.15881594  0.73197012  1
  O2-  O285  1  0.79651755  0.66630554  0.07095214  1
  O2-  O286  1  0.79367134  0.66287914  0.39417932  1
  O2-  O287  1  0.79528794  0.67001630  0.73420121  1
