# generated using pymatgen
data_Ca2Al2SiO7
_symmetry_space_group_name_H-M   'P 1'
_cell_length_a   15.47049005
_cell_length_b   15.47350989
_cell_length_c   15.29339238
_cell_angle_alpha   90.00954015
_cell_angle_beta   90.00664457
_cell_angle_gamma   90.01138535
_symmetry_Int_Tables_number   1
_chemical_formula_structural   Ca2Al2SiO7
_chemical_formula_sum   'Ca48 Al48 Si24 O168'
_cell_volume   3660.97464736
_cell_formula_units_Z   24
loop_
 _symmetry_equiv_pos_site_id
 _symmetry_equiv_pos_as_xyz
  1  'x, y, z'
loop_
 _atom_type_symbol
 _atom_type_oxidation_number
  Ca2+  2.0
  Al0+  0.0
  Si0+  0.0
  O2-  -2.0
loop_
 _atom_site_type_symbol
 _atom_site_label
 _atom_site_symmetry_multiplicity
 _atom_site_fract_x
 _atom_site_fract_y
 _atom_site_fract_z
 _atom_site_occupancy
  Ca2+  Ca0  1  0.16689831  0.08691389  0.16806018  1
  Ca2+  Ca1  1  0.17269462  0.08296249  0.51545102  1
  Ca2+  Ca2  1  0.16113014  0.08440391  0.83053229  1
  Ca2+  Ca3  1  0.17390524  0.56815308  0.17357975  1
  Ca2+  Ca4  1  0.17104200  0.57509358  0.50407203  1
  Ca2+  Ca5  1  0.15400639  0.56959590  0.83208022  1
  Ca2+  Ca6  1  0.67145057  0.08110569  0.18020108  1
  Ca2+  Ca7  1  0.67603218  0.08626687  0.50338167  1
  Ca2+  Ca8  1  0.67578594  0.08577180  0.83332175  1
  Ca2+  Ca9  1  0.66655669  0.57119026  0.16953388  1
  Ca2+  Ca10  1  0.66750869  0.57284774  0.50951846  1
  Ca2+  Ca11  1  0.67009962  0.57762591  0.82975701  1
  Ca2+  Ca12  1  0.08026881  0.33080224  0.15643066  1
  Ca2+  Ca13  1  0.07957692  0.33775902  0.50122082  1
  Ca2+  Ca14  1  0.07638710  0.33159127  0.82335357  1
  Ca2+  Ca15  1  0.08334168  0.82875823  0.16186042  1
  Ca2+  Ca16  1  0.08078753  0.83430770  0.50509902  1
  Ca2+  Ca17  1  0.08091635  0.82459809  0.81849210  1
  Ca2+  Ca18  1  0.57573859  0.33941365  0.16439798  1
  Ca2+  Ca19  1  0.57984623  0.33365365  0.48971649  1
  Ca2+  Ca20  1  0.57761351  0.34615788  0.83121073  1
  Ca2+  Ca21  1  0.57913492  0.83335608  0.16089433  1
  Ca2+  Ca22  1  0.59150921  0.82607068  0.49721264  1
  Ca2+  Ca23  1  0.57750813  0.82700601  0.82536371  1
  Ca2+  Ca24  1  0.32613338  0.40977866  0.17282197  1
  Ca2+  Ca25  1  0.32362004  0.41159200  0.50248868  1
  Ca2+  Ca26  1  0.31919565  0.41166595  0.83829335  1
  Ca2+  Ca27  1  0.33528533  0.91679890  0.16949999  1
  Ca2+  Ca28  1  0.32699705  0.92689411  0.51103051  1
  Ca2+  Ca29  1  0.33234830  0.92137633  0.83297673  1
  Ca2+  Ca30  1  0.82274287  0.40668407  0.16794531  1
  Ca2+  Ca31  1  0.82105729  0.41588017  0.51138570  1
  Ca2+  Ca32  1  0.82587755  0.40933518  0.83545997  1
  Ca2+  Ca33  1  0.82573347  0.92630604  0.17800148  1
  Ca2+  Ca34  1  0.83383030  0.92721003  0.50525522  1
  Ca2+  Ca35  1  0.84679974  0.92471428  0.82985061  1
  Ca2+  Ca36  1  0.42408411  0.17866571  0.16626449  1
  Ca2+  Ca37  1  0.42246355  0.17054299  0.49339556  1
  Ca2+  Ca38  1  0.41608266  0.17152851  0.83019269  1
  Ca2+  Ca39  1  0.41250399  0.67002845  0.16242011  1
  Ca2+  Ca40  1  0.42027773  0.66206221  0.49704467  1
  Ca2+  Ca41  1  0.42160959  0.66987082  0.82702957  1
  Ca2+  Ca42  1  0.92109828  0.17105592  0.16024661  1
  Ca2+  Ca43  1  0.91780450  0.16461153  0.50241749  1
  Ca2+  Ca44  1  0.92551362  0.17652891  0.82646327  1
  Ca2+  Ca45  1  0.91642737  0.66895391  0.16427676  1
  Ca2+  Ca46  1  0.91919309  0.66264752  0.50486355  1
  Ca2+  Ca47  1  0.91779040  0.67258277  0.81629966  1
  Al0+  Al48  1  0.00130116  -0.00081298  0.00056424  1
  Al0+  Al49  1  -0.00093354  -0.00121181  0.33363074  1
  Al0+  Al50  1  0.00096712  -0.00003325  0.66750083  1
  Al0+  Al51  1  -0.00098414  0.50067189  0.00357908  1
  Al0+  Al52  1  0.00126589  0.49993622  0.33236395  1
  Al0+  Al53  1  -0.00163665  0.50186715  0.66309100  1
  Al0+  Al54  1  0.49892263  -0.00087205  -0.00365139  1
  Al0+  Al55  1  0.49973409  -0.00217810  0.33343161  1
  Al0+  Al56  1  0.49947301  0.00194329  0.67083890  1
  Al0+  Al57  1  0.50136534  0.50183312  -0.00067701  1
  Al0+  Al58  1  0.49942579  0.50232856  0.33305761  1
  Al0+  Al59  1  0.49868345  0.50139101  0.66504710  1
  Al0+  Al60  1  0.25327988  0.24637264  -0.00124154  1
  Al0+  Al61  1  0.24931873  0.24826157  0.33355423  1
  Al0+  Al62  1  0.25063450  0.25105590  0.67172430  1
  Al0+  Al63  1  0.24976279  0.75183228  -0.00482252  1
  Al0+  Al64  1  0.24965629  0.74776103  0.33522527  1
  Al0+  Al65  1  0.25056813  0.75141438  0.66502624  1
  Al0+  Al66  1  0.75095750  0.24871507  0.00309833  1
  Al0+  Al67  1  0.75244261  0.24874385  0.33770626  1
  Al0+  Al68  1  0.74791631  0.24814866  0.67381028  1
  Al0+  Al69  1  0.74948491  0.75080803  0.00060541  1
  Al0+  Al70  1  0.75065412  0.75081910  0.33239684  1
  Al0+  Al71  1  0.74733198  0.74973753  0.66072324  1
  Al0+  Al72  1  0.92794447  0.82237100  0.64972236  1
  Al0+  Al73  1  0.57328848  0.17830604  0.32042172  1
  Al0+  Al74  1  0.17882200  0.42559445  0.34875262  1
  Al0+  Al75  1  0.81949457  0.57176236  0.67938796  1
  Al0+  Al76  1  0.42879159  0.32213816  0.31919153  1
  Al0+  Al77  1  0.32251410  0.07309348  0.68391534  1
  Al0+  Al78  1  0.67652905  0.92776969  0.34832240  1
  Al0+  Al79  1  0.56841931  0.67950120  0.65113588  1
  Al0+  Al80  1  0.17907760  0.42674002  0.01315706  1
  Al0+  Al81  1  0.43118637  0.32222471  0.98549772  1
  Al0+  Al82  1  0.32095475  0.57228362  0.34760861  1
  Al0+  Al83  1  0.07153346  0.18187534  0.65098386  1
  Al0+  Al84  1  0.82226059  0.07119473  0.34942793  1
  Al0+  Al85  1  0.17946489  0.92898828  0.68265248  1
  Al0+  Al86  1  0.92835563  0.32198575  0.98592101  1
  Al0+  Al87  1  0.82150600  0.07024912  0.68335772  1
  Al0+  Al88  1  0.68004453  0.42984576  0.34550822  1
  Al0+  Al89  1  0.67944523  0.42972807  0.01549128  1
  Al0+  Al90  1  0.07238658  0.17738525  0.98536504  1
  Al0+  Al91  1  0.42818255  0.82145770  0.98478832  1
  Al0+  Al92  1  0.17864291  0.43110380  0.68031527  1
  Al0+  Al93  1  0.07313432  0.67722841  0.64908585  1
  Al0+  Al94  1  0.67696621  0.42769040  0.68230756  1
  Al0+  Al95  1  0.92580514  0.32125915  0.65070259  1
  Si0+  Si96  1  0.32059787  0.57305022  0.01355956  1
  Si0+  Si97  1  0.31996996  0.06936507  0.34633570  1
  Si0+  Si98  1  0.42907001  0.82443700  0.64801902  1
  Si0+  Si99  1  0.32240709  0.57256949  0.68342652  1
  Si0+  Si100  1  0.82209849  0.57561493  0.01723065  1
  Si0+  Si101  1  0.57270282  0.67935014  0.31591954  1
  Si0+  Si102  1  0.93018034  0.82151867  0.31588920  1
  Si0+  Si103  1  0.57246484  0.17732556  0.98373406  1
  Si0+  Si104  1  0.93014008  0.32203606  0.31894285  1
  Si0+  Si105  1  0.07005218  0.68015801  0.98683942  1
  Si0+  Si106  1  0.67774082  0.92776974  0.68426320  1
  Si0+  Si107  1  0.82154765  0.06826140  0.01608912  1
  Si0+  Si108  1  0.57031948  0.17742365  0.65343741  1
  Si0+  Si109  1  0.32465730  0.06962418  0.01884255  1
  Si0+  Si110  1  0.67750813  0.92900176  0.01364846  1
  Si0+  Si111  1  0.82295547  0.57329078  0.34861316  1
  Si0+  Si112  1  0.92820262  0.81997929  0.98703709  1
  Si0+  Si113  1  0.17877899  0.92739662  0.34641552  1
  Si0+  Si114  1  0.42738786  0.81941522  0.31916266  1
  Si0+  Si115  1  0.57329961  0.67934872  0.98240229  1
  Si0+  Si116  1  0.18023726  0.92894389  0.01620844  1
  Si0+  Si117  1  0.42958159  0.32126376  0.65278416  1
  Si0+  Si118  1  0.07177434  0.67911687  0.31553557  1
  Si0+  Si119  1  0.07074735  0.17646237  0.31938338  1
  O2-  O120  1  0.25018623  0.00033601  0.05979697  1
  O2-  O121  1  0.24753749  -0.00007005  0.38781533  1
  O2-  O122  1  0.24976145  0.00169235  0.73422248  1
  O2-  O123  1  0.25647723  0.50044322  0.05851868  1
  O2-  O124  1  0.25410497  0.49543871  0.39646771  1
  O2-  O125  1  0.25022986  0.50866337  0.72827315  1
  O2-  O126  1  0.74756045  -0.00025981  0.05731674  1
  O2-  O127  1  0.74604504  0.00209747  0.39718944  1
  O2-  O128  1  0.74904887  -0.00751507  0.73046600  1
  O2-  O129  1  0.75701134  0.50311502  0.06089362  1
  O2-  O130  1  0.75463037  0.50440698  0.39124981  1
  O2-  O131  1  0.75321834  0.49601778  0.73160736  1
  O2-  O132  1  0.00217619  0.25037721  0.27809194  1
  O2-  O133  1  -0.00079659  0.25154716  0.59843367  1
  O2-  O134  1  0.00614519  0.25544009  0.93741666  1
  O2-  O135  1  -0.00036236  0.74934671  0.27236157  1
  O2-  O136  1  -0.00006768  0.74958011  0.60011440  1
  O2-  O137  1  -0.00576204  0.74555314  0.94518167  1
  O2-  O138  1  0.50525067  0.25375099  0.26937222  1
  O2-  O139  1  0.50153724  0.25068479  0.61202899  1
  O2-  O140  1  0.50856814  0.24994173  0.93872538  1
  O2-  O141  1  0.50021638  0.75054242  0.27536593  1
  O2-  O142  1  0.49569228  0.75535455  0.60222888  1
  O2-  O143  1  0.50272356  0.74678320  0.93945240  1
  O2-  O144  1  0.06781177  0.17376433  0.09999342  1
  O2-  O145  1  0.07162845  0.17209398  0.42347840  1
  O2-  O146  1  0.07053253  0.18387637  0.76441959  1
  O2-  O147  1  0.07126110  0.68443153  0.09249508  1
  O2-  O148  1  0.07219055  0.68040233  0.41954134  1
  O2-  O149  1  0.07182240  0.67915624  0.76359238  1
  O2-  O150  1  0.56999570  0.17421447  0.08922534  1
  O2-  O151  1  0.56912646  0.17784759  0.43393210  1
  O2-  O152  1  0.56843330  0.17426139  0.75864791  1
  O2-  O153  1  0.57497439  0.68176439  0.08829736  1
  O2-  O154  1  0.57392576  0.68045197  0.42045265  1
  O2-  O155  1  0.56565539  0.68116497  0.76461973  1
  O2-  O156  1  0.17777332  0.42681089  0.23447413  1
  O2-  O157  1  0.18263396  0.42932130  0.56761958  1
  O2-  O158  1  0.17752605  0.43004097  0.90051088  1
  O2-  O159  1  0.17995288  0.92655906  0.24052033  1
  O2-  O160  1  0.18279691  0.93059017  0.56821574  1
  O2-  O161  1  0.17930901  0.92704612  0.91233681  1
  O2-  O162  1  0.68132794  0.43174993  0.23190603  1
  O2-  O163  1  0.67417554  0.42898738  0.56864433  1
  O2-  O164  1  0.67812508  0.43273034  0.90328969  1
  O2-  O165  1  0.67917347  0.92684492  0.23360728  1
  O2-  O166  1  0.67534951  0.93166286  0.57901435  1
  O2-  O167  1  0.67782952  0.92823046  0.90910604  1
  O2-  O168  1  0.43056390  0.32010049  0.09850575  1
  O2-  O169  1  0.42672426  0.31742361  0.43274149  1
  O2-  O170  1  0.43051362  0.32192123  0.75812002  1
  O2-  O171  1  0.42887365  0.82054002  0.09861223  1
  O2-  O172  1  0.42480748  0.81896440  0.42342164  1
  O2-  O173  1  0.43160366  0.82341021  0.75391580  1
  O2-  O174  1  0.92712302  0.31714156  0.10044110  1
  O2-  O175  1  0.93025660  0.32416784  0.42321133  1
  O2-  O176  1  0.92675408  0.31933177  0.76434807  1
  O2-  O177  1  0.92982676  0.82041365  0.09267413  1
  O2-  O178  1  0.93147487  0.82395432  0.41972375  1
  O2-  O179  1  0.93000860  0.82013528  0.76447367  1
  O2-  O180  1  0.31925417  0.06784044  0.24087087  1
  O2-  O181  1  0.32414221  0.07083325  0.56953769  1
  O2-  O182  1  0.32937625  0.06755480  0.91473918  1
  O2-  O183  1  0.31540356  0.57901722  0.23382654  1
  O2-  O184  1  0.32423256  0.56859859  0.57800865  1
  O2-  O185  1  0.31854948  0.57518243  0.90838775  1
  O2-  O186  1  0.82522664  0.06675916  0.23495161  1
  O2-  O187  1  0.81840485  0.07008313  0.57069461  1
  O2-  O188  1  0.82265145  0.06566851  0.91146789  1
  O2-  O189  1  0.82212667  0.57510461  0.24238769  1
  O2-  O190  1  0.81489081  0.57075131  0.56561869  1
  O2-  O191  1  0.82006749  0.58355510  0.91293305  1
  O2-  O192  1  0.04173704  0.08515046  0.26953994  1
  O2-  O193  1  0.04578484  0.08158421  0.60135577  1
  O2-  O194  1  0.03882719  0.07975221  0.93330299  1
  O2-  O195  1  0.04390499  0.58749034  0.26677827  1
  O2-  O196  1  0.04444245  0.58074130  0.59328380  1
  O2-  O197  1  0.04726712  0.58644034  0.94272594  1
  O2-  O198  1  0.54132412  0.07982355  0.26704520  1
  O2-  O199  1  0.54043569  0.08679198  0.60475377  1
  O2-  O200  1  0.54288074  0.08563144  0.93605911  1
  O2-  O201  1  0.54479506  0.58867462  0.26660088  1
  O2-  O202  1  0.53491788  0.58419391  0.59574596  1
  O2-  O203  1  0.54849355  0.58638246  0.93652742  1
  O2-  O204  1  0.16307794  0.20144101  0.27099369  1
  O2-  O205  1  0.17188674  0.20926851  0.60095665  1
  O2-  O206  1  0.17476104  0.19309689  0.93821854  1
  O2-  O207  1  0.16213843  0.71124281  0.26701132  1
  O2-  O208  1  0.17192659  0.70706177  0.59690222  1
  O2-  O209  1  0.15870922  0.71302883  0.93796791  1
  O2-  O210  1  0.67449684  0.20048694  0.27005445  1
  O2-  O211  1  0.66306086  0.20224057  0.60830958  1
  O2-  O212  1  0.66831742  0.19755207  0.94124481  1
  O2-  O213  1  0.66410338  0.70812288  0.26698679  1
  O2-  O214  1  0.66336740  0.70915846  0.59444278  1
  O2-  O215  1  0.66575990  0.70857228  0.93600392  1
  O2-  O216  1  0.08292896  0.45903233  0.06864063  1
  O2-  O217  1  0.08114626  0.45882974  0.39921539  1
  O2-  O218  1  0.08112088  0.46100829  0.73212661  1
  O2-  O219  1  0.08815461  0.95553946  0.06551516  1
  O2-  O220  1  0.08625754  0.95253249  0.39158560  1
  O2-  O221  1  0.08079649  0.95403625  0.73550785  1
  O2-  O222  1  0.58332471  0.46449691  0.06958106  1
  O2-  O223  1  0.58285132  0.45976161  0.39711788  1
  O2-  O224  1  0.57999499  0.46392288  0.73423216  1
  O2-  O225  1  0.58489415  0.95540210  0.06054001  1
  O2-  O226  1  0.57617655  0.94840632  0.39970148  1
  O2-  O227  1  0.58574982  0.95692552  0.73205958  1
  O2-  O228  1  0.20949557  0.32874201  0.06513582  1
  O2-  O229  1  0.20412711  0.32632197  0.40088315  1
  O2-  O230  1  0.21287409  0.33701506  0.73614648  1
  O2-  O231  1  0.21001912  0.83741585  0.06475990  1
  O2-  O232  1  0.20784720  0.83704502  0.39386243  1
  O2-  O233  1  0.20907832  0.83028894  0.73512886  1
  O2-  O234  1  0.70828021  0.33161232  0.06891409  1
  O2-  O235  1  0.70869638  0.33341158  0.39910455  1
  O2-  O236  1  0.69889203  0.32894784  0.73685907  1
  O2-  O237  1  0.70523580  0.83733000  0.06238457  1
  O2-  O238  1  0.70900772  0.83012730  0.39955527  1
  O2-  O239  1  0.69824262  0.83231892  0.72722769  1
  O2-  O240  1  0.45243426  0.42241046  0.26695717  1
  O2-  O241  1  0.45581297  0.41261573  0.60471465  1
  O2-  O242  1  0.45919946  0.42008904  0.93265441  1
  O2-  O243  1  0.45282264  0.91135474  0.27006796  1
  O2-  O244  1  0.45578429  0.91867729  0.60416196  1
  O2-  O245  1  0.45999278  0.91673128  0.92981090  1
  O2-  O246  1  0.95628845  0.41375038  0.26927714  1
  O2-  O247  1  0.95121053  0.42026643  0.59866742  1
  O2-  O248  1  0.94759549  0.42467532  0.93875940  1
  O2-  O249  1  0.96035986  0.91191864  0.26557505  1
  O2-  O250  1  0.95929444  0.91965878  0.59705172  1
  O2-  O251  1  0.96030317  0.91018974  0.94052282  1
  O2-  O252  1  0.33159577  0.28696718  0.26572811  1
  O2-  O253  1  0.33848966  0.29169911  0.60631505  1
  O2-  O254  1  0.33610426  0.28758481  0.93180507  1
  O2-  O255  1  0.33614173  0.78992022  0.26955589  1
  O2-  O256  1  0.33474025  0.80188215  0.60338481  1
  O2-  O257  1  0.33202904  0.79225643  0.92963472  1
  O2-  O258  1  0.83891037  0.29197485  0.27150651  1
  O2-  O259  1  0.82592210  0.28982989  0.60222877  1
  O2-  O260  1  0.83097553  0.28825949  0.93454759  1
  O2-  O261  1  0.83814245  0.79371292  0.26739637  1
  O2-  O262  1  0.82894249  0.79718541  0.59761636  1
  O2-  O263  1  0.83468867  0.79837346  0.94097622  1
  O2-  O264  1  0.41454785  0.03626444  0.06754624  1
  O2-  O265  1  0.41054319  0.03974280  0.39406285  1
  O2-  O266  1  0.41947973  0.04209919  0.73921705  1
  O2-  O267  1  0.41652740  0.55438456  0.05767104  1
  O2-  O268  1  0.42194085  0.55310690  0.39718833  1
  O2-  O269  1  0.41393926  0.54352565  0.73128102  1
  O2-  O270  1  0.91193388  0.03605970  0.06454811  1
  O2-  O271  1  0.91902250  0.03634795  0.40189784  1
  O2-  O272  1  0.91769062  0.03929333  0.73729769  1
  O2-  O273  1  0.91667328  0.55532952  0.06416600  1
  O2-  O274  1  0.91752855  0.54942688  0.39174882  1
  O2-  O275  1  0.92084895  0.55340675  0.72882714  1
  O2-  O276  1  0.29870594  0.16114349  0.06727440  1
  O2-  O277  1  0.29325783  0.16030712  0.39435802  1
  O2-  O278  1  0.29575203  0.17055648  0.73802568  1
  O2-  O279  1  0.29006099  0.66595829  0.06008003  1
  O2-  O280  1  0.28801987  0.66814816  0.40366455  1
  O2-  O281  1  0.30402070  0.66914407  0.72541679  1
  O2-  O282  1  0.79609165  0.16000835  0.06411419  1
  O2-  O283  1  0.79970648  0.16955311  0.40314024  1
  O2-  O284  1  0.78647724  0.16335857  0.74083282  1
  O2-  O285  1  0.79228238  0.66780182  0.06735847  1
  O2-  O286  1  0.79874524  0.66735167  0.39282917  1
  O2-  O287  1  0.78652018  0.66981837  0.73180710  1
