# generated using pymatgen
data_Ca2Al2SiO7
_symmetry_space_group_name_H-M   'P 1'
_cell_length_a   15.46881286
_cell_length_b   15.46928248
_cell_length_c   15.29125354
_cell_angle_alpha   90.00368517
_cell_angle_beta   90.00745787
_cell_angle_gamma   89.98024497
_symmetry_Int_Tables_number   1
_chemical_formula_structural   Ca2Al2SiO7
_chemical_formula_sum   'Ca48 Al48 Si24 O168'
_cell_volume   3659.06575600
_cell_formula_units_Z   24
loop_
 _symmetry_equiv_pos_site_id
 _symmetry_equiv_pos_as_xyz
  1  'x, y, z'
loop_
 _atom_type_symbol
 _atom_type_oxidation_number
  Ca2+  2.0
  Al0+  0.0
  Si0+  0.0
  O2-  -2.0
loop_
 _atom_site_type_symbol
 _atom_site_label
 _atom_site_symmetry_multiplicity
 _atom_site_fract_x
 _atom_site_fract_y
 _atom_site_fract_z
 _atom_site_occupancy
  Ca2+  Ca0  1  0.16777238  0.07399112  0.17523868  1
  Ca2+  Ca1  1  0.16790500  0.07300447  0.49803806  1
  Ca2+  Ca2  1  0.17144299  0.08055139  0.83939101  1
  Ca2+  Ca3  1  0.16428757  0.58229298  0.16994115  1
  Ca2+  Ca4  1  0.15565150  0.58194143  0.50004823  1
  Ca2+  Ca5  1  0.16885890  0.58706678  0.84430396  1
  Ca2+  Ca6  1  0.67332463  0.07825002  0.16481591  1
  Ca2+  Ca7  1  0.67076187  0.07812957  0.50579355  1
  Ca2+  Ca8  1  0.66585387  0.07365812  0.84177464  1
  Ca2+  Ca9  1  0.66881245  0.59095589  0.16744343  1
  Ca2+  Ca10  1  0.66497714  0.58566375  0.50045583  1
  Ca2+  Ca11  1  0.67037481  0.57853964  0.84960108  1
  Ca2+  Ca12  1  0.08122104  0.34027965  0.16554679  1
  Ca2+  Ca13  1  0.07838330  0.33152417  0.48872328  1
  Ca2+  Ca14  1  0.08452305  0.33606708  0.83423657  1
  Ca2+  Ca15  1  0.07591005  0.82951754  0.16188721  1
  Ca2+  Ca16  1  0.07831180  0.82397299  0.48993686  1
  Ca2+  Ca17  1  0.06887134  0.82271539  0.82863061  1
  Ca2+  Ca18  1  0.58193785  0.32997088  0.15945219  1
  Ca2+  Ca19  1  0.58001402  0.32464405  0.49142029  1
  Ca2+  Ca20  1  0.59637566  0.32084036  0.83418296  1
  Ca2+  Ca21  1  0.58227272  0.82613342  0.16188017  1
  Ca2+  Ca22  1  0.57542670  0.83463466  0.49554287  1
  Ca2+  Ca23  1  0.58495834  0.83292190  0.83034749  1
  Ca2+  Ca24  1  0.32540751  0.42209306  0.17184639  1
  Ca2+  Ca25  1  0.33060712  0.41576531  0.49841676  1
  Ca2+  Ca26  1  0.32432713  0.42723507  0.84614665  1
  Ca2+  Ca27  1  0.32742048  0.91219256  0.17505684  1
  Ca2+  Ca28  1  0.32987841  0.90242030  0.50075413  1
  Ca2+  Ca29  1  0.33510293  0.91300450  0.83509814  1
  Ca2+  Ca30  1  0.83025861  0.42306206  0.16718579  1
  Ca2+  Ca31  1  0.83663418  0.41880656  0.49952579  1
  Ca2+  Ca32  1  0.82815550  0.42733390  0.84450124  1
  Ca2+  Ca33  1  0.83877397  0.92277936  0.17146349  1
  Ca2+  Ca34  1  0.83205218  0.91535154  0.50348550  1
  Ca2+  Ca35  1  0.82525142  0.91495343  0.84221459  1
  Ca2+  Ca36  1  0.41876953  0.17574768  0.16032287  1
  Ca2+  Ca37  1  0.42407088  0.17030659  0.49493657  1
  Ca2+  Ca38  1  0.43214796  0.16686416  0.82981607  1
  Ca2+  Ca39  1  0.42414223  0.66619691  0.16466180  1
  Ca2+  Ca40  1  0.42446089  0.67613034  0.49286440  1
  Ca2+  Ca41  1  0.42065781  0.66732665  0.83489539  1
  Ca2+  Ca42  1  0.90629301  0.16966609  0.16457153  1
  Ca2+  Ca43  1  0.91334011  0.17236210  0.48986249  1
  Ca2+  Ca44  1  0.91020590  0.16694764  0.83630992  1
  Ca2+  Ca45  1  0.92400088  0.67536188  0.15873710  1
  Ca2+  Ca46  1  0.92306702  0.67972011  0.49432419  1
  Ca2+  Ca47  1  0.91882726  0.67160072  0.83304689  1
  Al0+  Al48  1  0.00038401  0.00220467  -0.00248809  1
  Al0+  Al49  1  0.00207444  0.00121393  0.34190792  1
  Al0+  Al50  1  0.00097020  0.00183981  0.66596593  1
  Al0+  Al51  1  -0.00114315  0.49952233  0.00227614  1
  Al0+  Al52  1  -0.00117686  0.49839996  0.33154921  1
  Al0+  Al53  1  -0.00085669  0.49769076  0.66547869  1
  Al0+  Al54  1  0.50053083  0.00315786  0.00091285  1
  Al0+  Al55  1  0.50152061  0.00049674  0.32984132  1
  Al0+  Al56  1  0.50078815  0.00111401  0.66130347  1
  Al0+  Al57  1  0.49614863  0.50039015  0.00242801  1
  Al0+  Al58  1  0.49965658  0.49749296  0.32887104  1
  Al0+  Al59  1  0.49736556  0.49796679  0.66917892  1
  Al0+  Al60  1  0.24921485  0.25071583  0.00133432  1
  Al0+  Al61  1  0.25076589  0.25044186  0.33516649  1
  Al0+  Al62  1  0.24977078  0.24956595  0.66805868  1
  Al0+  Al63  1  0.24963453  0.75056963  0.00069341  1
  Al0+  Al64  1  0.25232614  0.74784964  0.33270712  1
  Al0+  Al65  1  0.25052092  0.74721126  0.66245975  1
  Al0+  Al66  1  0.75009671  0.24962709  0.00133889  1
  Al0+  Al67  1  0.75099626  0.25028221  0.33392670  1
  Al0+  Al68  1  0.75041398  0.24970484  0.66135999  1
  Al0+  Al69  1  0.74718330  0.75031421  0.00000722  1
  Al0+  Al70  1  0.75146544  0.75124927  0.33017042  1
  Al0+  Al71  1  0.75115398  0.74938518  0.66778207  1
  Al0+  Al72  1  0.92853622  0.31974865  0.31802752  1
  Al0+  Al73  1  0.67917875  0.93015772  0.67926254  1
  Al0+  Al74  1  0.92657416  0.82300286  0.65109281  1
  Al0+  Al75  1  0.67634906  0.92792860  0.01599844  1
  Al0+  Al76  1  0.82216341  0.06919284  0.01424641  1
  Al0+  Al77  1  0.06999346  0.67790096  0.65130465  1
  Al0+  Al78  1  0.67797777  0.42800964  0.01461766  1
  Al0+  Al79  1  0.92761320  0.82455616  0.98484042  1
  Al0+  Al80  1  0.43098332  0.81977090  0.65458464  1
  Al0+  Al81  1  0.42908573  0.82236932  0.31754577  1
  Al0+  Al82  1  0.17866342  0.43040592  0.34936861  1
  Al0+  Al83  1  0.07060261  0.67751672  0.31748427  1
  Al0+  Al84  1  0.81997017  0.07106167  0.34897100  1
  Al0+  Al85  1  0.17808914  0.42840512  0.01600402  1
  Al0+  Al86  1  0.07050243  0.67837391  0.98518811  1
  Al0+  Al87  1  0.32013167  0.57456598  0.01751771  1
  Al0+  Al88  1  0.93060789  0.82473031  0.31818536  1
  Al0+  Al89  1  0.56940450  0.67864043  0.98606610  1
  Al0+  Al90  1  0.82004600  0.57295972  0.01584610  1
  Al0+  Al91  1  0.57128459  0.18037544  0.65110330  1
  Al0+  Al92  1  0.57217063  0.67865496  0.31925992  1
  Al0+  Al93  1  0.57102302  0.18140882  0.98660422  1
  Al0+  Al94  1  0.18195191  0.92699164  0.34752886  1
  Al0+  Al95  1  0.42807405  0.31900978  0.31897183  1
  Si0+  Si96  1  0.67752339  0.42785422  0.67928428  1
  Si0+  Si97  1  0.42588997  0.32171945  0.65081695  1
  Si0+  Si98  1  0.32414069  0.07253983  0.35023197  1
  Si0+  Si99  1  0.42807134  0.82412481  0.98385429  1
  Si0+  Si100  1  0.67847324  0.42913077  0.34910839  1
  Si0+  Si101  1  0.07330470  0.17902824  0.98478859  1
  Si0+  Si102  1  0.32134306  0.57079535  0.68195185  1
  Si0+  Si103  1  0.17965962  0.92723149  0.68232092  1
  Si0+  Si104  1  0.32148300  0.07191949  0.01368286  1
  Si0+  Si105  1  0.07228190  0.17849752  0.31784846  1
  Si0+  Si106  1  0.92927513  0.32026318  0.98468641  1
  Si0+  Si107  1  0.67783234  0.92706263  0.35101647  1
  Si0+  Si108  1  0.17839798  0.42838529  0.68128134  1
  Si0+  Si109  1  0.42519132  0.32160292  0.98171512  1
  Si0+  Si110  1  0.82312837  0.07459182  0.68325941  1
  Si0+  Si111  1  0.32009984  0.07168103  0.68158829  1
  Si0+  Si112  1  0.57361556  0.17851095  0.31502047  1
  Si0+  Si113  1  0.18009022  0.93112552  0.01209253  1
  Si0+  Si114  1  0.32432880  0.56999645  0.35341542  1
  Si0+  Si115  1  0.82054283  0.57166961  0.34946267  1
  Si0+  Si116  1  0.93072673  0.31847492  0.65217160  1
  Si0+  Si117  1  0.57269200  0.67397771  0.65329899  1
  Si0+  Si118  1  0.82045971  0.56844396  0.67987091  1
  Si0+  Si119  1  0.07516954  0.17880236  0.65107106  1
  O2-  O120  1  0.25304905  -0.00060386  0.05571610  1
  O2-  O121  1  0.26064543  -0.00092973  0.39501644  1
  O2-  O122  1  0.25064819  -0.00084435  0.72478740  1
  O2-  O123  1  0.24686569  0.50281286  0.06565431  1
  O2-  O124  1  0.25148353  0.50556840  0.39904598  1
  O2-  O125  1  0.24779530  0.50074213  0.72227298  1
  O2-  O126  1  0.75478870  -0.00618331  0.06471701  1
  O2-  O127  1  0.74688066  -0.00458754  0.39596362  1
  O2-  O128  1  0.75808237  0.00202976  0.72514415  1
  O2-  O129  1  0.74424646  0.50422277  0.06598321  1
  O2-  O130  1  0.74660769  0.50260785  0.39261630  1
  O2-  O131  1  0.74334325  0.50320374  0.72117520  1
  O2-  O132  1  0.00344910  0.24530723  0.27187567  1
  O2-  O133  1  0.00017436  0.24594343  0.61032015  1
  O2-  O134  1  0.00225231  0.25039993  0.94277806  1
  O2-  O135  1  0.00222784  0.75283173  0.26850688  1
  O2-  O136  1  0.00172471  0.75364104  0.60236846  1
  O2-  O137  1  -0.00377949  0.74826819  0.93589862  1
  O2-  O138  1  0.50116375  0.24348510  0.27204045  1
  O2-  O139  1  0.49755378  0.25687699  0.60593174  1
  O2-  O140  1  0.49855530  0.25797904  0.93719975  1
  O2-  O141  1  0.50194131  0.75179262  0.26884532  1
  O2-  O142  1  0.50754669  0.74595857  0.60984343  1
  O2-  O143  1  0.49694577  0.75594681  0.93928743  1
  O2-  O144  1  0.07704730  0.17695325  0.08910796  1
  O2-  O145  1  0.07181904  0.18107641  0.42418844  1
  O2-  O146  1  0.07984634  0.18058994  0.75611033  1
  O2-  O147  1  0.07167790  0.68163197  0.09802545  1
  O2-  O148  1  0.06573307  0.67789657  0.43154070  1
  O2-  O149  1  0.06927618  0.67662665  0.76454737  1
  O2-  O150  1  0.56702206  0.18212792  0.09922216  1
  O2-  O151  1  0.57316064  0.18118960  0.42129881  1
  O2-  O152  1  0.57147203  0.18213159  0.76398254  1
  O2-  O153  1  0.56678793  0.67872712  0.09839244  1
  O2-  O154  1  0.57053182  0.67795642  0.43401328  1
  O2-  O155  1  0.57003498  0.66996841  0.75836854  1
  O2-  O156  1  0.18039044  0.42876803  0.23733216  1
  O2-  O157  1  0.17812848  0.42569173  0.57656679  1
  O2-  O158  1  0.18127506  0.42493789  0.90130821  1
  O2-  O159  1  0.18145344  0.93210429  0.23417805  1
  O2-  O160  1  0.18124502  0.92913029  0.57746428  1
  O2-  O161  1  0.18203980  0.93458741  0.90651435  1
  O2-  O162  1  0.67998055  0.42646981  0.24489032  1
  O2-  O163  1  0.67818465  0.42694613  0.57400128  1
  O2-  O164  1  0.68437112  0.42657450  0.89984647  1
  O2-  O165  1  0.67622681  0.92844448  0.24608936  1
  O2-  O166  1  0.67769800  0.93329529  0.56621088  1
  O2-  O167  1  0.67318955  0.93268721  0.90187078  1
  O2-  O168  1  0.42134972  0.31555366  0.08691567  1
  O2-  O169  1  0.43107924  0.31755156  0.43298023  1
  O2-  O170  1  0.42262082  0.31962321  0.75587492  1
  O2-  O171  1  0.42726473  0.82586352  0.08885358  1
  O2-  O172  1  0.43166844  0.82047260  0.43163242  1
  O2-  O173  1  0.42940364  0.81906641  0.76756037  1
  O2-  O174  1  0.92819569  0.31855435  0.08921499  1
  O2-  O175  1  0.92957416  0.31877445  0.43221831  1
  O2-  O176  1  0.93076029  0.31962572  0.75718068  1
  O2-  O177  1  0.93491361  0.82918201  0.09769471  1
  O2-  O178  1  0.93028345  0.82233617  0.43210458  1
  O2-  O179  1  0.92648915  0.82087777  0.76430184  1
  O2-  O180  1  0.32033922  0.07505587  0.24460981  1
  O2-  O181  1  0.31684941  0.07636774  0.57705392  1
  O2-  O182  1  0.31983940  0.07261467  0.90802624  1
  O2-  O183  1  0.32626932  0.56678650  0.24845797  1
  O2-  O184  1  0.32656743  0.56808621  0.57756320  1
  O2-  O185  1  0.31870706  0.57311521  0.90254961  1
  O2-  O186  1  0.81742589  0.07328065  0.23656197  1
  O2-  O187  1  0.82084945  0.07939672  0.57788849  1
  O2-  O188  1  0.82016491  0.07139136  0.90014786  1
  O2-  O189  1  0.82041099  0.56985322  0.24515247  1
  O2-  O190  1  0.82172776  0.56461938  0.57463018  1
  O2-  O191  1  0.82060649  0.56796745  0.90101869  1
  O2-  O192  1  0.04883609  0.08407321  0.27478088  1
  O2-  O193  1  0.05224354  0.08568476  0.60463809  1
  O2-  O194  1  0.04569297  0.08936764  0.93284889  1
  O2-  O195  1  0.03989057  0.58006398  0.26630711  1
  O2-  O196  1  0.03858029  0.57905418  0.59984283  1
  O2-  O197  1  0.04467429  0.57793741  0.93396210  1
  O2-  O198  1  0.55322253  0.08373031  0.27107325  1
  O2-  O199  1  0.53699755  0.08685989  0.59470125  1
  O2-  O200  1  0.53565157  0.08658878  0.93089526  1
  O2-  O201  1  0.54477470  0.57996834  0.26784527  1
  O2-  O202  1  0.54381015  0.58109942  0.60587478  1
  O2-  O203  1  0.53706598  0.58136341  0.93178628  1
  O2-  O204  1  0.16608488  0.20323001  0.27300442  1
  O2-  O205  1  0.16465123  0.21042794  0.60146752  1
  O2-  O206  1  0.16418210  0.20781187  0.93421689  1
  O2-  O207  1  0.17216098  0.69911719  0.27081572  1
  O2-  O208  1  0.16954522  0.70160073  0.59910090  1
  O2-  O209  1  0.16872843  0.71034441  0.93228136  1
  O2-  O210  1  0.66472411  0.21038163  0.27002245  1
  O2-  O211  1  0.66700081  0.21184495  0.59532534  1
  O2-  O212  1  0.66751960  0.21202696  0.93124568  1
  O2-  O213  1  0.67085233  0.70447563  0.26757256  1
  O2-  O214  1  0.66771657  0.69487294  0.60921550  1
  O2-  O215  1  0.66661560  0.70439267  0.93091351  1
  O2-  O216  1  0.07808169  0.45036074  0.06596567  1
  O2-  O217  1  0.08023026  0.45830470  0.40322682  1
  O2-  O218  1  0.08525510  0.45265697  0.72816780  1
  O2-  O219  1  0.09047317  0.96381238  0.05929035  1
  O2-  O220  1  0.08915570  0.96292053  0.40655918  1
  O2-  O221  1  0.08808315  0.95722845  0.72937721  1
  O2-  O222  1  0.57583722  0.44602530  0.06152630  1
  O2-  O223  1  0.58571854  0.45390604  0.39697932  1
  O2-  O224  1  0.58363331  0.44763533  0.72626517  1
  O2-  O225  1  0.58067087  0.96468743  0.06993716  1
  O2-  O226  1  0.58364542  0.95478463  0.39656579  1
  O2-  O227  1  0.58260878  0.96467518  0.73177735  1
  O2-  O228  1  0.20763045  0.32976301  0.06839732  1
  O2-  O229  1  0.21069032  0.33297071  0.40361540  1
  O2-  O230  1  0.20718550  0.33680743  0.72965279  1
  O2-  O231  1  0.20549713  0.83983844  0.05972676  1
  O2-  O232  1  0.21172001  0.83020404  0.40261826  1
  O2-  O233  1  0.20943449  0.83553391  0.72822386  1
  O2-  O234  1  0.71183655  0.33238000  0.06843073  1
  O2-  O235  1  0.71031920  0.33905141  0.39869528  1
  O2-  O236  1  0.71195281  0.33749766  0.72576942  1
  O2-  O237  1  0.69477361  0.82715378  0.06499254  1
  O2-  O238  1  0.70281415  0.83314498  0.39723910  1
  O2-  O239  1  0.70460392  0.83090299  0.73173684  1
  O2-  O240  1  0.45882914  0.41387972  0.26439797  1
  O2-  O241  1  0.44854439  0.41635401  0.60567691  1
  O2-  O242  1  0.44383304  0.41730474  0.93874955  1
  O2-  O243  1  0.45134446  0.92305154  0.26627900  1
  O2-  O244  1  0.45710095  0.91665214  0.59925521  1
  O2-  O245  1  0.45215964  0.91863651  0.93807251  1
  O2-  O246  1  0.95840316  0.41537717  0.26456574  1
  O2-  O247  1  0.96000542  0.40874707  0.60288327  1
  O2-  O248  1  0.95647580  0.41117761  0.93521394  1
  O2-  O249  1  0.96061626  0.92447135  0.27023122  1
  O2-  O250  1  0.95119363  0.92453170  0.60263799  1
  O2-  O251  1  0.96080948  0.92138305  0.92945435  1
  O2-  O252  1  0.33181266  0.28786576  0.26545510  1
  O2-  O253  1  0.33357486  0.29217832  0.60347518  1
  O2-  O254  1  0.33383464  0.28950982  0.93340670  1
  O2-  O255  1  0.33118669  0.79394991  0.26559448  1
  O2-  O256  1  0.33583830  0.78670551  0.59943142  1
  O2-  O257  1  0.33447817  0.79831179  0.93730237  1
  O2-  O258  1  0.83226277  0.28874068  0.26494044  1
  O2-  O259  1  0.83935613  0.29317288  0.60242385  1
  O2-  O260  1  0.83943628  0.28943603  0.93478502  1
  O2-  O261  1  0.83170358  0.79852696  0.26753117  1
  O2-  O262  1  0.82913017  0.79123727  0.59741701  1
  O2-  O263  1  0.82747104  0.79900613  0.93536023  1
  O2-  O264  1  0.41291558  0.04852459  0.06206859  1
  O2-  O265  1  0.42050367  0.05319122  0.39358611  1
  O2-  O266  1  0.41262421  0.04456359  0.72712876  1
  O2-  O267  1  0.41699255  0.54402087  0.07054739  1
  O2-  O268  1  0.41629634  0.53744427  0.40037217  1
  O2-  O269  1  0.41176989  0.54111129  0.73282577  1
  O2-  O270  1  0.92361827  0.04932302  0.06535468  1
  O2-  O271  1  0.91789927  0.04693010  0.40433898  1
  O2-  O272  1  0.92013650  0.05717245  0.72658068  1
  O2-  O273  1  0.91614948  0.53913856  0.06851872  1
  O2-  O274  1  0.90964551  0.53741628  0.39824910  1
  O2-  O275  1  0.90915630  0.53229631  0.72858632  1
  O2-  O276  1  0.29033973  0.16194958  0.06188613  1
  O2-  O277  1  0.29344688  0.16335217  0.39977158  1
  O2-  O278  1  0.28959016  0.16203770  0.73181439  1
  O2-  O279  1  0.29449097  0.67360694  0.06965942  1
  O2-  O280  1  0.30377784  0.66535616  0.39743290  1
  O2-  O281  1  0.29412861  0.66256757  0.72931639  1
  O2-  O282  1  0.79014946  0.16652264  0.06643069  1
  O2-  O283  1  0.78728991  0.16801698  0.40373881  1
  O2-  O284  1  0.79398478  0.16807761  0.72903873  1
  O2-  O285  1  0.79567038  0.67184753  0.06730205  1
  O2-  O286  1  0.79424305  0.66397566  0.39748275  1
  O2-  O287  1  0.79997678  0.66171594  0.72633435  1
