# generated using pymatgen
data_Ca2Al2SiO7
_symmetry_space_group_name_H-M   'P 1'
_cell_length_a   15.46506087
_cell_length_b   15.46446411
_cell_length_c   15.28877144
_cell_angle_alpha   90.00030161
_cell_angle_beta   90.00190938
_cell_angle_gamma   89.98575427
_symmetry_Int_Tables_number   1
_chemical_formula_structural   Ca2Al2SiO7
_chemical_formula_sum   'Ca48 Al48 Si24 O168'
_cell_volume   3656.44532055
_cell_formula_units_Z   24
loop_
 _symmetry_equiv_pos_site_id
 _symmetry_equiv_pos_as_xyz
  1  'x, y, z'
loop_
 _atom_type_symbol
 _atom_type_oxidation_number
  Ca2+  2.0
  Al0+  0.0
  Si0+  0.0
  O2-  -2.0
loop_
 _atom_site_type_symbol
 _atom_site_label
 _atom_site_symmetry_multiplicity
 _atom_site_fract_x
 _atom_site_fract_y
 _atom_site_fract_z
 _atom_site_occupancy
  Ca2+  Ca0  1  0.16895071  0.08451959  0.16265455  1
  Ca2+  Ca1  1  0.16706170  0.08186236  0.50653443  1
  Ca2+  Ca2  1  0.16729994  0.08193157  0.84248101  1
  Ca2+  Ca3  1  0.17329512  0.58503204  0.16991695  1
  Ca2+  Ca4  1  0.17269565  0.58109290  0.51028605  1
  Ca2+  Ca5  1  0.18051172  0.57978058  0.83731607  1
  Ca2+  Ca6  1  0.66437927  0.08618017  0.16863773  1
  Ca2+  Ca7  1  0.67469339  0.07355512  0.51313384  1
  Ca2+  Ca8  1  0.66734117  0.08171356  0.83645498  1
  Ca2+  Ca9  1  0.65707287  0.57492111  0.16872735  1
  Ca2+  Ca10  1  0.65684053  0.57714901  0.50346079  1
  Ca2+  Ca11  1  0.65840427  0.57436951  0.83736591  1
  Ca2+  Ca12  1  0.07410977  0.32758309  0.15357230  1
  Ca2+  Ca13  1  0.08117061  0.33385415  0.50211647  1
  Ca2+  Ca14  1  0.07693775  0.32733316  0.82249553  1
  Ca2+  Ca15  1  0.08303169  0.83268411  0.16644116  1
  Ca2+  Ca16  1  0.07663554  0.82499228  0.49105465  1
  Ca2+  Ca17  1  0.08687330  0.83619757  0.83161971  1
  Ca2+  Ca18  1  0.57747773  0.33571039  0.15778341  1
  Ca2+  Ca19  1  0.57972031  0.34084254  0.49522801  1
  Ca2+  Ca20  1  0.58345111  0.33484584  0.83579111  1
  Ca2+  Ca21  1  0.57911589  0.82136934  0.16227835  1
  Ca2+  Ca22  1  0.57755222  0.82520761  0.49619883  1
  Ca2+  Ca23  1  0.57821380  0.82192150  0.82158074  1
  Ca2+  Ca24  1  0.34378352  0.41967614  0.16716567  1
  Ca2+  Ca25  1  0.32937267  0.42383662  0.50893357  1
  Ca2+  Ca26  1  0.33691831  0.42640424  0.83805540  1
  Ca2+  Ca27  1  0.33481255  0.92191364  0.16655602  1
  Ca2+  Ca28  1  0.33776521  0.91235454  0.50487471  1
  Ca2+  Ca29  1  0.32991021  0.92187876  0.84301958  1
  Ca2+  Ca30  1  0.82080064  0.41069751  0.16862313  1
  Ca2+  Ca31  1  0.82142301  0.41639176  0.50914054  1
  Ca2+  Ca32  1  0.82517140  0.40643824  0.83618302  1
  Ca2+  Ca33  1  0.83384759  0.91786116  0.17233724  1
  Ca2+  Ca34  1  0.82927148  0.91825404  0.50923923  1
  Ca2+  Ca35  1  0.82826542  0.92245912  0.83358616  1
  Ca2+  Ca36  1  0.42067057  0.17885852  0.15581338  1
  Ca2+  Ca37  1  0.41987253  0.17596063  0.49372372  1
  Ca2+  Ca38  1  0.41659515  0.16831820  0.83485381  1
  Ca2+  Ca39  1  0.42658515  0.66374382  0.16160807  1
  Ca2+  Ca40  1  0.42311353  0.67207398  0.49894700  1
  Ca2+  Ca41  1  0.42224830  0.66461333  0.82722913  1
  Ca2+  Ca42  1  0.92203952  0.17337311  0.15476130  1
  Ca2+  Ca43  1  0.91689645  0.16725046  0.50629939  1
  Ca2+  Ca44  1  0.92414891  0.17435333  0.82741778  1
  Ca2+  Ca45  1  0.92053368  0.67036291  0.16737476  1
  Ca2+  Ca46  1  0.92276477  0.67044253  0.49184958  1
  Ca2+  Ca47  1  0.91871724  0.66732223  0.82973849  1
  Al0+  Al48  1  -0.00170241  -0.00051332  0.00153394  1
  Al0+  Al49  1  0.00158394  0.00055689  0.33180782  1
  Al0+  Al50  1  0.00066060  0.00128099  0.66683493  1
  Al0+  Al51  1  -0.00140004  0.50376470  -0.00357082  1
  Al0+  Al52  1  -0.00060187  0.49865076  0.32907391  1
  Al0+  Al53  1  -0.00171249  0.49836237  0.66552486  1
  Al0+  Al54  1  0.49926730  -0.00020867  0.00288857  1
  Al0+  Al55  1  0.50099673  0.00067931  0.33255024  1
  Al0+  Al56  1  0.49945700  -0.00038160  0.66679002  1
  Al0+  Al57  1  0.50087524  0.49998445  0.00018792  1
  Al0+  Al58  1  0.49813141  0.50012568  0.33259522  1
  Al0+  Al59  1  0.50021069  0.50014471  0.67010731  1
  Al0+  Al60  1  0.24997031  0.25054457  -0.00303128  1
  Al0+  Al61  1  0.25081269  0.25020075  0.33048813  1
  Al0+  Al62  1  0.24876939  0.24832342  0.66449902  1
  Al0+  Al63  1  0.24908114  0.74946277  0.00980168  1
  Al0+  Al64  1  0.24997877  0.75178651  0.32855729  1
  Al0+  Al65  1  0.25085131  0.75060506  0.66738022  1
  Al0+  Al66  1  0.74904194  0.24921920  -0.00130180  1
  Al0+  Al67  1  0.75108720  0.24945127  0.34070453  1
  Al0+  Al68  1  0.75200300  0.24933700  0.66995611  1
  Al0+  Al69  1  0.75066188  0.74926433  -0.00335545  1
  Al0+  Al70  1  0.75108596  0.74957177  0.32658202  1
  Al0+  Al71  1  0.74927264  0.74821858  0.66608540  1
  Al0+  Al72  1  0.17717693  0.42719936  0.68083253  1
  Al0+  Al73  1  0.42843937  0.82479782  0.31574395  1
  Al0+  Al74  1  0.17705690  0.92948306  0.01745512  1
  Al0+  Al75  1  0.82221493  0.06941530  0.68418853  1
  Al0+  Al76  1  0.56970340  0.67858210  0.31709393  1
  Al0+  Al77  1  0.92820646  0.32348597  0.98499841  1
  Al0+  Al78  1  0.67726474  0.92683265  0.68186997  1
  Al0+  Al79  1  0.92948468  0.82243937  0.31873618  1
  Al0+  Al80  1  0.57139749  0.67688822  0.65063616  1
  Al0+  Al81  1  0.07182029  0.67631907  0.31821305  1
  Al0+  Al82  1  0.57089731  0.67998322  0.98425540  1
  Al0+  Al83  1  0.67891954  0.43084718  0.34770053  1
  Al0+  Al84  1  0.68265393  0.43001287  0.01417181  1
  Al0+  Al85  1  0.92753492  0.32178488  0.64833396  1
  Al0+  Al86  1  0.57098984  0.17658524  0.98471094  1
  Al0+  Al87  1  0.67911072  0.42959934  0.68148198  1
  Al0+  Al88  1  0.32245689  0.07364972  0.01632078  1
  Al0+  Al89  1  0.31991032  0.57145511  0.68124593  1
  Al0+  Al90  1  0.42925182  0.32221222  0.98277948  1
  Al0+  Al91  1  0.07225851  0.17809209  0.64910641  1
  Al0+  Al92  1  0.42766900  0.82259348  0.65363739  1
  Al0+  Al93  1  0.42938596  0.32013617  0.32142118  1
  Al0+  Al94  1  0.07052930  0.17841387  0.98520874  1
  Al0+  Al95  1  0.32098194  0.56859670  0.01640153  1
  Si0+  Si96  1  0.07129087  0.67918278  0.65450068  1
  Si0+  Si97  1  0.32100112  0.07209846  0.34941526  1
  Si0+  Si98  1  0.42971210  0.31989374  0.65224252  1
  Si0+  Si99  1  0.82417177  0.57597628  0.01824387  1
  Si0+  Si100  1  0.92746767  0.31954153  0.31879897  1
  Si0+  Si101  1  0.07276617  0.68066125  0.98362963  1
  Si0+  Si102  1  0.57417991  0.17905434  0.32061067  1
  Si0+  Si103  1  0.82385560  0.57210846  0.34910872  1
  Si0+  Si104  1  0.07149702  0.17959438  0.31750482  1
  Si0+  Si105  1  0.17713272  0.42730078  0.34647851  1
  Si0+  Si106  1  0.82335526  0.07032986  0.34909097  1
  Si0+  Si107  1  0.67969468  0.92813945  0.34705808  1
  Si0+  Si108  1  0.82371990  0.57292234  0.68228210  1
  Si0+  Si109  1  0.92893561  0.82122510  0.98335720  1
  Si0+  Si110  1  0.17543884  0.42911331  0.01570956  1
  Si0+  Si111  1  0.32194114  0.07196738  0.67957036  1
  Si0+  Si112  1  0.81824602  0.06892321  0.01616504  1
  Si0+  Si113  1  0.57168443  0.17799693  0.65206901  1
  Si0+  Si114  1  0.17973140  0.92933449  0.67868883  1
  Si0+  Si115  1  0.92961269  0.82075028  0.65394615  1
  Si0+  Si116  1  0.17924033  0.93050907  0.35036399  1
  Si0+  Si117  1  0.31912105  0.57138881  0.34853789  1
  Si0+  Si118  1  0.67875890  0.92625844  0.01613609  1
  Si0+  Si119  1  0.42680145  0.82084245  0.98488721  1
  O2-  O120  1  0.24920020  0.00215426  0.06660560  1
  O2-  O121  1  0.25280941  -0.00130612  0.39336482  1
  O2-  O122  1  0.25192744  -0.00097314  0.71947856  1
  O2-  O123  1  0.24687000  0.49275772  0.06352542  1
  O2-  O124  1  0.24471773  0.50205864  0.38867477  1
  O2-  O125  1  0.24931050  0.49797706  0.73140991  1
  O2-  O126  1  0.74636589  -0.00010024  0.06056566  1
  O2-  O127  1  0.75198239  -0.00147148  0.38930849  1
  O2-  O128  1  0.74764473  -0.00034615  0.73365626  1
  O2-  O129  1  0.75816151  0.50429367  0.06124829  1
  O2-  O130  1  0.75306268  0.50652360  0.39433106  1
  O2-  O131  1  0.75467483  0.50472436  0.72573094  1
  O2-  O132  1  0.00006257  0.25038845  0.27639104  1
  O2-  O133  1  0.00173661  0.25131736  0.59822050  1
  O2-  O134  1  0.00483474  0.25607611  0.93597488  1
  O2-  O135  1  0.00042243  0.74954905  0.26850351  1
  O2-  O136  1  -0.00135702  0.74814406  0.61161493  1
  O2-  O137  1  0.00162857  0.75184068  0.94135485  1
  O2-  O138  1  0.50693041  0.24806897  0.27637583  1
  O2-  O139  1  0.50249840  0.25060712  0.60900549  1
  O2-  O140  1  0.49786578  0.24645131  0.93341953  1
  O2-  O141  1  0.49802217  0.75069764  0.26640929  1
  O2-  O142  1  0.50101568  0.75209109  0.60352344  1
  O2-  O143  1  0.49612245  0.75480125  0.93880302  1
  O2-  O144  1  0.06534380  0.17835573  0.09994575  1
  O2-  O145  1  0.07263596  0.17843429  0.42217114  1
  O2-  O146  1  0.07165915  0.17507878  0.76179882  1
  O2-  O147  1  0.07091714  0.67969420  0.08848345  1
  O2-  O148  1  0.07075572  0.67840175  0.43263272  1
  O2-  O149  1  0.07143719  0.68285503  0.75968279  1
  O2-  O150  1  0.57278247  0.17894859  0.09902345  1
  O2-  O151  1  0.57245838  0.17764077  0.42650493  1
  O2-  O152  1  0.56859627  0.17592413  0.75645604  1
  O2-  O153  1  0.57080675  0.68143278  0.09737886  1
  O2-  O154  1  0.56800663  0.67882373  0.43040174  1
  O2-  O155  1  0.56946384  0.67733059  0.76407876  1
  O2-  O156  1  0.17687927  0.42542331  0.24167747  1
  O2-  O157  1  0.18017807  0.43047603  0.56608135  1
  O2-  O158  1  0.17393193  0.43455299  0.91059653  1
  O2-  O159  1  0.17540605  0.93432452  0.24613062  1
  O2-  O160  1  0.17850136  0.92896051  0.57332621  1
  O2-  O161  1  0.17772885  0.92832676  0.90312283  1
  O2-  O162  1  0.68146344  0.42759467  0.23497590  1
  O2-  O163  1  0.67825889  0.43106315  0.56781251  1
  O2-  O164  1  0.68333519  0.43103190  0.90140566  1
  O2-  O165  1  0.68035799  0.93122377  0.24177626  1
  O2-  O166  1  0.68051441  0.92874126  0.56743262  1
  O2-  O167  1  0.68220633  0.92508424  0.91153122  1
  O2-  O168  1  0.43352946  0.32244489  0.09680729  1
  O2-  O169  1  0.42770242  0.31834911  0.43510358  1
  O2-  O170  1  0.42860770  0.31813922  0.75656952  1
  O2-  O171  1  0.42978793  0.81976811  0.09053889  1
  O2-  O172  1  0.43053279  0.82531122  0.42918303  1
  O2-  O173  1  0.42500745  0.82275004  0.76691922  1
  O2-  O174  1  0.92804490  0.31896303  0.09989876  1
  O2-  O175  1  0.92723465  0.31885586  0.42327884  1
  O2-  O176  1  0.92854195  0.32000119  0.76129509  1
  O2-  O177  1  0.92763800  0.82068291  0.08826154  1
  O2-  O178  1  0.93163515  0.82309508  0.43278421  1
  O2-  O179  1  0.93180563  0.82048173  0.75928659  1
  O2-  O180  1  0.31845513  0.07397878  0.24522580  1
  O2-  O181  1  0.32155957  0.07313643  0.57386541  1
  O2-  O182  1  0.32353665  0.06860410  0.90235800  1
  O2-  O183  1  0.31995801  0.56879738  0.24355172  1
  O2-  O184  1  0.31759025  0.57146630  0.56691825  1
  O2-  O185  1  0.31872738  0.57108122  0.90366344  1
  O2-  O186  1  0.82322889  0.07213494  0.24384478  1
  O2-  O187  1  0.82145723  0.06533321  0.56958351  1
  O2-  O188  1  0.81923734  0.06536257  0.91181073  1
  O2-  O189  1  0.82722967  0.56908169  0.24385393  1
  O2-  O190  1  0.82674812  0.57393575  0.57662023  1
  O2-  O191  1  0.82424490  0.58075212  0.91293484  1
  O2-  O192  1  0.04331471  0.08818757  0.27038870  1
  O2-  O193  1  0.04049192  0.07985879  0.59500039  1
  O2-  O194  1  0.03686222  0.08078051  0.93417333  1
  O2-  O195  1  0.04413685  0.57847599  0.26327654  1
  O2-  O196  1  0.04572072  0.58743105  0.60674230  1
  O2-  O197  1  0.04460532  0.59032608  0.93404903  1
  O2-  O198  1  0.54935541  0.08599542  0.27389730  1
  O2-  O199  1  0.54232634  0.08735279  0.60253430  1
  O2-  O200  1  0.54571516  0.07623834  0.93371203  1
  O2-  O201  1  0.53768467  0.58127995  0.26447469  1
  O2-  O202  1  0.53852007  0.57933311  0.59802436  1
  O2-  O203  1  0.53858439  0.58400018  0.93261394  1
  O2-  O204  1  0.16267080  0.20780395  0.26980707  1
  O2-  O205  1  0.17108193  0.20429576  0.59393876  1
  O2-  O206  1  0.17143649  0.19710555  0.93578571  1
  O2-  O207  1  0.16878783  0.70608721  0.26476357  1
  O2-  O208  1  0.16118071  0.70976763  0.60545215  1
  O2-  O209  1  0.16456751  0.71046077  0.93788742  1
  O2-  O210  1  0.66919535  0.20212322  0.27632161  1
  O2-  O211  1  0.66479291  0.20275467  0.60646798  1
  O2-  O212  1  0.66873375  0.20530001  0.93195086  1
  O2-  O213  1  0.66907859  0.70346611  0.26490718  1
  O2-  O214  1  0.67138845  0.70215587  0.59845905  1
  O2-  O215  1  0.66822109  0.70954885  0.93146466  1
  O2-  O216  1  0.08246135  0.45930727  0.06240972  1
  O2-  O217  1  0.08351430  0.45116843  0.39284885  1
  O2-  O218  1  0.07812337  0.45439945  0.73155814  1
  O2-  O219  1  0.07778265  0.95743854  0.07040312  1
  O2-  O220  1  0.08813781  0.96139822  0.39898559  1
  O2-  O221  1  0.08881164  0.95708863  0.72735321  1
  O2-  O222  1  0.58640904  0.46271217  0.06739823  1
  O2-  O223  1  0.58127926  0.46110769  0.40074634  1
  O2-  O224  1  0.58312954  0.45913944  0.73607745  1
  O2-  O225  1  0.58640332  0.95058316  0.06368689  1
  O2-  O226  1  0.58840208  0.95714601  0.39518384  1
  O2-  O227  1  0.57873265  0.95521714  0.73381592  1
  O2-  O228  1  0.19473129  0.33295114  0.05843871  1
  O2-  O229  1  0.20853480  0.33655800  0.39469419  1
  O2-  O230  1  0.20331354  0.32722789  0.73007101  1
  O2-  O231  1  0.20386255  0.83192062  0.07267459  1
  O2-  O232  1  0.20321867  0.83662481  0.39595888  1
  O2-  O233  1  0.20504221  0.83800033  0.72793471  1
  O2-  O234  1  0.71214652  0.33243039  0.06854061  1
  O2-  O235  1  0.70962056  0.33402215  0.40302353  1
  O2-  O236  1  0.70884553  0.33259147  0.73399129  1
  O2-  O237  1  0.71237437  0.83619144  0.06390010  1
  O2-  O238  1  0.70758715  0.83561559  0.39259081  1
  O2-  O239  1  0.70780013  0.82882566  0.73394184  1
  O2-  O240  1  0.45796655  0.41626936  0.26771271  1
  O2-  O241  1  0.45720606  0.41200575  0.60561274  1
  O2-  O242  1  0.46294908  0.41844490  0.92991985  1
  O2-  O243  1  0.45871115  0.92322041  0.26340328  1
  O2-  O244  1  0.45364630  0.92165772  0.59927668  1
  O2-  O245  1  0.44982040  0.91581901  0.94178723  1
  O2-  O246  1  0.95212485  0.41134278  0.27060577  1
  O2-  O247  1  0.95352669  0.42128791  0.59494117  1
  O2-  O248  1  0.94789136  0.42495211  0.93517431  1
  O2-  O249  1  0.96010323  0.92028300  0.26477142  1
  O2-  O250  1  0.95975510  0.91103853  0.60574624  1
  O2-  O251  1  0.95585753  0.91289441  0.93613979  1
  O2-  O252  1  0.33430660  0.28793449  0.26547092  1
  O2-  O253  1  0.33890122  0.29038732  0.60340627  1
  O2-  O254  1  0.32877968  0.30025789  0.93226837  1
  O2-  O255  1  0.32803720  0.80266485  0.26594510  1
  O2-  O256  1  0.32952886  0.79298905  0.59856054  1
  O2-  O257  1  0.33159736  0.79485402  0.94331429  1
  O2-  O258  1  0.83618272  0.28778234  0.27248172  1
  O2-  O259  1  0.82964303  0.28875288  0.59557168  1
  O2-  O260  1  0.83251404  0.28824915  0.93321745  1
  O2-  O261  1  0.83208266  0.79705766  0.26294954  1
  O2-  O262  1  0.83782152  0.79507479  0.60608579  1
  O2-  O263  1  0.83876098  0.79188118  0.93411731  1
  O2-  O264  1  0.42038943  0.04409521  0.07162439  1
  O2-  O265  1  0.41471280  0.04765680  0.39583763  1
  O2-  O266  1  0.41337318  0.04662707  0.72771286  1
  O2-  O267  1  0.41709281  0.53678963  0.07034371  1
  O2-  O268  1  0.40903418  0.54010985  0.39696289  1
  O2-  O269  1  0.41697988  0.54173215  0.73422848  1
  O2-  O270  1  0.90864433  0.03851534  0.06543728  1
  O2-  O271  1  0.91537191  0.04234335  0.39624234  1
  O2-  O272  1  0.91955031  0.03706802  0.73679135  1
  O2-  O273  1  0.91943218  0.55441149  0.06336673  1
  O2-  O274  1  0.91732721  0.54454180  0.39594833  1
  O2-  O275  1  0.91707466  0.54872290  0.72976194  1
  O2-  O276  1  0.29511387  0.17329042  0.06861510  1
  O2-  O277  1  0.28966580  0.16308827  0.39776754  1
  O2-  O278  1  0.29276505  0.16231215  0.72769428  1
  O2-  O279  1  0.28836061  0.66344077  0.07264657  1
  O2-  O280  1  0.29323416  0.66497467  0.39361739  1
  O2-  O281  1  0.28885304  0.66891947  0.73497329  1
  O2-  O282  1  0.79171316  0.16072696  0.06434974  1
  O2-  O283  1  0.79569424  0.16064806  0.39950751  1
  O2-  O284  1  0.79629583  0.16799557  0.73523418  1
  O2-  O285  1  0.79609322  0.66881175  0.06545388  1
  O2-  O286  1  0.80248011  0.66847817  0.39187740  1
  O2-  O287  1  0.80072182  0.66681040  0.72903327  1
