# generated using pymatgen
data_Ca2Al2SiO7
_symmetry_space_group_name_H-M   'P 1'
_cell_length_a   15.46525951
_cell_length_b   15.46496521
_cell_length_c   15.28893743
_cell_angle_alpha   90.00498967
_cell_angle_beta   89.99350239
_cell_angle_gamma   90.02667864
_symmetry_Int_Tables_number   1
_chemical_formula_structural   Ca2Al2SiO7
_chemical_formula_sum   'Ca48 Al48 Si24 O168'
_cell_volume   3656.65014854
_cell_formula_units_Z   24
loop_
 _symmetry_equiv_pos_site_id
 _symmetry_equiv_pos_as_xyz
  1  'x, y, z'
loop_
 _atom_type_symbol
 _atom_type_oxidation_number
  Ca2+  2.0
  Al0+  0.0
  Si0+  0.0
  O2-  -2.0
loop_
 _atom_site_type_symbol
 _atom_site_label
 _atom_site_symmetry_multiplicity
 _atom_site_fract_x
 _atom_site_fract_y
 _atom_site_fract_z
 _atom_site_occupancy
  Ca2+  Ca0  1  0.16401603  0.07864406  0.16726296  1
  Ca2+  Ca1  1  0.16593630  0.07892896  0.50693468  1
  Ca2+  Ca2  1  0.17253263  0.07429314  0.83656169  1
  Ca2+  Ca3  1  0.17062228  0.59268394  0.16943741  1
  Ca2+  Ca4  1  0.17037623  0.59176316  0.50017301  1
  Ca2+  Ca5  1  0.16925214  0.57738388  0.84650584  1
  Ca2+  Ca6  1  0.67965389  0.07417519  0.16706318  1
  Ca2+  Ca7  1  0.67893132  0.07437339  0.50833841  1
  Ca2+  Ca8  1  0.67674375  0.07329348  0.83721162  1
  Ca2+  Ca9  1  0.66339940  0.57932716  0.16932809  1
  Ca2+  Ca10  1  0.67231068  0.58206236  0.50792365  1
  Ca2+  Ca11  1  0.67485368  0.57370386  0.83211441  1
  Ca2+  Ca12  1  0.08832508  0.32644050  0.16236506  1
  Ca2+  Ca13  1  0.07479269  0.32494549  0.49713642  1
  Ca2+  Ca14  1  0.07917648  0.33294948  0.82688394  1
  Ca2+  Ca15  1  0.07666623  0.82877406  0.15951518  1
  Ca2+  Ca16  1  0.07255358  0.83482747  0.49518962  1
  Ca2+  Ca17  1  0.07762155  0.83806455  0.83226597  1
  Ca2+  Ca18  1  0.58270749  0.33233927  0.15877859  1
  Ca2+  Ca19  1  0.57933405  0.33713174  0.50153220  1
  Ca2+  Ca20  1  0.58007713  0.33591991  0.82521464  1
  Ca2+  Ca21  1  0.58493347  0.82855667  0.16035111  1
  Ca2+  Ca22  1  0.58589823  0.82871570  0.49584808  1
  Ca2+  Ca23  1  0.58647124  0.83959805  0.82862483  1
  Ca2+  Ca24  1  0.32372092  0.42743308  0.16511157  1
  Ca2+  Ca25  1  0.33351314  0.42100532  0.50293770  1
  Ca2+  Ca26  1  0.32824329  0.41919202  0.84080325  1
  Ca2+  Ca27  1  0.32601237  0.91604952  0.16450601  1
  Ca2+  Ca28  1  0.32199154  0.92244651  0.51235074  1
  Ca2+  Ca29  1  0.32235664  0.92455754  0.83922546  1
  Ca2+  Ca30  1  0.82659215  0.41576215  0.16770784  1
  Ca2+  Ca31  1  0.83016141  0.42526711  0.51368130  1
  Ca2+  Ca32  1  0.82840843  0.41654034  0.83575689  1
  Ca2+  Ca33  1  0.84517500  0.92137965  0.16708417  1
  Ca2+  Ca34  1  0.83715649  0.92156498  0.50816981  1
  Ca2+  Ca35  1  0.83217176  0.92045308  0.83708781  1
  Ca2+  Ca36  1  0.41767974  0.16578940  0.15737034  1
  Ca2+  Ca37  1  0.41341814  0.17141653  0.50023856  1
  Ca2+  Ca38  1  0.41268699  0.16913920  0.82388731  1
  Ca2+  Ca39  1  0.41932835  0.65757967  0.16451211  1
  Ca2+  Ca40  1  0.42398873  0.66657088  0.49175029  1
  Ca2+  Ca41  1  0.41716319  0.66434296  0.83232752  1
  Ca2+  Ca42  1  0.91812521  0.16015176  0.16459141  1
  Ca2+  Ca43  1  0.91412860  0.16652479  0.49570839  1
  Ca2+  Ca44  1  0.91046745  0.16879403  0.82705948  1
  Ca2+  Ca45  1  0.92527392  0.67947440  0.15671035  1
  Ca2+  Ca46  1  0.91627320  0.67911185  0.49428445  1
  Ca2+  Ca47  1  0.91804339  0.67696571  0.82733588  1
  Al0+  Al48  1  0.00221051  0.00105936  0.00099796  1
  Al0+  Al49  1  0.00066827  0.00297223  0.33101137  1
  Al0+  Al50  1  0.00119357  -0.00117104  0.67017486  1
  Al0+  Al51  1  -0.00095371  0.49746891  0.00152470  1
  Al0+  Al52  1  -0.00126616  0.49829719  0.33106371  1
  Al0+  Al53  1  0.00228002  0.50036043  0.66442640  1
  Al0+  Al54  1  0.50373748  -0.00036664  0.00570401  1
  Al0+  Al55  1  0.50019471  0.00169813  0.33381871  1
  Al0+  Al56  1  0.50028266  0.00117908  0.66893120  1
  Al0+  Al57  1  0.49916109  0.49826619  0.00489385  1
  Al0+  Al58  1  0.49660183  0.50028299  0.33306018  1
  Al0+  Al59  1  0.50018015  0.49948421  0.66420542  1
  Al0+  Al60  1  0.25092359  0.25261016  0.00505032  1
  Al0+  Al61  1  0.24868721  0.25208345  0.32943571  1
  Al0+  Al62  1  0.25079776  0.25241373  0.66214139  1
  Al0+  Al63  1  0.25369983  0.75077140  0.00316768  1
  Al0+  Al64  1  0.25080749  0.75141790  0.33778582  1
  Al0+  Al65  1  0.25189591  0.75027011  0.67036246  1
  Al0+  Al66  1  0.74879401  0.24825078  0.00714395  1
  Al0+  Al67  1  0.74697347  0.24834885  0.33788624  1
  Al0+  Al68  1  0.74768426  0.25011155  0.66617127  1
  Al0+  Al69  1  0.74942156  0.74761848  -0.00325603  1
  Al0+  Al70  1  0.74725152  0.74896420  0.32289883  1
  Al0+  Al71  1  0.75151552  0.74824152  0.66924931  1
  Al0+  Al72  1  0.07250465  0.67814973  0.31970064  1
  Al0+  Al73  1  0.82258423  0.07156815  0.68055532  1
  Al0+  Al74  1  0.56866413  0.67899251  0.31912218  1
  Al0+  Al75  1  0.82167932  0.06978556  0.01573297  1
  Al0+  Al76  1  0.17961003  0.92953383  0.01729070  1
  Al0+  Al77  1  0.67944109  0.92655908  0.67921584  1
  Al0+  Al78  1  0.82490246  0.57132157  0.68066742  1
  Al0+  Al79  1  0.67799036  0.42949892  0.67964127  1
  Al0+  Al80  1  0.31834322  0.57055580  0.34981052  1
  Al0+  Al81  1  0.82117710  0.06849195  0.34922238  1
  Al0+  Al82  1  0.17493934  0.42898433  0.01477010  1
  Al0+  Al83  1  0.17845973  0.92716287  0.68192999  1
  Al0+  Al84  1  0.32013198  0.57145116  0.01427364  1
  Al0+  Al85  1  0.92666107  0.32181784  0.65431023  1
  Al0+  Al86  1  0.07401879  0.67763523  0.98440159  1
  Al0+  Al87  1  0.67999525  0.92504644  0.01616062  1
  Al0+  Al88  1  0.67976630  0.42954709  0.01389976  1
  Al0+  Al89  1  0.06990264  0.18149388  0.31922428  1
  Al0+  Al90  1  0.92866402  0.82178929  0.31785987  1
  Al0+  Al91  1  0.92992393  0.82179308  0.98091308  1
  Al0+  Al92  1  0.42893623  0.32143780  0.65219470  1
  Al0+  Al93  1  0.92988229  0.82020851  0.65295797  1
  Al0+  Al94  1  0.32042070  0.07394642  0.67884885  1
  Al0+  Al95  1  0.32192179  0.07228102  0.01492477  1
  Si0+  Si96  1  0.07322888  0.18123075  0.98400280  1
  Si0+  Si97  1  0.57053261  0.17904794  0.31712373  1
  Si0+  Si98  1  0.92597826  0.31886519  0.98647711  1
  Si0+  Si99  1  0.43055002  0.31953981  0.98510657  1
  Si0+  Si100  1  0.57179444  0.17857650  0.98495112  1
  Si0+  Si101  1  0.18054581  0.93145592  0.34892824  1
  Si0+  Si102  1  0.82014097  0.57117711  0.34564359  1
  Si0+  Si103  1  0.42921755  0.32085097  0.31524284  1
  Si0+  Si104  1  0.17634355  0.42590838  0.35267714  1
  Si0+  Si105  1  0.56927372  0.67951417  0.65316340  1
  Si0+  Si106  1  0.42827560  0.82242909  0.65305652  1
  Si0+  Si107  1  0.56992912  0.67507937  0.98239906  1
  Si0+  Si108  1  0.07557888  0.67709403  0.65078387  1
  Si0+  Si109  1  0.67735581  0.42931911  0.34916923  1
  Si0+  Si110  1  0.42805358  0.82461597  0.31790289  1
  Si0+  Si111  1  0.07113232  0.17945207  0.65183291  1
  Si0+  Si112  1  0.92388101  0.32172815  0.31670950  1
  Si0+  Si113  1  0.43222055  0.82269164  0.98428246  1
  Si0+  Si114  1  0.17991645  0.42991952  0.67879785  1
  Si0+  Si115  1  0.32270224  0.07414285  0.34838344  1
  Si0+  Si116  1  0.67644855  0.92618515  0.34905230  1
  Si0+  Si117  1  0.32214190  0.57075797  0.68051484  1
  Si0+  Si118  1  0.82208079  0.57116427  0.01770833  1
  Si0+  Si119  1  0.57157116  0.17606319  0.64839921  1
  O2-  O120  1  0.25051021  0.00258086  0.06846991  1
  O2-  O121  1  0.25300009  0.00230506  0.39015775  1
  O2-  O122  1  0.25114673  0.00047874  0.72862220  1
  O2-  O123  1  0.24018731  0.50780672  0.06360337  1
  O2-  O124  1  0.24019197  0.49942564  0.39720915  1
  O2-  O125  1  0.24827694  0.50308625  0.72132593  1
  O2-  O126  1  0.75667451  -0.00863138  0.06634545  1
  O2-  O127  1  0.74909587  -0.00995928  0.39338848  1
  O2-  O128  1  0.75174376  -0.00211684  0.72880719  1
  O2-  O129  1  0.75280972  0.50351246  0.06350257  1
  O2-  O130  1  0.75051986  0.49872266  0.38958464  1
  O2-  O131  1  0.75633236  0.49449533  0.72899270  1
  O2-  O132  1  -0.00590514  0.25522060  0.27201666  1
  O2-  O133  1  -0.00265122  0.24315131  0.60748795  1
  O2-  O134  1  -0.00015170  0.25092074  0.94365675  1
  O2-  O135  1  -0.00110170  0.74730777  0.26932002  1
  O2-  O136  1  0.00576090  0.74522333  0.60779748  1
  O2-  O137  1  0.00281181  0.74896246  0.93233262  1
  O2-  O138  1  0.49884312  0.24868007  0.27300903  1
  O2-  O139  1  0.50241350  0.24567824  0.60450512  1
  O2-  O140  1  0.49773590  0.24599432  0.94192478  1
  O2-  O141  1  0.49606477  0.75583457  0.27257681  1
  O2-  O142  1  0.50140311  0.75370768  0.61050825  1
  O2-  O143  1  0.50283925  0.75059067  0.94139627  1
  O2-  O144  1  0.07393693  0.18308269  0.08936948  1
  O2-  O145  1  0.07126966  0.18239408  0.43246717  1
  O2-  O146  1  0.07537902  0.18438443  0.75719451  1
  O2-  O147  1  0.07090411  0.68025011  0.09799485  1
  O2-  O148  1  0.07173881  0.68211348  0.43363792  1
  O2-  O149  1  0.07797538  0.67511140  0.75582033  1
  O2-  O150  1  0.57077515  0.18221152  0.09057479  1
  O2-  O151  1  0.56910008  0.18007006  0.42203361  1
  O2-  O152  1  0.57037906  0.17579128  0.75381928  1
  O2-  O153  1  0.56698252  0.67266920  0.08766083  1
  O2-  O154  1  0.56842451  0.67835902  0.43270360  1
  O2-  O155  1  0.56511830  0.67607968  0.75805471  1
  O2-  O156  1  0.18077329  0.42161904  0.24771385  1
  O2-  O157  1  0.18123921  0.42917581  0.57371826  1
  O2-  O158  1  0.17997169  0.42502312  0.90064700  1
  O2-  O159  1  0.18224394  0.93146250  0.24422892  1
  O2-  O160  1  0.18009802  0.92760148  0.56750153  1
  O2-  O161  1  0.18164554  0.93191208  0.90399368  1
  O2-  O162  1  0.67716533  0.42865771  0.24386608  1
  O2-  O163  1  0.67524300  0.43547814  0.56559765  1
  O2-  O164  1  0.67959861  0.42985065  0.90134173  1
  O2-  O165  1  0.67120493  0.93006437  0.24422663  1
  O2-  O166  1  0.67853437  0.92639550  0.56518042  1
  O2-  O167  1  0.67672362  0.93049349  0.90308770  1
  O2-  O168  1  0.43330228  0.31967157  0.09054490  1
  O2-  O169  1  0.42997969  0.32092114  0.42054898  1
  O2-  O170  1  0.42907841  0.32311505  0.76518724  1
  O2-  O171  1  0.43366251  0.82318015  0.08955598  1
  O2-  O172  1  0.43000418  0.82469122  0.42387868  1
  O2-  O173  1  0.42668899  0.81949967  0.75795535  1
  O2-  O174  1  0.92362774  0.31677414  0.09168681  1
  O2-  O175  1  0.92385478  0.32149061  0.42231793  1
  O2-  O176  1  0.93079799  0.32290116  0.76757061  1
  O2-  O177  1  0.93111169  0.82039513  0.09466206  1
  O2-  O178  1  0.92891545  0.82166266  0.43187652  1
  O2-  O179  1  0.92932616  0.81965090  0.76523763  1
  O2-  O180  1  0.32391182  0.07371818  0.24367701  1
  O2-  O181  1  0.31772266  0.07262373  0.56444826  1
  O2-  O182  1  0.32041554  0.07281797  0.90154121  1
  O2-  O183  1  0.32142396  0.56676489  0.23758951  1
  O2-  O184  1  0.32296683  0.57069971  0.57528783  1
  O2-  O185  1  0.32509122  0.56529217  0.90029472  1
  O2-  O186  1  0.81894424  0.07084787  0.23670560  1
  O2-  O187  1  0.82118073  0.06993612  0.56655002  1
  O2-  O188  1  0.81734079  0.07530091  0.90283195  1
  O2-  O189  1  0.81754681  0.56790413  0.24075150  1
  O2-  O190  1  0.82050545  0.57270860  0.56616635  1
  O2-  O191  1  0.82096438  0.56850305  0.91224783  1
  O2-  O192  1  0.04050540  0.08607842  0.26354178  1
  O2-  O193  1  0.05108430  0.08401161  0.60796899  1
  O2-  O194  1  0.04858936  0.08881591  0.93774046  1
  O2-  O195  1  0.05074079  0.57652469  0.27022257  1
  O2-  O196  1  0.05367879  0.58326914  0.60301718  1
  O2-  O197  1  0.04720812  0.57589463  0.93578693  1
  O2-  O198  1  0.54354796  0.08695092  0.26970560  1
  O2-  O199  1  0.54501289  0.08328016  0.59982517  1
  O2-  O200  1  0.54798235  0.08507186  0.93986710  1
  O2-  O201  1  0.53403407  0.58300045  0.26494974  1
  O2-  O202  1  0.53715360  0.59045480  0.60241020  1
  O2-  O203  1  0.53540225  0.58488056  0.93551662  1
  O2-  O204  1  0.16602885  0.21294659  0.26336727  1
  O2-  O205  1  0.16157078  0.21126451  0.60171123  1
  O2-  O206  1  0.16452980  0.21290133  0.93757375  1
  O2-  O207  1  0.17206734  0.70833039  0.27020279  1
  O2-  O208  1  0.16990372  0.70411829  0.60504794  1
  O2-  O209  1  0.17606054  0.70155042  0.93613172  1
  O2-  O210  1  0.66155635  0.20941023  0.26980935  1
  O2-  O211  1  0.66391325  0.20272727  0.60021691  1
  O2-  O212  1  0.66209405  0.21170677  0.93868992  1
  O2-  O213  1  0.66370974  0.70408814  0.25993317  1
  O2-  O214  1  0.66202103  0.70381413  0.60626953  1
  O2-  O215  1  0.66336364  0.69594480  0.93597908  1
  O2-  O216  1  0.07412683  0.44438879  0.06729768  1
  O2-  O217  1  0.07936951  0.44428791  0.39488158  1
  O2-  O218  1  0.08813199  0.45402101  0.72703306  1
  O2-  O219  1  0.08247722  0.95942100  0.07033322  1
  O2-  O220  1  0.08987730  0.96306565  0.39560993  1
  O2-  O221  1  0.08248320  0.95644572  0.73626543  1
  O2-  O222  1  0.58427896  0.46033210  0.06998954  1
  O2-  O223  1  0.58565744  0.45925476  0.39487100  1
  O2-  O224  1  0.58181087  0.46450747  0.73354957  1
  O2-  O225  1  0.58471236  0.95836126  0.07275563  1
  O2-  O226  1  0.58406600  0.95621422  0.39709549  1
  O2-  O227  1  0.58068903  0.95461055  0.73177723  1
  O2-  O228  1  0.21318597  0.33569289  0.07172208  1
  O2-  O229  1  0.20958615  0.33474771  0.40023589  1
  O2-  O230  1  0.21052821  0.33959824  0.72645863  1
  O2-  O231  1  0.21233574  0.83281822  0.07029088  1
  O2-  O232  1  0.20789112  0.84074066  0.39845421  1
  O2-  O233  1  0.21027604  0.83043482  0.73600517  1
  O2-  O234  1  0.71038812  0.33461729  0.07126059  1
  O2-  O235  1  0.70106377  0.33668241  0.39645906  1
  O2-  O236  1  0.69656619  0.32880042  0.72963655  1
  O2-  O237  1  0.69813162  0.82239800  0.06391400  1
  O2-  O238  1  0.69622617  0.82897612  0.38958016  1
  O2-  O239  1  0.70333622  0.82822414  0.73262379  1
  O2-  O240  1  0.45981697  0.41145229  0.26810614  1
  O2-  O241  1  0.46239188  0.41678895  0.59521689  1
  O2-  O242  1  0.46200993  0.41053593  0.93828233  1
  O2-  O243  1  0.45216380  0.91871403  0.27167039  1
  O2-  O244  1  0.45219712  0.91519014  0.60543264  1
  O2-  O245  1  0.46190040  0.91438701  0.93734381  1
  O2-  O246  1  0.94603298  0.41580844  0.27024384  1
  O2-  O247  1  0.96173555  0.41674158  0.59767267  1
  O2-  O248  1  0.94911570  0.41198728  0.93988993  1
  O2-  O249  1  0.96163031  0.91902354  0.26655406  1
  O2-  O250  1  0.96161023  0.91747734  0.59965825  1
  O2-  O251  1  0.95913643  0.92194820  0.93160960  1
  O2-  O252  1  0.33720252  0.29460136  0.26841398  1
  O2-  O253  1  0.33335182  0.29244592  0.59373119  1
  O2-  O254  1  0.33709243  0.29545424  0.93916426  1
  O2-  O255  1  0.33433868  0.79874661  0.27370289  1
  O2-  O256  1  0.33791034  0.79152197  0.60352319  1
  O2-  O257  1  0.34052989  0.79546767  0.93689715  1
  O2-  O258  1  0.82959424  0.29447332  0.27239832  1
  O2-  O259  1  0.82831024  0.29754781  0.60004490  1
  O2-  O260  1  0.83479778  0.28762806  0.93942910  1
  O2-  O261  1  0.82980445  0.79714093  0.26430982  1
  O2-  O262  1  0.83309818  0.78744286  0.59897199  1
  O2-  O263  1  0.82987596  0.79201513  0.93105709  1
  O2-  O264  1  0.42034181  0.04410650  0.06773655  1
  O2-  O265  1  0.41538654  0.04909765  0.39589962  1
  O2-  O266  1  0.41952046  0.04952109  0.73025622  1
  O2-  O267  1  0.41420375  0.53302841  0.07021152  1
  O2-  O268  1  0.41412721  0.53451785  0.40394936  1
  O2-  O269  1  0.41230140  0.53943348  0.72768890  1
  O2-  O270  1  0.92226664  0.04839500  0.06632950  1
  O2-  O271  1  0.91990330  0.04300140  0.40125118  1
  O2-  O272  1  0.92120992  0.04788023  0.73302704  1
  O2-  O273  1  0.91442897  0.54423613  0.06462333  1
  O2-  O274  1  0.91263309  0.54583710  0.39306943  1
  O2-  O275  1  0.92459114  0.54682022  0.73159666  1
  O2-  O276  1  0.29586400  0.17086122  0.06827714  1
  O2-  O277  1  0.29370351  0.16675535  0.39338883  1
  O2-  O278  1  0.29199886  0.17286346  0.73015995  1
  O2-  O279  1  0.30462782  0.67180205  0.06712667  1
  O2-  O280  1  0.29425264  0.66908628  0.40474563  1
  O2-  O281  1  0.30006872  0.66326344  0.72831149  1
  O2-  O282  1  0.78603249  0.16445371  0.07260042  1
  O2-  O283  1  0.78599911  0.16478230  0.40277233  1
  O2-  O284  1  0.79305811  0.17010964  0.73160237  1
  O2-  O285  1  0.79498952  0.66422475  0.06259199  1
  O2-  O286  1  0.78940001  0.66340311  0.39060128  1
  O2-  O287  1  0.78972431  0.66509977  0.73663653  1
