# generated using pymatgen
data_Ca2Al2SiO7
_symmetry_space_group_name_H-M   'P 1'
_cell_length_a   15.45507279
_cell_length_b   15.45560514
_cell_length_c   15.28231528
_cell_angle_alpha   90.00873182
_cell_angle_beta   89.99604726
_cell_angle_gamma   90.00566916
_symmetry_Int_Tables_number   1
_chemical_formula_structural   Ca2Al2SiO7
_chemical_formula_sum   'Ca48 Al48 Si24 O168'
_cell_volume   3650.44841465
_cell_formula_units_Z   24
loop_
 _symmetry_equiv_pos_site_id
 _symmetry_equiv_pos_as_xyz
  1  'x, y, z'
loop_
 _atom_type_symbol
 _atom_type_oxidation_number
  Ca2+  2.0
  Al0+  0.0
  Si0+  0.0
  O2-  -2.0
loop_
 _atom_site_type_symbol
 _atom_site_label
 _atom_site_symmetry_multiplicity
 _atom_site_fract_x
 _atom_site_fract_y
 _atom_site_fract_z
 _atom_site_occupancy
  Ca2+  Ca0  1  0.16775720  0.07526802  0.16462191  1
  Ca2+  Ca1  1  0.16810697  0.07647172  0.50158900  1
  Ca2+  Ca2  1  0.17423153  0.07689964  0.84604901  1
  Ca2+  Ca3  1  0.17170252  0.57218444  0.17365982  1
  Ca2+  Ca4  1  0.17200333  0.58222956  0.50073616  1
  Ca2+  Ca5  1  0.16408506  0.57837562  0.83696706  1
  Ca2+  Ca6  1  0.67263853  0.08594181  0.16564688  1
  Ca2+  Ca7  1  0.66993003  0.08032296  0.51289409  1
  Ca2+  Ca8  1  0.67400502  0.08376297  0.83207612  1
  Ca2+  Ca9  1  0.67051506  0.58118895  0.16430974  1
  Ca2+  Ca10  1  0.67000558  0.57908201  0.51375652  1
  Ca2+  Ca11  1  0.66857139  0.58059121  0.83471648  1
  Ca2+  Ca12  1  0.08267995  0.33457904  0.16011594  1
  Ca2+  Ca13  1  0.07528428  0.33421234  0.49133231  1
  Ca2+  Ca14  1  0.08689820  0.32654538  0.83247493  1
  Ca2+  Ca15  1  0.08950552  0.83517974  0.16178342  1
  Ca2+  Ca16  1  0.08072811  0.82910996  0.50076517  1
  Ca2+  Ca17  1  0.07817124  0.82818252  0.82444991  1
  Ca2+  Ca18  1  0.57734989  0.33697430  0.16372111  1
  Ca2+  Ca19  1  0.57886849  0.33406011  0.50002521  1
  Ca2+  Ca20  1  0.58372412  0.33198212  0.82399804  1
  Ca2+  Ca21  1  0.56920321  0.83190539  0.16045577  1
  Ca2+  Ca22  1  0.57789441  0.83281775  0.49953099  1
  Ca2+  Ca23  1  0.57494057  0.83333980  0.82224701  1
  Ca2+  Ca24  1  0.32252688  0.41732501  0.17721590  1
  Ca2+  Ca25  1  0.33594629  0.41533259  0.50111290  1
  Ca2+  Ca26  1  0.33057473  0.41663261  0.83909525  1
  Ca2+  Ca27  1  0.32728927  0.91514352  0.17022636  1
  Ca2+  Ca28  1  0.33175193  0.90664514  0.50155646  1
  Ca2+  Ca29  1  0.33304577  0.91859241  0.84270408  1
  Ca2+  Ca30  1  0.83117622  0.41742357  0.16742586  1
  Ca2+  Ca31  1  0.82804401  0.41957258  0.51100872  1
  Ca2+  Ca32  1  0.82058922  0.42778028  0.83824273  1
  Ca2+  Ca33  1  0.83635150  0.92599205  0.16804526  1
  Ca2+  Ca34  1  0.82711897  0.92289169  0.51467242  1
  Ca2+  Ca35  1  0.83073380  0.92092434  0.83225305  1
  Ca2+  Ca36  1  0.41073691  0.17078352  0.16219733  1
  Ca2+  Ca37  1  0.42375275  0.17669566  0.50048175  1
  Ca2+  Ca38  1  0.42170901  0.17129007  0.82466313  1
  Ca2+  Ca39  1  0.40523867  0.67539326  0.16551437  1
  Ca2+  Ca40  1  0.42090747  0.67209308  0.49732501  1
  Ca2+  Ca41  1  0.42072803  0.67930511  0.82450169  1
  Ca2+  Ca42  1  0.92314996  0.17220643  0.15886394  1
  Ca2+  Ca43  1  0.91312371  0.17238358  0.49529201  1
  Ca2+  Ca44  1  0.92014280  0.15792066  0.83146301  1
  Ca2+  Ca45  1  0.91792874  0.66693911  0.16008396  1
  Ca2+  Ca46  1  0.91700565  0.66707495  0.50283463  1
  Ca2+  Ca47  1  0.91868884  0.66637061  0.82303672  1
  Al0+  Al48  1  -0.00015442  0.00054012  0.00339491  1
  Al0+  Al49  1  0.00079951  0.00019362  0.33817115  1
  Al0+  Al50  1  0.00199223  -0.00151784  0.66526426  1
  Al0+  Al51  1  -0.00156820  0.50008887  0.00545718  1
  Al0+  Al52  1  -0.00062855  0.50042778  0.33176793  1
  Al0+  Al53  1  0.00177088  0.49825180  0.66649194  1
  Al0+  Al54  1  0.50001892  0.00246453  0.00009719  1
  Al0+  Al55  1  0.50143678  -0.00120721  0.32786792  1
  Al0+  Al56  1  0.49906895  0.00321320  0.66140094  1
  Al0+  Al57  1  0.50090475  0.50189016  0.00361814  1
  Al0+  Al58  1  0.50202423  0.49927809  0.33123895  1
  Al0+  Al59  1  0.49649297  0.50220802  0.66490333  1
  Al0+  Al60  1  0.24862622  0.24887833  0.00249486  1
  Al0+  Al61  1  0.25004538  0.24685255  0.33465822  1
  Al0+  Al62  1  0.24915504  0.24858463  0.66180884  1
  Al0+  Al63  1  0.24856295  0.74960142  -0.00364091  1
  Al0+  Al64  1  0.24952454  0.74909321  0.33767149  1
  Al0+  Al65  1  0.24813345  0.74749176  0.66091804  1
  Al0+  Al66  1  0.74914116  0.25123892  0.00759843  1
  Al0+  Al67  1  0.75197898  0.25095411  0.32805263  1
  Al0+  Al68  1  0.75130542  0.24989786  0.67153078  1
  Al0+  Al69  1  0.74927113  0.74983327  0.00463392  1
  Al0+  Al70  1  0.75025634  0.75098038  0.33101900  1
  Al0+  Al71  1  0.74995402  0.75212762  0.66698040  1
  Al0+  Al72  1  0.82364495  0.07197859  0.68148480  1
  Al0+  Al73  1  0.18014893  0.42843023  0.01198740  1
  Al0+  Al74  1  0.82277741  0.57189396  0.67997934  1
  Al0+  Al75  1  0.92997568  0.32177183  0.31851518  1
  Al0+  Al76  1  0.67561702  0.42989429  0.68033575  1
  Al0+  Al77  1  0.32217930  0.56962270  0.34980728  1
  Al0+  Al78  1  0.57389023  0.18122324  0.65322982  1
  Al0+  Al79  1  0.17957886  0.92721836  0.01258376  1
  Al0+  Al80  1  0.42831267  0.82109186  0.98596604  1
  Al0+  Al81  1  0.82109595  0.06981255  0.01512654  1
  Al0+  Al82  1  0.17768094  0.42653032  0.35013493  1
  Al0+  Al83  1  0.42823964  0.82338525  0.65105815  1
  Al0+  Al84  1  0.17984858  0.92944821  0.35002955  1
  Al0+  Al85  1  0.42953162  0.32022998  0.31788633  1
  Al0+  Al86  1  0.42895620  0.81879403  0.31732968  1
  Al0+  Al87  1  0.07038430  0.67527520  0.65004035  1
  Al0+  Al88  1  0.06980185  0.17976433  0.98621589  1
  Al0+  Al89  1  0.67572227  0.92946395  0.68067317  1
  Al0+  Al90  1  0.42662847  0.32257677  0.65322340  1
  Al0+  Al91  1  0.57201076  0.67939876  0.65290457  1
  Al0+  Al92  1  0.32344147  0.07119680  0.01419580  1
  Al0+  Al93  1  0.82101436  0.57246025  0.01646938  1
  Al0+  Al94  1  0.67700730  0.42881719  0.01770026  1
  Al0+  Al95  1  0.92896161  0.82189692  0.65226258  1
  Si0+  Si96  1  0.06964628  0.68059631  0.31686394  1
  Si0+  Si97  1  0.67684790  0.92774199  0.01798896  1
  Si0+  Si98  1  0.92848944  0.82225395  0.31749092  1
  Si0+  Si99  1  0.57301373  0.67879091  0.98322460  1
  Si0+  Si100  1  0.31901847  0.57192372  0.68258625  1
  Si0+  Si101  1  0.31880915  0.07236308  0.67967115  1
  Si0+  Si102  1  0.92774168  0.82181607  0.98696055  1
  Si0+  Si103  1  0.32558456  0.07111022  0.35230599  1
  Si0+  Si104  1  0.07205667  0.17730506  0.65086245  1
  Si0+  Si105  1  0.32156132  0.57219236  0.01438459  1
  Si0+  Si106  1  0.92684836  0.32291225  0.98157987  1
  Si0+  Si107  1  0.68114830  0.42860334  0.34880665  1
  Si0+  Si108  1  0.67933754  0.92915252  0.34679409  1
  Si0+  Si109  1  0.17929330  0.42646962  0.68150398  1
  Si0+  Si110  1  0.82071740  0.57309002  0.34903439  1
  Si0+  Si111  1  0.93106867  0.31942756  0.65523823  1
  Si0+  Si112  1  0.57299396  0.18037058  0.98515465  1
  Si0+  Si113  1  0.57493116  0.67746950  0.31415055  1
  Si0+  Si114  1  0.06905405  0.67773627  0.98657670  1
  Si0+  Si115  1  0.81977656  0.07110542  0.34804453  1
  Si0+  Si116  1  0.18090753  0.92741728  0.68131065  1
  Si0+  Si117  1  0.57297541  0.17796118  0.31405967  1
  Si0+  Si118  1  0.42873583  0.32145296  0.98726780  1
  Si0+  Si119  1  0.07130525  0.17549781  0.31645074  1
  O2-  O120  1  0.25400407  -0.00378001  0.06348518  1
  O2-  O121  1  0.25727551  0.00169931  0.39681497  1
  O2-  O122  1  0.25388513  -0.00383925  0.72264703  1
  O2-  O123  1  0.25640929  0.50073678  0.05903186  1
  O2-  O124  1  0.25312154  0.49443182  0.40083513  1
  O2-  O125  1  0.25019354  0.49764863  0.72374522  1
  O2-  O126  1  0.74657285  -0.00460216  0.06329029  1
  O2-  O127  1  0.74879441  0.00095281  0.38979582  1
  O2-  O128  1  0.75034730  -0.00000562  0.72966360  1
  O2-  O129  1  0.75052126  0.49969836  0.06764633  1
  O2-  O130  1  0.75051118  0.50133582  0.39063011  1
  O2-  O131  1  0.74574486  0.50472825  0.72904121  1
  O2-  O132  1  0.00833239  0.24999629  0.27306589  1
  O2-  O133  1  -0.00180164  0.24573180  0.61042390  1
  O2-  O134  1  -0.00507180  0.25357650  0.93692644  1
  O2-  O135  1  -0.00057860  0.75229587  0.27354989  1
  O2-  O136  1  -0.00295876  0.74664374  0.60074254  1
  O2-  O137  1  -0.00247965  0.74895501  0.94581961  1
  O2-  O138  1  0.50199245  0.24400604  0.26929605  1
  O2-  O139  1  0.50439869  0.25606285  0.60403563  1
  O2-  O140  1  0.50126294  0.25209656  0.94483984  1
  O2-  O141  1  0.50224341  0.74244067  0.27023967  1
  O2-  O142  1  0.50275388  0.75348884  0.60176052  1
  O2-  O143  1  0.50465492  0.74808577  0.94011118  1
  O2-  O144  1  0.06817920  0.18022115  0.09927121  1
  O2-  O145  1  0.06618867  0.17272029  0.42245667  1
  O2-  O146  1  0.07566037  0.17824469  0.75581135  1
  O2-  O147  1  0.06970570  0.67843287  0.09195042  1
  O2-  O148  1  0.06698572  0.68029251  0.42154158  1
  O2-  O149  1  0.07195978  0.67635109  0.76429839  1
  O2-  O150  1  0.57295966  0.18033029  0.09055259  1
  O2-  O151  1  0.57584867  0.17892022  0.41922223  1
  O2-  O152  1  0.57097618  0.18105467  0.76716036  1
  O2-  O153  1  0.57331842  0.67992934  0.08912667  1
  O2-  O154  1  0.57982464  0.68035696  0.41914155  1
  O2-  O155  1  0.56650232  0.67863548  0.76670263  1
  O2-  O156  1  0.17725249  0.43011204  0.23632781  1
  O2-  O157  1  0.17820105  0.42498761  0.57682566  1
  O2-  O158  1  0.18141261  0.42954901  0.89834789  1
  O2-  O159  1  0.17795109  0.93088883  0.23713478  1
  O2-  O160  1  0.17993090  0.92991141  0.57600478  1
  O2-  O161  1  0.17959722  0.92755700  0.89879614  1
  O2-  O162  1  0.68268731  0.42846733  0.24384494  1
  O2-  O163  1  0.68049467  0.42836430  0.56606790  1
  O2-  O164  1  0.67565063  0.42930785  0.90460216  1
  O2-  O165  1  0.68195367  0.92958415  0.24148139  1
  O2-  O166  1  0.67704907  0.93278163  0.56626436  1
  O2-  O167  1  0.67697041  0.92764732  0.91297829  1
  O2-  O168  1  0.42922499  0.31999403  0.09242043  1
  O2-  O169  1  0.43364386  0.31956984  0.43053670  1
  O2-  O170  1  0.42078699  0.31789208  0.76714849  1
  O2-  O171  1  0.42721226  0.81783245  0.09930952  1
  O2-  O172  1  0.43261954  0.81901735  0.42976195  1
  O2-  O173  1  0.42574153  0.82159714  0.76494958  1
  O2-  O174  1  0.92959805  0.32166243  0.08758333  1
  O2-  O175  1  0.92678330  0.31830201  0.43214659  1
  O2-  O176  1  0.93534998  0.32075318  0.75990590  1
  O2-  O177  1  0.92888111  0.82128538  0.09280129  1
  O2-  O178  1  0.92660552  0.82147839  0.42187109  1
  O2-  O179  1  0.93472200  0.82488494  0.76617655  1
  O2-  O180  1  0.32458009  0.07071105  0.24676458  1
  O2-  O181  1  0.31388242  0.07564704  0.57473178  1
  O2-  O182  1  0.32213300  0.07213433  0.90012902  1
  O2-  O183  1  0.31641538  0.57059989  0.23559407  1
  O2-  O184  1  0.31803356  0.57308031  0.57790442  1
  O2-  O185  1  0.32028536  0.57154371  0.90859381  1
  O2-  O186  1  0.82020333  0.06941842  0.24282668  1
  O2-  O187  1  0.82359203  0.07241716  0.56714455  1
  O2-  O188  1  0.82101925  0.06750615  0.90275015  1
  O2-  O189  1  0.81936114  0.57466107  0.24404413  1
  O2-  O190  1  0.82488485  0.56545861  0.56574427  1
  O2-  O191  1  0.82157477  0.57298311  0.90356440  1
  O2-  O192  1  0.03834340  0.08420941  0.26928467  1
  O2-  O193  1  0.04715800  0.08534222  0.60272579  1
  O2-  O194  1  0.03866838  0.08236558  0.93312708  1
  O2-  O195  1  0.04071701  0.58936161  0.26860846  1
  O2-  O196  1  0.04467525  0.57632464  0.59655466  1
  O2-  O197  1  0.04100141  0.58579040  0.93928202  1
  O2-  O198  1  0.55115845  0.08351021  0.26750595  1
  O2-  O199  1  0.54167170  0.08613300  0.59592144  1
  O2-  O200  1  0.54683355  0.08840859  0.93783461  1
  O2-  O201  1  0.55426869  0.58231396  0.26961466  1
  O2-  O202  1  0.54066050  0.58261293  0.59789532  1
  O2-  O203  1  0.54723544  0.58452567  0.93879422  1
  O2-  O204  1  0.16780678  0.19259607  0.27432102  1
  O2-  O205  1  0.16073404  0.20820212  0.59945955  1
  O2-  O206  1  0.16648713  0.21124793  0.93140307  1
  O2-  O207  1  0.16153773  0.70867224  0.27060164  1
  O2-  O208  1  0.16617589  0.70694111  0.59453014  1
  O2-  O209  1  0.16013948  0.70391570  0.93688054  1
  O2-  O210  1  0.66540821  0.20713277  0.26656141  1
  O2-  O211  1  0.67379839  0.20583155  0.60053122  1
  O2-  O212  1  0.66521746  0.20891010  0.93933091  1
  O2-  O213  1  0.66660866  0.70879233  0.26515036  1
  O2-  O214  1  0.67162187  0.70233219  0.60035209  1
  O2-  O215  1  0.66757109  0.70358930  0.93901290  1
  O2-  O216  1  0.08445730  0.45956757  0.06664944  1
  O2-  O217  1  0.07902855  0.45917892  0.40098421  1
  O2-  O218  1  0.08859650  0.45431560  0.73066385  1
  O2-  O219  1  0.08277591  0.95746048  0.06773074  1
  O2-  O220  1  0.08376222  0.96263566  0.40528315  1
  O2-  O221  1  0.09015067  0.95770212  0.72841884  1
  O2-  O222  1  0.57948802  0.45975568  0.07283322  1
  O2-  O223  1  0.58846424  0.45370881  0.39441550  1
  O2-  O224  1  0.57538729  0.45452741  0.73149217  1
  O2-  O225  1  0.58465298  0.95698761  0.06507644  1
  O2-  O226  1  0.58670952  0.95537379  0.39241215  1
  O2-  O227  1  0.57728680  0.96076299  0.73265340  1
  O2-  O228  1  0.20865274  0.33288550  0.06774841  1
  O2-  O229  1  0.19924714  0.32484875  0.39941741  1
  O2-  O230  1  0.20760120  0.33401182  0.72820703  1
  O2-  O231  1  0.20549715  0.82786122  0.06551148  1
  O2-  O232  1  0.20782065  0.83255381  0.40370144  1
  O2-  O233  1  0.20478929  0.83360929  0.72612000  1
  O2-  O234  1  0.70426771  0.33150664  0.07347227  1
  O2-  O235  1  0.71152757  0.33641788  0.39408668  1
  O2-  O236  1  0.70736778  0.33322949  0.73443062  1
  O2-  O237  1  0.70090892  0.83458040  0.06570254  1
  O2-  O238  1  0.70862636  0.83746389  0.39333949  1
  O2-  O239  1  0.70141638  0.83110677  0.73418120  1
  O2-  O240  1  0.46114218  0.41670561  0.26338914  1
  O2-  O241  1  0.44728767  0.42229030  0.60130341  1
  O2-  O242  1  0.45368517  0.41545052  0.94237274  1
  O2-  O243  1  0.46098850  0.91530468  0.26271350  1
  O2-  O244  1  0.45086267  0.92254259  0.59768009  1
  O2-  O245  1  0.45729786  0.91972573  0.93523406  1
  O2-  O246  1  0.95656144  0.41953786  0.26430499  1
  O2-  O247  1  0.96210159  0.40856704  0.60449753  1
  O2-  O248  1  0.95362601  0.41718722  0.93806288  1
  O2-  O249  1  0.95709338  0.91512905  0.27200094  1
  O2-  O250  1  0.96300776  0.91812283  0.59602458  1
  O2-  O251  1  0.95660555  0.91281983  0.94009334  1
  O2-  O252  1  0.33085766  0.29010283  0.26651565  1
  O2-  O253  1  0.33161229  0.28686378  0.59625668  1
  O2-  O254  1  0.33726249  0.29305782  0.94010048  1
  O2-  O255  1  0.33049754  0.78790686  0.26629559  1
  O2-  O256  1  0.33145651  0.78975044  0.59825085  1
  O2-  O257  1  0.33229211  0.78909471  0.93083413  1
  O2-  O258  1  0.83571320  0.28744291  0.26137998  1
  O2-  O259  1  0.83868366  0.29446920  0.60785599  1
  O2-  O260  1  0.83153883  0.29746583  0.94030629  1
  O2-  O261  1  0.83708451  0.79476064  0.26809591  1
  O2-  O262  1  0.82926913  0.80053732  0.59978087  1
  O2-  O263  1  0.83436090  0.79626537  0.94209052  1
  O2-  O264  1  0.42268421  0.04888904  0.06826708  1
  O2-  O265  1  0.42082397  0.04614187  0.39501807  1
  O2-  O266  1  0.41304155  0.05166080  0.72406672  1
  O2-  O267  1  0.41592772  0.55310445  0.06076928  1
  O2-  O268  1  0.42355295  0.54539073  0.39838443  1
  O2-  O269  1  0.41051916  0.54726640  0.73140990  1
  O2-  O270  1  0.91580650  0.03778949  0.07213761  1
  O2-  O271  1  0.91118230  0.04403506  0.39584773  1
  O2-  O272  1  0.92269866  0.04152918  0.73300760  1
  O2-  O273  1  0.91850572  0.54435094  0.07199019  1
  O2-  O274  1  0.91324651  0.54645927  0.39415061  1
  O2-  O275  1  0.92014302  0.53836380  0.73320909  1
  O2-  O276  1  0.29014671  0.16709730  0.06900043  1
  O2-  O277  1  0.29882492  0.16392639  0.39921367  1
  O2-  O278  1  0.28504714  0.16175077  0.72881908  1
  O2-  O279  1  0.29001111  0.66373887  0.06077616  1
  O2-  O280  1  0.28945924  0.66598780  0.40370197  1
  O2-  O281  1  0.28658448  0.66230752  0.73089467  1
  O2-  O282  1  0.79054726  0.16570897  0.07062487  1
  O2-  O283  1  0.79190150  0.16400004  0.39310228  1
  O2-  O284  1  0.79807438  0.16950508  0.73679301  1
  O2-  O285  1  0.79269038  0.67045805  0.07248999  1
  O2-  O286  1  0.79310253  0.66585948  0.39503651  1
  O2-  O287  1  0.80259725  0.67278124  0.72969007  1
