# generated using pymatgen
data_Ca2Al2SiO7
_symmetry_space_group_name_H-M   'P 1'
_cell_length_a   15.46410165
_cell_length_b   15.46365420
_cell_length_c   15.28812405
_cell_angle_alpha   90.00524386
_cell_angle_beta   90.01127672
_cell_angle_gamma   90.00520796
_symmetry_Int_Tables_number   1
_chemical_formula_structural   Ca2Al2SiO7
_chemical_formula_sum   'Ca48 Al48 Si24 O168'
_cell_volume   3655.87224680
_cell_formula_units_Z   24
loop_
 _symmetry_equiv_pos_site_id
 _symmetry_equiv_pos_as_xyz
  1  'x, y, z'
loop_
 _atom_type_symbol
 _atom_type_oxidation_number
  Ca2+  2.0
  Al0+  0.0
  Si0+  0.0
  O2-  -2.0
loop_
 _atom_site_type_symbol
 _atom_site_label
 _atom_site_symmetry_multiplicity
 _atom_site_fract_x
 _atom_site_fract_y
 _atom_site_fract_z
 _atom_site_occupancy
  Ca2+  Ca0  1  0.16341468  0.07861918  0.16085816  1
  Ca2+  Ca1  1  0.17171115  0.07752874  0.51280477  1
  Ca2+  Ca2  1  0.17093611  0.07703624  0.84126053  1
  Ca2+  Ca3  1  0.17028093  0.58735398  0.17144067  1
  Ca2+  Ca4  1  0.15453490  0.57257474  0.50451184  1
  Ca2+  Ca5  1  0.16363999  0.58102116  0.83940920  1
  Ca2+  Ca6  1  0.67057138  0.06832964  0.16769324  1
  Ca2+  Ca7  1  0.67267145  0.07403759  0.50813970  1
  Ca2+  Ca8  1  0.67851985  0.07252876  0.83786013  1
  Ca2+  Ca9  1  0.66522150  0.59081499  0.17054512  1
  Ca2+  Ca10  1  0.66564704  0.58502773  0.49990066  1
  Ca2+  Ca11  1  0.66331218  0.58319637  0.84021247  1
  Ca2+  Ca12  1  0.08271385  0.32915308  0.16506885  1
  Ca2+  Ca13  1  0.08509173  0.32862495  0.49606795  1
  Ca2+  Ca14  1  0.08976466  0.31917835  0.82801870  1
  Ca2+  Ca15  1  0.08176686  0.82606848  0.15346663  1
  Ca2+  Ca16  1  0.09174205  0.82221771  0.49949695  1
  Ca2+  Ca17  1  0.09421752  0.82742558  0.82929197  1
  Ca2+  Ca18  1  0.57459122  0.33229591  0.16290655  1
  Ca2+  Ca19  1  0.57273909  0.32905658  0.49154708  1
  Ca2+  Ca20  1  0.57871470  0.32948732  0.82941404  1
  Ca2+  Ca21  1  0.58425983  0.82788409  0.15731901  1
  Ca2+  Ca22  1  0.58014635  0.83880254  0.49678651  1
  Ca2+  Ca23  1  0.57311658  0.84635826  0.83255326  1
  Ca2+  Ca24  1  0.32785169  0.42398683  0.17249663  1
  Ca2+  Ca25  1  0.32258600  0.41686150  0.50275426  1
  Ca2+  Ca26  1  0.32610389  0.42595873  0.83785690  1
  Ca2+  Ca27  1  0.33258344  0.91578516  0.16117371  1
  Ca2+  Ca28  1  0.33059201  0.92175644  0.51120063  1
  Ca2+  Ca29  1  0.32683647  0.91816056  0.83841664  1
  Ca2+  Ca30  1  0.83517380  0.41759767  0.17261048  1
  Ca2+  Ca31  1  0.83770529  0.41657750  0.50173977  1
  Ca2+  Ca32  1  0.83234374  0.42022370  0.83640839  1
  Ca2+  Ca33  1  0.82728143  0.90927499  0.16609827  1
  Ca2+  Ca34  1  0.82030853  0.91754815  0.50810859  1
  Ca2+  Ca35  1  0.82807013  0.91915466  0.84349196  1
  Ca2+  Ca36  1  0.40906258  0.17228185  0.16218447  1
  Ca2+  Ca37  1  0.41204420  0.16998265  0.49621961  1
  Ca2+  Ca38  1  0.41298314  0.15739732  0.82845958  1
  Ca2+  Ca39  1  0.42586920  0.67073276  0.15481244  1
  Ca2+  Ca40  1  0.42224365  0.67656250  0.49662582  1
  Ca2+  Ca41  1  0.41318918  0.68076973  0.83519643  1
  Ca2+  Ca42  1  0.91703904  0.17225709  0.15845225  1
  Ca2+  Ca43  1  0.92049382  0.16717824  0.50016045  1
  Ca2+  Ca44  1  0.92685696  0.15406382  0.83195728  1
  Ca2+  Ca45  1  0.92926011  0.67214406  0.15993785  1
  Ca2+  Ca46  1  0.92814380  0.66751698  0.49691589  1
  Ca2+  Ca47  1  0.92606586  0.67852196  0.83420612  1
  Al0+  Al48  1  -0.00060535  0.00252262  0.00271796  1
  Al0+  Al49  1  0.00035171  -0.00007441  0.33584406  1
  Al0+  Al50  1  0.00008452  -0.00175447  0.66413107  1
  Al0+  Al51  1  -0.00294904  0.49844689  -0.00254210  1
  Al0+  Al52  1  0.00022056  0.49917783  0.32909771  1
  Al0+  Al53  1  -0.00160050  0.49928312  0.66976127  1
  Al0+  Al54  1  0.50121449  0.00213811  0.00547814  1
  Al0+  Al55  1  0.50057256  0.00111055  0.33725588  1
  Al0+  Al56  1  0.50158943  0.00122832  0.66577727  1
  Al0+  Al57  1  0.49776027  0.49901272  -0.00025625  1
  Al0+  Al58  1  0.49963433  0.50037914  0.32780614  1
  Al0+  Al59  1  0.49985076  0.49994216  0.66525629  1
  Al0+  Al60  1  0.24810173  0.25168776  -0.00055177  1
  Al0+  Al61  1  0.24947460  0.25156051  0.33205425  1
  Al0+  Al62  1  0.24858293  0.25287398  0.66863081  1
  Al0+  Al63  1  0.25342194  0.74802565  0.00172840  1
  Al0+  Al64  1  0.25323892  0.75051474  0.33103604  1
  Al0+  Al65  1  0.25394788  0.74845594  0.65714071  1
  Al0+  Al66  1  0.74710952  0.25084305  0.00292910  1
  Al0+  Al67  1  0.75019618  0.25006200  0.33051823  1
  Al0+  Al68  1  0.74860542  0.25095291  0.66900698  1
  Al0+  Al69  1  0.75277416  0.74574547  -0.00334157  1
  Al0+  Al70  1  0.75027985  0.74992735  0.33731310  1
  Al0+  Al71  1  0.74968524  0.74702721  0.67038553  1
  Al0+  Al72  1  0.32005491  0.07259507  0.67911784  1
  Al0+  Al73  1  0.43195191  0.82233218  0.65142864  1
  Al0+  Al74  1  0.07357030  0.67865156  0.98525096  1
  Al0+  Al75  1  0.07174733  0.67981101  0.31975509  1
  Al0+  Al76  1  0.57186992  0.67727094  0.98391396  1
  Al0+  Al77  1  0.93016133  0.82229019  0.98636447  1
  Al0+  Al78  1  0.32128760  0.07329147  0.01658336  1
  Al0+  Al79  1  0.17932147  0.92765389  0.01467469  1
  Al0+  Al80  1  0.43146630  0.82364730  0.98505729  1
  Al0+  Al81  1  0.42766958  0.31978545  0.31896463  1
  Al0+  Al82  1  0.82188459  0.07247728  0.68082621  1
  Al0+  Al83  1  0.92918480  0.31952253  0.32062222  1
  Al0+  Al84  1  0.68103846  0.92663871  0.01592579  1
  Al0+  Al85  1  0.17730060  0.43112515  0.68133845  1
  Al0+  Al86  1  0.06989014  0.18125834  0.98670053  1
  Al0+  Al87  1  0.07131792  0.17751089  0.65303522  1
  Al0+  Al88  1  0.82264176  0.07257871  0.01727496  1
  Al0+  Al89  1  0.57096296  0.68137513  0.32071885  1
  Al0+  Al90  1  0.32004703  0.57012383  0.01369925  1
  Al0+  Al91  1  0.68045159  0.92860402  0.34864614  1
  Al0+  Al92  1  0.07069558  0.67880894  0.65258965  1
  Al0+  Al93  1  0.17908539  0.43142398  0.34687434  1
  Al0+  Al94  1  0.17999627  0.92522676  0.67890024  1
  Al0+  Al95  1  0.67940449  0.92687820  0.68294703  1
  Si0+  Si96  1  0.42887242  0.32339965  0.65149448  1
  Si0+  Si97  1  0.82268451  0.07480393  0.35113730  1
  Si0+  Si98  1  0.82051743  0.56913432  0.34841224  1
  Si0+  Si99  1  0.92863198  0.82195553  0.31971292  1
  Si0+  Si100  1  0.82127164  0.56828069  0.01667236  1
  Si0+  Si101  1  0.32424011  0.57289139  0.35141016  1
  Si0+  Si102  1  0.57080282  0.18054674  0.98471260  1
  Si0+  Si103  1  0.92388538  0.32164919  0.98174316  1
  Si0+  Si104  1  0.42823073  0.32054506  0.98319464  1
  Si0+  Si105  1  0.17832231  0.92704237  0.34847403  1
  Si0+  Si106  1  0.42921498  0.82548473  0.31537198  1
  Si0+  Si107  1  0.57325068  0.67508368  0.64910160  1
  Si0+  Si108  1  0.92505037  0.82121818  0.64910895  1
  Si0+  Si109  1  0.67689135  0.42970049  0.68034805  1
  Si0+  Si110  1  0.92670669  0.32160571  0.65115300  1
  Si0+  Si111  1  0.57175804  0.17778624  0.31577682  1
  Si0+  Si112  1  0.67737680  0.42764829  0.34788277  1
  Si0+  Si113  1  0.07250953  0.17642596  0.31676523  1
  Si0+  Si114  1  0.67704480  0.42919670  0.01643401  1
  Si0+  Si115  1  0.17584650  0.42889248  0.01727165  1
  Si0+  Si116  1  0.82113751  0.56961681  0.68268188  1
  Si0+  Si117  1  0.31905194  0.07137257  0.34774520  1
  Si0+  Si118  1  0.57119946  0.18138460  0.65153451  1
  Si0+  Si119  1  0.32449705  0.57066724  0.68151357  1
  O2-  O120  1  0.25109444  -0.00018024  0.06678652  1
  O2-  O121  1  0.24900456  -0.00054626  0.38937268  1
  O2-  O122  1  0.24747252  0.00159600  0.72858648  1
  O2-  O123  1  0.24011293  0.50129896  0.06140658  1
  O2-  O124  1  0.25163494  0.50806828  0.39555850  1
  O2-  O125  1  0.25034703  0.50807604  0.72591618  1
  O2-  O126  1  0.75535883  -0.00390367  0.06706461  1
  O2-  O127  1  0.75556516  0.00400911  0.39403099  1
  O2-  O128  1  0.75647853  -0.00549789  0.73050999  1
  O2-  O129  1  0.74783013  0.49957468  0.05926375  1
  O2-  O130  1  0.74864610  0.49799857  0.39100058  1
  O2-  O131  1  0.74642686  0.50102850  0.72313041  1
  O2-  O132  1  0.00041800  0.24239036  0.27391032  1
  O2-  O133  1  -0.00601415  0.25143485  0.60780173  1
  O2-  O134  1  -0.00820561  0.25263337  0.93886863  1
  O2-  O135  1  0.00235942  0.75957365  0.27491154  1
  O2-  O136  1  -0.00157840  0.75638781  0.60534947  1
  O2-  O137  1  0.00864892  0.75736803  0.93550208  1
  O2-  O138  1  0.50214192  0.24538816  0.27105007  1
  O2-  O139  1  0.49637713  0.24882297  0.60938171  1
  O2-  O140  1  0.49521403  0.24625073  0.94054147  1
  O2-  O141  1  0.49776706  0.75596181  0.27333406  1
  O2-  O142  1  0.50958678  0.74857504  0.60617933  1
  O2-  O143  1  0.50540317  0.75348210  0.93373542  1
  O2-  O144  1  0.07109106  0.18658780  0.10016039  1
  O2-  O145  1  0.07365903  0.17729442  0.42242356  1
  O2-  O146  1  0.07361536  0.18091747  0.76555940  1
  O2-  O147  1  0.06926447  0.67617477  0.09914847  1
  O2-  O148  1  0.06787864  0.67822086  0.43309990  1
  O2-  O149  1  0.06835461  0.67696013  0.76496602  1
  O2-  O150  1  0.57235771  0.18593524  0.08980085  1
  O2-  O151  1  0.57123564  0.18042905  0.42181625  1
  O2-  O152  1  0.57290767  0.18571454  0.75646876  1
  O2-  O153  1  0.56959346  0.67582362  0.09779873  1
  O2-  O154  1  0.56980268  0.68023784  0.43402210  1
  O2-  O155  1  0.57009834  0.66642410  0.75338442  1
  O2-  O156  1  0.18104876  0.43107106  0.23409589  1
  O2-  O157  1  0.17795548  0.43041171  0.56781543  1
  O2-  O158  1  0.17858668  0.42821511  0.91155158  1
  O2-  O159  1  0.17668478  0.92650169  0.24397956  1
  O2-  O160  1  0.18422387  0.92622532  0.56419902  1
  O2-  O161  1  0.18124870  0.92819579  0.90145065  1
  O2-  O162  1  0.67769872  0.42731411  0.24301298  1
  O2-  O163  1  0.67562831  0.42937733  0.57510933  1
  O2-  O164  1  0.67755088  0.42793568  0.91083718  1
  O2-  O165  1  0.68168969  0.92698605  0.23619241  1
  O2-  O166  1  0.67958135  0.92980994  0.56860604  1
  O2-  O167  1  0.68013734  0.93110494  0.90283554  1
  O2-  O168  1  0.43117679  0.32137276  0.08842982  1
  O2-  O169  1  0.42891264  0.31771094  0.43254849  1
  O2-  O170  1  0.43367418  0.32800920  0.75629739  1
  O2-  O171  1  0.43307592  0.82103876  0.09900255  1
  O2-  O172  1  0.42950219  0.82575459  0.42122901  1
  O2-  O173  1  0.43044101  0.82251777  0.76366645  1
  O2-  O174  1  0.92351190  0.32326464  0.08758671  1
  O2-  O175  1  0.92878815  0.31968600  0.43371123  1
  O2-  O176  1  0.92462784  0.32473485  0.75622660  1
  O2-  O177  1  0.92865949  0.81498661  0.10052591  1
  O2-  O178  1  0.92740866  0.81879525  0.42539281  1
  O2-  O179  1  0.92053258  0.81722269  0.75390796  1
  O2-  O180  1  0.31938922  0.07228667  0.24321114  1
  O2-  O181  1  0.31953103  0.07294988  0.56455997  1
  O2-  O182  1  0.31915496  0.07539485  0.90360929  1
  O2-  O183  1  0.32490326  0.57053545  0.24602245  1
  O2-  O184  1  0.32970022  0.56525840  0.57591446  1
  O2-  O185  1  0.32259961  0.56548301  0.90058151  1
  O2-  O186  1  0.82161972  0.07726351  0.24623152  1
  O2-  O187  1  0.81577078  0.07610327  0.56666151  1
  O2-  O188  1  0.81772237  0.07614318  0.90413825  1
  O2-  O189  1  0.81941283  0.56814541  0.24356833  1
  O2-  O190  1  0.82213632  0.56749095  0.57713191  1
  O2-  O191  1  0.82231418  0.56399671  0.91150203  1
  O2-  O192  1  0.05026435  0.08117859  0.27256816  1
  O2-  O193  1  0.04444389  0.08068118  0.59617611  1
  O2-  O194  1  0.04352607  0.08359339  0.93415345  1
  O2-  O195  1  0.03644437  0.58560973  0.26516546  1
  O2-  O196  1  0.03195848  0.58297480  0.59991654  1
  O2-  O197  1  0.03745124  0.58132400  0.93358234  1
  O2-  O198  1  0.54586598  0.08392594  0.27156387  1
  O2-  O199  1  0.54667425  0.08990986  0.60258426  1
  O2-  O200  1  0.54756862  0.08771308  0.93913535  1
  O2-  O201  1  0.54401245  0.58388467  0.26650641  1
  O2-  O202  1  0.54348488  0.58295632  0.59950472  1
  O2-  O203  1  0.54015055  0.57851647  0.93213387  1
  O2-  O204  1  0.16386051  0.20674504  0.26992236  1
  O2-  O205  1  0.16672334  0.21411979  0.59818120  1
  O2-  O206  1  0.16495666  0.21620934  0.93145370  1
  O2-  O207  1  0.17116146  0.70492771  0.26922808  1
  O2-  O208  1  0.16791815  0.70308071  0.59598143  1
  O2-  O209  1  0.17442810  0.69818131  0.93545557  1
  O2-  O210  1  0.66424967  0.20516669  0.26951842  1
  O2-  O211  1  0.66038922  0.21525764  0.60191360  1
  O2-  O212  1  0.65953931  0.21575349  0.93559882  1
  O2-  O213  1  0.66963115  0.70896984  0.26906244  1
  O2-  O214  1  0.66964357  0.69429991  0.60563353  1
  O2-  O215  1  0.67343577  0.69427325  0.93452783  1
  O2-  O216  1  0.07926049  0.44825174  0.05977481  1
  O2-  O217  1  0.08135701  0.46103782  0.40002781  1
  O2-  O218  1  0.08058005  0.45881267  0.73596674  1
  O2-  O219  1  0.08149867  0.95708674  0.06885342  1
  O2-  O220  1  0.08581929  0.95210114  0.39673480  1
  O2-  O221  1  0.07778060  0.94397764  0.72558008  1
  O2-  O222  1  0.58529196  0.45609244  0.06392064  1
  O2-  O223  1  0.58562398  0.45654674  0.39537481  1
  O2-  O224  1  0.58545951  0.45651708  0.72934171  1
  O2-  O225  1  0.58467804  0.95969257  0.07038845  1
  O2-  O226  1  0.58371559  0.96109875  0.40264830  1
  O2-  O227  1  0.58355317  0.96342978  0.73377610  1
  O2-  O228  1  0.20712771  0.33797605  0.06453563  1
  O2-  O229  1  0.21186333  0.33446732  0.40034914  1
  O2-  O230  1  0.21229079  0.33715401  0.73638018  1
  O2-  O231  1  0.20827022  0.82949994  0.06818478  1
  O2-  O232  1  0.20857207  0.83544054  0.39566923  1
  O2-  O233  1  0.21312502  0.82673827  0.72816795  1
  O2-  O234  1  0.70397237  0.33842769  0.06588256  1
  O2-  O235  1  0.70455505  0.33562228  0.39581888  1
  O2-  O236  1  0.70474307  0.33942496  0.73037348  1
  O2-  O237  1  0.70902794  0.82574126  0.06502246  1
  O2-  O238  1  0.71159271  0.83270072  0.40485391  1
  O2-  O239  1  0.69855659  0.82509095  0.73186908  1
  O2-  O240  1  0.46020519  0.41506448  0.26405298  1
  O2-  O241  1  0.46227606  0.41211805  0.60061888  1
  O2-  O242  1  0.46215390  0.40933140  0.93416950  1
  O2-  O243  1  0.45420602  0.91984499  0.27152261  1
  O2-  O244  1  0.46283779  0.91909243  0.59577013  1
  O2-  O245  1  0.45765579  0.92417620  0.93498541  1
  O2-  O246  1  0.96023323  0.41459214  0.26395502  1
  O2-  O247  1  0.95399738  0.41454459  0.60423523  1
  O2-  O248  1  0.94915985  0.41482960  0.93500948  1
  O2-  O249  1  0.94701171  0.91833354  0.27662751  1
  O2-  O250  1  0.94357961  0.91597389  0.60297546  1
  O2-  O251  1  0.94598466  0.92467246  0.93941889  1
  O2-  O252  1  0.33219770  0.28905994  0.26334011  1
  O2-  O253  1  0.33628984  0.29874485  0.60491960  1
  O2-  O254  1  0.33498221  0.29844939  0.93728567  1
  O2-  O255  1  0.33558961  0.80047837  0.26983545  1
  O2-  O256  1  0.33897410  0.78858074  0.59111626  1
  O2-  O257  1  0.33423417  0.79074875  0.93312598  1
  O2-  O258  1  0.83096832  0.29458641  0.26541639  1
  O2-  O259  1  0.83166868  0.29862745  0.60475718  1
  O2-  O260  1  0.82844144  0.29950364  0.93761118  1
  O2-  O261  1  0.83736309  0.78949898  0.27363314  1
  O2-  O262  1  0.83323528  0.78781072  0.60151103  1
  O2-  O263  1  0.83638186  0.78411482  0.93043729  1
  O2-  O264  1  0.42071286  0.05057695  0.07027550  1
  O2-  O265  1  0.41197299  0.04695526  0.39559665  1
  O2-  O266  1  0.42011319  0.04728158  0.72859661  1
  O2-  O267  1  0.41435137  0.53188257  0.06904791  1
  O2-  O268  1  0.41669059  0.54185528  0.39711492  1
  O2-  O269  1  0.41503486  0.53811417  0.73012453  1
  O2-  O270  1  0.92240017  0.05367344  0.07030953  1
  O2-  O271  1  0.91778727  0.05178757  0.39630612  1
  O2-  O272  1  0.92313479  0.05049242  0.72824610  1
  O2-  O273  1  0.91134763  0.53656336  0.06615628  1
  O2-  O274  1  0.91107378  0.53797636  0.39614058  1
  O2-  O275  1  0.90900468  0.53669760  0.73332460  1
  O2-  O276  1  0.28979744  0.17231108  0.06858595  1
  O2-  O277  1  0.29104950  0.16329687  0.39503503  1
  O2-  O278  1  0.29743980  0.17257217  0.73054454  1
  O2-  O279  1  0.29730450  0.66662952  0.07036255  1
  O2-  O280  1  0.30402041  0.66900845  0.39481714  1
  O2-  O281  1  0.30386933  0.66658217  0.72190237  1
  O2-  O282  1  0.78734962  0.17042232  0.07002318  1
  O2-  O283  1  0.79425204  0.16797988  0.39764837  1
  O2-  O284  1  0.78836911  0.16953589  0.73411205  1
  O2-  O285  1  0.79646910  0.65976453  0.06494098  1
  O2-  O286  1  0.79273200  0.65944979  0.39865819  1
  O2-  O287  1  0.79589599  0.66060608  0.73155401  1
