# generated using pymatgen
data_Ca2Al2SiO7
_symmetry_space_group_name_H-M   'P 1'
_cell_length_a   15.45485298
_cell_length_b   15.45424585
_cell_length_c   15.28121992
_cell_angle_alpha   89.99114946
_cell_angle_beta   89.99745190
_cell_angle_gamma   90.00237799
_symmetry_Int_Tables_number   1
_chemical_formula_structural   Ca2Al2SiO7
_chemical_formula_sum   'Ca48 Al48 Si24 O168'
_cell_volume   3649.81384980
_cell_formula_units_Z   24
loop_
 _symmetry_equiv_pos_site_id
 _symmetry_equiv_pos_as_xyz
  1  'x, y, z'
loop_
 _atom_type_symbol
 _atom_type_oxidation_number
  Ca2+  2.0
  Al0+  0.0
  Si0+  0.0
  O2-  -2.0
loop_
 _atom_site_type_symbol
 _atom_site_label
 _atom_site_symmetry_multiplicity
 _atom_site_fract_x
 _atom_site_fract_y
 _atom_site_fract_z
 _atom_site_occupancy
  Ca2+  Ca0  1  0.17312141  0.08388886  0.16882058  1
  Ca2+  Ca1  1  0.16598192  0.07971956  0.51256517  1
  Ca2+  Ca2  1  0.17647691  0.08591146  0.83208975  1
  Ca2+  Ca3  1  0.17829682  0.58042522  0.17484973  1
  Ca2+  Ca4  1  0.17057442  0.57387782  0.50630753  1
  Ca2+  Ca5  1  0.16796332  0.57914726  0.83564577  1
  Ca2+  Ca6  1  0.66377806  0.08150262  0.16576141  1
  Ca2+  Ca7  1  0.67055262  0.08725788  0.50616774  1
  Ca2+  Ca8  1  0.67798407  0.08223352  0.84424981  1
  Ca2+  Ca9  1  0.67053193  0.58828328  0.16963724  1
  Ca2+  Ca10  1  0.67156830  0.58164662  0.50840558  1
  Ca2+  Ca11  1  0.65372920  0.57857058  0.83447749  1
  Ca2+  Ca12  1  0.08808344  0.33205524  0.16940753  1
  Ca2+  Ca13  1  0.09058209  0.32476856  0.49860426  1
  Ca2+  Ca14  1  0.07650981  0.32813251  0.81921306  1
  Ca2+  Ca15  1  0.07426197  0.83217726  0.15958429  1
  Ca2+  Ca16  1  0.08944597  0.82861467  0.50230225  1
  Ca2+  Ca17  1  0.08264645  0.83226642  0.82700915  1
  Ca2+  Ca18  1  0.58706507  0.32098506  0.16253839  1
  Ca2+  Ca19  1  0.57912686  0.33087280  0.50135213  1
  Ca2+  Ca20  1  0.57668300  0.33003421  0.82508471  1
  Ca2+  Ca21  1  0.57368246  0.82832735  0.15497278  1
  Ca2+  Ca22  1  0.57609019  0.82966786  0.49571930  1
  Ca2+  Ca23  1  0.58419510  0.82590951  0.83420412  1
  Ca2+  Ca24  1  0.33238375  0.43151590  0.17320923  1
  Ca2+  Ca25  1  0.32503791  0.41434830  0.50649101  1
  Ca2+  Ca26  1  0.33001027  0.41774945  0.83526748  1
  Ca2+  Ca27  1  0.34524391  0.91883995  0.16659228  1
  Ca2+  Ca28  1  0.33041670  0.92387231  0.50736738  1
  Ca2+  Ca29  1  0.33188023  0.92341493  0.83658663  1
  Ca2+  Ca30  1  0.83085632  0.42552132  0.17325148  1
  Ca2+  Ca31  1  0.82812987  0.41611778  0.50713895  1
  Ca2+  Ca32  1  0.82766265  0.41200853  0.83150800  1
  Ca2+  Ca33  1  0.82613503  0.91425170  0.16294890  1
  Ca2+  Ca34  1  0.83082360  0.92599672  0.50862912  1
  Ca2+  Ca35  1  0.83254644  0.92685356  0.84175142  1
  Ca2+  Ca36  1  0.42794155  0.16386563  0.15903045  1
  Ca2+  Ca37  1  0.41323723  0.17338021  0.49767481  1
  Ca2+  Ca38  1  0.41842775  0.16453014  0.82836742  1
  Ca2+  Ca39  1  0.41337749  0.67400448  0.15789780  1
  Ca2+  Ca40  1  0.41785253  0.67086074  0.49536991  1
  Ca2+  Ca41  1  0.42190685  0.66735796  0.83148939  1
  Ca2+  Ca42  1  0.92329552  0.16354713  0.16252428  1
  Ca2+  Ca43  1  0.92566064  0.16877718  0.50103212  1
  Ca2+  Ca44  1  0.91879642  0.16610863  0.82303407  1
  Ca2+  Ca45  1  0.91547002  0.67017145  0.16011967  1
  Ca2+  Ca46  1  0.92369827  0.65931510  0.49931697  1
  Ca2+  Ca47  1  0.92124484  0.67687603  0.82692164  1
  Al0+  Al48  1  0.00045966  0.00092012  0.00001051  1
  Al0+  Al49  1  -0.00015581  0.00095729  0.32847180  1
  Al0+  Al50  1  -0.00067079  -0.00070856  0.67052994  1
  Al0+  Al51  1  -0.00133185  0.49758552  0.00078982  1
  Al0+  Al52  1  -0.00019685  0.49930612  0.33896039  1
  Al0+  Al53  1  -0.00126477  0.50171633  0.66456443  1
  Al0+  Al54  1  0.50103868  -0.00079256  -0.00226710  1
  Al0+  Al55  1  0.50074904  -0.00095846  0.32820719  1
  Al0+  Al56  1  0.50131680  -0.00174195  0.66989170  1
  Al0+  Al57  1  0.49810856  0.49845173  0.00469665  1
  Al0+  Al58  1  0.50179702  0.50069480  0.33666239  1
  Al0+  Al59  1  0.50128729  0.49931271  0.66009418  1
  Al0+  Al60  1  0.24889593  0.24824229  0.00584364  1
  Al0+  Al61  1  0.25093912  0.25004231  0.32900891  1
  Al0+  Al62  1  0.25046440  0.25099596  0.66792297  1
  Al0+  Al63  1  0.24913428  0.74899057  -0.00038387  1
  Al0+  Al64  1  0.24919102  0.75131599  0.33201680  1
  Al0+  Al65  1  0.24968905  0.75085455  0.66612575  1
  Al0+  Al66  1  0.75155780  0.25033669  0.00202506  1
  Al0+  Al67  1  0.75182035  0.24998939  0.32859753  1
  Al0+  Al68  1  0.74981398  0.25170503  0.67105133  1
  Al0+  Al69  1  0.75093681  0.75025441  -0.00589746  1
  Al0+  Al70  1  0.74972740  0.75136744  0.34013209  1
  Al0+  Al71  1  0.75023328  0.75011035  0.66144801  1
  Al0+  Al72  1  0.42864838  0.81887200  0.31966693  1
  Al0+  Al73  1  0.42864287  0.31989628  0.65399762  1
  Al0+  Al74  1  0.57047454  0.67902274  0.65069528  1
  Al0+  Al75  1  0.18135917  0.42814258  0.34996583  1
  Al0+  Al76  1  0.92614465  0.32169730  0.65135230  1
  Al0+  Al77  1  0.32006791  0.57025640  0.01250096  1
  Al0+  Al78  1  0.07191303  0.17823021  0.31767443  1
  Al0+  Al79  1  0.57073480  0.67682941  0.98584505  1
  Al0+  Al80  1  0.17903675  0.92743430  0.68178174  1
  Al0+  Al81  1  0.68017911  0.92769201  0.01489471  1
  Al0+  Al82  1  0.92972156  0.82119385  0.98605094  1
  Al0+  Al83  1  0.07060340  0.17907026  0.65339292  1
  Al0+  Al84  1  0.42646484  0.82176233  0.98179215  1
  Al0+  Al85  1  0.32268947  0.07268631  0.68014611  1
  Al0+  Al86  1  0.32259486  0.57485174  0.35059790  1
  Al0+  Al87  1  0.57139726  0.18052297  0.32005372  1
  Al0+  Al88  1  0.17783469  0.42977085  0.68113179  1
  Al0+  Al89  1  0.57191283  0.17964537  0.98457141  1
  Al0+  Al90  1  0.32126161  0.06991026  0.01567686  1
  Al0+  Al91  1  0.07197857  0.67931323  0.65281108  1
  Al0+  Al92  1  0.82272443  0.07290778  0.01852235  1
  Al0+  Al93  1  0.67880972  0.43135073  0.68050193  1
  Al0+  Al94  1  0.81872566  0.07079695  0.67895221  1
  Al0+  Al95  1  0.81939192  0.57271550  0.34765568  1
  Si0+  Si96  1  0.92880417  0.32248684  0.31509240  1
  Si0+  Si97  1  0.17524054  0.42756191  0.01735271  1
  Si0+  Si98  1  0.42806918  0.82322535  0.64946581  1
  Si0+  Si99  1  0.82186828  0.57002436  0.01211368  1
  Si0+  Si100  1  0.67959318  0.42513716  0.34982212  1
  Si0+  Si101  1  0.67819919  0.93084820  0.34926971  1
  Si0+  Si102  1  0.42763790  0.32374012  0.31512896  1
  Si0+  Si103  1  0.17555799  0.93091426  0.34654511  1
  Si0+  Si104  1  0.92957027  0.32255538  0.98530930  1
  Si0+  Si105  1  0.92778938  0.82175602  0.31925449  1
  Si0+  Si106  1  0.57213315  0.17678052  0.65298656  1
  Si0+  Si107  1  0.07173041  0.18007162  0.98455726  1
  Si0+  Si108  1  0.92855746  0.82228572  0.64805334  1
  Si0+  Si109  1  0.67765560  0.92517945  0.68318464  1
  Si0+  Si110  1  0.82232071  0.07093512  0.34792228  1
  Si0+  Si111  1  0.82196358  0.57394666  0.68541778  1
  Si0+  Si112  1  0.06914079  0.67824559  0.31843457  1
  Si0+  Si113  1  0.32251321  0.06880733  0.34599196  1
  Si0+  Si114  1  0.42729570  0.32065876  0.98556373  1
  Si0+  Si115  1  0.67798961  0.42903923  0.01562410  1
  Si0+  Si116  1  0.32255123  0.57183422  0.68246641  1
  Si0+  Si117  1  0.07104768  0.67589291  0.98499671  1
  Si0+  Si118  1  0.17794923  0.92741715  0.01778435  1
  Si0+  Si119  1  0.57393638  0.67835251  0.31810253  1
  O2-  O120  1  0.24979366  -0.00804137  0.06374874  1
  O2-  O121  1  0.24775569  0.00150839  0.38761825  1
  O2-  O122  1  0.25081508  0.00018354  0.73005562  1
  O2-  O123  1  0.24380565  0.49708470  0.05977716  1
  O2-  O124  1  0.25447899  0.49905106  0.40010434  1
  O2-  O125  1  0.25222254  0.50505157  0.72753551  1
  O2-  O126  1  0.74938099  0.00166007  0.06807082  1
  O2-  O127  1  0.74911417  0.00252119  0.39082626  1
  O2-  O128  1  0.74392295  -0.00339510  0.72565084  1
  O2-  O129  1  0.74785717  0.50262747  0.05583016  1
  O2-  O130  1  0.74395407  0.49834848  0.39291599  1
  O2-  O131  1  0.75225874  0.50649611  0.72984886  1
  O2-  O132  1  -0.00136293  0.25485967  0.27071591  1
  O2-  O133  1  0.00104936  0.25276119  0.60124122  1
  O2-  O134  1  -0.00035549  0.25055526  0.94429613  1
  O2-  O135  1  -0.00332709  0.74841615  0.27656099  1
  O2-  O136  1  -0.00287826  0.75351713  0.60370789  1
  O2-  O137  1  0.00524923  0.74694475  0.94067207  1
  O2-  O138  1  0.49832520  0.25643816  0.27196744  1
  O2-  O139  1  0.49980214  0.24081723  0.60775206  1
  O2-  O140  1  0.49426016  0.25159750  0.93939590  1
  O2-  O141  1  0.49961706  0.73995740  0.27361490  1
  O2-  O142  1  0.49656690  0.75455660  0.60463972  1
  O2-  O143  1  0.49880494  0.74829305  0.93476362  1
  O2-  O144  1  0.07199690  0.18153505  0.09013786  1
  O2-  O145  1  0.06960634  0.17359178  0.42995182  1
  O2-  O146  1  0.06912426  0.18040121  0.76723206  1
  O2-  O147  1  0.06776288  0.67487406  0.09118175  1
  O2-  O148  1  0.06921905  0.68019392  0.42329994  1
  O2-  O149  1  0.06937736  0.68017252  0.76615471  1
  O2-  O150  1  0.57185818  0.18298802  0.09826596  1
  O2-  O151  1  0.57136065  0.18051057  0.43324021  1
  O2-  O152  1  0.57264128  0.17971851  0.75832283  1
  O2-  O153  1  0.57181086  0.67685973  0.09984420  1
  O2-  O154  1  0.57639923  0.68327661  0.42352090  1
  O2-  O155  1  0.56822635  0.67891149  0.76347702  1
  O2-  O156  1  0.18145485  0.43198001  0.23567443  1
  O2-  O157  1  0.18072766  0.42925556  0.56839078  1
  O2-  O158  1  0.17251767  0.42812045  0.91198578  1
  O2-  O159  1  0.17184373  0.93158315  0.24158463  1
  O2-  O160  1  0.18092549  0.92764171  0.56712416  1
  O2-  O161  1  0.17638996  0.92981579  0.91269758  1
  O2-  O162  1  0.68266621  0.42387691  0.24373254  1
  O2-  O163  1  0.68005010  0.43170820  0.56720665  1
  O2-  O164  1  0.67773124  0.42815762  0.91081739  1
  O2-  O165  1  0.67931109  0.92819386  0.24472151  1
  O2-  O166  1  0.67825994  0.92622692  0.57666773  1
  O2-  O167  1  0.68488595  0.92782603  0.90151780  1
  O2-  O168  1  0.43051580  0.32078495  0.09140893  1
  O2-  O169  1  0.42610815  0.32077267  0.42068120  1
  O2-  O170  1  0.43086950  0.32216826  0.76719130  1
  O2-  O171  1  0.42794962  0.81827674  0.09592692  1
  O2-  O172  1  0.43170967  0.82264226  0.43278704  1
  O2-  O173  1  0.42794514  0.82348188  0.75447699  1
  O2-  O174  1  0.93100965  0.32698134  0.09053811  1
  O2-  O175  1  0.92459482  0.32014980  0.41987465  1
  O2-  O176  1  0.92671984  0.31882911  0.76559682  1
  O2-  O177  1  0.93004959  0.81683889  0.10016460  1
  O2-  O178  1  0.92938078  0.82469388  0.42394644  1
  O2-  O179  1  0.92767583  0.82057650  0.75353163  1
  O2-  O180  1  0.32308326  0.06625962  0.24087746  1
  O2-  O181  1  0.32362314  0.07034665  0.56562157  1
  O2-  O182  1  0.31705535  0.07469439  0.90339979  1
  O2-  O183  1  0.31906363  0.57526656  0.23662721  1
  O2-  O184  1  0.32091297  0.57158169  0.57685449  1
  O2-  O185  1  0.31981467  0.56691680  0.89945080  1
  O2-  O186  1  0.82338625  0.06868314  0.24324507  1
  O2-  O187  1  0.81748967  0.06932220  0.56475875  1
  O2-  O188  1  0.82289656  0.07335135  0.90512119  1
  O2-  O189  1  0.81822874  0.57348403  0.23355213  1
  O2-  O190  1  0.81986060  0.57394930  0.57949399  1
  O2-  O191  1  0.82733412  0.56594287  0.90792913  1
  O2-  O192  1  0.03773400  0.08344883  0.26067991  1
  O2-  O193  1  0.04015880  0.08017054  0.60152328  1
  O2-  O194  1  0.04545172  0.08786984  0.93873040  1
  O2-  O195  1  0.04127711  0.58617870  0.27173047  1
  O2-  O196  1  0.03941995  0.58454293  0.59654625  1
  O2-  O197  1  0.04230349  0.58286765  0.93928884  1
  O2-  O198  1  0.53938137  0.08487552  0.26505766  1
  O2-  O199  1  0.55365867  0.08064109  0.60856546  1
  O2-  O200  1  0.54583940  0.08215125  0.93242456  1
  O2-  O201  1  0.55901332  0.58067965  0.27649296  1
  O2-  O202  1  0.54121483  0.58373209  0.59412804  1
  O2-  O203  1  0.54058411  0.57711700  0.93566411  1
  O2-  O204  1  0.16862236  0.20784086  0.26219629  1
  O2-  O205  1  0.16941633  0.20581090  0.60101862  1
  O2-  O206  1  0.16367039  0.20891631  0.93845845  1
  O2-  O207  1  0.15968507  0.70847134  0.26984237  1
  O2-  O208  1  0.16802203  0.71030193  0.59705017  1
  O2-  O209  1  0.16479173  0.69814513  0.93940170  1
  O2-  O210  1  0.66812010  0.20999557  0.26400866  1
  O2-  O211  1  0.66343672  0.20842500  0.60601099  1
  O2-  O212  1  0.66905174  0.21345749  0.93362688  1
  O2-  O213  1  0.66635586  0.71038177  0.27227374  1
  O2-  O214  1  0.66776031  0.70880875  0.59613322  1
  O2-  O215  1  0.66931377  0.70223062  0.93183256  1
  O2-  O216  1  0.08183119  0.45318738  0.06524536  1
  O2-  O217  1  0.08212988  0.45479938  0.40095111  1
  O2-  O218  1  0.08043294  0.46093543  0.73385047  1
  O2-  O219  1  0.08592771  0.95758219  0.06544598  1
  O2-  O220  1  0.08436816  0.95931942  0.39508912  1
  O2-  O221  1  0.08019470  0.95267630  0.73438197  1
  O2-  O222  1  0.58698177  0.45363410  0.06602108  1
  O2-  O223  1  0.58398596  0.44424344  0.39376360  1
  O2-  O224  1  0.58183570  0.46270951  0.73380501  1
  O2-  O225  1  0.58087448  0.95383279  0.06665960  1
  O2-  O226  1  0.58693200  0.96046720  0.39693239  1
  O2-  O227  1  0.58338486  0.94528199  0.72878357  1
  O2-  O228  1  0.20092802  0.33463052  0.06446687  1
  O2-  O229  1  0.20935124  0.32763074  0.39958521  1
  O2-  O230  1  0.20904070  0.33423665  0.73603469  1
  O2-  O231  1  0.19646343  0.83134333  0.06212766  1
  O2-  O232  1  0.20240053  0.83846115  0.39256916  1
  O2-  O233  1  0.20680535  0.82916486  0.73559935  1
  O2-  O234  1  0.71104634  0.33983380  0.06515209  1
  O2-  O235  1  0.71067256  0.33324251  0.39645280  1
  O2-  O236  1  0.70941847  0.33608626  0.73711603  1
  O2-  O237  1  0.71308988  0.82932305  0.06785314  1
  O2-  O238  1  0.70683709  0.84059527  0.39957173  1
  O2-  O239  1  0.70642466  0.83215127  0.72781020  1
  O2-  O240  1  0.45260085  0.41908641  0.27152867  1
  O2-  O241  1  0.46315463  0.41300597  0.59562573  1
  O2-  O242  1  0.45425173  0.41365730  0.93997980  1
  O2-  O243  1  0.46440440  0.91317277  0.26418426  1
  O2-  O244  1  0.45560130  0.91657407  0.60219263  1
  O2-  O245  1  0.45461395  0.91999598  0.93021521  1
  O2-  O246  1  0.95455972  0.41714729  0.26976835  1
  O2-  O247  1  0.94773275  0.42248638  0.60171498  1
  O2-  O248  1  0.95726839  0.41333000  0.93540015  1
  O2-  O249  1  0.95767834  0.91131288  0.26865193  1
  O2-  O250  1  0.95465192  0.91558935  0.60200519  1
  O2-  O251  1  0.96048077  0.91821446  0.93342906  1
  O2-  O252  1  0.33559165  0.29776335  0.26663504  1
  O2-  O253  1  0.33299572  0.29044118  0.59798412  1
  O2-  O254  1  0.33164068  0.29693668  0.94310049  1
  O2-  O255  1  0.33013055  0.79454737  0.26531924  1
  O2-  O256  1  0.33460933  0.79805637  0.60310017  1
  O2-  O257  1  0.32678031  0.79397732  0.93123707  1
  O2-  O258  1  0.83666915  0.29599612  0.26556120  1
  O2-  O259  1  0.82840240  0.29028958  0.59820122  1
  O2-  O260  1  0.83693253  0.29661591  0.93949107  1
  O2-  O261  1  0.83473374  0.79414886  0.27393135  1
  O2-  O262  1  0.83532387  0.79760576  0.60014857  1
  O2-  O263  1  0.83608578  0.78926069  0.92873503  1
  O2-  O264  1  0.41924568  0.04174073  0.06801711  1
  O2-  O265  1  0.41295759  0.03779190  0.39392608  1
  O2-  O266  1  0.42141758  0.04455023  0.73328798  1
  O2-  O267  1  0.41465189  0.53788659  0.07088122  1
  O2-  O268  1  0.42445595  0.55288591  0.39928298  1
  O2-  O269  1  0.41585249  0.54282386  0.72587468  1
  O2-  O270  1  0.92144662  0.04237951  0.07025243  1
  O2-  O271  1  0.91305601  0.03904539  0.39508490  1
  O2-  O272  1  0.91398923  0.03914026  0.73412848  1
  O2-  O273  1  0.91144538  0.53891332  0.06410144  1
  O2-  O274  1  0.91545788  0.54200072  0.40163023  1
  O2-  O275  1  0.91540962  0.54951544  0.73118344  1
  O2-  O276  1  0.28766757  0.16515375  0.07283301  1
  O2-  O277  1  0.29893796  0.16322032  0.38897636  1
  O2-  O278  1  0.29465862  0.16986588  0.73475622  1
  O2-  O279  1  0.28935047  0.66686647  0.06724773  1
  O2-  O280  1  0.29001101  0.67273139  0.40241442  1
  O2-  O281  1  0.29849707  0.66604170  0.72717654  1
  O2-  O282  1  0.79611464  0.17240551  0.07126099  1
  O2-  O283  1  0.79635519  0.16434807  0.39238683  1
  O2-  O284  1  0.78943689  0.16633333  0.73469147  1
  O2-  O285  1  0.79699738  0.66276337  0.05859935  1
  O2-  O286  1  0.79129730  0.66875243  0.40487026  1
  O2-  O287  1  0.79728486  0.66920088  0.72825942  1
