# generated using pymatgen
data_Ca2Al2SiO7
_symmetry_space_group_name_H-M   'P 1'
_cell_length_a   15.45655543
_cell_length_b   15.45672056
_cell_length_c   15.28270281
_cell_angle_alpha   89.99502691
_cell_angle_beta   90.00787353
_cell_angle_gamma   89.97802344
_symmetry_Int_Tables_number   1
_chemical_formula_structural   Ca2Al2SiO7
_chemical_formula_sum   'Ca48 Al48 Si24 O168'
_cell_volume   3651.15441878
_cell_formula_units_Z   24
loop_
 _symmetry_equiv_pos_site_id
 _symmetry_equiv_pos_as_xyz
  1  'x, y, z'
loop_
 _atom_type_symbol
 _atom_type_oxidation_number
  Ca2+  2.0
  Al0+  0.0
  Si0+  0.0
  O2-  -2.0
loop_
 _atom_site_type_symbol
 _atom_site_label
 _atom_site_symmetry_multiplicity
 _atom_site_fract_x
 _atom_site_fract_y
 _atom_site_fract_z
 _atom_site_occupancy
  Ca2+  Ca0  1  0.16925737  0.07642938  0.17935469  1
  Ca2+  Ca1  1  0.16256955  0.07613552  0.50832603  1
  Ca2+  Ca2  1  0.16327261  0.07630845  0.83099623  1
  Ca2+  Ca3  1  0.17373437  0.58864070  0.16552571  1
  Ca2+  Ca4  1  0.16748301  0.57714037  0.51166394  1
  Ca2+  Ca5  1  0.16458797  0.58367852  0.83722801  1
  Ca2+  Ca6  1  0.65849504  0.08168299  0.16749323  1
  Ca2+  Ca7  1  0.66950965  0.08804207  0.50858504  1
  Ca2+  Ca8  1  0.66744352  0.08165299  0.83738838  1
  Ca2+  Ca9  1  0.67016229  0.58234680  0.17585316  1
  Ca2+  Ca10  1  0.66318220  0.58047571  0.50662958  1
  Ca2+  Ca11  1  0.67995788  0.59484838  0.83455375  1
  Ca2+  Ca12  1  0.08567470  0.32574525  0.16556670  1
  Ca2+  Ca13  1  0.08171508  0.32592306  0.50083344  1
  Ca2+  Ca14  1  0.07725667  0.33062760  0.81977851  1
  Ca2+  Ca15  1  0.08323963  0.82961895  0.16221654  1
  Ca2+  Ca16  1  0.08130538  0.83771594  0.50201891  1
  Ca2+  Ca17  1  0.07973837  0.82162985  0.82274767  1
  Ca2+  Ca18  1  0.58705695  0.32718199  0.16971748  1
  Ca2+  Ca19  1  0.58460214  0.32573635  0.49175690  1
  Ca2+  Ca20  1  0.58765760  0.32214740  0.82847375  1
  Ca2+  Ca21  1  0.57207005  0.83555738  0.16055857  1
  Ca2+  Ca22  1  0.57468282  0.82297029  0.49587136  1
  Ca2+  Ca23  1  0.57377178  0.83356547  0.82571391  1
  Ca2+  Ca24  1  0.34140906  0.42371563  0.17154124  1
  Ca2+  Ca25  1  0.33015670  0.41354303  0.50600557  1
  Ca2+  Ca26  1  0.32528788  0.42410299  0.83708520  1
  Ca2+  Ca27  1  0.33077864  0.91175514  0.17288263  1
  Ca2+  Ca28  1  0.32580898  0.90907884  0.50395928  1
  Ca2+  Ca29  1  0.33118837  0.90769523  0.83373761  1
  Ca2+  Ca30  1  0.82694617  0.42330274  0.17043773  1
  Ca2+  Ca31  1  0.82925294  0.42023037  0.50816728  1
  Ca2+  Ca32  1  0.83905740  0.42770223  0.83328277  1
  Ca2+  Ca33  1  0.82202813  0.91538686  0.16865891  1
  Ca2+  Ca34  1  0.83350705  0.92304901  0.51152793  1
  Ca2+  Ca35  1  0.82944464  0.91904128  0.83338513  1
  Ca2+  Ca36  1  0.42542277  0.17242437  0.16499429  1
  Ca2+  Ca37  1  0.42719783  0.17216414  0.49446654  1
  Ca2+  Ca38  1  0.42957379  0.16309339  0.82876481  1
  Ca2+  Ca39  1  0.41919052  0.67449012  0.16262516  1
  Ca2+  Ca40  1  0.42372191  0.67331997  0.49700575  1
  Ca2+  Ca41  1  0.41799342  0.67517521  0.82733262  1
  Ca2+  Ca42  1  0.92230549  0.16597092  0.16713758  1
  Ca2+  Ca43  1  0.92463836  0.16505236  0.50302748  1
  Ca2+  Ca44  1  0.91818883  0.17406973  0.81923635  1
  Ca2+  Ca45  1  0.92295272  0.66371663  0.15907365  1
  Ca2+  Ca46  1  0.91904100  0.66667487  0.50608204  1
  Ca2+  Ca47  1  0.92162938  0.66629507  0.82343843  1
  Al0+  Al48  1  -0.00086403  -0.00030813  0.00146263  1
  Al0+  Al49  1  -0.00033107  -0.00064403  0.33134795  1
  Al0+  Al50  1  -0.00035056  -0.00030949  0.67179144  1
  Al0+  Al51  1  0.00031572  0.49816666  0.00387240  1
  Al0+  Al52  1  0.00063893  0.50047330  0.33265266  1
  Al0+  Al53  1  -0.00134844  0.49907940  0.66580770  1
  Al0+  Al54  1  0.49864212  0.00063484  -0.00383624  1
  Al0+  Al55  1  0.49875655  -0.00021277  0.32948267  1
  Al0+  Al56  1  0.49814041  0.00064961  0.65733350  1
  Al0+  Al57  1  0.49954458  0.49949605  0.00321627  1
  Al0+  Al58  1  0.50220118  0.50065399  0.33242554  1
  Al0+  Al59  1  0.49901410  0.49894298  0.66838325  1
  Al0+  Al60  1  0.25065181  0.24876192  -0.00009682  1
  Al0+  Al61  1  0.25044757  0.25009405  0.32538792  1
  Al0+  Al62  1  0.25085447  0.24829088  0.67123241  1
  Al0+  Al63  1  0.24901463  0.74799692  -0.00308354  1
  Al0+  Al64  1  0.24884434  0.74917194  0.33598378  1
  Al0+  Al65  1  0.24918464  0.74947970  0.66425333  1
  Al0+  Al66  1  0.75224117  0.25025970  -0.00221822  1
  Al0+  Al67  1  0.75190846  0.25221075  0.33268647  1
  Al0+  Al68  1  0.75086933  0.25063457  0.66406496  1
  Al0+  Al69  1  0.75005374  0.75221562  0.01149311  1
  Al0+  Al70  1  0.75277962  0.75149236  0.33229503  1
  Al0+  Al71  1  0.74951207  0.74989258  0.66332577  1
  Al0+  Al72  1  0.17920114  0.92917483  0.34756798  1
  Al0+  Al73  1  0.81848650  0.57119727  0.67918976  1
  Al0+  Al74  1  0.92869354  0.32262280  0.65088931  1
  Al0+  Al75  1  0.92850501  0.82185235  0.65339753  1
  Al0+  Al76  1  0.17949756  0.92833132  0.68228075  1
  Al0+  Al77  1  0.06840015  0.67956280  0.98722112  1
  Al0+  Al78  1  0.57003229  0.18126410  0.98511488  1
  Al0+  Al79  1  0.07261677  0.17801227  0.65409582  1
  Al0+  Al80  1  0.42838452  0.32223805  0.31875343  1
  Al0+  Al81  1  0.32034886  0.57105981  0.01380652  1
  Al0+  Al82  1  0.06958657  0.17823334  0.31968178  1
  Al0+  Al83  1  0.07067088  0.67764410  0.65103400  1
  Al0+  Al84  1  0.67741517  0.93175104  0.01309777  1
  Al0+  Al85  1  0.68040790  0.43093261  0.34792864  1
  Al0+  Al86  1  0.81999239  0.07163256  0.68000695  1
  Al0+  Al87  1  0.57430634  0.17891620  0.31771617  1
  Al0+  Al88  1  0.42739428  0.82142199  0.64987535  1
  Al0+  Al89  1  0.42950814  0.81942749  0.98504582  1
  Al0+  Al90  1  0.57217674  0.67736772  0.65408262  1
  Al0+  Al91  1  0.82126633  0.57104363  0.01473091  1
  Al0+  Al92  1  0.42711700  0.81890337  0.31690549  1
  Al0+  Al93  1  0.57145475  0.18024957  0.65293603  1
  Al0+  Al94  1  0.17926763  0.42766997  0.67922068  1
  Al0+  Al95  1  0.57327374  0.67948002  0.31676659  1
  Si0+  Si96  1  0.93153828  0.31905747  0.98573955  1
  Si0+  Si97  1  0.32196875  0.07373065  0.34928677  1
  Si0+  Si98  1  0.32069078  0.07138210  0.01572008  1
  Si0+  Si99  1  0.42632617  0.32427879  0.98128067  1
  Si0+  Si100  1  0.32361842  0.07140769  0.68416440  1
  Si0+  Si101  1  0.82461335  0.57375822  0.35205349  1
  Si0+  Si102  1  0.82278284  0.07384617  0.01806340  1
  Si0+  Si103  1  0.93017893  0.82279396  0.31661430  1
  Si0+  Si104  1  0.67739841  0.92918525  0.34875883  1
  Si0+  Si105  1  0.17849945  0.42616433  0.01896865  1
  Si0+  Si106  1  0.57437160  0.67662568  0.98575699  1
  Si0+  Si107  1  0.82051155  0.07024246  0.34743617  1
  Si0+  Si108  1  0.92551751  0.82316964  0.98461847  1
  Si0+  Si109  1  0.17861685  0.42757833  0.34737868  1
  Si0+  Si110  1  0.42757547  0.32191838  0.65342954  1
  Si0+  Si111  1  0.32223090  0.57189817  0.68327362  1
  Si0+  Si112  1  0.67900845  0.42569618  0.01613533  1
  Si0+  Si113  1  0.07267896  0.17653895  0.98475021  1
  Si0+  Si114  1  0.67593161  0.92899395  0.68018668  1
  Si0+  Si115  1  0.17920430  0.92923942  0.01448043  1
  Si0+  Si116  1  0.07004090  0.67746898  0.31809660  1
  Si0+  Si117  1  0.92952800  0.32401299  0.31462405  1
  Si0+  Si118  1  0.32038492  0.57020508  0.34915251  1
  Si0+  Si119  1  0.67602478  0.42744466  0.68435673  1
  O2-  O120  1  0.24728718  0.00241004  0.05780467  1
  O2-  O121  1  0.25429320  0.00409570  0.39327679  1
  O2-  O122  1  0.25593147  0.00168104  0.72927578  1
  O2-  O123  1  0.24890109  0.49322341  0.06292331  1
  O2-  O124  1  0.25118440  0.49631882  0.38990167  1
  O2-  O125  1  0.25174547  0.50411644  0.72666102  1
  O2-  O126  1  0.75315560  0.00602309  0.06166720  1
  O2-  O127  1  0.74488626  0.00424041  0.38959017  1
  O2-  O128  1  0.74378259  -0.00193973  0.72601231  1
  O2-  O129  1  0.74190439  0.50029836  0.06007075  1
  O2-  O130  1  0.75264886  0.50819002  0.39435723  1
  O2-  O131  1  0.74162475  0.49925866  0.72822248  1
  O2-  O132  1  -0.00206230  0.25478834  0.27014789  1
  O2-  O133  1  0.00157567  0.25018588  0.60311455  1
  O2-  O134  1  0.00222342  0.24776871  0.94364523  1
  O2-  O135  1  -0.00115749  0.74851566  0.27599880  1
  O2-  O136  1  0.00128569  0.75199338  0.60069003  1
  O2-  O137  1  -0.00842895  0.75218045  0.94154140  1
  O2-  O138  1  0.50090911  0.25037838  0.26880088  1
  O2-  O139  1  0.49867295  0.25712511  0.60813819  1
  O2-  O140  1  0.49701471  0.25762359  0.93767876  1
  O2-  O141  1  0.50246365  0.75157901  0.26511092  1
  O2-  O142  1  0.49998100  0.74843662  0.60346203  1
  O2-  O143  1  0.50537353  0.74438129  0.94102921  1
  O2-  O144  1  0.07169447  0.17617514  0.09017844  1
  O2-  O145  1  0.06780128  0.17774189  0.43184112  1
  O2-  O146  1  0.07042386  0.18021131  0.76835718  1
  O2-  O147  1  0.06898786  0.68298074  0.10122105  1
  O2-  O148  1  0.06928130  0.67380662  0.42238231  1
  O2-  O149  1  0.06881871  0.67755014  0.76487828  1
  O2-  O150  1  0.56838511  0.18249824  0.09786672  1
  O2-  O151  1  0.57487180  0.18080441  0.43105953  1
  O2-  O152  1  0.57061239  0.17964059  0.76642417  1
  O2-  O153  1  0.57279124  0.67790956  0.09128117  1
  O2-  O154  1  0.57129879  0.68015828  0.43005072  1
  O2-  O155  1  0.57250606  0.67993360  0.76821200  1
  O2-  O156  1  0.17625228  0.43007170  0.24211807  1
  O2-  O157  1  0.18314780  0.42709883  0.56553353  1
  O2-  O158  1  0.17736424  0.42523318  0.91365307  1
  O2-  O159  1  0.17859231  0.92985894  0.23343846  1
  O2-  O160  1  0.17966245  0.93097928  0.56913625  1
  O2-  O161  1  0.17846781  0.93059870  0.90981873  1
  O2-  O162  1  0.68497690  0.43060037  0.23428235  1
  O2-  O163  1  0.67611255  0.42712598  0.57881076  1
  O2-  O164  1  0.68256109  0.42138294  0.91091266  1
  O2-  O165  1  0.67984572  0.92894405  0.24334544  1
  O2-  O166  1  0.67758131  0.93103458  0.57438593  1
  O2-  O167  1  0.67841405  0.93280863  0.90014165  1
  O2-  O168  1  0.42439658  0.32230583  0.08660939  1
  O2-  O169  1  0.42645969  0.31940617  0.43238187  1
  O2-  O170  1  0.42824897  0.32098197  0.75918153  1
  O2-  O171  1  0.42822455  0.81959569  0.09797354  1
  O2-  O172  1  0.42619037  0.81551201  0.42974039  1
  O2-  O173  1  0.42925286  0.82040546  0.76396411  1
  O2-  O174  1  0.93225483  0.31760052  0.09114735  1
  O2-  O175  1  0.93087741  0.32593081  0.41941782  1
  O2-  O176  1  0.92996425  0.32199031  0.76534116  1
  O2-  O177  1  0.92904831  0.82547379  0.09083352  1
  O2-  O178  1  0.92981429  0.82621228  0.42104587  1
  O2-  O179  1  0.92819669  0.82007336  0.76730012  1
  O2-  O180  1  0.31928455  0.07352788  0.24303827  1
  O2-  O181  1  0.32327194  0.07432420  0.57887168  1
  O2-  O182  1  0.31970878  0.07312088  0.91088027  1
  O2-  O183  1  0.31695053  0.57168922  0.24373896  1
  O2-  O184  1  0.32327744  0.56889980  0.57746921  1
  O2-  O185  1  0.31736523  0.56985434  0.90107799  1
  O2-  O186  1  0.82285672  0.06706602  0.24190648  1
  O2-  O187  1  0.81916921  0.07045770  0.56636308  1
  O2-  O188  1  0.82470850  0.07466089  0.91299167  1
  O2-  O189  1  0.82751101  0.57117194  0.24603091  1
  O2-  O190  1  0.81797063  0.56903920  0.56627752  1
  O2-  O191  1  0.82343082  0.56984592  0.90197411  1
  O2-  O192  1  0.03507798  0.08359870  0.26267729  1
  O2-  O193  1  0.04164712  0.08050671  0.60278565  1
  O2-  O194  1  0.04501043  0.08399779  0.93912628  1
  O2-  O195  1  0.04247169  0.58628884  0.26786137  1
  O2-  O196  1  0.03987017  0.58084079  0.59735725  1
  O2-  O197  1  0.04148504  0.57999802  0.93783484  1
  O2-  O198  1  0.54592252  0.08035345  0.26545641  1
  O2-  O199  1  0.54053206  0.08588976  0.59609830  1
  O2-  O200  1  0.53598993  0.08640253  0.93059600  1
  O2-  O201  1  0.54566412  0.58095530  0.26483333  1
  O2-  O202  1  0.54396449  0.57779618  0.60270662  1
  O2-  O203  1  0.55238432  0.58120668  0.94206097  1
  O2-  O204  1  0.16515251  0.20751039  0.26252958  1
  O2-  O205  1  0.17203502  0.20451026  0.60293754  1
  O2-  O206  1  0.16544678  0.20216816  0.93896832  1
  O2-  O207  1  0.16143969  0.70671812  0.27126886  1
  O2-  O208  1  0.16956735  0.70211646  0.59888034  1
  O2-  O209  1  0.16315395  0.71149584  0.93212974  1
  O2-  O210  1  0.67257745  0.20872550  0.26410993  1
  O2-  O211  1  0.66719488  0.21031042  0.59876717  1
  O2-  O212  1  0.66897264  0.20905822  0.93346234  1
  O2-  O213  1  0.67414001  0.70556517  0.26678356  1
  O2-  O214  1  0.66885991  0.70433471  0.59836591  1
  O2-  O215  1  0.66936221  0.70456644  0.94418941  1
  O2-  O216  1  0.08611101  0.45244865  0.06726800  1
  O2-  O217  1  0.08707236  0.45726103  0.39440852  1
  O2-  O218  1  0.08238275  0.45715872  0.73284423  1
  O2-  O219  1  0.08606141  0.95495398  0.06223357  1
  O2-  O220  1  0.08194475  0.96170348  0.39916891  1
  O2-  O221  1  0.08456756  0.96017953  0.73916330  1
  O2-  O222  1  0.58273181  0.44341527  0.05976028  1
  O2-  O223  1  0.58255285  0.45771353  0.40168447  1
  O2-  O224  1  0.58098233  0.44706536  0.73079578  1
  O2-  O225  1  0.58131545  0.96541643  0.06726486  1
  O2-  O226  1  0.58356220  0.95186336  0.39377685  1
  O2-  O227  1  0.58160918  0.95579157  0.72418433  1
  O2-  O228  1  0.20306129  0.33102687  0.06405628  1
  O2-  O229  1  0.20458544  0.33418289  0.39196008  1
  O2-  O230  1  0.21059197  0.33254210  0.73709944  1
  O2-  O231  1  0.20859256  0.83785171  0.06115215  1
  O2-  O232  1  0.20699526  0.83173606  0.40131066  1
  O2-  O233  1  0.20930956  0.83047010  0.73531075  1
  O2-  O234  1  0.71284193  0.33512832  0.06487989  1
  O2-  O235  1  0.71369561  0.33433302  0.40134062  1
  O2-  O236  1  0.70649835  0.33529687  0.73051892  1
  O2-  O237  1  0.70733020  0.83757807  0.07335843  1
  O2-  O238  1  0.71041769  0.83870915  0.39560045  1
  O2-  O239  1  0.70166103  0.83571991  0.72622426  1
  O2-  O240  1  0.45748523  0.42005876  0.26570163  1
  O2-  O241  1  0.44749243  0.41664257  0.60777076  1
  O2-  O242  1  0.44886728  0.41923522  0.93680800  1
  O2-  O243  1  0.45079656  0.91948475  0.26608579  1
  O2-  O244  1  0.45302862  0.91897681  0.59482912  1
  O2-  O245  1  0.45827826  0.91630289  0.93131940  1
  O2-  O246  1  0.95705778  0.41697438  0.26678212  1
  O2-  O247  1  0.95720586  0.41895243  0.59604520  1
  O2-  O248  1  0.96049423  0.41068450  0.93951360  1
  O2-  O249  1  0.96049894  0.91181437  0.26522929  1
  O2-  O250  1  0.95732735  0.92024185  0.60132757  1
  O2-  O251  1  0.95206228  0.91711705  0.93931634  1
  O2-  O252  1  0.33115094  0.29595729  0.26094808  1
  O2-  O253  1  0.33537065  0.29305889  0.60704675  1
  O2-  O254  1  0.33259546  0.29620312  0.93593150  1
  O2-  O255  1  0.32854902  0.78691755  0.26489150  1
  O2-  O256  1  0.32991298  0.79172691  0.59768179  1
  O2-  O257  1  0.33347051  0.78688701  0.93157893  1
  O2-  O258  1  0.83726953  0.29668235  0.26727842  1
  O2-  O259  1  0.83156811  0.29359058  0.59732171  1
  O2-  O260  1  0.84030020  0.29280127  0.93722699  1
  O2-  O261  1  0.83813917  0.79685947  0.26828629  1
  O2-  O262  1  0.83115571  0.79481302  0.59816123  1
  O2-  O263  1  0.82975220  0.80084772  0.94322577  1
  O2-  O264  1  0.41140385  0.04178322  0.06303125  1
  O2-  O265  1  0.41687427  0.05051694  0.39366193  1
  O2-  O266  1  0.41783713  0.04436131  0.72928391  1
  O2-  O267  1  0.41792254  0.54358016  0.06916581  1
  O2-  O268  1  0.41296036  0.54455074  0.39501185  1
  O2-  O269  1  0.41470440  0.54509452  0.73216281  1
  O2-  O270  1  0.91622727  0.04638029  0.06576493  1
  O2-  O271  1  0.91032983  0.03663272  0.39468896  1
  O2-  O272  1  0.91477790  0.04119678  0.73745329  1
  O2-  O273  1  0.91582826  0.53454510  0.07132433  1
  O2-  O274  1  0.91759350  0.54395029  0.39746717  1
  O2-  O275  1  0.91422937  0.53780272  0.73379584  1
  O2-  O276  1  0.29427914  0.16390593  0.06401675  1
  O2-  O277  1  0.29519050  0.16798712  0.39316616  1
  O2-  O278  1  0.29858409  0.16361183  0.73434693  1
  O2-  O279  1  0.28395820  0.66582125  0.06926345  1
  O2-  O280  1  0.28818621  0.65950592  0.39800164  1
  O2-  O281  1  0.29691159  0.66540938  0.72844488  1
  O2-  O282  1  0.79885553  0.16789117  0.06442560  1
  O2-  O283  1  0.79946775  0.16457642  0.39205503  1
  O2-  O284  1  0.79007983  0.16885307  0.73403177  1
  O2-  O285  1  0.79744430  0.66810735  0.07177181  1
  O2-  O286  1  0.80481308  0.67003541  0.39445497  1
  O2-  O287  1  0.79011784  0.66884102  0.73409792  1
