# generated using pymatgen
data_Ca2Al2SiO7
_symmetry_space_group_name_H-M   'P 1'
_cell_length_a   15.45644773
_cell_length_b   15.45646497
_cell_length_c   15.28311061
_cell_angle_alpha   89.99671411
_cell_angle_beta   89.98951913
_cell_angle_gamma   89.97727527
_symmetry_Int_Tables_number   1
_chemical_formula_structural   Ca2Al2SiO7
_chemical_formula_sum   'Ca48 Al48 Si24 O168'
_cell_volume   3651.16599248
_cell_formula_units_Z   24
loop_
 _symmetry_equiv_pos_site_id
 _symmetry_equiv_pos_as_xyz
  1  'x, y, z'
loop_
 _atom_type_symbol
 _atom_type_oxidation_number
  Ca2+  2.0
  Al0+  0.0
  Si0+  0.0
  O2-  -2.0
loop_
 _atom_site_type_symbol
 _atom_site_label
 _atom_site_symmetry_multiplicity
 _atom_site_fract_x
 _atom_site_fract_y
 _atom_site_fract_z
 _atom_site_occupancy
  Ca2+  Ca0  1  0.16202935  0.08411896  0.16548945  1
  Ca2+  Ca1  1  0.16192415  0.08655714  0.50213691  1
  Ca2+  Ca2  1  0.16960176  0.08272183  0.84190832  1
  Ca2+  Ca3  1  0.17390963  0.58385571  0.16779639  1
  Ca2+  Ca4  1  0.17245564  0.58131453  0.51258274  1
  Ca2+  Ca5  1  0.17672595  0.58827548  0.83677658  1
  Ca2+  Ca6  1  0.68249686  0.08216662  0.17209367  1
  Ca2+  Ca7  1  0.67264131  0.08220708  0.50941658  1
  Ca2+  Ca8  1  0.66801709  0.07971989  0.83667666  1
  Ca2+  Ca9  1  0.66649509  0.58358948  0.17206382  1
  Ca2+  Ca10  1  0.66361615  0.58168749  0.50905242  1
  Ca2+  Ca11  1  0.66053777  0.57673310  0.83089065  1
  Ca2+  Ca12  1  0.07194632  0.32193271  0.16009792  1
  Ca2+  Ca13  1  0.07470359  0.32369289  0.49483404  1
  Ca2+  Ca14  1  0.07541290  0.32285520  0.82616192  1
  Ca2+  Ca15  1  0.07521052  0.84055548  0.16184611  1
  Ca2+  Ca16  1  0.08021554  0.82562775  0.49864412  1
  Ca2+  Ca17  1  0.08123425  0.83550729  0.83239080  1
  Ca2+  Ca18  1  0.57798367  0.33286337  0.16681311  1
  Ca2+  Ca19  1  0.57603522  0.33801116  0.50438385  1
  Ca2+  Ca20  1  0.57990730  0.32582536  0.82204623  1
  Ca2+  Ca21  1  0.57974224  0.82711233  0.16155119  1
  Ca2+  Ca22  1  0.58544013  0.82631256  0.50157708  1
  Ca2+  Ca23  1  0.57055335  0.83296753  0.82287685  1
  Ca2+  Ca24  1  0.33378608  0.41939855  0.17120744  1
  Ca2+  Ca25  1  0.33801412  0.41898751  0.50896832  1
  Ca2+  Ca26  1  0.34048973  0.42911716  0.83598071  1
  Ca2+  Ca27  1  0.32890305  0.91923018  0.16238137  1
  Ca2+  Ca28  1  0.33316398  0.91693708  0.50784117  1
  Ca2+  Ca29  1  0.32934863  0.91820299  0.84494883  1
  Ca2+  Ca30  1  0.83654259  0.41331123  0.17115763  1
  Ca2+  Ca31  1  0.83022648  0.41218974  0.50859325  1
  Ca2+  Ca32  1  0.83028786  0.40648191  0.83420344  1
  Ca2+  Ca33  1  0.84751589  0.92765528  0.17071659  1
  Ca2+  Ca34  1  0.83070251  0.92023937  0.50336301  1
  Ca2+  Ca35  1  0.82757033  0.92031889  0.84005220  1
  Ca2+  Ca36  1  0.41326462  0.17003326  0.16224350  1
  Ca2+  Ca37  1  0.42333823  0.17693936  0.49895753  1
  Ca2+  Ca38  1  0.41973929  0.16816083  0.82299860  1
  Ca2+  Ca39  1  0.42111463  0.66950155  0.16060047  1
  Ca2+  Ca40  1  0.42675069  0.66545628  0.50368368  1
  Ca2+  Ca41  1  0.41247964  0.67593160  0.82554592  1
  Ca2+  Ca42  1  0.92199365  0.16586919  0.15841733  1
  Ca2+  Ca43  1  0.92195461  0.17229385  0.49440019  1
  Ca2+  Ca44  1  0.92386742  0.16879052  0.83073608  1
  Ca2+  Ca45  1  0.91521398  0.68192529  0.16132731  1
  Ca2+  Ca46  1  0.92056815  0.67031539  0.49729863  1
  Ca2+  Ca47  1  0.92453568  0.67285804  0.82866049  1
  Al0+  Al48  1  -0.00044824  -0.00044840  -0.00311667  1
  Al0+  Al49  1  0.00125349  -0.00101691  0.33534583  1
  Al0+  Al50  1  0.00014666  0.00024808  0.66445738  1
  Al0+  Al51  1  -0.00185738  0.50016865  -0.00187776  1
  Al0+  Al52  1  0.00227057  0.49942006  0.33137753  1
  Al0+  Al53  1  0.00062116  0.50099844  0.66125887  1
  Al0+  Al54  1  0.49943490  -0.00159137  0.00305416  1
  Al0+  Al55  1  0.49913183  -0.00090767  0.33453375  1
  Al0+  Al56  1  0.50003733  0.00040625  0.66185066  1
  Al0+  Al57  1  0.50120214  0.49889488  0.00627168  1
  Al0+  Al58  1  0.50113355  0.50125034  0.32573721  1
  Al0+  Al59  1  0.50082289  0.50190604  0.67099168  1
  Al0+  Al60  1  0.24954088  0.25254127  -0.00026593  1
  Al0+  Al61  1  0.25019908  0.25073729  0.32689360  1
  Al0+  Al62  1  0.24814476  0.25037680  0.66057481  1
  Al0+  Al63  1  0.25154188  0.74993777  0.00880333  1
  Al0+  Al64  1  0.25235298  0.75044833  0.33597855  1
  Al0+  Al65  1  0.24856192  0.75091472  0.66271813  1
  Al0+  Al66  1  0.74767088  0.24930002  0.00275513  1
  Al0+  Al67  1  0.74834083  0.25024514  0.33740141  1
  Al0+  Al68  1  0.75043923  0.25002611  0.66604716  1
  Al0+  Al69  1  0.74961309  0.74650398  -0.00523217  1
  Al0+  Al70  1  0.74995114  0.74899729  0.32589346  1
  Al0+  Al71  1  0.74899029  0.75110751  0.67054452  1
  Al0+  Al72  1  0.43005595  0.81953838  0.98790619  1
  Al0+  Al73  1  0.92815910  0.32119882  0.65114734  1
  Al0+  Al74  1  0.32105174  0.57014811  0.01617514  1
  Al0+  Al75  1  0.17861087  0.92974277  0.01522905  1
  Al0+  Al76  1  0.56961265  0.68087291  0.31860566  1
  Al0+  Al77  1  0.06981412  0.17828468  0.31559273  1
  Al0+  Al78  1  0.07115398  0.68018320  0.65482489  1
  Al0+  Al79  1  0.31977972  0.57012770  0.68004713  1
  Al0+  Al80  1  0.67798712  0.92865278  0.68062315  1
  Al0+  Al81  1  0.07187761  0.17891297  0.98290710  1
  Al0+  Al82  1  0.32297244  0.07422025  0.01414906  1
  Al0+  Al83  1  0.82168467  0.07040310  0.34916104  1
  Al0+  Al84  1  0.92589114  0.32178453  0.98368893  1
  Al0+  Al85  1  0.68089991  0.42976673  0.68042354  1
  Al0+  Al86  1  0.57130150  0.67980963  0.65440580  1
  Al0+  Al87  1  0.93138546  0.81795899  0.32144298  1
  Al0+  Al88  1  0.92595010  0.32175383  0.31783091  1
  Al0+  Al89  1  0.81806203  0.06876716  0.01216905  1
  Al0+  Al90  1  0.92868794  0.82193547  0.98463316  1
  Al0+  Al91  1  0.42675816  0.82253476  0.65161253  1
  Al0+  Al92  1  0.57213185  0.17729541  0.65272846  1
  Al0+  Al93  1  0.43116305  0.32025568  0.31845244  1
  Al0+  Al94  1  0.07126269  0.17696739  0.65027711  1
  Al0+  Al95  1  0.42920311  0.32263683  0.65522406  1
  Si0+  Si96  1  0.18026804  0.92899078  0.35115976  1
  Si0+  Si97  1  0.57184273  0.17521435  0.31622620  1
  Si0+  Si98  1  0.56941465  0.17920641  0.98817171  1
  Si0+  Si99  1  0.82171845  0.57218413  0.34638335  1
  Si0+  Si100  1  0.32236844  0.57003417  0.35010104  1
  Si0+  Si101  1  0.82252949  0.07106413  0.68440829  1
  Si0+  Si102  1  0.17560609  0.42883625  0.01707773  1
  Si0+  Si103  1  0.68019277  0.42921805  0.01765009  1
  Si0+  Si104  1  0.42935959  0.32245638  0.98594549  1
  Si0+  Si105  1  0.57159240  0.67523240  0.98124190  1
  Si0+  Si106  1  0.18040978  0.42896119  0.34865605  1
  Si0+  Si107  1  0.17631805  0.42681551  0.68286007  1
  Si0+  Si108  1  0.42577856  0.82415063  0.31472294  1
  Si0+  Si109  1  0.67831408  0.43101634  0.34847075  1
  Si0+  Si110  1  0.67708319  0.92631762  0.34909455  1
  Si0+  Si111  1  0.82232286  0.57202544  0.01557061  1
  Si0+  Si112  1  0.17865274  0.92925557  0.68041640  1
  Si0+  Si113  1  0.92679388  0.82182855  0.65090522  1
  Si0+  Si114  1  0.67724507  0.92447530  0.01690459  1
  Si0+  Si115  1  0.07262708  0.67810192  0.98596493  1
  Si0+  Si116  1  0.82492114  0.57357082  0.68385751  1
  Si0+  Si117  1  0.31985617  0.07235569  0.67792580  1
  Si0+  Si118  1  0.32170044  0.07295853  0.34993473  1
  Si0+  Si119  1  0.07571785  0.67690210  0.31640052  1
  O2-  O120  1  0.24858434  0.00469056  0.06511767  1
  O2-  O121  1  0.25165618  0.00057971  0.39231335  1
  O2-  O122  1  0.24907652  0.00147095  0.72068167  1
  O2-  O123  1  0.24591222  0.49574595  0.06309966  1
  O2-  O124  1  0.24963410  0.50140504  0.39244012  1
  O2-  O125  1  0.24600208  0.49445035  0.72778224  1
  O2-  O126  1  0.74825752  -0.00999355  0.06201422  1
  O2-  O127  1  0.74341454  -0.00273044  0.39336020  1
  O2-  O128  1  0.75218897  0.00344232  0.72802663  1
  O2-  O129  1  0.75261466  0.49961610  0.05850888  1
  O2-  O130  1  0.75540981  0.49683804  0.38853573  1
  O2-  O131  1  0.75814279  0.50243644  0.72774071  1
  O2-  O132  1  -0.00631533  0.24676681  0.26703634  1
  O2-  O133  1  -0.00053994  0.24918827  0.60129513  1
  O2-  O134  1  -0.00032013  0.25173123  0.93486491  1
  O2-  O135  1  0.00610129  0.74399109  0.27246414  1
  O2-  O136  1  -0.00621605  0.75132051  0.60708981  1
  O2-  O137  1  0.00505324  0.74747851  0.94099345  1
  O2-  O138  1  0.50254110  0.24272752  0.27073154  1
  O2-  O139  1  0.50080357  0.25084280  0.60404497  1
  O2-  O140  1  0.49315782  0.24465311  0.94577180  1
  O2-  O141  1  0.49622103  0.75661360  0.27217773  1
  O2-  O142  1  0.50133108  0.75256686  0.60272468  1
  O2-  O143  1  0.50451013  0.74579617  0.93946003  1
  O2-  O144  1  0.06939318  0.17979438  0.09636204  1
  O2-  O145  1  0.07037225  0.18071946  0.42898103  1
  O2-  O146  1  0.07211509  0.17513587  0.76337570  1
  O2-  O147  1  0.06945222  0.67672822  0.09183404  1
  O2-  O148  1  0.07617895  0.67788884  0.42207322  1
  O2-  O149  1  0.07235054  0.68373681  0.76789884  1
  O2-  O150  1  0.57139720  0.18325838  0.09350606  1
  O2-  O151  1  0.57031568  0.17499410  0.42142731  1
  O2-  O152  1  0.56924251  0.17717875  0.76707381  1
  O2-  O153  1  0.57163662  0.67527167  0.08740077  1
  O2-  O154  1  0.56941173  0.67890088  0.43112529  1
  O2-  O155  1  0.56829338  0.67981639  0.76768396  1
  O2-  O156  1  0.18207243  0.43197271  0.24353114  1
  O2-  O157  1  0.17739010  0.42958774  0.57684601  1
  O2-  O158  1  0.17633422  0.43077803  0.91173142  1
  O2-  O159  1  0.18085140  0.92652118  0.24657077  1
  O2-  O160  1  0.17853001  0.92824527  0.57486918  1
  O2-  O161  1  0.18148094  0.92758829  0.90129776  1
  O2-  O162  1  0.67628208  0.43325323  0.24291808  1
  O2-  O163  1  0.67980827  0.43355799  0.56699738  1
  O2-  O164  1  0.67696834  0.42944561  0.91298202  1
  O2-  O165  1  0.67580994  0.92735324  0.24345323  1
  O2-  O166  1  0.68262464  0.92734889  0.56719338  1
  O2-  O167  1  0.67615811  0.92772016  0.91144969  1
  O2-  O168  1  0.43358987  0.32483531  0.09141428  1
  O2-  O169  1  0.43325469  0.32249915  0.43108417  1
  O2-  O170  1  0.43058631  0.32053925  0.76920120  1
  O2-  O171  1  0.43275079  0.81749334  0.10134230  1
  O2-  O172  1  0.42319424  0.82381512  0.41994870  1
  O2-  O173  1  0.42437593  0.82186945  0.76527068  1
  O2-  O174  1  0.92590386  0.32138946  0.09718762  1
  O2-  O175  1  0.92874061  0.32361399  0.43086299  1
  O2-  O176  1  0.92929375  0.31904112  0.76459152  1
  O2-  O177  1  0.92916560  0.82001142  0.09803292  1
  O2-  O178  1  0.93162588  0.81455523  0.43464621  1
  O2-  O179  1  0.92887548  0.82233458  0.75645261  1
  O2-  O180  1  0.32303184  0.07185035  0.24513215  1
  O2-  O181  1  0.31866051  0.07152028  0.57241025  1
  O2-  O182  1  0.32591192  0.07224879  0.90035211  1
  O2-  O183  1  0.32120555  0.56939642  0.24481752  1
  O2-  O184  1  0.31927670  0.56863728  0.56640504  1
  O2-  O185  1  0.32165427  0.57020944  0.90325449  1
  O2-  O186  1  0.82168091  0.06858721  0.23571929  1
  O2-  O187  1  0.82313126  0.06825555  0.57855755  1
  O2-  O188  1  0.81351420  0.06918246  0.89938684  1
  O2-  O189  1  0.81892407  0.57370566  0.24104559  1
  O2-  O190  1  0.82405825  0.57548803  0.57785306  1
  O2-  O191  1  0.82220789  0.57467441  0.91102246  1
  O2-  O192  1  0.04577170  0.07742076  0.26706198  1
  O2-  O193  1  0.04320815  0.07838521  0.59656593  1
  O2-  O194  1  0.04386733  0.08069082  0.93088639  1
  O2-  O195  1  0.05303489  0.58297600  0.27071939  1
  O2-  O196  1  0.04485092  0.58420911  0.59750346  1
  O2-  O197  1  0.04628352  0.58570268  0.93832904  1
  O2-  O198  1  0.54794077  0.08089514  0.27065949  1
  O2-  O199  1  0.54341833  0.08164489  0.59563944  1
  O2-  O200  1  0.54825794  0.08497909  0.94343306  1
  O2-  O201  1  0.53728122  0.58672660  0.26039535  1
  O2-  O202  1  0.54042995  0.58284802  0.60072093  1
  O2-  O203  1  0.54371405  0.58077693  0.93888172  1
  O2-  O204  1  0.16754267  0.20907440  0.26301223  1
  O2-  O205  1  0.16859441  0.20499167  0.59504571  1
  O2-  O206  1  0.17161202  0.20756911  0.93178568  1
  O2-  O207  1  0.16964024  0.70428976  0.27181144  1
  O2-  O208  1  0.16369353  0.71422258  0.59547402  1
  O2-  O209  1  0.16742323  0.70334161  0.94369405  1
  O2-  O210  1  0.66476572  0.20408759  0.27102868  1
  O2-  O211  1  0.66996018  0.20486798  0.60026545  1
  O2-  O212  1  0.65787772  0.21298036  0.93895298  1
  O2-  O213  1  0.66533421  0.70930210  0.26104605  1
  O2-  O214  1  0.67093446  0.70593885  0.60204360  1
  O2-  O215  1  0.66619554  0.69521900  0.93593822  1
  O2-  O216  1  0.08240983  0.45655053  0.06402350  1
  O2-  O217  1  0.08791680  0.45565607  0.39618785  1
  O2-  O218  1  0.08286254  0.45426826  0.72793106  1
  O2-  O219  1  0.07925043  0.95637190  0.06701058  1
  O2-  O220  1  0.08930491  0.95562503  0.40046630  1
  O2-  O221  1  0.08594624  0.95516417  0.72745784  1
  O2-  O222  1  0.59030922  0.45951963  0.06876900  1
  O2-  O223  1  0.58818123  0.46652531  0.39439643  1
  O2-  O224  1  0.58627977  0.46269277  0.73781142  1
  O2-  O225  1  0.58515785  0.95146456  0.06526422  1
  O2-  O226  1  0.58171984  0.94730808  0.39460828  1
  O2-  O227  1  0.58013467  0.95977359  0.73292850  1
  O2-  O228  1  0.20131887  0.33579394  0.06402736  1
  O2-  O229  1  0.21034364  0.33714494  0.39441725  1
  O2-  O230  1  0.20054479  0.33213220  0.72713651  1
  O2-  O231  1  0.20844838  0.83342098  0.07283178  1
  O2-  O232  1  0.20903287  0.83670613  0.39933298  1
  O2-  O233  1  0.20668399  0.83806592  0.72797431  1
  O2-  O234  1  0.70557631  0.33775156  0.06707115  1
  O2-  O235  1  0.69739912  0.33745234  0.39570325  1
  O2-  O236  1  0.70861241  0.33202464  0.73526075  1
  O2-  O237  1  0.69960231  0.82793749  0.05863996  1
  O2-  O238  1  0.70732712  0.83276834  0.39303003  1
  O2-  O239  1  0.70735741  0.83284321  0.73758721  1
  O2-  O240  1  0.46544266  0.41450458  0.26161833  1
  O2-  O241  1  0.46042649  0.41991866  0.60247087  1
  O2-  O242  1  0.46542268  0.41208116  0.93957517  1
  O2-  O243  1  0.44952834  0.91864494  0.26969308  1
  O2-  O244  1  0.45390984  0.91981976  0.59687420  1
  O2-  O245  1  0.45877399  0.91722209  0.93486818  1
  O2-  O246  1  0.95721254  0.42058012  0.26545477  1
  O2-  O247  1  0.95336762  0.42060265  0.59871444  1
  O2-  O248  1  0.94990806  0.42246197  0.93306457  1
  O2-  O249  1  0.96509088  0.91357348  0.26861918  1
  O2-  O250  1  0.95490732  0.91380621  0.60371842  1
  O2-  O251  1  0.95788356  0.91679220  0.92848029  1
  O2-  O252  1  0.33490421  0.29230142  0.26301345  1
  O2-  O253  1  0.33171649  0.29643514  0.60013926  1
  O2-  O254  1  0.33481801  0.30575721  0.94133710  1
  O2-  O255  1  0.33303039  0.79505672  0.26875555  1
  O2-  O256  1  0.33050264  0.79211936  0.59616683  1
  O2-  O257  1  0.33219260  0.78800315  0.93760418  1
  O2-  O258  1  0.82366834  0.30047859  0.27000842  1
  O2-  O259  1  0.82961410  0.29445202  0.59897647  1
  O2-  O260  1  0.82641715  0.29147863  0.93409237  1
  O2-  O261  1  0.83655301  0.78781337  0.26405815  1
  O2-  O262  1  0.83325645  0.79692617  0.60577816  1
  O2-  O263  1  0.83260141  0.78865076  0.93082948  1
  O2-  O264  1  0.42010272  0.04332105  0.07060356  1
  O2-  O265  1  0.41406649  0.04580521  0.39763809  1
  O2-  O266  1  0.41257413  0.04662428  0.72385400  1
  O2-  O267  1  0.41701476  0.53682447  0.07160833  1
  O2-  O268  1  0.41460076  0.53876428  0.39391027  1
  O2-  O269  1  0.41524887  0.54116688  0.73672293  1
  O2-  O270  1  0.91557151  0.03949575  0.06448226  1
  O2-  O271  1  0.91703001  0.03588664  0.40345677  1
  O2-  O272  1  0.91575762  0.04224574  0.73001943  1
  O2-  O273  1  0.91448820  0.54748920  0.06438977  1
  O2-  O274  1  0.91664114  0.55066740  0.39137919  1
  O2-  O275  1  0.92006884  0.55085934  0.72842465  1
  O2-  O276  1  0.29895169  0.17485518  0.06592251  1
  O2-  O277  1  0.29324059  0.16564522  0.39512980  1
  O2-  O278  1  0.29289293  0.16458740  0.72530855  1
  O2-  O279  1  0.29069522  0.66439831  0.07475561  1
  O2-  O280  1  0.29772154  0.66342233  0.39618876  1
  O2-  O281  1  0.28467869  0.66707795  0.73171817  1
  O2-  O282  1  0.78288181  0.16356477  0.06852746  1
  O2-  O283  1  0.79083628  0.16740260  0.40286561  1
  O2-  O284  1  0.79810647  0.16500565  0.72903744  1
  O2-  O285  1  0.79112152  0.66295286  0.06464537  1
  O2-  O286  1  0.78950575  0.66243528  0.39432021  1
  O2-  O287  1  0.79800078  0.66599768  0.73187414  1
