# generated using pymatgen
data_Ca2Al2SiO7
_symmetry_space_group_name_H-M   'P 1'
_cell_length_a   15.45285367
_cell_length_b   15.45337503
_cell_length_c   15.27985158
_cell_angle_alpha   90.00589133
_cell_angle_beta   90.00303274
_cell_angle_gamma   89.99860914
_symmetry_Int_Tables_number   1
_chemical_formula_structural   Ca2Al2SiO7
_chemical_formula_sum   'Ca48 Al48 Si24 O168'
_cell_volume   3648.80932727
_cell_formula_units_Z   24
loop_
 _symmetry_equiv_pos_site_id
 _symmetry_equiv_pos_as_xyz
  1  'x, y, z'
loop_
 _atom_type_symbol
 _atom_type_oxidation_number
  Ca2+  2.0
  Al0+  0.0
  Si0+  0.0
  O2-  -2.0
loop_
 _atom_site_type_symbol
 _atom_site_label
 _atom_site_symmetry_multiplicity
 _atom_site_fract_x
 _atom_site_fract_y
 _atom_site_fract_z
 _atom_site_occupancy
  Ca2+  Ca0  1  0.17268086  0.08504674  0.17161800  1
  Ca2+  Ca1  1  0.16166982  0.08026559  0.50653946  1
  Ca2+  Ca2  1  0.17183886  0.08238961  0.83534793  1
  Ca2+  Ca3  1  0.17072466  0.57810058  0.17272478  1
  Ca2+  Ca4  1  0.17609932  0.59113832  0.50461729  1
  Ca2+  Ca5  1  0.17025173  0.57994543  0.83364468  1
  Ca2+  Ca6  1  0.66432714  0.07679792  0.17287056  1
  Ca2+  Ca7  1  0.67011350  0.07578674  0.50115682  1
  Ca2+  Ca8  1  0.65739945  0.07348352  0.83792037  1
  Ca2+  Ca9  1  0.67351440  0.57970170  0.17337725  1
  Ca2+  Ca10  1  0.66436491  0.57000750  0.50502473  1
  Ca2+  Ca11  1  0.67208009  0.57584070  0.83558327  1
  Ca2+  Ca12  1  0.08158326  0.33182470  0.16629383  1
  Ca2+  Ca13  1  0.07226162  0.32253689  0.49265483  1
  Ca2+  Ca14  1  0.08078750  0.33061126  0.82358479  1
  Ca2+  Ca15  1  0.08197830  0.82615427  0.16703454  1
  Ca2+  Ca16  1  0.09235123  0.82412386  0.49755312  1
  Ca2+  Ca17  1  0.08515925  0.82743987  0.82177175  1
  Ca2+  Ca18  1  0.58049513  0.33077500  0.16584750  1
  Ca2+  Ca19  1  0.57719544  0.34256294  0.49430984  1
  Ca2+  Ca20  1  0.58183716  0.32674956  0.82473425  1
  Ca2+  Ca21  1  0.57584178  0.84352598  0.16155330  1
  Ca2+  Ca22  1  0.57493081  0.83892681  0.49672349  1
  Ca2+  Ca23  1  0.57441602  0.83893122  0.82933136  1
  Ca2+  Ca24  1  0.32842492  0.41921106  0.17601261  1
  Ca2+  Ca25  1  0.34161952  0.42906645  0.50629360  1
  Ca2+  Ca26  1  0.32969447  0.41938399  0.83449786  1
  Ca2+  Ca27  1  0.34255136  0.92125485  0.16777845  1
  Ca2+  Ca28  1  0.33148435  0.91472709  0.50710501  1
  Ca2+  Ca29  1  0.33248806  0.91747545  0.83545867  1
  Ca2+  Ca30  1  0.82909116  0.41717225  0.17332311  1
  Ca2+  Ca31  1  0.82589333  0.40436432  0.50215774  1
  Ca2+  Ca32  1  0.83437921  0.41901704  0.83429061  1
  Ca2+  Ca33  1  0.81849087  0.92269032  0.17800396  1
  Ca2+  Ca34  1  0.82506772  0.92052512  0.50437749  1
  Ca2+  Ca35  1  0.81970117  0.91545152  0.83915304  1
  Ca2+  Ca36  1  0.42139733  0.16904668  0.15984571  1
  Ca2+  Ca37  1  0.41559415  0.18348964  0.49633757  1
  Ca2+  Ca38  1  0.41893756  0.16891077  0.83211316  1
  Ca2+  Ca39  1  0.41577779  0.67654511  0.16720329  1
  Ca2+  Ca40  1  0.40973841  0.67559231  0.49411886  1
  Ca2+  Ca41  1  0.41208416  0.67718308  0.82650590  1
  Ca2+  Ca42  1  0.91510159  0.16679653  0.17018108  1
  Ca2+  Ca43  1  0.92173643  0.16947709  0.49366067  1
  Ca2+  Ca44  1  0.92506927  0.17431435  0.82098036  1
  Ca2+  Ca45  1  0.92064024  0.65924093  0.16324080  1
  Ca2+  Ca46  1  0.93195864  0.66448251  0.49553790  1
  Ca2+  Ca47  1  0.92160374  0.66421706  0.82835425  1
  Al0+  Al48  1  -0.00051673  -0.00102174  -0.00136311  1
  Al0+  Al49  1  0.00047769  -0.00140256  0.33215720  1
  Al0+  Al50  1  -0.00037903  -0.00164482  0.66954873  1
  Al0+  Al51  1  0.00075481  0.49909550  0.00660445  1
  Al0+  Al52  1  0.00116992  0.49806008  0.32575936  1
  Al0+  Al53  1  0.00072321  0.50000722  0.65656556  1
  Al0+  Al54  1  0.49808184  0.00125753  -0.00127757  1
  Al0+  Al55  1  0.49758383  0.00147696  0.33629843  1
  Al0+  Al56  1  0.49946650  0.00092556  0.66565338  1
  Al0+  Al57  1  0.49962058  0.50171265  -0.00019328  1
  Al0+  Al58  1  0.49939771  0.50337507  0.33387791  1
  Al0+  Al59  1  0.50169089  0.50163689  0.67657520  1
  Al0+  Al60  1  0.24915257  0.24964429  0.00764812  1
  Al0+  Al61  1  0.24929029  0.25084887  0.32717857  1
  Al0+  Al62  1  0.25181303  0.25101217  0.65832153  1
  Al0+  Al63  1  0.24884259  0.74936253  -0.00408247  1
  Al0+  Al64  1  0.25076329  0.75013473  0.32477343  1
  Al0+  Al65  1  0.25081803  0.75166242  0.66913593  1
  Al0+  Al66  1  0.75030574  0.24910392  -0.00673307  1
  Al0+  Al67  1  0.74999760  0.24862095  0.33695634  1
  Al0+  Al68  1  0.74978258  0.24815195  0.66902300  1
  Al0+  Al69  1  0.74985771  0.74887318  0.00863117  1
  Al0+  Al70  1  0.74973051  0.74852094  0.34003319  1
  Al0+  Al71  1  0.74922939  0.74933212  0.67131509  1
  Al0+  Al72  1  0.18061889  0.42971057  0.01311659  1
  Al0+  Al73  1  0.67553966  0.92759110  0.35090409  1
  Al0+  Al74  1  0.07243127  0.17667754  0.65255284  1
  Al0+  Al75  1  0.32100974  0.57240358  0.68155071  1
  Al0+  Al76  1  0.07093488  0.17555722  0.31514266  1
  Al0+  Al77  1  0.68017491  0.43073988  0.34514559  1
  Al0+  Al78  1  0.82219997  0.06997996  0.34918898  1
  Al0+  Al79  1  0.43130943  0.32351143  0.65467154  1
  Al0+  Al80  1  0.07087669  0.68085152  0.65402852  1
  Al0+  Al81  1  0.67905121  0.93122386  0.01395014  1
  Al0+  Al82  1  0.67965289  0.42761204  0.68209746  1
  Al0+  Al83  1  0.31822348  0.57099787  0.34586729  1
  Al0+  Al84  1  0.67808943  0.92888548  0.68264534  1
  Al0+  Al85  1  0.17939905  0.92989735  0.67908856  1
  Al0+  Al86  1  0.31874903  0.06865126  0.01326923  1
  Al0+  Al87  1  0.42991116  0.32547330  0.31934690  1
  Al0+  Al88  1  0.07102594  0.67978216  0.31729995  1
  Al0+  Al89  1  0.82008732  0.56885667  0.01337212  1
  Al0+  Al90  1  0.43067995  0.82023224  0.65309949  1
  Al0+  Al91  1  0.43064703  0.81972482  0.98457269  1
  Al0+  Al92  1  0.92661043  0.31852142  0.31521645  1
  Al0+  Al93  1  0.92785572  0.32117845  0.65118617  1
  Al0+  Al94  1  0.56998359  0.18102289  0.98678227  1
  Al0+  Al95  1  0.43096371  0.82179240  0.31920899  1
  Si0+  Si96  1  0.82208724  0.07078594  0.68607354  1
  Si0+  Si97  1  0.67750622  0.42526651  0.01576219  1
  Si0+  Si98  1  0.57144550  0.17750010  0.64873296  1
  Si0+  Si99  1  0.07252929  0.17796512  0.98468638  1
  Si0+  Si100  1  0.17834905  0.42813121  0.67853505  1
  Si0+  Si101  1  0.92491554  0.82150523  0.65156911  1
  Si0+  Si102  1  0.32146164  0.07516796  0.68171319  1
  Si0+  Si103  1  0.82431827  0.07304299  0.01519168  1
  Si0+  Si104  1  0.06854131  0.67820413  0.98383257  1
  Si0+  Si105  1  0.56951550  0.17943773  0.31874311  1
  Si0+  Si106  1  0.17559819  0.92562561  0.01721911  1
  Si0+  Si107  1  0.32058967  0.07365735  0.34921068  1
  Si0+  Si108  1  0.92744692  0.82081823  0.98631430  1
  Si0+  Si109  1  0.93090294  0.32117021  0.98447701  1
  Si0+  Si110  1  0.57528466  0.67655907  0.98319187  1
  Si0+  Si111  1  0.82459265  0.57107551  0.68138289  1
  Si0+  Si112  1  0.42558280  0.32363233  0.98455076  1
  Si0+  Si113  1  0.82576485  0.57155479  0.35190739  1
  Si0+  Si114  1  0.18111458  0.92925920  0.34540696  1
  Si0+  Si115  1  0.92595726  0.82060962  0.31723476  1
  Si0+  Si116  1  0.17737191  0.42649360  0.35213703  1
  Si0+  Si117  1  0.32249687  0.57445708  0.01742034  1
  Si0+  Si118  1  0.57382301  0.67789277  0.65176459  1
  Si0+  Si119  1  0.57340528  0.67835431  0.31776166  1
  O2-  O120  1  0.24409956  -0.00601095  0.06155526  1
  O2-  O121  1  0.24740644  0.00388080  0.38893435  1
  O2-  O122  1  0.25072025  0.00783523  0.72536278  1
  O2-  O123  1  0.25887448  0.50082704  0.06038959  1
  O2-  O124  1  0.24619181  0.49516475  0.39554603  1
  O2-  O125  1  0.24684640  0.49555275  0.72582606  1
  O2-  O126  1  0.75499556  0.00523550  0.05936067  1
  O2-  O127  1  0.75119775  -0.00333608  0.39911075  1
  O2-  O128  1  0.75289652  0.00281849  0.73084167  1
  O2-  O129  1  0.74342056  0.49624203  0.06005695  1
  O2-  O130  1  0.75694359  0.50268635  0.39458565  1
  O2-  O131  1  0.75779189  0.50049118  0.72612482  1
  O2-  O132  1  -0.00044327  0.24779640  0.26401569  1
  O2-  O133  1  -0.00062638  0.24765303  0.60359286  1
  O2-  O134  1  -0.00012275  0.24759390  0.94286655  1
  O2-  O135  1  -0.00927399  0.74902200  0.27068577  1
  O2-  O136  1  -0.00456146  0.75497192  0.60713093  1
  O2-  O137  1  0.00017299  0.75214239  0.94195767  1
  O2-  O138  1  0.50301614  0.24944136  0.27296418  1
  O2-  O139  1  0.50695413  0.25063423  0.60583821  1
  O2-  O140  1  0.49893716  0.25998841  0.94029981  1
  O2-  O141  1  0.51143562  0.75297433  0.27295809  1
  O2-  O142  1  0.50604277  0.74658955  0.60639055  1
  O2-  O143  1  0.50422512  0.74292937  0.93887656  1
  O2-  O144  1  0.07192763  0.17711914  0.08913320  1
  O2-  O145  1  0.07106236  0.17545932  0.42844678  1
  O2-  O146  1  0.07241285  0.17956925  0.76719925  1
  O2-  O147  1  0.06810910  0.67919466  0.08876568  1
  O2-  O148  1  0.07332193  0.68408091  0.43032739  1
  O2-  O149  1  0.06835602  0.68025068  0.76779850  1
  O2-  O150  1  0.56932592  0.18163323  0.09998573  1
  O2-  O151  1  0.56649636  0.17873156  0.42429855  1
  O2-  O152  1  0.56834021  0.17657840  0.75482257  1
  O2-  O153  1  0.57561705  0.67513948  0.08861642  1
  O2-  O154  1  0.57028480  0.67530493  0.42317400  1
  O2-  O155  1  0.57445903  0.67922784  0.75768542  1
  O2-  O156  1  0.17925758  0.42814442  0.24588406  1
  O2-  O157  1  0.17939290  0.42939663  0.57362471  1
  O2-  O158  1  0.17868907  0.43098398  0.89944717  1
  O2-  O159  1  0.18269223  0.92886833  0.23997447  1
  O2-  O160  1  0.18264481  0.92781642  0.56572812  1
  O2-  O161  1  0.17427311  0.92620844  0.91171378  1
  O2-  O162  1  0.68033079  0.43351122  0.23152568  1
  O2-  O163  1  0.67801182  0.43086534  0.56913573  1
  O2-  O164  1  0.68018799  0.42539238  0.91020551  1
  O2-  O165  1  0.67487298  0.93163987  0.23695571  1
  O2-  O166  1  0.67898703  0.93049039  0.57007064  1
  O2-  O167  1  0.68025892  0.93151909  0.90072404  1
  O2-  O168  1  0.42642447  0.32229198  0.09007775  1
  O2-  O169  1  0.43205554  0.32547907  0.43254977  1
  O2-  O170  1  0.43027608  0.32049135  0.76817035  1
  O2-  O171  1  0.43179084  0.81940078  0.09773562  1
  O2-  O172  1  0.42794361  0.82010345  0.43215367  1
  O2-  O173  1  0.43090182  0.81989924  0.76642656  1
  O2-  O174  1  0.92983778  0.32102952  0.08894198  1
  O2-  O175  1  0.92785516  0.31694995  0.42842827  1
  O2-  O176  1  0.93170023  0.32222155  0.76598072  1
  O2-  O177  1  0.92931407  0.82056013  0.09105420  1
  O2-  O178  1  0.92827807  0.82023399  0.42280818  1
  O2-  O179  1  0.92465875  0.81861470  0.75778663  1
  O2-  O180  1  0.32277159  0.07177152  0.24392174  1
  O2-  O181  1  0.32235857  0.07463793  0.57611164  1
  O2-  O182  1  0.31630544  0.07012968  0.90004351  1
  O2-  O183  1  0.31640708  0.57060211  0.23246382  1
  O2-  O184  1  0.31967834  0.57413702  0.56852839  1
  O2-  O185  1  0.31936001  0.57610651  0.91177371  1
  O2-  O186  1  0.81969676  0.06821186  0.23490112  1
  O2-  O187  1  0.82195891  0.06933951  0.58085300  1
  O2-  O188  1  0.82713236  0.07043173  0.90973321  1
  O2-  O189  1  0.82328513  0.57192688  0.24590453  1
  O2-  O190  1  0.82349870  0.57417597  0.57638876  1
  O2-  O191  1  0.82322717  0.56660561  0.90010815  1
  O2-  O192  1  0.04470483  0.07620080  0.26183339  1
  O2-  O193  1  0.04450873  0.07680331  0.60234202  1
  O2-  O194  1  0.04710253  0.08463557  0.93762552  1
  O2-  O195  1  0.04482071  0.58238913  0.26263894  1
  O2-  O196  1  0.04336707  0.58591818  0.59599306  1
  O2-  O197  1  0.03699484  0.58678407  0.93799584  1
  O2-  O198  1  0.53942603  0.08732947  0.27184232  1
  O2-  O199  1  0.54198048  0.08625176  0.60096599  1
  O2-  O200  1  0.53312412  0.08728522  0.93109397  1
  O2-  O201  1  0.54125525  0.58897569  0.26700452  1
  O2-  O202  1  0.54714623  0.58386869  0.60846953  1
  O2-  O203  1  0.55252284  0.58153462  0.93685885  1
  O2-  O204  1  0.16920459  0.20519216  0.26174091  1
  O2-  O205  1  0.17004517  0.20281248  0.59792004  1
  O2-  O206  1  0.16416714  0.20836690  0.93873614  1
  O2-  O207  1  0.16324074  0.71666126  0.25881170  1
  O2-  O208  1  0.16600177  0.71603277  0.60087374  1
  O2-  O209  1  0.16102505  0.70327731  0.93629752  1
  O2-  O210  1  0.66379052  0.20218071  0.27377713  1
  O2-  O211  1  0.66714422  0.19811940  0.60648486  1
  O2-  O212  1  0.66720232  0.20597944  0.92941164  1
  O2-  O213  1  0.67052009  0.69628223  0.27493089  1
  O2-  O214  1  0.66813708  0.70107553  0.60600358  1
  O2-  O215  1  0.66931878  0.70339545  0.93846096  1
  O2-  O216  1  0.08707661  0.46408149  0.07071822  1
  O2-  O217  1  0.08239402  0.45239632  0.39392851  1
  O2-  O218  1  0.08429691  0.45518928  0.72403227  1
  O2-  O219  1  0.08124145  0.95035716  0.06285308  1
  O2-  O220  1  0.08777007  0.95053387  0.39234452  1
  O2-  O221  1  0.08127395  0.95347862  0.73510441  1
  O2-  O222  1  0.58156201  0.44748643  0.05902235  1
  O2-  O223  1  0.58500767  0.46575695  0.39952688  1
  O2-  O224  1  0.58685813  0.46148889  0.74172899  1
  O2-  O225  1  0.58337482  0.96546218  0.06618679  1
  O2-  O226  1  0.57851065  0.96115869  0.40388466  1
  O2-  O227  1  0.58138336  0.96305882  0.73553194  1
  O2-  O228  1  0.20680567  0.33369821  0.07041304  1
  O2-  O229  1  0.20185683  0.33151082  0.39474442  1
  O2-  O230  1  0.20467214  0.33414208  0.72454320  1
  O2-  O231  1  0.20067810  0.83095347  0.06131088  1
  O2-  O232  1  0.21423897  0.83876463  0.39153457  1
  O2-  O233  1  0.21378485  0.83640165  0.73711163  1
  O2-  O234  1  0.70620352  0.33200401  0.06060178  1
  O2-  O235  1  0.70582752  0.33337094  0.39948119  1
  O2-  O236  1  0.70708331  0.32981067  0.73602212  1
  O2-  O237  1  0.70746929  0.83474558  0.06899070  1
  O2-  O238  1  0.69992707  0.82756449  0.40261247  1
  O2-  O239  1  0.70762272  0.83177936  0.73745959  1
  O2-  O240  1  0.46167351  0.42087224  0.26371293  1
  O2-  O241  1  0.46281743  0.42175740  0.60479072  1
  O2-  O242  1  0.44435041  0.42025890  0.94107397  1
  O2-  O243  1  0.45781320  0.92064888  0.26677694  1
  O2-  O244  1  0.45883477  0.91791717  0.59992421  1
  O2-  O245  1  0.46192791  0.91594693  0.93094046  1
  O2-  O246  1  0.95433037  0.41733900  0.26192186  1
  O2-  O247  1  0.95326042  0.41840207  0.59565651  1
  O2-  O248  1  0.96303340  0.41246289  0.93844049  1
  O2-  O249  1  0.95538430  0.91195881  0.26912142  1
  O2-  O250  1  0.94843119  0.91582784  0.60768520  1
  O2-  O251  1  0.95203911  0.91333906  0.93746288  1
  O2-  O252  1  0.33345415  0.29520140  0.26553375  1
  O2-  O253  1  0.33667077  0.29392292  0.59660214  1
  O2-  O254  1  0.33298616  0.29230112  0.93960313  1
  O2-  O255  1  0.33787534  0.78679484  0.26109413  1
  O2-  O256  1  0.33438470  0.78841616  0.60025938  1
  O2-  O257  1  0.33200991  0.79091880  0.93171124  1
  O2-  O258  1  0.82757929  0.28936664  0.26288645  1
  O2-  O259  1  0.82857309  0.29154099  0.60149620  1
  O2-  O260  1  0.83879179  0.29667113  0.93545763  1
  O2-  O261  1  0.83013055  0.79821023  0.27348103  1
  O2-  O262  1  0.83190123  0.79459119  0.60523231  1
  O2-  O263  1  0.83575562  0.79011378  0.94016022  1
  O2-  O264  1  0.41403643  0.03653551  0.06852683  1
  O2-  O265  1  0.41025836  0.04467218  0.39912140  1
  O2-  O266  1  0.41388788  0.04655186  0.72846992  1
  O2-  O267  1  0.41907183  0.55596336  0.06066040  1
  O2-  O268  1  0.41545779  0.54382193  0.39968810  1
  O2-  O269  1  0.41617797  0.54400389  0.73932287  1
  O2-  O270  1  0.91787662  0.04726458  0.06197828  1
  O2-  O271  1  0.92122095  0.04070545  0.40096165  1
  O2-  O272  1  0.91550737  0.04542189  0.73331051  1
  O2-  O273  1  0.91476786  0.53664669  0.07003612  1
  O2-  O274  1  0.92097923  0.54624328  0.39402563  1
  O2-  O275  1  0.91916718  0.54538737  0.72659124  1
  O2-  O276  1  0.28982098  0.16422204  0.07021773  1
  O2-  O277  1  0.29417340  0.16687762  0.39444303  1
  O2-  O278  1  0.29711793  0.16932716  0.72798804  1
  O2-  O279  1  0.29047929  0.66629259  0.06350128  1
  O2-  O280  1  0.28371911  0.66815906  0.39719601  1
  O2-  O281  1  0.28551234  0.66634140  0.73756522  1
  O2-  O282  1  0.79899014  0.16793011  0.05827685  1
  O2-  O283  1  0.79245912  0.16679969  0.40346262  1
  O2-  O284  1  0.79755635  0.16449529  0.73259365  1
  O2-  O285  1  0.79309799  0.66463065  0.07138179  1
  O2-  O286  1  0.80322106  0.66540865  0.39862356  1
  O2-  O287  1  0.79788489  0.66327851  0.73099085  1
