# generated using pymatgen
data_Ca2Al2SiO7
_symmetry_space_group_name_H-M   'P 1'
_cell_length_a   15.46144989
_cell_length_b   15.46043967
_cell_length_c   15.28450827
_cell_angle_alpha   90.00293000
_cell_angle_beta   90.01573287
_cell_angle_gamma   89.99707103
_symmetry_Int_Tables_number   1
_chemical_formula_structural   Ca2Al2SiO7
_chemical_formula_sum   'Ca48 Al48 Si24 O168'
_cell_volume   3653.62113962
_cell_formula_units_Z   24
loop_
 _symmetry_equiv_pos_site_id
 _symmetry_equiv_pos_as_xyz
  1  'x, y, z'
loop_
 _atom_type_symbol
 _atom_type_oxidation_number
  Ca2+  2.0
  Al0+  0.0
  Si0+  0.0
  O2-  -2.0
loop_
 _atom_site_type_symbol
 _atom_site_label
 _atom_site_symmetry_multiplicity
 _atom_site_fract_x
 _atom_site_fract_y
 _atom_site_fract_z
 _atom_site_occupancy
  Ca2+  Ca0  1  0.16368673  0.07765932  0.17013380  1
  Ca2+  Ca1  1  0.16079366  0.07342847  0.50400456  1
  Ca2+  Ca2  1  0.16754956  0.07677001  0.84126779  1
  Ca2+  Ca3  1  0.17799312  0.58167444  0.17162883  1
  Ca2+  Ca4  1  0.17899279  0.58866061  0.50746342  1
  Ca2+  Ca5  1  0.17679987  0.58537225  0.83816977  1
  Ca2+  Ca6  1  0.67075325  0.07903409  0.17745124  1
  Ca2+  Ca7  1  0.65825100  0.07522717  0.50383426  1
  Ca2+  Ca8  1  0.66249735  0.07782667  0.83191762  1
  Ca2+  Ca9  1  0.66517022  0.57207599  0.17200924  1
  Ca2+  Ca10  1  0.66150895  0.57976800  0.50272885  1
  Ca2+  Ca11  1  0.66383290  0.58011503  0.83840311  1
  Ca2+  Ca12  1  0.09461176  0.32170394  0.16118749  1
  Ca2+  Ca13  1  0.08706980  0.31909349  0.49475272  1
  Ca2+  Ca14  1  0.09629428  0.32283429  0.83243690  1
  Ca2+  Ca15  1  0.07523967  0.84328845  0.16294729  1
  Ca2+  Ca16  1  0.08620472  0.83157188  0.49416083  1
  Ca2+  Ca17  1  0.08397407  0.83475190  0.82893677  1
  Ca2+  Ca18  1  0.58134896  0.33686269  0.16776110  1
  Ca2+  Ca19  1  0.58025040  0.32374437  0.49032079  1
  Ca2+  Ca20  1  0.58297580  0.32841087  0.82740447  1
  Ca2+  Ca21  1  0.57379734  0.83983143  0.16654495  1
  Ca2+  Ca22  1  0.57189402  0.83688931  0.49538237  1
  Ca2+  Ca23  1  0.57306519  0.82630133  0.81889969  1
  Ca2+  Ca24  1  0.33516296  0.42565222  0.17044262  1
  Ca2+  Ca25  1  0.34389141  0.42764440  0.49990445  1
  Ca2+  Ca26  1  0.33074383  0.43057224  0.84112255  1
  Ca2+  Ca27  1  0.32205536  0.92041741  0.17209687  1
  Ca2+  Ca28  1  0.32571253  0.90948587  0.50524535  1
  Ca2+  Ca29  1  0.32235013  0.91789039  0.83702907  1
  Ca2+  Ca30  1  0.82191569  0.41236656  0.17139564  1
  Ca2+  Ca31  1  0.82601000  0.41230094  0.50140099  1
  Ca2+  Ca32  1  0.82616688  0.41805477  0.83973204  1
  Ca2+  Ca33  1  0.83131614  0.91326279  0.17533798  1
  Ca2+  Ca34  1  0.82152406  0.91027300  0.49997348  1
  Ca2+  Ca35  1  0.82785814  0.91261196  0.83481981  1
  Ca2+  Ca36  1  0.41960371  0.16696105  0.16496813  1
  Ca2+  Ca37  1  0.42753909  0.17041922  0.49049637  1
  Ca2+  Ca38  1  0.41755884  0.16643238  0.82812248  1
  Ca2+  Ca39  1  0.40971606  0.66779862  0.16872728  1
  Ca2+  Ca40  1  0.41295574  0.67508514  0.49893614  1
  Ca2+  Ca41  1  0.41507521  0.66915769  0.82403067  1
  Ca2+  Ca42  1  0.93091300  0.16283333  0.16342618  1
  Ca2+  Ca43  1  0.92785877  0.16070344  0.49823070  1
  Ca2+  Ca44  1  0.93015267  0.16812766  0.83019516  1
  Ca2+  Ca45  1  0.91458543  0.68066729  0.16222802  1
  Ca2+  Ca46  1  0.92572275  0.67214097  0.49572341  1
  Ca2+  Ca47  1  0.92523310  0.67262611  0.82833901  1
  Al0+  Al48  1  -0.00303750  0.00105023  -0.00761861  1
  Al0+  Al49  1  -0.00022957  -0.00109604  0.33111168  1
  Al0+  Al50  1  -0.00312543  0.00115397  0.66758437  1
  Al0+  Al51  1  -0.00143060  0.50099318  0.00406801  1
  Al0+  Al52  1  0.00135743  0.49899237  0.33315065  1
  Al0+  Al53  1  -0.00167882  0.49998307  0.66322150  1
  Al0+  Al54  1  0.49942763  -0.00059165  0.00055688  1
  Al0+  Al55  1  0.49952408  -0.00052294  0.32734576  1
  Al0+  Al56  1  0.49889566  -0.00002279  0.66475066  1
  Al0+  Al57  1  0.50124738  0.49937940  0.00653596  1
  Al0+  Al58  1  0.50140997  0.49967933  0.33899709  1
  Al0+  Al59  1  0.50033653  0.50061579  0.66940489  1
  Al0+  Al60  1  0.25463794  0.25110190  -0.00012017  1
  Al0+  Al61  1  0.25234052  0.25074074  0.32587724  1
  Al0+  Al62  1  0.24983219  0.25055103  0.65918960  1
  Al0+  Al63  1  0.24862063  0.75206760  0.00776061  1
  Al0+  Al64  1  0.25105691  0.74932550  0.33564048  1
  Al0+  Al65  1  0.24851232  0.75014300  0.66948896  1
  Al0+  Al66  1  0.75068845  0.24831816  0.00275865  1
  Al0+  Al67  1  0.75269579  0.24907742  0.33599417  1
  Al0+  Al68  1  0.75019685  0.24891593  0.66458888  1
  Al0+  Al69  1  0.74884175  0.74957515  -0.00502059  1
  Al0+  Al70  1  0.75102212  0.74892035  0.33397877  1
  Al0+  Al71  1  0.74930994  0.74793426  0.66871433  1
  Al0+  Al72  1  0.92978271  0.81800466  0.32110125  1
  Al0+  Al73  1  0.57262806  0.67679326  0.65201808  1
  Al0+  Al74  1  0.07267320  0.18188120  0.98507533  1
  Al0+  Al75  1  0.42767760  0.82033332  0.31739620  1
  Al0+  Al76  1  0.07046334  0.17915126  0.31888380  1
  Al0+  Al77  1  0.68154982  0.42875139  0.34996107  1
  Al0+  Al78  1  0.67760179  0.92844457  0.68050897  1
  Al0+  Al79  1  0.32394060  0.07160566  0.01459979  1
  Al0+  Al80  1  0.42784126  0.82029594  0.65299408  1
  Al0+  Al81  1  0.17588313  0.93187530  0.01543566  1
  Al0+  Al82  1  0.07137090  0.17872709  0.65253301  1
  Al0+  Al83  1  0.68124551  0.42799370  0.01340783  1
  Al0+  Al84  1  0.32123802  0.57254338  0.01675290  1
  Al0+  Al85  1  0.31991644  0.56954764  0.68082212  1
  Al0+  Al86  1  0.07039707  0.67947240  0.65433927  1
  Al0+  Al87  1  0.57296418  0.17818835  0.31621365  1
  Al0+  Al88  1  0.17748609  0.93038602  0.68017222  1
  Al0+  Al89  1  0.67749884  0.92872069  0.34590407  1
  Al0+  Al90  1  0.31991801  0.56971530  0.35068573  1
  Al0+  Al91  1  0.43150318  0.32322949  0.31606205  1
  Al0+  Al92  1  0.17889113  0.93166778  0.34785059  1
  Al0+  Al93  1  0.92754459  0.82120845  0.98351396  1
  Al0+  Al94  1  0.17773273  0.42805040  0.01400979  1
  Al0+  Al95  1  0.57075862  0.17927697  0.65408452  1
  Si0+  Si96  1  0.92659525  0.82220482  0.64959416  1
  Si0+  Si97  1  0.32223573  0.07339084  0.34974733  1
  Si0+  Si98  1  0.82298425  0.07051493  0.35040487  1
  Si0+  Si99  1  0.92674958  0.32200290  0.65014277  1
  Si0+  Si100  1  0.92558681  0.32240359  0.98480650  1
  Si0+  Si101  1  0.42779151  0.82143259  0.98518463  1
  Si0+  Si102  1  0.81916812  0.06974865  0.01413608  1
  Si0+  Si103  1  0.82407793  0.57260277  0.35112326  1
  Si0+  Si104  1  0.07364610  0.67655106  0.31599409  1
  Si0+  Si105  1  0.57245774  0.67845765  0.31658366  1
  Si0+  Si106  1  0.17729955  0.42568198  0.35132166  1
  Si0+  Si107  1  0.92883277  0.32380804  0.31621492  1
  Si0+  Si108  1  0.32140996  0.07448861  0.67987717  1
  Si0+  Si109  1  0.82122110  0.57435569  0.01656126  1
  Si0+  Si110  1  0.67912183  0.92747232  0.01371820  1
  Si0+  Si111  1  0.42853834  0.32307157  0.65125463  1
  Si0+  Si112  1  0.17544295  0.42658714  0.68075384  1
  Si0+  Si113  1  0.43245497  0.32277227  0.98337392  1
  Si0+  Si114  1  0.07258669  0.67789860  0.98503793  1
  Si0+  Si115  1  0.56887757  0.67837868  0.98664068  1
  Si0+  Si116  1  0.82323623  0.57085752  0.68278736  1
  Si0+  Si117  1  0.82040289  0.07312323  0.68559437  1
  Si0+  Si118  1  0.57301351  0.17794507  0.98413293  1
  Si0+  Si119  1  0.68071847  0.42858412  0.68186843  1
  O2-  O120  1  0.24781451  0.00429890  0.06493571  1
  O2-  O121  1  0.25387705  0.00566752  0.39553284  1
  O2-  O122  1  0.25089374  0.00785498  0.72443786  1
  O2-  O123  1  0.24664278  0.50211228  0.06507487  1
  O2-  O124  1  0.24409858  0.49506691  0.39668597  1
  O2-  O125  1  0.24387573  0.49498930  0.72549020  1
  O2-  O126  1  0.74987761  -0.00235341  0.05697177  1
  O2-  O127  1  0.74914966  0.00657830  0.39302579  1
  O2-  O128  1  0.75200646  0.00326789  0.72897567  1
  O2-  O129  1  0.75716600  0.50147828  0.06041460  1
  O2-  O130  1  0.75741833  0.50250559  0.39663627  1
  O2-  O131  1  0.75004669  0.50111961  0.72448363  1
  O2-  O132  1  -0.00055196  0.25782019  0.27201092  1
  O2-  O133  1  -0.00190888  0.25585424  0.60712475  1
  O2-  O134  1  0.00110810  0.26193642  0.93977391  1
  O2-  O135  1  0.00384059  0.74401476  0.27196480  1
  O2-  O136  1  -0.00134542  0.75684621  0.60657627  1
  O2-  O137  1  0.00469573  0.74747714  0.93993202  1
  O2-  O138  1  0.50224751  0.25027640  0.26446554  1
  O2-  O139  1  0.49485352  0.25207004  0.60786307  1
  O2-  O140  1  0.50145303  0.24866966  0.94204066  1
  O2-  O141  1  0.50537615  0.74770310  0.27068061  1
  O2-  O142  1  0.50284988  0.75077694  0.60289248  1
  O2-  O143  1  0.49644781  0.74740037  0.94401128  1
  O2-  O144  1  0.06794432  0.17997343  0.09789481  1
  O2-  O145  1  0.06701881  0.17847583  0.43216257  1
  O2-  O146  1  0.07103360  0.18077313  0.76560527  1
  O2-  O147  1  0.07006232  0.67719186  0.09043737  1
  O2-  O148  1  0.07197517  0.67713327  0.42191105  1
  O2-  O149  1  0.06793268  0.67839633  0.76760483  1
  O2-  O150  1  0.57543774  0.17735352  0.08861030  1
  O2-  O151  1  0.57099792  0.17903238  0.43000626  1
  O2-  O152  1  0.57142448  0.18250392  0.76800447  1
  O2-  O153  1  0.57205854  0.68011810  0.09151919  1
  O2-  O154  1  0.57232825  0.67971400  0.42193322  1
  O2-  O155  1  0.57092048  0.67606903  0.76647779  1
  O2-  O156  1  0.17625123  0.42800281  0.24589026  1
  O2-  O157  1  0.17491678  0.42660852  0.57533941  1
  O2-  O158  1  0.18220261  0.42871974  0.89988959  1
  O2-  O159  1  0.17650191  0.93408812  0.23498184  1
  O2-  O160  1  0.17702460  0.93069252  0.56706595  1
  O2-  O161  1  0.17800753  0.93135268  0.90151140  1
  O2-  O162  1  0.68323175  0.43093652  0.23662604  1
  O2-  O163  1  0.68311326  0.42748581  0.57714453  1
  O2-  O164  1  0.68165395  0.42877339  0.89971250  1
  O2-  O165  1  0.68135465  0.92880209  0.23203560  1
  O2-  O166  1  0.67929868  0.92954143  0.56768822  1
  O2-  O167  1  0.67868270  0.92874067  0.90866970  1
  O2-  O168  1  0.43560007  0.32562136  0.08793272  1
  O2-  O169  1  0.43422899  0.32179118  0.43018188  1
  O2-  O170  1  0.43003416  0.32335845  0.75723400  1
  O2-  O171  1  0.43110731  0.82325398  0.09014621  1
  O2-  O172  1  0.42681018  0.81962551  0.43013666  1
  O2-  O173  1  0.42824724  0.81872239  0.76739556  1
  O2-  O174  1  0.91956356  0.31614572  0.08969708  1
  O2-  O175  1  0.92896290  0.32393242  0.42201786  1
  O2-  O176  1  0.92254191  0.32149168  0.75567494  1
  O2-  O177  1  0.92366108  0.81960379  0.09657024  1
  O2-  O178  1  0.92936772  0.81628568  0.43403874  1
  O2-  O179  1  0.92583212  0.81936731  0.75543625  1
  O2-  O180  1  0.32075808  0.07155497  0.24411408  1
  O2-  O181  1  0.32098692  0.07593973  0.57453448  1
  O2-  O182  1  0.32642955  0.06814802  0.90047781  1
  O2-  O183  1  0.31828004  0.56913915  0.23770331  1
  O2-  O184  1  0.32062210  0.56815147  0.56806718  1
  O2-  O185  1  0.32322430  0.57164803  0.90285916  1
  O2-  O186  1  0.82432158  0.06867573  0.24431994  1
  O2-  O187  1  0.82152221  0.07480640  0.58027911  1
  O2-  O188  1  0.81636497  0.07193517  0.90918162  1
  O2-  O189  1  0.82211327  0.57286167  0.24543771  1
  O2-  O190  1  0.82556804  0.56904940  0.57797732  1
  O2-  O191  1  0.81880979  0.57467397  0.91068456  1
  O2-  O192  1  0.03392727  0.08503409  0.26421140  1
  O2-  O193  1  0.03486369  0.08362658  0.59887631  1
  O2-  O194  1  0.03510624  0.08837219  0.92936448  1
  O2-  O195  1  0.04998789  0.58167391  0.27104170  1
  O2-  O196  1  0.03793368  0.58386491  0.59849012  1
  O2-  O197  1  0.04650091  0.58380842  0.93876163  1
  O2-  O198  1  0.54536521  0.08050401  0.26178220  1
  O2-  O199  1  0.54209531  0.08301443  0.60014323  1
  O2-  O200  1  0.54491841  0.08561730  0.93690044  1
  O2-  O201  1  0.54469916  0.58491936  0.27207559  1
  O2-  O202  1  0.54452456  0.57791828  0.60043284  1
  O2-  O203  1  0.54357590  0.58510235  0.94043944  1
  O2-  O204  1  0.16748297  0.20632564  0.26470287  1
  O2-  O205  1  0.16695887  0.20718450  0.59530769  1
  O2-  O206  1  0.17119637  0.20941849  0.93227263  1
  O2-  O207  1  0.16637062  0.70339749  0.27100332  1
  O2-  O208  1  0.16625849  0.70956505  0.60033265  1
  O2-  O209  1  0.16695623  0.70422289  0.94060625  1
  O2-  O210  1  0.67413471  0.20478492  0.26772094  1
  O2-  O211  1  0.66692066  0.21027259  0.59998316  1
  O2-  O212  1  0.66461992  0.20718695  0.93649180  1
  O2-  O213  1  0.66715156  0.70043537  0.27098322  1
  O2-  O214  1  0.67328515  0.69907331  0.60154819  1
  O2-  O215  1  0.65968931  0.70625735  0.93663039  1
  O2-  O216  1  0.07611980  0.44750570  0.06528598  1
  O2-  O217  1  0.08186136  0.44749430  0.39635872  1
  O2-  O218  1  0.08064165  0.44958019  0.72581689  1
  O2-  O219  1  0.07540749  0.96097510  0.06377150  1
  O2-  O220  1  0.08200551  0.96277577  0.40144130  1
  O2-  O221  1  0.07921071  0.95896526  0.73270992  1
  O2-  O222  1  0.58739332  0.46121595  0.06964214  1
  O2-  O223  1  0.58662486  0.46040018  0.40514136  1
  O2-  O224  1  0.58898829  0.45444687  0.73015908  1
  O2-  O225  1  0.58766783  0.95573595  0.06067007  1
  O2-  O226  1  0.57967500  0.95796833  0.39775986  1
  O2-  O227  1  0.58118873  0.96041958  0.73540865  1
  O2-  O228  1  0.21058200  0.33138300  0.06645470  1
  O2-  O229  1  0.20459686  0.33130298  0.39499651  1
  O2-  O230  1  0.20315710  0.33245540  0.72521814  1
  O2-  O231  1  0.20189412  0.83387973  0.06934850  1
  O2-  O232  1  0.20868602  0.83383511  0.39918741  1
  O2-  O233  1  0.20917982  0.83503623  0.73590230  1
  O2-  O234  1  0.71159968  0.33167363  0.06810816  1
  O2-  O235  1  0.71355855  0.33207380  0.40416665  1
  O2-  O236  1  0.71114715  0.33731183  0.72972780  1
  O2-  O237  1  0.70644050  0.83505786  0.05953208  1
  O2-  O238  1  0.71143769  0.83283506  0.39931633  1
  O2-  O239  1  0.70864104  0.83144607  0.73523876  1
  O2-  O240  1  0.46452691  0.42127086  0.26484231  1
  O2-  O241  1  0.45917031  0.41479072  0.60543908  1
  O2-  O242  1  0.46482338  0.41364789  0.93561409  1
  O2-  O243  1  0.45781474  0.91595626  0.26134392  1
  O2-  O244  1  0.45348238  0.91907140  0.60034970  1
  O2-  O245  1  0.45917891  0.91174409  0.93664680  1
  O2-  O246  1  0.94899885  0.41886830  0.27016637  1
  O2-  O247  1  0.94753020  0.41604371  0.60327102  1
  O2-  O248  1  0.94067364  0.42042255  0.94341691  1
  O2-  O249  1  0.95935394  0.91428690  0.26617696  1
  O2-  O250  1  0.94566913  0.91795910  0.60668232  1
  O2-  O251  1  0.95328974  0.91776852  0.92753538  1
  O2-  O252  1  0.33253790  0.29909528  0.26273753  1
  O2-  O253  1  0.33474827  0.30307055  0.60352653  1
  O2-  O254  1  0.34087491  0.29792112  0.93459425  1
  O2-  O255  1  0.33211739  0.78610060  0.26345320  1
  O2-  O256  1  0.33065232  0.78873711  0.60072195  1
  O2-  O257  1  0.33392122  0.79607483  0.94120150  1
  O2-  O258  1  0.83591404  0.29555563  0.27064341  1
  O2-  O259  1  0.83542315  0.29220750  0.60121201  1
  O2-  O260  1  0.83517079  0.28892649  0.93477038  1
  O2-  O261  1  0.83363038  0.78657668  0.26498608  1
  O2-  O262  1  0.83443727  0.79140627  0.60424201  1
  O2-  O263  1  0.83180238  0.78705244  0.92777424  1
  O2-  O264  1  0.42120312  0.04026568  0.06919077  1
  O2-  O265  1  0.41685694  0.04761396  0.39282571  1
  O2-  O266  1  0.41452899  0.04901642  0.72706984  1
  O2-  O267  1  0.41847270  0.54126243  0.07004882  1
  O2-  O268  1  0.41656713  0.53909178  0.40407412  1
  O2-  O269  1  0.41654032  0.53849680  0.73624043  1
  O2-  O270  1  0.91102634  0.04215491  0.06028346  1
  O2-  O271  1  0.91329700  0.03802857  0.39850662  1
  O2-  O272  1  0.91308476  0.04692560  0.73352172  1
  O2-  O273  1  0.91589490  0.55618061  0.06265959  1
  O2-  O274  1  0.91907123  0.54869541  0.39606542  1
  O2-  O275  1  0.91344897  0.54032589  0.73278730  1
  O2-  O276  1  0.30462657  0.17274527  0.06387030  1
  O2-  O277  1  0.29911502  0.16884797  0.39306308  1
  O2-  O278  1  0.29790177  0.16975492  0.72522323  1
  O2-  O279  1  0.29463926  0.67053419  0.07067451  1
  O2-  O280  1  0.28801163  0.66587845  0.40432715  1
  O2-  O281  1  0.28757853  0.66487998  0.73593284  1
  O2-  O282  1  0.79121510  0.16001123  0.06442564  1
  O2-  O283  1  0.80511601  0.16581655  0.39601388  1
  O2-  O284  1  0.79337465  0.16640967  0.73255676  1
  O2-  O285  1  0.78860137  0.66585354  0.06324821  1
  O2-  O286  1  0.79686976  0.66462092  0.39897441  1
  O2-  O287  1  0.79713657  0.66212093  0.73196839  1
