# generated using pymatgen
data_Ca2Al2SiO7
_symmetry_space_group_name_H-M   'P 1'
_cell_length_a   15.45538359
_cell_length_b   15.45511345
_cell_length_c   15.28257329
_cell_angle_alpha   90.00704501
_cell_angle_beta   90.00026896
_cell_angle_gamma   90.00537133
_symmetry_Int_Tables_number   1
_chemical_formula_structural   Ca2Al2SiO7
_chemical_formula_sum   'Ca48 Al48 Si24 O168'
_cell_volume   3650.46734507
_cell_formula_units_Z   24
loop_
 _symmetry_equiv_pos_site_id
 _symmetry_equiv_pos_as_xyz
  1  'x, y, z'
loop_
 _atom_type_symbol
 _atom_type_oxidation_number
  Ca2+  2.0
  Al0+  0.0
  Si0+  0.0
  O2-  -2.0
loop_
 _atom_site_type_symbol
 _atom_site_label
 _atom_site_symmetry_multiplicity
 _atom_site_fract_x
 _atom_site_fract_y
 _atom_site_fract_z
 _atom_site_occupancy
  Ca2+  Ca0  1  0.16701972  0.07835118  0.16822849  1
  Ca2+  Ca1  1  0.16509835  0.07805845  0.50367203  1
  Ca2+  Ca2  1  0.17687797  0.07382793  0.83995848  1
  Ca2+  Ca3  1  0.17286048  0.57709545  0.16830788  1
  Ca2+  Ca4  1  0.16664505  0.58063500  0.50049724  1
  Ca2+  Ca5  1  0.17097385  0.58393786  0.84569095  1
  Ca2+  Ca6  1  0.66661271  0.07723008  0.16651135  1
  Ca2+  Ca7  1  0.67659394  0.07532604  0.51362564  1
  Ca2+  Ca8  1  0.67002471  0.07004834  0.83571942  1
  Ca2+  Ca9  1  0.67068401  0.58077608  0.16716842  1
  Ca2+  Ca10  1  0.66383805  0.58098479  0.50254221  1
  Ca2+  Ca11  1  0.67174537  0.59248371  0.84038503  1
  Ca2+  Ca12  1  0.08859027  0.33344992  0.15936105  1
  Ca2+  Ca13  1  0.08491955  0.32534013  0.49208645  1
  Ca2+  Ca14  1  0.07777286  0.34038406  0.83401954  1
  Ca2+  Ca15  1  0.08099398  0.83350332  0.16126027  1
  Ca2+  Ca16  1  0.07448628  0.83721271  0.49351803  1
  Ca2+  Ca17  1  0.08720044  0.82148686  0.82884136  1
  Ca2+  Ca18  1  0.57892729  0.33471782  0.15927438  1
  Ca2+  Ca19  1  0.57796304  0.33495718  0.49598177  1
  Ca2+  Ca20  1  0.56668793  0.33325661  0.82821203  1
  Ca2+  Ca21  1  0.58010525  0.82665019  0.15611212  1
  Ca2+  Ca22  1  0.58105827  0.83404322  0.50291673  1
  Ca2+  Ca23  1  0.58384041  0.82721140  0.82672631  1
  Ca2+  Ca24  1  0.32894226  0.42544600  0.16731213  1
  Ca2+  Ca25  1  0.33047621  0.42094943  0.50092765  1
  Ca2+  Ca26  1  0.32947991  0.41968404  0.84305025  1
  Ca2+  Ca27  1  0.31695177  0.91544003  0.16794249  1
  Ca2+  Ca28  1  0.32921187  0.92066638  0.50828504  1
  Ca2+  Ca29  1  0.33674321  0.92398941  0.84065525  1
  Ca2+  Ca30  1  0.83555957  0.42415693  0.16765993  1
  Ca2+  Ca31  1  0.82378249  0.41413348  0.50364491  1
  Ca2+  Ca32  1  0.83228090  0.42434474  0.84436005  1
  Ca2+  Ca33  1  0.82812160  0.91003149  0.16947554  1
  Ca2+  Ca34  1  0.83454490  0.91734750  0.51097120  1
  Ca2+  Ca35  1  0.82412771  0.90619830  0.83250078  1
  Ca2+  Ca36  1  0.41349334  0.17358038  0.15668761  1
  Ca2+  Ca37  1  0.40893520  0.17148026  0.50114722  1
  Ca2+  Ca38  1  0.40416490  0.17427709  0.82977991  1
  Ca2+  Ca39  1  0.41987415  0.65868486  0.15835721  1
  Ca2+  Ca40  1  0.41821237  0.66897789  0.50097004  1
  Ca2+  Ca41  1  0.42693974  0.66875104  0.82680569  1
  Ca2+  Ca42  1  0.92547072  0.17523517  0.16207963  1
  Ca2+  Ca43  1  0.92192796  0.16148321  0.49199339  1
  Ca2+  Ca44  1  0.91437280  0.17063854  0.83134132  1
  Ca2+  Ca45  1  0.92259202  0.66824971  0.15841682  1
  Ca2+  Ca46  1  0.92179576  0.67971603  0.50028254  1
  Ca2+  Ca47  1  0.92874162  0.66695948  0.82956305  1
  Al0+  Al48  1  -0.00257136  0.00139254  0.00024820  1
  Al0+  Al49  1  -0.00059002  0.00122404  0.32580381  1
  Al0+  Al50  1  0.00142025  0.00134926  0.67096658  1
  Al0+  Al51  1  -0.00092261  0.50120139  0.00044258  1
  Al0+  Al52  1  -0.00029804  0.50204050  0.33926456  1
  Al0+  Al53  1  -0.00159951  0.49810889  0.65976331  1
  Al0+  Al54  1  0.50234638  0.00064947  0.00903178  1
  Al0+  Al55  1  0.50009700  -0.00040916  0.33219774  1
  Al0+  Al56  1  0.50113661  0.00151958  0.67109470  1
  Al0+  Al57  1  0.50110999  0.49851426  -0.00694135  1
  Al0+  Al58  1  0.50116216  0.50025185  0.34020525  1
  Al0+  Al59  1  0.49746874  0.49857940  0.65862204  1
  Al0+  Al60  1  0.24955837  0.24882302  0.00109173  1
  Al0+  Al61  1  0.25076613  0.25120184  0.33017572  1
  Al0+  Al62  1  0.24755592  0.25056246  0.66559160  1
  Al0+  Al63  1  0.25090800  0.75141585  0.00388364  1
  Al0+  Al64  1  0.24950158  0.75206911  0.34178345  1
  Al0+  Al65  1  0.25231544  0.74655806  0.65928880  1
  Al0+  Al66  1  0.75002793  0.24858389  -0.00485446  1
  Al0+  Al67  1  0.74936046  0.24993173  0.33578900  1
  Al0+  Al68  1  0.74759504  0.25065175  0.67203674  1
  Al0+  Al69  1  0.74937551  0.74923277  0.00627969  1
  Al0+  Al70  1  0.74853111  0.74977794  0.33064240  1
  Al0+  Al71  1  0.75225284  0.74709877  0.66149738  1
  Al0+  Al72  1  0.42893011  0.31897397  0.98664961  1
  Al0+  Al73  1  0.92963750  0.32177039  0.98705706  1
  Al0+  Al74  1  0.31973203  0.07104020  0.67926400  1
  Al0+  Al75  1  0.32217362  0.57169184  0.35065075  1
  Al0+  Al76  1  0.17816750  0.42774353  0.34929257  1
  Al0+  Al77  1  0.82096392  0.57062344  0.01265771  1
  Al0+  Al78  1  0.57084053  0.67895252  0.98754862  1
  Al0+  Al79  1  0.43004020  0.82477747  0.65269209  1
  Al0+  Al80  1  0.32134020  0.07176042  0.01618489  1
  Al0+  Al81  1  0.32447554  0.57162281  0.01119009  1
  Al0+  Al82  1  0.42640110  0.31886868  0.65050151  1
  Al0+  Al83  1  0.07221434  0.68056655  0.98970640  1
  Al0+  Al84  1  0.07186753  0.18088250  0.31868497  1
  Al0+  Al85  1  0.68078049  0.92657387  0.68113578  1
  Al0+  Al86  1  0.17763998  0.43041720  0.01254471  1
  Al0+  Al87  1  0.17704557  0.92773097  0.01382555  1
  Al0+  Al88  1  0.07376470  0.67538002  0.64998725  1
  Al0+  Al89  1  0.57251062  0.67910025  0.64990024  1
  Al0+  Al90  1  0.68125582  0.92873942  0.01592920  1
  Al0+  Al91  1  0.93265934  0.82112141  0.65389957  1
  Al0+  Al92  1  0.92873368  0.82071199  0.31772031  1
  Al0+  Al93  1  0.17670625  0.93231042  0.34814919  1
  Al0+  Al94  1  0.68139448  0.42920490  0.34623829  1
  Al0+  Al95  1  0.82466462  0.07270841  0.68299223  1
  Si0+  Si96  1  0.92699049  0.82221236  0.98421360  1
  Si0+  Si97  1  0.82196059  0.57478747  0.35243105  1
  Si0+  Si98  1  0.42876745  0.82311160  0.98679810  1
  Si0+  Si99  1  0.32134181  0.57022923  0.68231868  1
  Si0+  Si100  1  0.07317647  0.67824656  0.31579246  1
  Si0+  Si101  1  0.32318961  0.07174616  0.34973340  1
  Si0+  Si102  1  0.42791671  0.82291813  0.31765610  1
  Si0+  Si103  1  0.07156927  0.17729485  0.98075879  1
  Si0+  Si104  1  0.17878555  0.92526810  0.68232944  1
  Si0+  Si105  1  0.17816753  0.42968991  0.68110574  1
  Si0+  Si106  1  0.43139730  0.32115580  0.31736630  1
  Si0+  Si107  1  0.82114094  0.07502959  0.01928926  1
  Si0+  Si108  1  0.67579820  0.42912985  0.68341874  1
  Si0+  Si109  1  0.67775108  0.92783174  0.34897516  1
  Si0+  Si110  1  0.81879153  0.06940573  0.34572351  1
  Si0+  Si111  1  0.92604309  0.32262486  0.31871358  1
  Si0+  Si112  1  0.82038704  0.56766546  0.68077410  1
  Si0+  Si113  1  0.92566917  0.32075602  0.65095123  1
  Si0+  Si114  1  0.57269871  0.17964777  0.65007700  1
  Si0+  Si115  1  0.06873645  0.18128183  0.65350865  1
  Si0+  Si116  1  0.67836832  0.42654843  0.01316024  1
  Si0+  Si117  1  0.56838631  0.67888040  0.31698033  1
  Si0+  Si118  1  0.57270343  0.17548257  0.98204950  1
  Si0+  Si119  1  0.57287365  0.17828126  0.31891946  1
  O2-  O120  1  0.24850061  0.00024783  0.06492542  1
  O2-  O121  1  0.25312387  0.00552200  0.39484247  1
  O2-  O122  1  0.25262167  -0.01086677  0.72526422  1
  O2-  O123  1  0.25076281  0.50164311  0.06144343  1
  O2-  O124  1  0.24797539  0.50107080  0.40049898  1
  O2-  O125  1  0.24534669  0.50394389  0.72326309  1
  O2-  O126  1  0.75622808  0.00312629  0.06407235  1
  O2-  O127  1  0.74937075  -0.00179451  0.38988796  1
  O2-  O128  1  0.75499730  -0.00275154  0.73086708  1
  O2-  O129  1  0.74767493  0.49354385  0.05847410  1
  O2-  O130  1  0.75715797  0.50151329  0.39564626  1
  O2-  O131  1  0.74646037  0.50029651  0.72489095  1
  O2-  O132  1  0.00131964  0.26163430  0.27460763  1
  O2-  O133  1  -0.00825991  0.24531622  0.60960150  1
  O2-  O134  1  0.00409777  0.24798629  0.93744874  1
  O2-  O135  1  0.00289078  0.74534608  0.27163509  1
  O2-  O136  1  0.00834169  0.75438986  0.60137779  1
  O2-  O137  1  0.00087583  0.75864924  0.94191301  1
  O2-  O138  1  0.50061890  0.24751875  0.27602690  1
  O2-  O139  1  0.50169067  0.24455455  0.60329403  1
  O2-  O140  1  0.50161715  0.24199585  0.93880487  1
  O2-  O141  1  0.49644243  0.74910767  0.27515742  1
  O2-  O142  1  0.50224980  0.75334948  0.60037464  1
  O2-  O143  1  0.49447226  0.75213540  0.94204945  1
  O2-  O144  1  0.06962530  0.17751334  0.08653166  1
  O2-  O145  1  0.06767984  0.17903303  0.43253142  1
  O2-  O146  1  0.07044162  0.18610637  0.75808958  1
  O2-  O147  1  0.06906699  0.67946086  0.10269487  1
  O2-  O148  1  0.07066987  0.67952773  0.42144253  1
  O2-  O149  1  0.07105787  0.67232555  0.76377407  1
  O2-  O150  1  0.57492387  0.17842347  0.08838298  1
  O2-  O151  1  0.57444786  0.17822095  0.42375470  1
  O2-  O152  1  0.57547548  0.18351620  0.75517895  1
  O2-  O153  1  0.57108690  0.67915340  0.10128000  1
  O2-  O154  1  0.57018039  0.68045269  0.42182357  1
  O2-  O155  1  0.57168281  0.67788639  0.76344242  1
  O2-  O156  1  0.18035813  0.42710223  0.23625548  1
  O2-  O157  1  0.17966220  0.42775345  0.57606952  1
  O2-  O158  1  0.17759318  0.43233044  0.89828178  1
  O2-  O159  1  0.17741893  0.93321345  0.23546777  1
  O2-  O160  1  0.17532751  0.93124627  0.57658696  1
  O2-  O161  1  0.17914847  0.92766690  0.90003025  1
  O2-  O162  1  0.68079123  0.42979984  0.23322344  1
  O2-  O163  1  0.67878150  0.42719231  0.57791668  1
  O2-  O164  1  0.67947612  0.42750701  0.90752387  1
  O2-  O165  1  0.67756660  0.92884259  0.24394835  1
  O2-  O166  1  0.68206250  0.93010256  0.56671721  1
  O2-  O167  1  0.68198043  0.92756828  0.90334119  1
  O2-  O168  1  0.43366229  0.31975660  0.10019829  1
  O2-  O169  1  0.43214655  0.31911465  0.42267702  1
  O2-  O170  1  0.42674630  0.31886394  0.76332028  1
  O2-  O171  1  0.43136618  0.82248973  0.09285995  1
  O2-  O172  1  0.43249498  0.82704595  0.42239073  1
  O2-  O173  1  0.42985645  0.82210822  0.76633929  1
  O2-  O174  1  0.92815248  0.31958184  0.10025303  1
  O2-  O175  1  0.92171250  0.31615166  0.42457188  1
  O2-  O176  1  0.92792829  0.32519131  0.75574962  1
  O2-  O177  1  0.92605670  0.81958885  0.09018119  1
  O2-  O178  1  0.92830678  0.82223705  0.43075557  1
  O2-  O179  1  0.93085964  0.81653833  0.76723673  1
  O2-  O180  1  0.32549859  0.06952534  0.24464452  1
  O2-  O181  1  0.31395083  0.07364292  0.56581170  1
  O2-  O182  1  0.31974944  0.07063282  0.90234163  1
  O2-  O183  1  0.32602096  0.56792753  0.23721577  1
  O2-  O184  1  0.32307996  0.56678911  0.57734205  1
  O2-  O185  1  0.32456172  0.56987880  0.89736208  1
  O2-  O186  1  0.81520096  0.07152002  0.24092338  1
  O2-  O187  1  0.82248741  0.07467107  0.56847350  1
  O2-  O188  1  0.81883022  0.07732692  0.91412504  1
  O2-  O189  1  0.82032364  0.57489538  0.24676804  1
  O2-  O190  1  0.82016837  0.56355712  0.57554795  1
  O2-  O191  1  0.82053330  0.57007415  0.89925656  1
  O2-  O192  1  0.03467502  0.08862260  0.26122348  1
  O2-  O193  1  0.04771608  0.08728474  0.60710958  1
  O2-  O194  1  0.04275715  0.08468298  0.93384261  1
  O2-  O195  1  0.04810796  0.58272064  0.27277032  1
  O2-  O196  1  0.03672624  0.58032517  0.59387027  1
  O2-  O197  1  0.03762298  0.58614067  0.93401257  1
  O2-  O198  1  0.54703243  0.08563627  0.27124867  1
  O2-  O199  1  0.55151056  0.08460593  0.60591624  1
  O2-  O200  1  0.54931381  0.08019193  0.93929460  1
  O2-  O201  1  0.54156660  0.58571130  0.27192862  1
  O2-  O202  1  0.54029964  0.58187701  0.59558096  1
  O2-  O203  1  0.54569066  0.58256854  0.93084668  1
  O2-  O204  1  0.16972199  0.20667341  0.26442150  1
  O2-  O205  1  0.15660383  0.21551219  0.60247709  1
  O2-  O206  1  0.16586865  0.20047597  0.93615960  1
  O2-  O207  1  0.16798103  0.70516332  0.27375982  1
  O2-  O208  1  0.17414386  0.69341496  0.59816159  1
  O2-  O209  1  0.16981352  0.70895073  0.93524393  1
  O2-  O210  1  0.66366793  0.20790352  0.26989359  1
  O2-  O211  1  0.66529185  0.20967041  0.60234782  1
  O2-  O212  1  0.66522954  0.20120786  0.93436092  1
  O2-  O213  1  0.66023481  0.70708114  0.26961955  1
  O2-  O214  1  0.67131828  0.70230194  0.59510444  1
  O2-  O215  1  0.66758173  0.71296787  0.93566918  1
  O2-  O216  1  0.08040678  0.45827243  0.06705526  1
  O2-  O217  1  0.07791221  0.45139093  0.40301483  1
  O2-  O218  1  0.08308369  0.45324952  0.72424564  1
  O2-  O219  1  0.07724270  0.95600830  0.06489586  1
  O2-  O220  1  0.07984018  0.96681915  0.40003683  1
  O2-  O221  1  0.08817632  0.95542435  0.73119731  1
  O2-  O222  1  0.58578322  0.45392692  0.05941721  1
  O2-  O223  1  0.58716729  0.46111914  0.40375219  1
  O2-  O224  1  0.58214977  0.45588977  0.72660469  1
  O2-  O225  1  0.58674582  0.96023041  0.07427069  1
  O2-  O226  1  0.58618716  0.95731289  0.39582387  1
  O2-  O227  1  0.58356188  0.95640346  0.73516675  1
  O2-  O228  1  0.20432377  0.33122883  0.06334489  1
  O2-  O229  1  0.20915268  0.32892133  0.40169029  1
  O2-  O230  1  0.20880627  0.33949561  0.72916634  1
  O2-  O231  1  0.20626211  0.83161185  0.07125620  1
  O2-  O232  1  0.20474355  0.83622245  0.40349751  1
  O2-  O233  1  0.20003172  0.82822804  0.72234180  1
  O2-  O234  1  0.70163148  0.33178354  0.05821251  1
  O2-  O235  1  0.71021705  0.33230521  0.40308372  1
  O2-  O236  1  0.70300983  0.33832106  0.73215676  1
  O2-  O237  1  0.71223617  0.83394291  0.07361305  1
  O2-  O238  1  0.70403863  0.83510852  0.39449008  1
  O2-  O239  1  0.70988591  0.82663981  0.73119667  1
  O2-  O240  1  0.46428407  0.41249157  0.27294251  1
  O2-  O241  1  0.45876699  0.41336520  0.59394941  1
  O2-  O242  1  0.46215436  0.41281431  0.92849681  1
  O2-  O243  1  0.45890246  0.91327442  0.26841246  1
  O2-  O244  1  0.45677773  0.92432255  0.59942956  1
  O2-  O245  1  0.45868971  0.91675433  0.94330673  1
  O2-  O246  1  0.94345236  0.42072088  0.27943604  1
  O2-  O247  1  0.95603145  0.40912171  0.59861916  1
  O2-  O248  1  0.95937477  0.41759799  0.93096511  1
  O2-  O249  1  0.95734713  0.91668209  0.26184527  1
  O2-  O250  1  0.95638693  0.92266030  0.60309948  1
  O2-  O251  1  0.94343086  0.91887794  0.94128031  1
  O2-  O252  1  0.33948803  0.29598882  0.26988430  1
  O2-  O253  1  0.33051002  0.28623389  0.59553826  1
  O2-  O254  1  0.33169117  0.28931373  0.93260773  1
  O2-  O255  1  0.33365723  0.79820476  0.27442601  1
  O2-  O256  1  0.33287154  0.79552735  0.59698672  1
  O2-  O257  1  0.33394300  0.80359756  0.94196326  1
  O2-  O258  1  0.83501682  0.29052473  0.27052298  1
  O2-  O259  1  0.83118721  0.29721450  0.60635480  1
  O2-  O260  1  0.83320277  0.29098155  0.93110330  1
  O2-  O261  1  0.83090130  0.78974278  0.26483629  1
  O2-  O262  1  0.83672391  0.78848624  0.59770420  1
  O2-  O263  1  0.83529578  0.78931522  0.93961363  1
  O2-  O264  1  0.42052071  0.04865481  0.06980728  1
  O2-  O265  1  0.41692236  0.04478175  0.39641472  1
  O2-  O266  1  0.41885391  0.05099064  0.73238212  1
  O2-  O267  1  0.42215508  0.53845816  0.06409218  1
  O2-  O268  1  0.41864645  0.53948245  0.40587914  1
  O2-  O269  1  0.41262152  0.53725898  0.72764507  1
  O2-  O270  1  0.91624927  0.05373235  0.06343862  1
  O2-  O271  1  0.91112589  0.04210072  0.39126980  1
  O2-  O272  1  0.92416020  0.05128681  0.73648299  1
  O2-  O273  1  0.91501090  0.53845977  0.06978677  1
  O2-  O274  1  0.91653511  0.55554567  0.39842733  1
  O2-  O275  1  0.91162079  0.53508407  0.72689450  1
  O2-  O276  1  0.29189285  0.16926029  0.07014793  1
  O2-  O277  1  0.29992056  0.16715648  0.39244637  1
  O2-  O278  1  0.28080228  0.16563322  0.73285813  1
  O2-  O279  1  0.30072995  0.67018454  0.06518114  1
  O2-  O280  1  0.29741452  0.67075421  0.40387376  1
  O2-  O281  1  0.29985678  0.66448761  0.72729214  1
  O2-  O282  1  0.79120294  0.16729414  0.06669926  1
  O2-  O283  1  0.79135969  0.16057669  0.39518661  1
  O2-  O284  1  0.79253115  0.17054281  0.73627610  1
  O2-  O285  1  0.78813078  0.66376194  0.07116239  1
  O2-  O286  1  0.78841383  0.66609241  0.39879992  1
  O2-  O287  1  0.79606399  0.66030668  0.72665552  1
