# generated using pymatgen
data_Ca2Al2SiO7
_symmetry_space_group_name_H-M   'P 1'
_cell_length_a   15.45678329
_cell_length_b   15.45764702
_cell_length_c   15.28275984
_cell_angle_alpha   90.00324545
_cell_angle_beta   89.99916129
_cell_angle_gamma   89.99139837
_symmetry_Int_Tables_number   1
_chemical_formula_structural   Ca2Al2SiO7
_chemical_formula_sum   'Ca48 Al48 Si24 O168'
_cell_volume   3651.44098955
_cell_formula_units_Z   24
loop_
 _symmetry_equiv_pos_site_id
 _symmetry_equiv_pos_as_xyz
  1  'x, y, z'
loop_
 _atom_type_symbol
 _atom_type_oxidation_number
  Ca2+  2.0
  Al0+  0.0
  Si0+  0.0
  O2-  -2.0
loop_
 _atom_site_type_symbol
 _atom_site_label
 _atom_site_symmetry_multiplicity
 _atom_site_fract_x
 _atom_site_fract_y
 _atom_site_fract_z
 _atom_site_occupancy
  Ca2+  Ca0  1  0.17329965  0.07736559  0.17915735  1
  Ca2+  Ca1  1  0.17457810  0.08781311  0.50596521  1
  Ca2+  Ca2  1  0.17071550  0.09328900  0.83129673  1
  Ca2+  Ca3  1  0.16177239  0.57404328  0.16686681  1
  Ca2+  Ca4  1  0.16152387  0.57749561  0.50227899  1
  Ca2+  Ca5  1  0.16933998  0.58149183  0.84315554  1
  Ca2+  Ca6  1  0.66975177  0.08036901  0.17325127  1
  Ca2+  Ca7  1  0.66984362  0.08601774  0.50650448  1
  Ca2+  Ca8  1  0.66096091  0.07340449  0.83381891  1
  Ca2+  Ca9  1  0.67227738  0.58202352  0.17185578  1
  Ca2+  Ca10  1  0.67564584  0.57564978  0.50577805  1
  Ca2+  Ca11  1  0.66682432  0.57707292  0.83699054  1
  Ca2+  Ca12  1  0.07603335  0.34378244  0.16400953  1
  Ca2+  Ca13  1  0.07655439  0.32889086  0.49747101  1
  Ca2+  Ca14  1  0.07396918  0.33611569  0.82746399  1
  Ca2+  Ca15  1  0.07953454  0.83242810  0.16311332  1
  Ca2+  Ca16  1  0.07664413  0.83109360  0.49473918  1
  Ca2+  Ca17  1  0.08124763  0.82044413  0.82398175  1
  Ca2+  Ca18  1  0.57710071  0.32492829  0.16124878  1
  Ca2+  Ca19  1  0.58213447  0.32462310  0.49885888  1
  Ca2+  Ca20  1  0.57139340  0.33181543  0.82250603  1
  Ca2+  Ca21  1  0.58448146  0.82751285  0.15888726  1
  Ca2+  Ca22  1  0.58516366  0.83794451  0.49859384  1
  Ca2+  Ca23  1  0.59072947  0.83076619  0.83187964  1
  Ca2+  Ca24  1  0.32390910  0.41663430  0.16610552  1
  Ca2+  Ca25  1  0.32746633  0.41092816  0.50432804  1
  Ca2+  Ca26  1  0.32826416  0.41612782  0.84391950  1
  Ca2+  Ca27  1  0.32496484  0.92097927  0.17665275  1
  Ca2+  Ca28  1  0.32759226  0.92771678  0.50185406  1
  Ca2+  Ca29  1  0.33436872  0.92613724  0.83434728  1
  Ca2+  Ca30  1  0.84034631  0.42242574  0.17523169  1
  Ca2+  Ca31  1  0.83564374  0.41763986  0.50468244  1
  Ca2+  Ca32  1  0.82952844  0.40669729  0.83432897  1
  Ca2+  Ca33  1  0.83038927  0.92201381  0.17483711  1
  Ca2+  Ca34  1  0.83413635  0.91976094  0.50537751  1
  Ca2+  Ca35  1  0.82602087  0.91193246  0.83479525  1
  Ca2+  Ca36  1  0.41840369  0.16693817  0.16585513  1
  Ca2+  Ca37  1  0.42560616  0.15856302  0.49945340  1
  Ca2+  Ca38  1  0.41714875  0.17813212  0.82272905  1
  Ca2+  Ca39  1  0.42170382  0.66451472  0.15703673  1
  Ca2+  Ca40  1  0.42003887  0.66852975  0.49717701  1
  Ca2+  Ca41  1  0.42134550  0.66167650  0.83307191  1
  Ca2+  Ca42  1  0.91276351  0.17758948  0.16544549  1
  Ca2+  Ca43  1  0.91225722  0.17614813  0.49368673  1
  Ca2+  Ca44  1  0.92440625  0.17663284  0.82571476  1
  Ca2+  Ca45  1  0.91928841  0.67052392  0.16453202  1
  Ca2+  Ca46  1  0.91499646  0.67661527  0.49725504  1
  Ca2+  Ca47  1  0.93055766  0.66860457  0.82646498  1
  Al0+  Al48  1  -0.00122918  0.00253718  -0.00035390  1
  Al0+  Al49  1  -0.00242012  -0.00039118  0.33578238  1
  Al0+  Al50  1  0.00156438  -0.00119107  0.66364729  1
  Al0+  Al51  1  -0.00141995  0.50123844  -0.00569105  1
  Al0+  Al52  1  0.00025347  0.50147022  0.34000527  1
  Al0+  Al53  1  0.00103379  0.50160018  0.66051490  1
  Al0+  Al54  1  0.50088954  -0.00226449  0.00576891  1
  Al0+  Al55  1  0.49894416  -0.00166980  0.32999511  1
  Al0+  Al56  1  0.49938743  -0.00024837  0.67334592  1
  Al0+  Al57  1  0.50043667  0.49978697  -0.00278366  1
  Al0+  Al58  1  0.49937203  0.49879275  0.33220129  1
  Al0+  Al59  1  0.50085971  0.50048192  0.66484183  1
  Al0+  Al60  1  0.24957234  0.25029616  0.00360183  1
  Al0+  Al61  1  0.25133064  0.25101936  0.34088300  1
  Al0+  Al62  1  0.24879463  0.25239739  0.66563245  1
  Al0+  Al63  1  0.25189487  0.75155917  -0.00037697  1
  Al0+  Al64  1  0.25085325  0.74873367  0.33612531  1
  Al0+  Al65  1  0.25175620  0.74954186  0.66241788  1
  Al0+  Al66  1  0.74951943  0.24817063  -0.00385950  1
  Al0+  Al67  1  0.74788948  0.24885093  0.32624865  1
  Al0+  Al68  1  0.74865942  0.25021481  0.66708298  1
  Al0+  Al69  1  0.74824206  0.74970500  0.00043049  1
  Al0+  Al70  1  0.75161314  0.74857555  0.33308167  1
  Al0+  Al71  1  0.75123938  0.74884171  0.66838853  1
  Al0+  Al72  1  0.07431650  0.67903217  0.64876410  1
  Al0+  Al73  1  0.68065672  0.92916410  0.68028885  1
  Al0+  Al74  1  0.82032447  0.57106660  0.34723813  1
  Al0+  Al75  1  0.07203652  0.17904905  0.65178175  1
  Al0+  Al76  1  0.92734591  0.32016551  0.65043286  1
  Al0+  Al77  1  0.56876102  0.17702395  0.65350580  1
  Al0+  Al78  1  0.31878478  0.07123867  0.68244166  1
  Al0+  Al79  1  0.81875337  0.07262637  0.34624537  1
  Al0+  Al80  1  0.92899977  0.32178528  0.98651660  1
  Al0+  Al81  1  0.17673315  0.42968248  0.01408807  1
  Al0+  Al82  1  0.93070985  0.32136745  0.31907765  1
  Al0+  Al83  1  0.42909132  0.31859477  0.98787444  1
  Al0+  Al84  1  0.68054485  0.92851265  0.01611523  1
  Al0+  Al85  1  0.67953391  0.42822769  0.68033234  1
  Al0+  Al86  1  0.17909385  0.43062699  0.34936157  1
  Al0+  Al87  1  0.42820143  0.32389075  0.65042204  1
  Al0+  Al88  1  0.57144598  0.67914024  0.98581832  1
  Al0+  Al89  1  0.07112565  0.68138587  0.98821774  1
  Al0+  Al90  1  0.92873614  0.82232730  0.31780235  1
  Al0+  Al91  1  0.92756696  0.82005604  0.65219385  1
  Al0+  Al92  1  0.32288846  0.57220261  0.01431491  1
  Al0+  Al93  1  0.17665103  0.92695528  0.34884060  1
  Al0+  Al94  1  0.32195346  0.07066268  0.34938239  1
  Al0+  Al95  1  0.56953022  0.17792080  0.31778896  1
  Si0+  Si96  1  0.92772466  0.82428733  0.98443428  1
  Si0+  Si97  1  0.17935349  0.43159324  0.68231461  1
  Si0+  Si98  1  0.57112947  0.67788111  0.31943158  1
  Si0+  Si99  1  0.82225467  0.57085107  0.68543029  1
  Si0+  Si100  1  0.42630900  0.32363736  0.31470996  1
  Si0+  Si101  1  0.43020966  0.82160838  0.65210675  1
  Si0+  Si102  1  0.57120020  0.17525582  0.98246170  1
  Si0+  Si103  1  0.42899206  0.81903028  0.31819360  1
  Si0+  Si104  1  0.67648033  0.42737542  0.34760439  1
  Si0+  Si105  1  0.57162795  0.67893703  0.65117107  1
  Si0+  Si106  1  0.17803772  0.92886143  0.01269061  1
  Si0+  Si107  1  0.82254441  0.07305273  0.01722038  1
  Si0+  Si108  1  0.32037475  0.07127815  0.01559538  1
  Si0+  Si109  1  0.42846951  0.82333508  0.98264588  1
  Si0+  Si110  1  0.32499894  0.57160881  0.35096181  1
  Si0+  Si111  1  0.82462862  0.07342251  0.68405747  1
  Si0+  Si112  1  0.67884011  0.92732268  0.34871888  1
  Si0+  Si113  1  0.81978827  0.56949420  0.01354381  1
  Si0+  Si114  1  0.07381658  0.17865055  0.31763534  1
  Si0+  Si115  1  0.07248473  0.17619830  0.98593501  1
  Si0+  Si116  1  0.32243920  0.57314754  0.68131806  1
  Si0+  Si117  1  0.67826136  0.42694958  0.01463519  1
  Si0+  Si118  1  0.17823832  0.92593458  0.68405702  1
  Si0+  Si119  1  0.07292292  0.67896959  0.31551251  1
  O2-  O120  1  0.24784022  0.00073674  0.05585449  1
  O2-  O121  1  0.24502038  0.00297680  0.39815276  1
  O2-  O122  1  0.24185114  -0.00136921  0.73045721  1
  O2-  O123  1  0.24900484  0.50227177  0.06419047  1
  O2-  O124  1  0.25645686  0.50367562  0.39546978  1
  O2-  O125  1  0.25110805  0.50280775  0.72332863  1
  O2-  O126  1  0.75480449  0.00328943  0.06160141  1
  O2-  O127  1  0.74549642  -0.00338170  0.39342123  1
  O2-  O128  1  0.75646182  0.00295239  0.72772910  1
  O2-  O129  1  0.75126917  0.49599413  0.05711536  1
  O2-  O130  1  0.74689110  0.49409898  0.39188459  1
  O2-  O131  1  0.75695297  0.49911848  0.73008155  1
  O2-  O132  1  0.00629101  0.24753734  0.27107816  1
  O2-  O133  1  -0.00448912  0.24486666  0.60030084  1
  O2-  O134  1  0.00525896  0.24716684  0.94350083  1
  O2-  O135  1  0.00676544  0.75042499  0.27125686  1
  O2-  O136  1  0.00232079  0.75182616  0.60103756  1
  O2-  O137  1  -0.00056926  0.75878280  0.94106605  1
  O2-  O138  1  0.49383479  0.25273697  0.27199317  1
  O2-  O139  1  0.49894256  0.25014059  0.60167646  1
  O2-  O140  1  0.50290632  0.24422314  0.93934322  1
  O2-  O141  1  0.49931315  0.74735299  0.27623237  1
  O2-  O142  1  0.50216781  0.75144876  0.60924293  1
  O2-  O143  1  0.49573868  0.75300557  0.93859093  1
  O2-  O144  1  0.07163172  0.17022523  0.09115553  1
  O2-  O145  1  0.07285517  0.18117982  0.42278717  1
  O2-  O146  1  0.07245603  0.18462051  0.76614392  1
  O2-  O147  1  0.06744938  0.68198390  0.10131290  1
  O2-  O148  1  0.07267908  0.68015969  0.42078768  1
  O2-  O149  1  0.07563579  0.67942605  0.76296733  1
  O2-  O150  1  0.57072007  0.17606305  0.08834356  1
  O2-  O151  1  0.56990110  0.17738285  0.43043079  1
  O2-  O152  1  0.56467913  0.17654299  0.76738817  1
  O2-  O153  1  0.57221814  0.68086682  0.09941466  1
  O2-  O154  1  0.56957189  0.67843654  0.42472089  1
  O2-  O155  1  0.57037261  0.67817681  0.75620529  1
  O2-  O156  1  0.17813815  0.43336779  0.23612398  1
  O2-  O157  1  0.18031891  0.43280587  0.57720622  1
  O2-  O158  1  0.17709004  0.43055792  0.90046419  1
  O2-  O159  1  0.18096005  0.92660760  0.23398522  1
  O2-  O160  1  0.18299194  0.92346177  0.57908382  1
  O2-  O161  1  0.17939230  0.92859615  0.90778119  1
  O2-  O162  1  0.67422780  0.43125614  0.24147875  1
  O2-  O163  1  0.67809239  0.43297501  0.56719808  1
  O2-  O164  1  0.67858609  0.42849601  0.90963071  1
  O2-  O165  1  0.67992192  0.92662403  0.24287563  1
  O2-  O166  1  0.67951688  0.92893406  0.56728354  1
  O2-  O167  1  0.68140687  0.92888128  0.90303898  1
  O2-  O168  1  0.43016395  0.31554896  0.10113745  1
  O2-  O169  1  0.42937113  0.32874487  0.41966340  1
  O2-  O170  1  0.42846685  0.32421256  0.76452727  1
  O2-  O171  1  0.42953339  0.82445209  0.08844268  1
  O2-  O172  1  0.43094786  0.81898239  0.42352013  1
  O2-  O173  1  0.42868610  0.81983694  0.75717446  1
  O2-  O174  1  0.92870997  0.32259714  0.09978507  1
  O2-  O175  1  0.92963468  0.32033736  0.43137813  1
  O2-  O176  1  0.93016308  0.32048661  0.76448693  1
  O2-  O177  1  0.92841385  0.82413258  0.09013090  1
  O2-  O178  1  0.92460342  0.81846825  0.43016245  1
  O2-  O179  1  0.92752039  0.81539418  0.76649565  1
  O2-  O180  1  0.32149178  0.06699959  0.23479608  1
  O2-  O181  1  0.32101927  0.06665453  0.57003778  1
  O2-  O182  1  0.32066171  0.07121297  0.91051829  1
  O2-  O183  1  0.32834529  0.57216812  0.24580742  1
  O2-  O184  1  0.32351036  0.57430654  0.57610226  1
  O2-  O185  1  0.32222868  0.57078689  0.90043976  1
  O2-  O186  1  0.81613333  0.07235000  0.23272008  1
  O2-  O187  1  0.82194872  0.07378339  0.57849978  1
  O2-  O188  1  0.82406263  0.07279260  0.91190510  1
  O2-  O189  1  0.81841655  0.57133394  0.23324750  1
  O2-  O190  1  0.81786671  0.57303189  0.57985306  1
  O2-  O191  1  0.81817039  0.57059407  0.90866446  1
  O2-  O192  1  0.04882418  0.08410652  0.27332963  1
  O2-  O193  1  0.05607787  0.07662092  0.60364996  1
  O2-  O194  1  0.04560120  0.08444419  0.93516594  1
  O2-  O195  1  0.04191127  0.58637950  0.27126910  1
  O2-  O196  1  0.04432129  0.58236773  0.59509808  1
  O2-  O197  1  0.03741035  0.58756878  0.93111878  1
  O2-  O198  1  0.53841458  0.08102966  0.26258472  1
  O2-  O199  1  0.53854723  0.07840570  0.60153662  1
  O2-  O200  1  0.54466798  0.08047765  0.93994161  1
  O2-  O201  1  0.54484464  0.58568202  0.27130704  1
  O2-  O202  1  0.54128795  0.58962166  0.60092848  1
  O2-  O203  1  0.54215838  0.58304333  0.93043907  1
  O2-  O204  1  0.16933806  0.20277420  0.27387117  1
  O2-  O205  1  0.16760129  0.21277330  0.59752769  1
  O2-  O206  1  0.16693053  0.20022001  0.94153780  1
  O2-  O207  1  0.16878332  0.70040077  0.27135136  1
  O2-  O208  1  0.17313800  0.70551295  0.59547471  1
  O2-  O209  1  0.16893980  0.70969484  0.93476734  1
  O2-  O210  1  0.66340436  0.21001260  0.25895598  1
  O2-  O211  1  0.66809105  0.20309873  0.60281962  1
  O2-  O212  1  0.66532379  0.19816948  0.93713872  1
  O2-  O213  1  0.66201554  0.70647770  0.27114938  1
  O2-  O214  1  0.66354393  0.70575179  0.60459282  1
  O2-  O215  1  0.66697557  0.71154919  0.93028577  1
  O2-  O216  1  0.07831462  0.46227781  0.06585796  1
  O2-  O217  1  0.08517054  0.46392142  0.40594884  1
  O2-  O218  1  0.08681002  0.46061576  0.72788827  1
  O2-  O219  1  0.08510959  0.95503297  0.05942604  1
  O2-  O220  1  0.07654064  0.94852610  0.39885377  1
  O2-  O221  1  0.08234584  0.94431808  0.72844719  1
  O2-  O222  1  0.58798826  0.45731759  0.06284674  1
  O2-  O223  1  0.58396455  0.45544297  0.39483605  1
  O2-  O224  1  0.58384511  0.46487121  0.73434487  1
  O2-  O225  1  0.58324987  0.95653130  0.07145703  1
  O2-  O226  1  0.58344246  0.95008184  0.39151578  1
  O2-  O227  1  0.58456025  0.95799487  0.73743441  1
  O2-  O228  1  0.20413472  0.33116719  0.06856519  1
  O2-  O229  1  0.20818058  0.33453484  0.40430068  1
  O2-  O230  1  0.20593823  0.34017113  0.73032413  1
  O2-  O231  1  0.20686562  0.83855600  0.06220672  1
  O2-  O232  1  0.21022759  0.83003167  0.40192821  1
  O2-  O233  1  0.21131557  0.83384053  0.73044687  1
  O2-  O234  1  0.70275578  0.33302686  0.05978533  1
  O2-  O235  1  0.70004430  0.33278078  0.39002647  1
  O2-  O236  1  0.70525335  0.33103517  0.73625957  1
  O2-  O237  1  0.70966350  0.83109908  0.06995359  1
  O2-  O238  1  0.70377480  0.83355418  0.39429979  1
  O2-  O239  1  0.71048536  0.83158744  0.73501790  1
  O2-  O240  1  0.45384901  0.41663284  0.26688478  1
  O2-  O241  1  0.45738482  0.42191421  0.59679268  1
  O2-  O242  1  0.45954276  0.41489590  0.93412205  1
  O2-  O243  1  0.45639776  0.90927382  0.26772036  1
  O2-  O244  1  0.45963408  0.91250381  0.60528595  1
  O2-  O245  1  0.45766158  0.91623971  0.93665570  1
  O2-  O246  1  0.96261742  0.41989435  0.26830373  1
  O2-  O247  1  0.95719848  0.41837167  0.59909140  1
  O2-  O248  1  0.95697753  0.41735000  0.92977187  1
  O2-  O249  1  0.95503836  0.92034109  0.26344059  1
  O2-  O250  1  0.95021730  0.92011129  0.60157044  1
  O2-  O251  1  0.94902905  0.91921430  0.93918326  1
  O2-  O252  1  0.33170462  0.29798466  0.27096104  1
  O2-  O253  1  0.32934866  0.29742836  0.60030465  1
  O2-  O254  1  0.33130675  0.28920099  0.93511206  1
  O2-  O255  1  0.33707920  0.79134014  0.27043996  1
  O2-  O256  1  0.34061973  0.79222852  0.60164457  1
  O2-  O257  1  0.33457433  0.80184877  0.93581336  1
  O2-  O258  1  0.83378179  0.29218201  0.26407069  1
  O2-  O259  1  0.82727782  0.29670885  0.59967720  1
  O2-  O260  1  0.83251860  0.28959909  0.93233439  1
  O2-  O261  1  0.83293749  0.78675140  0.26295071  1
  O2-  O262  1  0.83030922  0.78778199  0.59847070  1
  O2-  O263  1  0.83501593  0.79454066  0.93995786  1
  O2-  O264  1  0.41142616  0.04153351  0.06350991  1
  O2-  O265  1  0.41854645  0.03377801  0.40095784  1
  O2-  O266  1  0.41269585  0.03605340  0.73932220  1
  O2-  O267  1  0.42145412  0.54242268  0.06712636  1
  O2-  O268  1  0.41896805  0.54679642  0.39809663  1
  O2-  O269  1  0.41508534  0.54684684  0.72770344  1
  O2-  O270  1  0.91654619  0.04939780  0.06433052  1
  O2-  O271  1  0.91559575  0.04559665  0.40005852  1
  O2-  O272  1  0.91939230  0.04921881  0.72926800  1
  O2-  O273  1  0.91172357  0.54317730  0.06074714  1
  O2-  O274  1  0.91566524  0.54359003  0.40329488  1
  O2-  O275  1  0.91843025  0.54852660  0.72748994  1
  O2-  O276  1  0.29398174  0.16204731  0.06520645  1
  O2-  O277  1  0.30204124  0.17047208  0.40138536  1
  O2-  O278  1  0.28762997  0.16894121  0.73544063  1
  O2-  O279  1  0.30003633  0.67326433  0.06547140  1
  O2-  O280  1  0.30106098  0.66546168  0.39745689  1
  O2-  O281  1  0.29653451  0.66574126  0.72870822  1
  O2-  O282  1  0.79389323  0.16621921  0.06347501  1
  O2-  O283  1  0.78500692  0.16890598  0.39889504  1
  O2-  O284  1  0.79813202  0.16626024  0.73106789  1
  O2-  O285  1  0.78978150  0.66048549  0.06184441  1
  O2-  O286  1  0.78487924  0.66538522  0.40281155  1
  O2-  O287  1  0.79219994  0.66223886  0.73333183  1
