# generated using pymatgen
data_Ca2Al2SiO7
_symmetry_space_group_name_H-M   'P 1'
_cell_length_a   15.46020356
_cell_length_b   15.46148625
_cell_length_c   15.28514652
_cell_angle_alpha   89.97490482
_cell_angle_beta   90.00745959
_cell_angle_gamma   89.99172114
_symmetry_Int_Tables_number   1
_chemical_formula_structural   Ca2Al2SiO7
_chemical_formula_sum   'Ca48 Al48 Si24 O168'
_cell_volume   3653.72622743
_cell_formula_units_Z   24
loop_
 _symmetry_equiv_pos_site_id
 _symmetry_equiv_pos_as_xyz
  1  'x, y, z'
loop_
 _atom_type_symbol
 _atom_type_oxidation_number
  Ca2+  2.0
  Al0+  0.0
  Si0+  0.0
  O2-  -2.0
loop_
 _atom_site_type_symbol
 _atom_site_label
 _atom_site_symmetry_multiplicity
 _atom_site_fract_x
 _atom_site_fract_y
 _atom_site_fract_z
 _atom_site_occupancy
  Ca2+  Ca0  1  0.15962225  0.07354466  0.17128066  1
  Ca2+  Ca1  1  0.16312983  0.07880808  0.50527744  1
  Ca2+  Ca2  1  0.16663883  0.08033143  0.83802971  1
  Ca2+  Ca3  1  0.17569840  0.58964951  0.17095281  1
  Ca2+  Ca4  1  0.16853548  0.59005102  0.50794938  1
  Ca2+  Ca5  1  0.17776350  0.59289393  0.83816084  1
  Ca2+  Ca6  1  0.67120919  0.08505550  0.17437787  1
  Ca2+  Ca7  1  0.68297253  0.08069490  0.50795968  1
  Ca2+  Ca8  1  0.67205969  0.08482034  0.83709378  1
  Ca2+  Ca9  1  0.66573969  0.58402993  0.16988565  1
  Ca2+  Ca10  1  0.66568909  0.57793416  0.50894260  1
  Ca2+  Ca11  1  0.67362539  0.59014404  0.83556456  1
  Ca2+  Ca12  1  0.08509618  0.31874898  0.16073568  1
  Ca2+  Ca13  1  0.08389739  0.32019133  0.49615845  1
  Ca2+  Ca14  1  0.08722888  0.32126893  0.82895804  1
  Ca2+  Ca15  1  0.08200141  0.83678584  0.16894170  1
  Ca2+  Ca16  1  0.07590533  0.82584976  0.49636632  1
  Ca2+  Ca17  1  0.07881180  0.83012163  0.82670147  1
  Ca2+  Ca18  1  0.58214320  0.33002442  0.15993569  1
  Ca2+  Ca19  1  0.58616102  0.34004258  0.49739477  1
  Ca2+  Ca20  1  0.58132696  0.33500360  0.83396376  1
  Ca2+  Ca21  1  0.57741866  0.82339719  0.15728343  1
  Ca2+  Ca22  1  0.58443674  0.81899558  0.49617510  1
  Ca2+  Ca23  1  0.57758113  0.82251000  0.83058352  1
  Ca2+  Ca24  1  0.33969694  0.41981750  0.16344169  1
  Ca2+  Ca25  1  0.32796251  0.42359679  0.50760776  1
  Ca2+  Ca26  1  0.33580002  0.42647422  0.83717009  1
  Ca2+  Ca27  1  0.32207007  0.90868199  0.16843563  1
  Ca2+  Ca28  1  0.32412124  0.92164131  0.50618852  1
  Ca2+  Ca29  1  0.32707752  0.91766570  0.84244007  1
  Ca2+  Ca30  1  0.82661620  0.42385680  0.17197231  1
  Ca2+  Ca31  1  0.82042314  0.42270618  0.50933997  1
  Ca2+  Ca32  1  0.83081018  0.43033670  0.83548496  1
  Ca2+  Ca33  1  0.83514135  0.92221820  0.17396983  1
  Ca2+  Ca34  1  0.84604456  0.92139568  0.50159904  1
  Ca2+  Ca35  1  0.83746466  0.91804702  0.83194322  1
  Ca2+  Ca36  1  0.42416547  0.17548409  0.15323196  1
  Ca2+  Ca37  1  0.41513221  0.16713112  0.49890068  1
  Ca2+  Ca38  1  0.41677857  0.17121691  0.82940427  1
  Ca2+  Ca39  1  0.42710635  0.66759797  0.15708010  1
  Ca2+  Ca40  1  0.42614369  0.65768605  0.49945828  1
  Ca2+  Ca41  1  0.42163203  0.66269863  0.83002028  1
  Ca2+  Ca42  1  0.92476662  0.16115743  0.16589991  1
  Ca2+  Ca43  1  0.92362551  0.15844598  0.49577221  1
  Ca2+  Ca44  1  0.92699341  0.16351507  0.82581265  1
  Ca2+  Ca45  1  0.91791533  0.67126948  0.16285591  1
  Ca2+  Ca46  1  0.91889276  0.67476058  0.49507556  1
  Ca2+  Ca47  1  0.91792631  0.67005623  0.82048327  1
  Al0+  Al48  1  0.00060372  -0.00060066  -0.00043290  1
  Al0+  Al49  1  0.00161155  -0.00109664  0.33386177  1
  Al0+  Al50  1  0.00041822  -0.00076158  0.66466106  1
  Al0+  Al51  1  0.00034524  0.49959352  0.00627946  1
  Al0+  Al52  1  0.00125283  0.49920631  0.33015990  1
  Al0+  Al53  1  -0.00088390  0.49601465  0.66628674  1
  Al0+  Al54  1  0.50088302  -0.00071655  -0.00619082  1
  Al0+  Al55  1  0.50005632  0.00028318  0.33432562  1
  Al0+  Al56  1  0.49956379  0.00163091  0.66898937  1
  Al0+  Al57  1  0.50152642  0.49852744  -0.00295417  1
  Al0+  Al58  1  0.49971261  0.49979197  0.33232581  1
  Al0+  Al59  1  0.49673759  0.49822687  0.67006400  1
  Al0+  Al60  1  0.25077032  0.24969481  -0.00754376  1
  Al0+  Al61  1  0.25070337  0.25159063  0.32809144  1
  Al0+  Al62  1  0.25089381  0.24954975  0.66506593  1
  Al0+  Al63  1  0.24930940  0.75075483  0.00735766  1
  Al0+  Al64  1  0.25003744  0.75117426  0.33849226  1
  Al0+  Al65  1  0.24978123  0.75175270  0.66767123  1
  Al0+  Al66  1  0.75263575  0.25199062  -0.00261492  1
  Al0+  Al67  1  0.75037078  0.25118643  0.34215297  1
  Al0+  Al68  1  0.74915139  0.24878647  0.67612840  1
  Al0+  Al69  1  0.75078328  0.75237015  0.00172672  1
  Al0+  Al70  1  0.75002278  0.75079134  0.32439916  1
  Al0+  Al71  1  0.74760876  0.75124597  0.66021864  1
  Al0+  Al72  1  0.93067247  0.82056046  0.31537706  1
  Al0+  Al73  1  0.32133910  0.56944589  0.01504926  1
  Al0+  Al74  1  0.06834681  0.17809868  0.98532213  1
  Al0+  Al75  1  0.56910356  0.67829290  0.31893190  1
  Al0+  Al76  1  0.07351418  0.67677930  0.31676885  1
  Al0+  Al77  1  0.67918338  0.43181913  0.34628916  1
  Al0+  Al78  1  0.31695766  0.57152180  0.67965253  1
  Al0+  Al79  1  0.82084925  0.57299909  0.67867984  1
  Al0+  Al80  1  0.18055025  0.93008595  0.35013291  1
  Al0+  Al81  1  0.82233994  0.06807698  0.68220680  1
  Al0+  Al82  1  0.32147812  0.07233442  0.68084333  1
  Al0+  Al83  1  0.07046410  0.18006327  0.31891435  1
  Al0+  Al84  1  0.42946251  0.32073583  0.98215455  1
  Al0+  Al85  1  0.57241418  0.67923223  0.98356466  1
  Al0+  Al86  1  0.82237278  0.57407244  0.01538281  1
  Al0+  Al87  1  0.07057278  0.18078608  0.65183150  1
  Al0+  Al88  1  0.92784104  0.81979956  0.65191728  1
  Al0+  Al89  1  0.56733268  0.67855232  0.65245156  1
  Al0+  Al90  1  0.17907106  0.93047865  0.01484128  1
  Al0+  Al91  1  0.42531427  0.81975490  0.98531139  1
  Al0+  Al92  1  0.07279105  0.67595834  0.65518243  1
  Al0+  Al93  1  0.67652416  0.42881948  0.68514493  1
  Al0+  Al94  1  0.57475614  0.17777598  0.98478720  1
  Al0+  Al95  1  0.81946014  0.06893210  0.34654655  1
  Si0+  Si96  1  0.82080466  0.07113890  0.01458108  1
  Si0+  Si97  1  0.07056072  0.67769954  0.98784702  1
  Si0+  Si98  1  0.67824191  0.93004819  0.01474974  1
  Si0+  Si99  1  0.57252509  0.17938751  0.32297216  1
  Si0+  Si100  1  0.17696301  0.42574950  0.68161335  1
  Si0+  Si101  1  0.68046125  0.42852312  0.01749456  1
  Si0+  Si102  1  0.57263438  0.17789533  0.65014664  1
  Si0+  Si103  1  0.92541413  0.32173125  0.31752664  1
  Si0+  Si104  1  0.17835145  0.42595949  0.34695899  1
  Si0+  Si105  1  0.32350689  0.07542422  0.34778531  1
  Si0+  Si106  1  0.67587242  0.92766262  0.68362968  1
  Si0+  Si107  1  0.31961526  0.56897714  0.34814362  1
  Si0+  Si108  1  0.92447292  0.32078177  0.65003741  1
  Si0+  Si109  1  0.17923907  0.92997622  0.68448567  1
  Si0+  Si110  1  0.17825818  0.42557329  0.01745536  1
  Si0+  Si111  1  0.92982711  0.82073569  0.98510258  1
  Si0+  Si112  1  0.42807549  0.82434190  0.31869972  1
  Si0+  Si113  1  0.92889664  0.32489579  0.98279621  1
  Si0+  Si114  1  0.42964020  0.32064684  0.31886833  1
  Si0+  Si115  1  0.43037721  0.31941295  0.64920154  1
  Si0+  Si116  1  0.42697857  0.82511600  0.64934449  1
  Si0+  Si117  1  0.67522266  0.92619881  0.34927636  1
  Si0+  Si118  1  0.32343698  0.07288535  0.01593327  1
  Si0+  Si119  1  0.82346071  0.57413022  0.34881680  1
  O2-  O120  1  0.25584400  0.00438738  0.06171377  1
  O2-  O121  1  0.25584549  0.00666106  0.39297932  1
  O2-  O122  1  0.24936066  -0.00316863  0.72890486  1
  O2-  O123  1  0.24640899  0.49459882  0.06259278  1
  O2-  O124  1  0.24355239  0.50239949  0.38930648  1
  O2-  O125  1  0.23554699  0.50322675  0.72528982  1
  O2-  O126  1  0.74463705  0.00598411  0.05695700  1
  O2-  O127  1  0.74508204  -0.00642683  0.39338940  1
  O2-  O128  1  0.74697667  -0.00602910  0.72856513  1
  O2-  O129  1  0.74646390  0.49978244  0.06161332  1
  O2-  O130  1  0.75347196  0.50669238  0.39264382  1
  O2-  O131  1  0.74813521  0.50298450  0.73181414  1
  O2-  O132  1  -0.00436266  0.25499275  0.27217426  1
  O2-  O133  1  -0.00617038  0.25321117  0.60457710  1
  O2-  O134  1  -0.00314828  0.25560714  0.93855207  1
  O2-  O135  1  -0.00016090  0.74590393  0.26470954  1
  O2-  O136  1  -0.00384807  0.74253759  0.60481861  1
  O2-  O137  1  -0.00343573  0.74499269  0.94503785  1
  O2-  O138  1  0.49904200  0.24679193  0.27941770  1
  O2-  O139  1  0.50273903  0.24967856  0.60657076  1
  O2-  O140  1  0.50043902  0.24668560  0.93357889  1
  O2-  O141  1  0.49794878  0.75724389  0.27430335  1
  O2-  O142  1  0.49294351  0.75395724  0.60476315  1
  O2-  O143  1  0.49585491  0.74707818  0.93454759  1
  O2-  O144  1  0.06564996  0.17728884  0.09865469  1
  O2-  O145  1  0.07186261  0.18198164  0.43189239  1
  O2-  O146  1  0.07054858  0.18152411  0.76499044  1
  O2-  O147  1  0.07012969  0.67904684  0.09277258  1
  O2-  O148  1  0.07360605  0.67727169  0.43003610  1
  O2-  O149  1  0.07477623  0.68156630  0.76929654  1
  O2-  O150  1  0.57531852  0.18043320  0.09965473  1
  O2-  O151  1  0.57123144  0.18004174  0.42795870  1
  O2-  O152  1  0.57107725  0.17728150  0.75486015  1
  O2-  O153  1  0.57173574  0.68168451  0.09758556  1
  O2-  O154  1  0.56559863  0.67577351  0.43210585  1
  O2-  O155  1  0.56707721  0.68015872  0.76498742  1
  O2-  O156  1  0.18312026  0.42096333  0.24226945  1
  O2-  O157  1  0.18301155  0.42118837  0.57574277  1
  O2-  O158  1  0.17665026  0.42647275  0.91200977  1
  O2-  O159  1  0.18156947  0.93152269  0.23684850  1
  O2-  O160  1  0.18031779  0.93125066  0.57882974  1
  O2-  O161  1  0.17647695  0.93212184  0.90189617  1
  O2-  O162  1  0.67897088  0.42987606  0.23328753  1
  O2-  O163  1  0.67700796  0.43014517  0.57088303  1
  O2-  O164  1  0.68304119  0.42655642  0.91253999  1
  O2-  O165  1  0.67199395  0.93099341  0.24357049  1
  O2-  O166  1  0.67227790  0.93155358  0.57803265  1
  O2-  O167  1  0.68195663  0.92774384  0.90989452  1
  O2-  O168  1  0.43150440  0.31952430  0.09683033  1
  O2-  O169  1  0.42772067  0.32166590  0.42397323  1
  O2-  O170  1  0.42896391  0.31815294  0.75368789  1
  O2-  O171  1  0.42799139  0.81834835  0.09950433  1
  O2-  O172  1  0.42970824  0.82570497  0.42424044  1
  O2-  O173  1  0.42789369  0.82562333  0.75465716  1
  O2-  O174  1  0.92823992  0.32308660  0.08870064  1
  O2-  O175  1  0.92603373  0.32061151  0.42289238  1
  O2-  O176  1  0.92684103  0.31961689  0.75569213  1
  O2-  O177  1  0.93060039  0.82374598  0.08991298  1
  O2-  O178  1  0.93218004  0.82029679  0.42846642  1
  O2-  O179  1  0.93090493  0.82168430  0.76627767  1
  O2-  O180  1  0.32558336  0.07734519  0.24255022  1
  O2-  O181  1  0.32025170  0.07173651  0.56716552  1
  O2-  O182  1  0.32055215  0.07225476  0.91040620  1
  O2-  O183  1  0.32197436  0.56632290  0.24312209  1
  O2-  O184  1  0.31950888  0.56644565  0.56594585  1
  O2-  O185  1  0.31799074  0.56982257  0.90213779  1
  O2-  O186  1  0.81613176  0.07049260  0.23276521  1
  O2-  O187  1  0.82151522  0.06802550  0.56901038  1
  O2-  O188  1  0.82284751  0.06764959  0.90969131  1
  O2-  O189  1  0.82246677  0.57108119  0.24297549  1
  O2-  O190  1  0.81910486  0.57099362  0.56492161  1
  O2-  O191  1  0.82392329  0.57428791  0.90263059  1
  O2-  O192  1  0.03775956  0.08447987  0.26573834  1
  O2-  O193  1  0.04032918  0.08393075  0.59934284  1
  O2-  O194  1  0.03371489  0.08324453  0.93067523  1
  O2-  O195  1  0.05292234  0.57539165  0.26506698  1
  O2-  O196  1  0.05509161  0.57332357  0.60603836  1
  O2-  O197  1  0.04865346  0.58342645  0.94324231  1
  O2-  O198  1  0.54940642  0.08618908  0.27531630  1
  O2-  O199  1  0.54396351  0.08649420  0.60208121  1
  O2-  O200  1  0.55229129  0.07845700  0.93202827  1
  O2-  O201  1  0.53343657  0.58347208  0.26404485  1
  O2-  O202  1  0.53287801  0.58157396  0.60029932  1
  O2-  O203  1  0.54986809  0.57909979  0.93425258  1
  O2-  O204  1  0.16679540  0.21174683  0.26390559  1
  O2-  O205  1  0.16662518  0.21366293  0.59732932  1
  O2-  O206  1  0.16560006  0.20589681  0.93204612  1
  O2-  O207  1  0.17300841  0.70854062  0.26707547  1
  O2-  O208  1  0.16969915  0.70922082  0.60049953  1
  O2-  O209  1  0.16150581  0.70953891  0.94249122  1
  O2-  O210  1  0.66341995  0.21007860  0.27576220  1
  O2-  O211  1  0.66564978  0.20556082  0.60523618  1
  O2-  O212  1  0.67302478  0.20735201  0.93187166  1
  O2-  O213  1  0.66607796  0.70434016  0.26427918  1
  O2-  O214  1  0.66258648  0.70909167  0.59594417  1
  O2-  O215  1  0.66972221  0.71471310  0.93255487  1
  O2-  O216  1  0.08481141  0.44809383  0.06540222  1
  O2-  O217  1  0.08389347  0.44569279  0.39247955  1
  O2-  O218  1  0.07982617  0.43652042  0.72434694  1
  O2-  O219  1  0.08308101  0.96477906  0.06935516  1
  O2-  O220  1  0.08506660  0.96265390  0.40361916  1
  O2-  O221  1  0.08656785  0.95797848  0.73003598  1
  O2-  O222  1  0.58545143  0.45036633  0.06204103  1
  O2-  O223  1  0.58168474  0.46122858  0.40031747  1
  O2-  O224  1  0.57707922  0.45394402  0.73569581  1
  O2-  O225  1  0.58452220  0.95282277  0.06126848  1
  O2-  O226  1  0.58217699  0.95154724  0.39740385  1
  O2-  O227  1  0.58411250  0.95620934  0.73184097  1
  O2-  O228  1  0.20691445  0.33162443  0.06243761  1
  O2-  O229  1  0.21293678  0.33704043  0.39714498  1
  O2-  O230  1  0.21373708  0.33700358  0.73044888  1
  O2-  O231  1  0.20793122  0.83500843  0.07236386  1
  O2-  O232  1  0.21176581  0.83438033  0.40625978  1
  O2-  O233  1  0.20366361  0.83638119  0.73077681  1
  O2-  O234  1  0.70944008  0.33528714  0.06477862  1
  O2-  O235  1  0.70837667  0.33630309  0.40383825  1
  O2-  O236  1  0.70403187  0.33076117  0.73859011  1
  O2-  O237  1  0.71073835  0.84136169  0.06550305  1
  O2-  O238  1  0.70018936  0.83105150  0.39174967  1
  O2-  O239  1  0.69987743  0.83343086  0.72787003  1
  O2-  O240  1  0.46064526  0.41036243  0.26983972  1
  O2-  O241  1  0.45669373  0.41109235  0.60084809  1
  O2-  O242  1  0.45924474  0.41788421  0.92892234  1
  O2-  O243  1  0.45008249  0.91899726  0.27167157  1
  O2-  O244  1  0.45417840  0.91858247  0.60292902  1
  O2-  O245  1  0.45265640  0.91815534  0.93247487  1
  O2-  O246  1  0.94841242  0.41567746  0.27098832  1
  O2-  O247  1  0.94714217  0.41437126  0.60252898  1
  O2-  O248  1  0.95573655  0.41864981  0.93768838  1
  O2-  O249  1  0.96261521  0.91826690  0.26262832  1
  O2-  O250  1  0.96277559  0.91591394  0.59836092  1
  O2-  O251  1  0.96185690  0.91050759  0.93647816  1
  O2-  O252  1  0.33878821  0.29576084  0.26820808  1
  O2-  O253  1  0.33977202  0.28942258  0.59993842  1
  O2-  O254  1  0.33110389  0.29561015  0.92788159  1
  O2-  O255  1  0.33479256  0.79619661  0.27478565  1
  O2-  O256  1  0.33254485  0.80164115  0.60456054  1
  O2-  O257  1  0.32552030  0.79311198  0.93472981  1
  O2-  O258  1  0.83220477  0.29304870  0.27169959  1
  O2-  O259  1  0.83013189  0.29346339  0.60657420  1
  O2-  O260  1  0.83590433  0.30053389  0.93612864  1
  O2-  O261  1  0.83065018  0.79888473  0.26137713  1
  O2-  O262  1  0.82814839  0.80065818  0.59758811  1
  O2-  O263  1  0.83688245  0.79777543  0.93878983  1
  O2-  O264  1  0.41931860  0.05035980  0.05935605  1
  O2-  O265  1  0.41770402  0.05144876  0.39523682  1
  O2-  O266  1  0.41941800  0.04657869  0.73433592  1
  O2-  O267  1  0.41866165  0.53688336  0.06775439  1
  O2-  O268  1  0.40883935  0.53392965  0.39624036  1
  O2-  O269  1  0.40987190  0.53345189  0.73467403  1
  O2-  O270  1  0.91003752  0.03680950  0.06296334  1
  O2-  O271  1  0.91606385  0.03795864  0.39922891  1
  O2-  O272  1  0.91869745  0.03630459  0.73618629  1
  O2-  O273  1  0.91813528  0.54199280  0.07170058  1
  O2-  O274  1  0.91815391  0.54858966  0.39265228  1
  O2-  O275  1  0.91985802  0.54354986  0.73206750  1
  O2-  O276  1  0.29807712  0.16781745  0.05981121  1
  O2-  O277  1  0.29776842  0.16960700  0.39341457  1
  O2-  O278  1  0.28952229  0.16856961  0.73414428  1
  O2-  O279  1  0.28970925  0.66455740  0.07146982  1
  O2-  O280  1  0.29833099  0.66186881  0.39568251  1
  O2-  O281  1  0.29355223  0.67008512  0.73347642  1
  O2-  O282  1  0.79950012  0.16563154  0.05994772  1
  O2-  O283  1  0.78905576  0.16411885  0.40347098  1
  O2-  O284  1  0.79201611  0.16354740  0.73788928  1
  O2-  O285  1  0.79234777  0.67107051  0.06948950  1
  O2-  O286  1  0.79884077  0.66957149  0.39016255  1
  O2-  O287  1  0.79307981  0.67288863  0.72922239  1
