# generated using pymatgen
data_Ca2Al2SiO7
_symmetry_space_group_name_H-M   'P 1'
_cell_length_a   15.46322992
_cell_length_b   15.46195341
_cell_length_c   15.28734957
_cell_angle_alpha   89.99664707
_cell_angle_beta   90.02353629
_cell_angle_gamma   90.00717947
_symmetry_Int_Tables_number   1
_chemical_formula_structural   Ca2Al2SiO7
_chemical_formula_sum   'Ca48 Al48 Si24 O168'
_cell_volume   3655.07867480
_cell_formula_units_Z   24
loop_
 _symmetry_equiv_pos_site_id
 _symmetry_equiv_pos_as_xyz
  1  'x, y, z'
loop_
 _atom_type_symbol
 _atom_type_oxidation_number
  Ca2+  2.0
  Al0+  0.0
  Si0+  0.0
  O2-  -2.0
loop_
 _atom_site_type_symbol
 _atom_site_label
 _atom_site_symmetry_multiplicity
 _atom_site_fract_x
 _atom_site_fract_y
 _atom_site_fract_z
 _atom_site_occupancy
  Ca2+  Ca0  1  0.16902075  0.08622818  0.17292127  1
  Ca2+  Ca1  1  0.17171185  0.09002642  0.50972477  1
  Ca2+  Ca2  1  0.17339943  0.08936828  0.83095570  1
  Ca2+  Ca3  1  0.17572749  0.57223290  0.17030462  1
  Ca2+  Ca4  1  0.16603032  0.57181711  0.50997395  1
  Ca2+  Ca5  1  0.17377833  0.57479542  0.83874579  1
  Ca2+  Ca6  1  0.65961159  0.07232527  0.17469222  1
  Ca2+  Ca7  1  0.66035774  0.07667642  0.51073528  1
  Ca2+  Ca8  1  0.65237032  0.07107511  0.83119148  1
  Ca2+  Ca9  1  0.65824442  0.57393126  0.16770640  1
  Ca2+  Ca10  1  0.66587972  0.58310803  0.50380915  1
  Ca2+  Ca11  1  0.67107682  0.58656870  0.84071286  1
  Ca2+  Ca12  1  0.08990931  0.33466283  0.16597505  1
  Ca2+  Ca13  1  0.08571784  0.32763794  0.49832429  1
  Ca2+  Ca14  1  0.08426206  0.33598072  0.82416129  1
  Ca2+  Ca15  1  0.07726157  0.83128544  0.16009370  1
  Ca2+  Ca16  1  0.08295060  0.82501466  0.49927698  1
  Ca2+  Ca17  1  0.07823874  0.82238421  0.82287518  1
  Ca2+  Ca18  1  0.58607420  0.33176755  0.15790178  1
  Ca2+  Ca19  1  0.58439387  0.32337986  0.49332724  1
  Ca2+  Ca20  1  0.57082937  0.33687040  0.82611581  1
  Ca2+  Ca21  1  0.59298169  0.82330971  0.16341478  1
  Ca2+  Ca22  1  0.59145354  0.82674078  0.49929928  1
  Ca2+  Ca23  1  0.58621081  0.82484619  0.82598194  1
  Ca2+  Ca24  1  0.33192971  0.41689314  0.16496554  1
  Ca2+  Ca25  1  0.32261722  0.40727159  0.50532479  1
  Ca2+  Ca26  1  0.32688558  0.41211825  0.83915651  1
  Ca2+  Ca27  1  0.33290261  0.91934669  0.17044079  1
  Ca2+  Ca28  1  0.33600715  0.92303572  0.51116235  1
  Ca2+  Ca29  1  0.34449292  0.92296630  0.83001493  1
  Ca2+  Ca30  1  0.82214341  0.42240422  0.16678875  1
  Ca2+  Ca31  1  0.82573721  0.42048728  0.50429131  1
  Ca2+  Ca32  1  0.82507642  0.42761760  0.83700914  1
  Ca2+  Ca33  1  0.82098391  0.91667378  0.16995134  1
  Ca2+  Ca34  1  0.82135298  0.92408463  0.50829376  1
  Ca2+  Ca35  1  0.82160177  0.92283622  0.83261931  1
  Ca2+  Ca36  1  0.42354707  0.17549267  0.16463262  1
  Ca2+  Ca37  1  0.42459862  0.16806994  0.50520268  1
  Ca2+  Ca38  1  0.41825285  0.17819598  0.82405111  1
  Ca2+  Ca39  1  0.42719463  0.66219926  0.15977221  1
  Ca2+  Ca40  1  0.42756073  0.67339866  0.49963332  1
  Ca2+  Ca41  1  0.42689154  0.66758995  0.82699310  1
  Ca2+  Ca42  1  0.92371929  0.16837981  0.16510236  1
  Ca2+  Ca43  1  0.92688232  0.15775676  0.49793043  1
  Ca2+  Ca44  1  0.92288356  0.16742897  0.82358720  1
  Ca2+  Ca45  1  0.91452498  0.66365805  0.16089808  1
  Ca2+  Ca46  1  0.91835644  0.65977359  0.50370387  1
  Ca2+  Ca47  1  0.91880356  0.65765427  0.82426900  1
  Al0+  Al48  1  0.00014119  -0.00078275  -0.00130864  1
  Al0+  Al49  1  0.00070980  -0.00126646  0.32715424  1
  Al0+  Al50  1  -0.00114364  -0.00148921  0.66638952  1
  Al0+  Al51  1  0.00021714  0.49786674  0.00722930  1
  Al0+  Al52  1  0.00122878  0.49935795  0.33529443  1
  Al0+  Al53  1  -0.00100026  0.49799764  0.66847667  1
  Al0+  Al54  1  0.49920837  -0.00048693  0.00776986  1
  Al0+  Al55  1  0.49824374  0.00087158  0.33362298  1
  Al0+  Al56  1  0.49676567  0.00169260  0.67067316  1
  Al0+  Al57  1  0.49925235  0.49986977  -0.00270924  1
  Al0+  Al58  1  0.49918152  0.50141010  0.33558881  1
  Al0+  Al59  1  0.49539293  0.50165885  0.65581260  1
  Al0+  Al60  1  0.25219759  0.24770349  0.00168095  1
  Al0+  Al61  1  0.24995623  0.24959211  0.33202170  1
  Al0+  Al62  1  0.24828522  0.24847717  0.66808933  1
  Al0+  Al63  1  0.24937360  0.75095393  0.00307015  1
  Al0+  Al64  1  0.24980639  0.74997624  0.33215167  1
  Al0+  Al65  1  0.24900296  0.74792819  0.65793641  1
  Al0+  Al66  1  0.75469107  0.24762875  -0.00017826  1
  Al0+  Al67  1  0.75304327  0.25023663  0.33109534  1
  Al0+  Al68  1  0.75069492  0.25151265  0.66831549  1
  Al0+  Al69  1  0.75169726  0.75391651  0.00222053  1
  Al0+  Al70  1  0.75057368  0.75132508  0.33308283  1
  Al0+  Al71  1  0.75166190  0.75061249  0.66975952  1
  Al0+  Al72  1  0.67894080  0.93079035  0.34866118  1
  Al0+  Al73  1  0.32218696  0.57366557  0.01395260  1
  Al0+  Al74  1  0.43090363  0.31981966  0.98704094  1
  Al0+  Al75  1  0.67786065  0.42729070  0.34696135  1
  Al0+  Al76  1  0.67906895  0.93222395  0.01584515  1
  Al0+  Al77  1  0.57183119  0.18130595  0.65466234  1
  Al0+  Al78  1  0.67778202  0.93097754  0.68250303  1
  Al0+  Al79  1  0.42900836  0.82185938  0.65297603  1
  Al0+  Al80  1  0.82113480  0.57239207  0.01465626  1
  Al0+  Al81  1  0.42614959  0.32229172  0.65051704  1
  Al0+  Al82  1  0.82314329  0.07435153  0.68127219  1
  Al0+  Al83  1  0.18118573  0.42978271  0.34961943  1
  Al0+  Al84  1  0.06836091  0.17865122  0.65485168  1
  Al0+  Al85  1  0.67782862  0.42809503  0.01127216  1
  Al0+  Al86  1  0.57285348  0.17901749  0.31960312  1
  Al0+  Al87  1  0.18113789  0.42930752  0.68032681  1
  Al0+  Al88  1  0.18032093  0.42670355  0.01604376  1
  Al0+  Al89  1  0.07084952  0.17985793  0.31856106  1
  Al0+  Al90  1  0.06985879  0.67618516  0.65368636  1
  Al0+  Al91  1  0.57123235  0.68031285  0.31750575  1
  Al0+  Al92  1  0.57095860  0.68072226  0.98689076  1
  Al0+  Al93  1  0.81780797  0.56888719  0.67836085  1
  Al0+  Al94  1  0.57463710  0.67957112  0.65100683  1
  Al0+  Al95  1  0.31876708  0.06979695  0.68112749  1
  Si0+  Si96  1  0.07172756  0.67723804  0.31640009  1
  Si0+  Si97  1  0.92988649  0.82193919  0.98312698  1
  Si0+  Si98  1  0.82148519  0.57204951  0.34992790  1
  Si0+  Si99  1  0.92861888  0.82152573  0.64889768  1
  Si0+  Si100  1  0.93107009  0.81978815  0.31688564  1
  Si0+  Si101  1  0.42556630  0.82385967  0.98492499  1
  Si0+  Si102  1  0.32253152  0.57477253  0.35312650  1
  Si0+  Si103  1  0.92996357  0.32173023  0.98382058  1
  Si0+  Si104  1  0.17705950  0.92444743  0.68200042  1
  Si0+  Si105  1  0.17682086  0.92928502  0.01475993  1
  Si0+  Si106  1  0.31850473  0.06963962  0.34901084  1
  Si0+  Si107  1  0.31990377  0.06990832  0.01791553  1
  Si0+  Si108  1  0.42869046  0.32104739  0.31677017  1
  Si0+  Si109  1  0.82437028  0.07155961  0.34796182  1
  Si0+  Si110  1  0.67288085  0.42802688  0.68037689  1
  Si0+  Si111  1  0.82707527  0.07097265  0.01869520  1
  Si0+  Si112  1  0.32150317  0.57467656  0.68174750  1
  Si0+  Si113  1  0.57431601  0.17607949  0.98536362  1
  Si0+  Si114  1  0.06990046  0.67811945  0.98665446  1
  Si0+  Si115  1  0.42642163  0.82279716  0.31542945  1
  Si0+  Si116  1  0.92759766  0.32308758  0.65004338  1
  Si0+  Si117  1  0.92878038  0.32479891  0.31412527  1
  Si0+  Si118  1  0.17692935  0.92753038  0.34772988  1
  Si0+  Si119  1  0.07125497  0.17860175  0.98459449  1
  O2-  O120  1  0.24860508  -0.00172790  0.05911968  1
  O2-  O121  1  0.24830885  -0.00311353  0.39007292  1
  O2-  O122  1  0.24570809  -0.00782567  0.72771738  1
  O2-  O123  1  0.25190073  0.49981718  0.06474137  1
  O2-  O124  1  0.25461620  0.50500099  0.39672145  1
  O2-  O125  1  0.25701588  0.50241424  0.72660022  1
  O2-  O126  1  0.75169750  0.00979494  0.06234898  1
  O2-  O127  1  0.74916635  0.01102237  0.39251811  1
  O2-  O128  1  0.74651778  0.00749301  0.73173438  1
  O2-  O129  1  0.74586453  0.50348267  0.06363614  1
  O2-  O130  1  0.75191481  0.50368445  0.39238552  1
  O2-  O131  1  0.73768084  0.50051749  0.72452382  1
  O2-  O132  1  -0.00262857  0.25464365  0.27048970  1
  O2-  O133  1  -0.00990388  0.24819308  0.60638260  1
  O2-  O134  1  0.00269383  0.25131615  0.94267801  1
  O2-  O135  1  0.00079618  0.74772428  0.27320810  1
  O2-  O136  1  -0.00306781  0.75203729  0.60484408  1
  O2-  O137  1  -0.00360994  0.74580303  0.94260934  1
  O2-  O138  1  0.50409287  0.25937505  0.27235054  1
  O2-  O139  1  0.50520161  0.25700704  0.60209595  1
  O2-  O140  1  0.51168246  0.25027067  0.94235433  1
  O2-  O141  1  0.49490596  0.75453196  0.27115265  1
  O2-  O142  1  0.50418429  0.75432246  0.60192922  1
  O2-  O143  1  0.49352720  0.75433164  0.94254529  1
  O2-  O144  1  0.06951583  0.17651674  0.08999455  1
  O2-  O145  1  0.07004275  0.17759678  0.43103790  1
  O2-  O146  1  0.06944059  0.18076298  0.76834004  1
  O2-  O147  1  0.06939311  0.68280116  0.09218600  1
  O2-  O148  1  0.07105995  0.67848229  0.42126169  1
  O2-  O149  1  0.06861495  0.67771516  0.76719936  1
  O2-  O150  1  0.57040541  0.17478612  0.09143068  1
  O2-  O151  1  0.56948539  0.17663486  0.43204977  1
  O2-  O152  1  0.56710269  0.18087451  0.76847918  1
  O2-  O153  1  0.57040160  0.68262578  0.10033065  1
  O2-  O154  1  0.57287188  0.68318986  0.43002956  1
  O2-  O155  1  0.57467342  0.67995933  0.76474972  1
  O2-  O156  1  0.18337884  0.43076449  0.23661834  1
  O2-  O157  1  0.18010417  0.42953474  0.56701799  1
  O2-  O158  1  0.17937403  0.42708808  0.90274009  1
  O2-  O159  1  0.17724930  0.92792655  0.24203884  1
  O2-  O160  1  0.17706611  0.92576327  0.57599906  1
  O2-  O161  1  0.17357568  0.92983596  0.91041646  1
  O2-  O162  1  0.67947900  0.42775856  0.23385546  1
  O2-  O163  1  0.67780550  0.42660842  0.57459660  1
  O2-  O164  1  0.68011177  0.42817972  0.89793948  1
  O2-  O165  1  0.68283591  0.93010760  0.23527926  1
  O2-  O166  1  0.68051378  0.93059923  0.56875771  1
  O2-  O167  1  0.67866000  0.93254716  0.90341864  1
  O2-  O168  1  0.42822889  0.31489940  0.10041200  1
  O2-  O169  1  0.42529224  0.31561722  0.42179931  1
  O2-  O170  1  0.42512539  0.31989958  0.76433229  1
  O2-  O171  1  0.42420433  0.82576301  0.09068636  1
  O2-  O172  1  0.42309699  0.82273468  0.42036430  1
  O2-  O173  1  0.42826304  0.81853593  0.76693600  1
  O2-  O174  1  0.92919747  0.31977427  0.08897547  1
  O2-  O175  1  0.92940589  0.32677680  0.41934736  1
  O2-  O176  1  0.93199792  0.32582910  0.75576473  1
  O2-  O177  1  0.93423813  0.82503959  0.08869764  1
  O2-  O178  1  0.93426180  0.82161376  0.42142079  1
  O2-  O179  1  0.93114586  0.82196599  0.75467505  1
  O2-  O180  1  0.31651136  0.06861471  0.24322420  1
  O2-  O181  1  0.31604576  0.06998657  0.56774715  1
  O2-  O182  1  0.31939397  0.07028034  0.91332277  1
  O2-  O183  1  0.32025274  0.57672274  0.24737040  1
  O2-  O184  1  0.31684545  0.57688883  0.57619184  1
  O2-  O185  1  0.31760873  0.57797161  0.90089475  1
  O2-  O186  1  0.82799071  0.06679606  0.24216166  1
  O2-  O187  1  0.82770076  0.06797235  0.56769040  1
  O2-  O188  1  0.83602045  0.06674424  0.91428794  1
  O2-  O189  1  0.82348426  0.57189971  0.24446223  1
  O2-  O190  1  0.82057392  0.56555929  0.56506123  1
  O2-  O191  1  0.82377983  0.56921294  0.90135267  1
  O2-  O192  1  0.04100354  0.08281624  0.26235674  1
  O2-  O193  1  0.04353760  0.07998581  0.60085598  1
  O2-  O194  1  0.04238413  0.08671434  0.93796298  1
  O2-  O195  1  0.04392116  0.58544989  0.26933120  1
  O2-  O196  1  0.03466587  0.58165939  0.59831969  1
  O2-  O197  1  0.04474878  0.58436886  0.94273476  1
  O2-  O198  1  0.53431314  0.08447481  0.26465309  1
  O2-  O199  1  0.53664110  0.08437927  0.60294944  1
  O2-  O200  1  0.53908066  0.08423349  0.94169686  1
  O2-  O201  1  0.53956690  0.58233248  0.26582324  1
  O2-  O202  1  0.54462218  0.58315235  0.59494700  1
  O2-  O203  1  0.54363367  0.58373940  0.93298483  1
  O2-  O204  1  0.16733869  0.21036166  0.26326370  1
  O2-  O205  1  0.16283810  0.21268508  0.60015187  1
  O2-  O206  1  0.16490481  0.20243810  0.94016869  1
  O2-  O207  1  0.16324227  0.70675239  0.26879242  1
  O2-  O208  1  0.16368353  0.70639485  0.59459177  1
  O2-  O209  1  0.16080606  0.70990170  0.94016827  1
  O2-  O210  1  0.67243810  0.20132627  0.26678141  1
  O2-  O211  1  0.67293924  0.20156903  0.60294570  1
  O2-  O212  1  0.67199852  0.18999477  0.94419745  1
  O2-  O213  1  0.66832745  0.71290622  0.26460286  1
  O2-  O214  1  0.67371761  0.70793221  0.59888493  1
  O2-  O215  1  0.66827382  0.71462825  0.93578109  1
  O2-  O216  1  0.08275523  0.45433802  0.07068923  1
  O2-  O217  1  0.08343636  0.45961622  0.40160367  1
  O2-  O218  1  0.08481409  0.46133379  0.73363367  1
  O2-  O219  1  0.08635131  0.95937331  0.06486131  1
  O2-  O220  1  0.08472834  0.95504096  0.39333681  1
  O2-  O221  1  0.08361122  0.94922242  0.72812200  1
  O2-  O222  1  0.57898710  0.45258718  0.06457231  1
  O2-  O223  1  0.58051762  0.45548165  0.40010340  1
  O2-  O224  1  0.57622633  0.45029082  0.72056507  1
  O2-  O225  1  0.58240634  0.95947092  0.07281054  1
  O2-  O226  1  0.57971133  0.95680641  0.39867868  1
  O2-  O227  1  0.57926619  0.95726139  0.73600530  1
  O2-  O228  1  0.20997971  0.32798228  0.06872077  1
  O2-  O229  1  0.21173387  0.33150295  0.40052062  1
  O2-  O230  1  0.20992927  0.33300237  0.73478236  1
  O2-  O231  1  0.20195144  0.83790781  0.06486551  1
  O2-  O232  1  0.20183112  0.83442366  0.39396546  1
  O2-  O233  1  0.20115713  0.82965395  0.72606375  1
  O2-  O234  1  0.71025469  0.32924214  0.06355093  1
  O2-  O235  1  0.71148280  0.33067774  0.40016764  1
  O2-  O236  1  0.70046134  0.33629893  0.72865839  1
  O2-  O237  1  0.71580703  0.83812034  0.07081058  1
  O2-  O238  1  0.71657042  0.83579773  0.40097902  1
  O2-  O239  1  0.71215278  0.83451533  0.73555013  1
  O2-  O240  1  0.44544280  0.41820502  0.27551913  1
  O2-  O241  1  0.44135063  0.42237830  0.59673253  1
  O2-  O242  1  0.45359971  0.41733933  0.93209796  1
  O2-  O243  1  0.45016290  0.91707226  0.26968573  1
  O2-  O244  1  0.45053124  0.92280334  0.60323081  1
  O2-  O245  1  0.45313132  0.91832139  0.94132295  1
  O2-  O246  1  0.95747077  0.41750868  0.26725019  1
  O2-  O247  1  0.96071114  0.41235636  0.60020476  1
  O2-  O248  1  0.95825423  0.41410777  0.93795417  1
  O2-  O249  1  0.96133367  0.90920862  0.26512313  1
  O2-  O250  1  0.95585372  0.91351363  0.60068147  1
  O2-  O251  1  0.96449655  0.91108566  0.93456585  1
  O2-  O252  1  0.33860312  0.28644428  0.26812465  1
  O2-  O253  1  0.33129835  0.28279657  0.59785288  1
  O2-  O254  1  0.33565016  0.28169067  0.93369303  1
  O2-  O255  1  0.33154226  0.79847895  0.26854815  1
  O2-  O256  1  0.33171373  0.79350478  0.59633182  1
  O2-  O257  1  0.33015468  0.80296049  0.94012280  1
  O2-  O258  1  0.83628879  0.29877261  0.26585236  1
  O2-  O259  1  0.83185060  0.30539357  0.60584103  1
  O2-  O260  1  0.83939000  0.29305474  0.93401936  1
  O2-  O261  1  0.83970492  0.79203883  0.26879001  1
  O2-  O262  1  0.83608982  0.79507742  0.60258725  1
  O2-  O263  1  0.83683949  0.80090660  0.93713125  1
  O2-  O264  1  0.40994234  0.04182373  0.06887304  1
  O2-  O265  1  0.40990313  0.04252997  0.39619387  1
  O2-  O266  1  0.41332459  0.04160701  0.73992486  1
  O2-  O267  1  0.41974690  0.54416907  0.06708759  1
  O2-  O268  1  0.41644136  0.55193896  0.39821045  1
  O2-  O269  1  0.41759915  0.55356330  0.72385731  1
  O2-  O270  1  0.91767023  0.03763875  0.06843225  1
  O2-  O271  1  0.91590850  0.03668073  0.39371381  1
  O2-  O272  1  0.91991764  0.03970064  0.73607270  1
  O2-  O273  1  0.91738927  0.54071183  0.07099502  1
  O2-  O274  1  0.91540062  0.54568041  0.39560235  1
  O2-  O275  1  0.91245957  0.53322407  0.73362058  1
  O2-  O276  1  0.28945932  0.15929329  0.06810400  1
  O2-  O277  1  0.28766064  0.16025356  0.39516900  1
  O2-  O278  1  0.28239946  0.16314255  0.73765247  1
  O2-  O279  1  0.29201848  0.67128210  0.07009401  1
  O2-  O280  1  0.29437272  0.66866543  0.39767147  1
  O2-  O281  1  0.29103918  0.66669111  0.72805659  1
  O2-  O282  1  0.80995561  0.16733428  0.06183888  1
  O2-  O283  1  0.81090201  0.16875506  0.38900307  1
  O2-  O284  1  0.80494552  0.17571355  0.73245276  1
  O2-  O285  1  0.80116347  0.67355300  0.06490854  1
  O2-  O286  1  0.79759682  0.66614285  0.39507857  1
  O2-  O287  1  0.79758166  0.66759461  0.73240692  1
