# generated using pymatgen
data_Ca2Al2SiO7
_symmetry_space_group_name_H-M   'P 1'
_cell_length_a   15.45780692
_cell_length_b   15.45783378
_cell_length_c   15.28258412
_cell_angle_alpha   89.99996011
_cell_angle_beta   90.00661571
_cell_angle_gamma   90.01128466
_symmetry_Int_Tables_number   1
_chemical_formula_structural   Ca2Al2SiO7
_chemical_formula_sum   'Ca48 Al48 Si24 O168'
_cell_volume   3651.68489294
_cell_formula_units_Z   24
loop_
 _symmetry_equiv_pos_site_id
 _symmetry_equiv_pos_as_xyz
  1  'x, y, z'
loop_
 _atom_type_symbol
 _atom_type_oxidation_number
  Ca2+  2.0
  Al0+  0.0
  Si0+  0.0
  O2-  -2.0
loop_
 _atom_site_type_symbol
 _atom_site_label
 _atom_site_symmetry_multiplicity
 _atom_site_fract_x
 _atom_site_fract_y
 _atom_site_fract_z
 _atom_site_occupancy
  Ca2+  Ca0  1  0.15911291  0.07013144  0.16555567  1
  Ca2+  Ca1  1  0.16973715  0.07672024  0.50841187  1
  Ca2+  Ca2  1  0.16926698  0.08372456  0.83904390  1
  Ca2+  Ca3  1  0.16349831  0.57216056  0.17288754  1
  Ca2+  Ca4  1  0.16248908  0.57598625  0.50959376  1
  Ca2+  Ca5  1  0.16616228  0.57642976  0.83387138  1
  Ca2+  Ca6  1  0.67234360  0.09007492  0.16399916  1
  Ca2+  Ca7  1  0.67367419  0.07553130  0.51278043  1
  Ca2+  Ca8  1  0.67692624  0.08356448  0.83721051  1
  Ca2+  Ca9  1  0.67063587  0.57273258  0.17277397  1
  Ca2+  Ca10  1  0.67615445  0.58680187  0.50742624  1
  Ca2+  Ca11  1  0.66909428  0.58609103  0.83565738  1
  Ca2+  Ca12  1  0.08550616  0.32956862  0.15897029  1
  Ca2+  Ca13  1  0.08896747  0.33188688  0.49967236  1
  Ca2+  Ca14  1  0.09304737  0.32478179  0.82824657  1
  Ca2+  Ca15  1  0.08336884  0.82946774  0.15948800  1
  Ca2+  Ca16  1  0.08874948  0.81838190  0.49569201  1
  Ca2+  Ca17  1  0.07951370  0.83167132  0.82997034  1
  Ca2+  Ca18  1  0.58097293  0.33472900  0.15392959  1
  Ca2+  Ca19  1  0.58311414  0.33511026  0.49528399  1
  Ca2+  Ca20  1  0.58330204  0.33204434  0.83566919  1
  Ca2+  Ca21  1  0.57450544  0.83024996  0.15735785  1
  Ca2+  Ca22  1  0.58217106  0.83197675  0.50560359  1
  Ca2+  Ca23  1  0.57359118  0.83350604  0.82283028  1
  Ca2+  Ca24  1  0.32435473  0.40948910  0.16665290  1
  Ca2+  Ca25  1  0.32153236  0.42439925  0.50872187  1
  Ca2+  Ca26  1  0.32652136  0.42018789  0.83678525  1
  Ca2+  Ca27  1  0.32189466  0.91141672  0.16709681  1
  Ca2+  Ca28  1  0.33008809  0.91973443  0.50751766  1
  Ca2+  Ca29  1  0.33219332  0.91674875  0.83697647  1
  Ca2+  Ca30  1  0.82105073  0.41832296  0.17252580  1
  Ca2+  Ca31  1  0.82998706  0.42764865  0.50220679  1
  Ca2+  Ca32  1  0.82982757  0.42446375  0.83685162  1
  Ca2+  Ca33  1  0.84154129  0.92153222  0.16272665  1
  Ca2+  Ca34  1  0.82615233  0.92051465  0.51065358  1
  Ca2+  Ca35  1  0.83279407  0.92245372  0.83773400  1
  Ca2+  Ca36  1  0.42684300  0.17514375  0.15365946  1
  Ca2+  Ca37  1  0.41461459  0.16512266  0.49989200  1
  Ca2+  Ca38  1  0.41435018  0.17210117  0.82920946  1
  Ca2+  Ca39  1  0.41713912  0.67155837  0.15929694  1
  Ca2+  Ca40  1  0.41570990  0.66720316  0.50427966  1
  Ca2+  Ca41  1  0.41768619  0.67671026  0.82236876  1
  Ca2+  Ca42  1  0.92184516  0.16814699  0.15514306  1
  Ca2+  Ca43  1  0.92128609  0.16382465  0.50206102  1
  Ca2+  Ca44  1  0.92596826  0.16116828  0.82932934  1
  Ca2+  Ca45  1  0.92017350  0.66909306  0.16562842  1
  Ca2+  Ca46  1  0.92423878  0.65613069  0.49760631  1
  Ca2+  Ca47  1  0.91879989  0.67093286  0.82543495  1
  Al0+  Al48  1  0.00047466  -0.00068742  -0.00011848  1
  Al0+  Al49  1  0.00111980  -0.00170217  0.33889752  1
  Al0+  Al50  1  0.00010647  0.00077262  0.66272644  1
  Al0+  Al51  1  0.00122870  0.50018587  0.00526784  1
  Al0+  Al52  1  -0.00076019  0.49784070  0.33379819  1
  Al0+  Al53  1  -0.00381339  0.49752981  0.67227063  1
  Al0+  Al54  1  0.50237328  0.00032812  -0.00615644  1
  Al0+  Al55  1  0.50079853  0.00092395  0.33008593  1
  Al0+  Al56  1  0.49856052  0.00117453  0.66893757  1
  Al0+  Al57  1  0.50038167  0.50066232  -0.00019006  1
  Al0+  Al58  1  0.49843887  0.49938868  0.33404984  1
  Al0+  Al59  1  0.49835761  0.50058677  0.66454790  1
  Al0+  Al60  1  0.25194104  0.25025694  -0.00197907  1
  Al0+  Al61  1  0.25146122  0.24878439  0.33456248  1
  Al0+  Al62  1  0.24947394  0.24775057  0.66647129  1
  Al0+  Al63  1  0.25050665  0.74942456  -0.00023959  1
  Al0+  Al64  1  0.24904482  0.74946711  0.33144060  1
  Al0+  Al65  1  0.24899901  0.74929653  0.66132746  1
  Al0+  Al66  1  0.75134157  0.25170006  0.00358777  1
  Al0+  Al67  1  0.75109063  0.24957050  0.33774106  1
  Al0+  Al68  1  0.75093913  0.25040805  0.66792262  1
  Al0+  Al69  1  0.75188264  0.75269108  -0.00128502  1
  Al0+  Al70  1  0.75021197  0.75197881  0.33340534  1
  Al0+  Al71  1  0.74753832  0.75021334  0.67141185  1
  Al0+  Al72  1  0.42899971  0.32248451  0.98274279  1
  Al0+  Al73  1  0.18007743  0.42774472  0.01489091  1
  Al0+  Al74  1  0.17883074  0.92770237  0.34819802  1
  Al0+  Al75  1  0.06993165  0.18004776  0.98803460  1
  Al0+  Al76  1  0.06789959  0.67778656  0.65466633  1
  Al0+  Al77  1  0.57480210  0.17990851  0.98310359  1
  Al0+  Al78  1  0.17792078  0.42866504  0.68247199  1
  Al0+  Al79  1  0.17962482  0.42745222  0.34724356  1
  Al0+  Al80  1  0.57125181  0.67803356  0.65094979  1
  Al0+  Al81  1  0.81932710  0.57222387  0.34776398  1
  Al0+  Al82  1  0.67672458  0.42792525  0.34941932  1
  Al0+  Al83  1  0.81954584  0.57066084  0.68201961  1
  Al0+  Al84  1  0.42760859  0.82339485  0.64913555  1
  Al0+  Al85  1  0.93067727  0.82052424  0.98632813  1
  Al0+  Al86  1  0.82301497  0.07182010  0.68245548  1
  Al0+  Al87  1  0.31988424  0.07026406  0.68055256  1
  Al0+  Al88  1  0.18043832  0.92926737  0.01175360  1
  Al0+  Al89  1  0.68016308  0.43193013  0.01225309  1
  Al0+  Al90  1  0.32092535  0.57257956  0.68156902  1
  Al0+  Al91  1  0.67855494  0.92902053  0.68320962  1
  Al0+  Al92  1  0.07154590  0.17918782  0.65103254  1
  Al0+  Al93  1  0.82110508  0.06978111  0.01426061  1
  Al0+  Al94  1  0.07049261  0.67703831  0.31862122  1
  Al0+  Al95  1  0.42771090  0.82034971  0.98653766  1
  Si0+  Si96  1  0.32471632  0.07229505  0.01648446  1
  Si0+  Si97  1  0.17799561  0.92667825  0.68218291  1
  Si0+  Si98  1  0.57205660  0.67911732  0.31784250  1
  Si0+  Si99  1  0.07133899  0.17753502  0.31840703  1
  Si0+  Si100  1  0.42820239  0.32072264  0.64934944  1
  Si0+  Si101  1  0.42975576  0.82205843  0.31715874  1
  Si0+  Si102  1  0.57245628  0.17919990  0.31925686  1
  Si0+  Si103  1  0.82333242  0.57581239  0.01809282  1
  Si0+  Si104  1  0.92862920  0.31874976  0.31796757  1
  Si0+  Si105  1  0.32145344  0.57205526  0.01701641  1
  Si0+  Si106  1  0.57264297  0.67877317  0.98531264  1
  Si0+  Si107  1  0.57194835  0.18095984  0.65090763  1
  Si0+  Si108  1  0.67728652  0.92785595  0.01827449  1
  Si0+  Si109  1  0.42911430  0.32065641  0.31894615  1
  Si0+  Si110  1  0.92718450  0.82217968  0.64975737  1
  Si0+  Si111  1  0.92745082  0.82389578  0.31697445  1
  Si0+  Si112  1  0.67571383  0.42726383  0.68327527  1
  Si0+  Si113  1  0.07190251  0.67596432  0.98361109  1
  Si0+  Si114  1  0.82157140  0.07049791  0.34862227  1
  Si0+  Si115  1  0.32191961  0.57312493  0.34914808  1
  Si0+  Si116  1  0.32323509  0.06976963  0.34776857  1
  Si0+  Si117  1  0.92584624  0.32160046  0.64862374  1
  Si0+  Si118  1  0.92821622  0.32426440  0.98485599  1
  Si0+  Si119  1  0.67628490  0.93027701  0.34678465  1
  O2-  O120  1  0.25671580  0.00260799  0.06076019  1
  O2-  O121  1  0.25462620  0.00193379  0.39277077  1
  O2-  O122  1  0.24625873  -0.00493136  0.72683187  1
  O2-  O123  1  0.25422191  0.50262369  0.06279858  1
  O2-  O124  1  0.25142970  0.50550970  0.39176790  1
  O2-  O125  1  0.24849300  0.50196846  0.73222091  1
  O2-  O126  1  0.74495605  -0.00276198  0.06386563  1
  O2-  O127  1  0.74956790  -0.00056285  0.38831960  1
  O2-  O128  1  0.75246787  -0.00087493  0.73234843  1
  O2-  O129  1  0.75424814  0.50659293  0.06050897  1
  O2-  O130  1  0.74448772  0.50344405  0.39883365  1
  O2-  O131  1  0.74130956  0.49883137  0.72704668  1
  O2-  O132  1  0.00046478  0.24822484  0.27547238  1
  O2-  O133  1  -0.00403855  0.25351205  0.60437281  1
  O2-  O134  1  -0.00083093  0.25828111  0.94076777  1
  O2-  O135  1  -0.00422019  0.75371374  0.27435300  1
  O2-  O136  1  -0.00600950  0.75229982  0.60471563  1
  O2-  O137  1  0.00165023  0.74283471  0.93987645  1
  O2-  O138  1  0.50471879  0.25358762  0.27764442  1
  O2-  O139  1  0.50205640  0.25211911  0.60635849  1
  O2-  O140  1  0.49981066  0.24883065  0.93302796  1
  O2-  O141  1  0.49970321  0.74918963  0.27555980  1
  O2-  O142  1  0.49901044  0.74983812  0.59953883  1
  O2-  O143  1  0.50498729  0.74819467  0.94181737  1
  O2-  O144  1  0.06717665  0.17956823  0.10215700  1
  O2-  O145  1  0.07026939  0.17773369  0.42329724  1
  O2-  O146  1  0.07191349  0.17924912  0.76391149  1
  O2-  O147  1  0.07131359  0.67603265  0.08968267  1
  O2-  O148  1  0.06963350  0.67696402  0.43161338  1
  O2-  O149  1  0.06638492  0.67971973  0.76773847  1
  O2-  O150  1  0.57356193  0.18251223  0.09809384  1
  O2-  O151  1  0.57064247  0.17631679  0.42436222  1
  O2-  O152  1  0.57314027  0.18341057  0.75529088  1
  O2-  O153  1  0.57123115  0.67985665  0.09188519  1
  O2-  O154  1  0.57336668  0.68046591  0.42219452  1
  O2-  O155  1  0.57015984  0.67887410  0.76458222  1
  O2-  O156  1  0.18240387  0.42479679  0.23405763  1
  O2-  O157  1  0.18005975  0.42923011  0.56826732  1
  O2-  O158  1  0.17948936  0.42917605  0.90264736  1
  O2-  O159  1  0.17829393  0.92928278  0.23481341  1
  O2-  O160  1  0.17954463  0.92865202  0.57602010  1
  O2-  O161  1  0.18048350  0.92998461  0.89919961  1
  O2-  O162  1  0.67788369  0.42717344  0.23578912  1
  O2-  O163  1  0.67840981  0.42537346  0.57745544  1
  O2-  O164  1  0.68182365  0.43384174  0.89937869  1
  O2-  O165  1  0.67224268  0.93174375  0.24199307  1
  O2-  O166  1  0.67989766  0.93222225  0.56804830  1
  O2-  O167  1  0.67874672  0.92607483  0.91356806  1
  O2-  O168  1  0.42999414  0.32064950  0.09748062  1
  O2-  O169  1  0.42766040  0.31792525  0.42394297  1
  O2-  O170  1  0.42835210  0.31952139  0.75395532  1
  O2-  O171  1  0.42835492  0.81727947  0.10092144  1
  O2-  O172  1  0.43158769  0.82552067  0.42147675  1
  O2-  O173  1  0.42860130  0.82290040  0.76257728  1
  O2-  O174  1  0.92822862  0.32197475  0.09122795  1
  O2-  O175  1  0.92669621  0.31627198  0.42277028  1
  O2-  O176  1  0.92287596  0.32129396  0.75394534  1
  O2-  O177  1  0.93256807  0.81967548  0.10002794  1
  O2-  O178  1  0.92575275  0.82752538  0.42209164  1
  O2-  O179  1  0.93032317  0.82272870  0.75540149  1
  O2-  O180  1  0.32575283  0.06915042  0.24245450  1
  O2-  O181  1  0.31860794  0.07064176  0.56654603  1
  O2-  O182  1  0.32236771  0.07245608  0.91113677  1
  O2-  O183  1  0.32409920  0.57265452  0.24331172  1
  O2-  O184  1  0.32023326  0.56876737  0.56744296  1
  O2-  O185  1  0.31996567  0.57310706  0.91205070  1
  O2-  O186  1  0.82235328  0.07181724  0.24361822  1
  O2-  O187  1  0.81953158  0.07094109  0.56766615  1
  O2-  O188  1  0.82202439  0.06779501  0.90219585  1
  O2-  O189  1  0.81687658  0.57077863  0.23396922  1
  O2-  O190  1  0.82077725  0.56828016  0.56891768  1
  O2-  O191  1  0.82332309  0.57569548  0.91262942  1
  O2-  O192  1  0.04180255  0.08493268  0.27307160  1
  O2-  O193  1  0.04046581  0.08297672  0.59430207  1
  O2-  O194  1  0.03673414  0.08511677  0.93404830  1
  O2-  O195  1  0.03854348  0.58035596  0.26428014  1
  O2-  O196  1  0.03516023  0.58013550  0.60289922  1
  O2-  O197  1  0.04749003  0.58148474  0.93919301  1
  O2-  O198  1  0.54273819  0.08905458  0.26886073  1
  O2-  O199  1  0.54234634  0.08963899  0.60336955  1
  O2-  O200  1  0.55317370  0.07974196  0.93257480  1
  O2-  O201  1  0.54379453  0.58644304  0.27099074  1
  O2-  O202  1  0.54490097  0.57899287  0.59652296  1
  O2-  O203  1  0.54823740  0.58570461  0.93943074  1
  O2-  O204  1  0.16429799  0.20402062  0.27257705  1
  O2-  O205  1  0.16771555  0.21006554  0.59503753  1
  O2-  O206  1  0.16775418  0.20657144  0.93573359  1
  O2-  O207  1  0.16753107  0.70725200  0.26402230  1
  O2-  O208  1  0.16368328  0.70691346  0.59793577  1
  O2-  O209  1  0.16494436  0.70315567  0.93880901  1
  O2-  O210  1  0.66634449  0.20359384  0.27398713  1
  O2-  O211  1  0.66411374  0.20774278  0.60212267  1
  O2-  O212  1  0.67242779  0.21257876  0.93180476  1
  O2-  O213  1  0.66288956  0.70860966  0.26888704  1
  O2-  O214  1  0.66962769  0.70961649  0.59807238  1
  O2-  O215  1  0.66708518  0.70272270  0.94116761  1
  O2-  O216  1  0.08296714  0.45679768  0.07069907  1
  O2-  O217  1  0.08145903  0.45338835  0.39890214  1
  O2-  O218  1  0.07872989  0.45170221  0.73460408  1
  O2-  O219  1  0.08565626  0.96250785  0.06832278  1
  O2-  O220  1  0.08364371  0.95857957  0.40442531  1
  O2-  O221  1  0.08354465  0.95241912  0.72491460  1
  O2-  O222  1  0.58317377  0.46135447  0.06779084  1
  O2-  O223  1  0.57591878  0.45078175  0.39919702  1
  O2-  O224  1  0.58053083  0.44832742  0.72635891  1
  O2-  O225  1  0.58286792  0.95274336  0.06407245  1
  O2-  O226  1  0.58603740  0.96106833  0.39584103  1
  O2-  O227  1  0.58103638  0.95986303  0.73398584  1
  O2-  O228  1  0.21222346  0.33102378  0.06927524  1
  O2-  O229  1  0.21315389  0.33129640  0.40117881  1
  O2-  O230  1  0.21086723  0.33093860  0.73233304  1
  O2-  O231  1  0.21068570  0.83236521  0.06736514  1
  O2-  O232  1  0.21004955  0.83082280  0.40039416  1
  O2-  O233  1  0.20214449  0.83293972  0.72677891  1
  O2-  O234  1  0.71136762  0.33653879  0.06903484  1
  O2-  O235  1  0.70789031  0.33021113  0.40290613  1
  O2-  O236  1  0.70476167  0.33504236  0.72961269  1
  O2-  O237  1  0.70462374  0.83462837  0.06585769  1
  O2-  O238  1  0.70251725  0.83821217  0.39370622  1
  O2-  O239  1  0.70247880  0.83084980  0.73667764  1
  O2-  O240  1  0.45106582  0.41404873  0.27142808  1
  O2-  O241  1  0.45345497  0.41261101  0.60081780  1
  O2-  O242  1  0.45793712  0.42121922  0.93150392  1
  O2-  O243  1  0.45985392  0.91290265  0.26797771  1
  O2-  O244  1  0.45823480  0.92223349  0.59625770  1
  O2-  O245  1  0.45498262  0.91755157  0.93370125  1
  O2-  O246  1  0.95464915  0.41016322  0.26967144  1
  O2-  O247  1  0.95189310  0.41487709  0.60245599  1
  O2-  O248  1  0.95061754  0.41972440  0.94145804  1
  O2-  O249  1  0.95642991  0.91723293  0.27057718  1
  O2-  O250  1  0.95203722  0.91530590  0.60185865  1
  O2-  O251  1  0.96431385  0.91501479  0.93169243  1
  O2-  O252  1  0.33917104  0.28792163  0.26970541  1
  O2-  O253  1  0.33847982  0.28788988  0.60070380  1
  O2-  O254  1  0.33136807  0.29379111  0.92969132  1
  O2-  O255  1  0.33769707  0.79443562  0.26999238  1
  O2-  O256  1  0.32969671  0.79517040  0.59461622  1
  O2-  O257  1  0.33216197  0.78869634  0.93198307  1
  O2-  O258  1  0.83661774  0.28875914  0.27032216  1
  O2-  O259  1  0.83315413  0.29433391  0.59975560  1
  O2-  O260  1  0.83566211  0.29778012  0.93905542  1
  O2-  O261  1  0.83318649  0.80091739  0.26951137  1
  O2-  O262  1  0.83189601  0.79862883  0.60713213  1
  O2-  O263  1  0.83262731  0.79505908  0.93248852  1
  O2-  O264  1  0.41991246  0.04824376  0.06072769  1
  O2-  O265  1  0.41707696  0.04409075  0.39461600  1
  O2-  O266  1  0.41687006  0.04486539  0.73461524  1
  O2-  O267  1  0.41604381  0.54892710  0.06289293  1
  O2-  O268  1  0.41470624  0.54617592  0.39587030  1
  O2-  O269  1  0.41976878  0.54413935  0.73311233  1
  O2-  O270  1  0.91589460  0.03561956  0.07055490  1
  O2-  O271  1  0.91245120  0.04256648  0.39738932  1
  O2-  O272  1  0.92268648  0.04463543  0.73204531  1
  O2-  O273  1  0.91667590  0.55033815  0.06460130  1
  O2-  O274  1  0.91604700  0.53793171  0.39972110  1
  O2-  O275  1  0.91247797  0.53627925  0.73989391  1
  O2-  O276  1  0.29924580  0.16564886  0.06293799  1
  O2-  O277  1  0.29797157  0.16309221  0.39448806  1
  O2-  O278  1  0.28826246  0.16564997  0.73488252  1
  O2-  O279  1  0.29472328  0.66472412  0.06522320  1
  O2-  O280  1  0.29923356  0.66748217  0.39372289  1
  O2-  O281  1  0.29365343  0.67215300  0.73165711  1
  O2-  O282  1  0.79190038  0.16666174  0.06990430  1
  O2-  O283  1  0.79404188  0.16128105  0.39765173  1
  O2-  O284  1  0.79381505  0.17025152  0.73372689  1
  O2-  O285  1  0.79763998  0.66945258  0.06431462  1
  O2-  O286  1  0.79518881  0.67266405  0.39902577  1
  O2-  O287  1  0.79181907  0.66740191  0.73614516  1
