# generated using pymatgen
data_Ca2Al2SiO7
_symmetry_space_group_name_H-M   'P 1'
_cell_length_a   15.46160888
_cell_length_b   15.46302936
_cell_length_c   15.28616783
_cell_angle_alpha   90.01801769
_cell_angle_beta   90.00546897
_cell_angle_gamma   90.01150882
_symmetry_Int_Tables_number   1
_chemical_formula_structural   Ca2Al2SiO7
_chemical_formula_sum   'Ca48 Al48 Si24 O168'
_cell_volume   3654.66736198
_cell_formula_units_Z   24
loop_
 _symmetry_equiv_pos_site_id
 _symmetry_equiv_pos_as_xyz
  1  'x, y, z'
loop_
 _atom_type_symbol
 _atom_type_oxidation_number
  Ca2+  2.0
  Al0+  0.0
  Si0+  0.0
  O2-  -2.0
loop_
 _atom_site_type_symbol
 _atom_site_label
 _atom_site_symmetry_multiplicity
 _atom_site_fract_x
 _atom_site_fract_y
 _atom_site_fract_z
 _atom_site_occupancy
  Ca2+  Ca0  1  0.16376780  0.06958974  0.17009566  1
  Ca2+  Ca1  1  0.16596536  0.07453582  0.49902446  1
  Ca2+  Ca2  1  0.16710447  0.07502265  0.84251272  1
  Ca2+  Ca3  1  0.16812774  0.57416175  0.17656561  1
  Ca2+  Ca4  1  0.16402557  0.58275657  0.49949007  1
  Ca2+  Ca5  1  0.16315857  0.57736667  0.83390409  1
  Ca2+  Ca6  1  0.67238850  0.08170276  0.17277782  1
  Ca2+  Ca7  1  0.66086742  0.07861048  0.49654230  1
  Ca2+  Ca8  1  0.67518385  0.07879065  0.83940883  1
  Ca2+  Ca9  1  0.67308320  0.57886701  0.17004095  1
  Ca2+  Ca10  1  0.67265614  0.57527982  0.50152514  1
  Ca2+  Ca11  1  0.67095570  0.57547867  0.84506453  1
  Ca2+  Ca12  1  0.08083936  0.33826342  0.15859191  1
  Ca2+  Ca13  1  0.08070025  0.34196487  0.49793404  1
  Ca2+  Ca14  1  0.06943859  0.34871895  0.83127410  1
  Ca2+  Ca15  1  0.07828182  0.82970886  0.16368539  1
  Ca2+  Ca16  1  0.08047429  0.82005142  0.48721384  1
  Ca2+  Ca17  1  0.07952589  0.82878700  0.83079016  1
  Ca2+  Ca18  1  0.58458875  0.33657813  0.16086419  1
  Ca2+  Ca19  1  0.59196420  0.32972716  0.49207514  1
  Ca2+  Ca20  1  0.58112477  0.34159088  0.83255629  1
  Ca2+  Ca21  1  0.58203725  0.82805091  0.16368102  1
  Ca2+  Ca22  1  0.57200652  0.83649720  0.48880590  1
  Ca2+  Ca23  1  0.58234512  0.82124713  0.82971991  1
  Ca2+  Ca24  1  0.32698726  0.42031549  0.17259704  1
  Ca2+  Ca25  1  0.32254030  0.42442005  0.50187733  1
  Ca2+  Ca26  1  0.32145090  0.41328550  0.84281149  1
  Ca2+  Ca27  1  0.32212155  0.90944812  0.17367243  1
  Ca2+  Ca28  1  0.33007660  0.90606318  0.49998395  1
  Ca2+  Ca29  1  0.32845894  0.91306754  0.83649214  1
  Ca2+  Ca30  1  0.83071649  0.42952679  0.17096936  1
  Ca2+  Ca31  1  0.82832247  0.41975852  0.50270813  1
  Ca2+  Ca32  1  0.82691767  0.41860127  0.84277168  1
  Ca2+  Ca33  1  0.83530150  0.91851102  0.17295803  1
  Ca2+  Ca34  1  0.82956923  0.91077680  0.49527195  1
  Ca2+  Ca35  1  0.83960476  0.92387167  0.84488653  1
  Ca2+  Ca36  1  0.42507782  0.17372354  0.16330574  1
  Ca2+  Ca37  1  0.42449512  0.17134892  0.48997653  1
  Ca2+  Ca38  1  0.41540005  0.17507926  0.83385930  1
  Ca2+  Ca39  1  0.42005126  0.66472098  0.16588462  1
  Ca2+  Ca40  1  0.41280970  0.67445460  0.49253543  1
  Ca2+  Ca41  1  0.42410783  0.66762111  0.83250241  1
  Ca2+  Ca42  1  0.91552811  0.17380103  0.15844677  1
  Ca2+  Ca43  1  0.91547504  0.17602077  0.49851866  1
  Ca2+  Ca44  1  0.91319601  0.17769176  0.83468234  1
  Ca2+  Ca45  1  0.91199588  0.67207198  0.16454927  1
  Ca2+  Ca46  1  0.92690005  0.66477293  0.49053238  1
  Ca2+  Ca47  1  0.92010365  0.66576485  0.83331835  1
  Al0+  Al48  1  0.00050630  -0.00017048  0.00406593  1
  Al0+  Al49  1  0.00057374  0.00183613  0.33715217  1
  Al0+  Al50  1  0.00006336  0.00150593  0.66659045  1
  Al0+  Al51  1  -0.00031669  0.50128096  0.00333496  1
  Al0+  Al52  1  -0.00101771  0.50009887  0.33534910  1
  Al0+  Al53  1  -0.00082737  0.50094971  0.66160239  1
  Al0+  Al54  1  0.49898465  0.00105836  -0.00258396  1
  Al0+  Al55  1  0.50087636  0.00216254  0.32543983  1
  Al0+  Al56  1  0.49973085  0.00094180  0.66601429  1
  Al0+  Al57  1  0.49889351  0.49983059  -0.00665093  1
  Al0+  Al58  1  0.49812352  0.50004627  0.34254352  1
  Al0+  Al59  1  0.49910202  0.50041588  0.66803863  1
  Al0+  Al60  1  0.25169460  0.24758515  0.00009683  1
  Al0+  Al61  1  0.25007999  0.24868967  0.33651497  1
  Al0+  Al62  1  0.24950493  0.24825707  0.66987755  1
  Al0+  Al63  1  0.24971201  0.74920054  0.00219322  1
  Al0+  Al64  1  0.24895962  0.74880264  0.33163108  1
  Al0+  Al65  1  0.24998170  0.74928854  0.66224906  1
  Al0+  Al66  1  0.75016031  0.24745470  0.00235599  1
  Al0+  Al67  1  0.75163956  0.24833130  0.33117235  1
  Al0+  Al68  1  0.75023278  0.24933281  0.66657490  1
  Al0+  Al69  1  0.74978401  0.75045425  -0.00820239  1
  Al0+  Al70  1  0.74949186  0.75152467  0.34009749  1
  Al0+  Al71  1  0.74952749  0.74995183  0.66662587  1
  Al0+  Al72  1  0.42939721  0.32019613  0.98662932  1
  Al0+  Al73  1  0.06845806  0.68092802  0.65303592  1
  Al0+  Al74  1  0.18061217  0.92842322  0.01315234  1
  Al0+  Al75  1  0.67962552  0.42818141  0.68200418  1
  Al0+  Al76  1  0.32109422  0.57203615  0.34869061  1
  Al0+  Al77  1  0.82043367  0.06974770  0.01390339  1
  Al0+  Al78  1  0.17902586  0.92935136  0.34804199  1
  Al0+  Al79  1  0.92959924  0.31910742  0.65291911  1
  Al0+  Al80  1  0.17789408  0.42663043  0.34861799  1
  Al0+  Al81  1  0.42890873  0.82070325  0.31752802  1
  Al0+  Al82  1  0.92786924  0.82205153  0.31877066  1
  Al0+  Al83  1  0.67977351  0.42731044  0.34745000  1
  Al0+  Al84  1  0.07011421  0.67695436  0.31478253  1
  Al0+  Al85  1  0.17929724  0.42936996  0.68225885  1
  Al0+  Al86  1  0.82125641  0.57356009  0.01410600  1
  Al0+  Al87  1  0.82075511  0.57325046  0.34998266  1
  Al0+  Al88  1  0.43242547  0.82024386  0.65340678  1
  Al0+  Al89  1  0.93029821  0.82177328  0.98657298  1
  Al0+  Al90  1  0.17908987  0.42892068  0.01260244  1
  Al0+  Al91  1  0.57093806  0.67958380  0.98732314  1
  Al0+  Al92  1  0.92978477  0.32204472  0.98844950  1
  Al0+  Al93  1  0.67691474  0.42896995  0.01425521  1
  Al0+  Al94  1  0.67805520  0.93042778  0.34498079  1
  Al0+  Al95  1  0.57224271  0.18097710  0.31803342  1
  Si0+  Si96  1  0.42589584  0.32139473  0.65125525  1
  Si0+  Si97  1  0.67629246  0.92735433  0.01378601  1
  Si0+  Si98  1  0.32269158  0.07087783  0.34948474  1
  Si0+  Si99  1  0.67716375  0.92969323  0.68125070  1
  Si0+  Si100  1  0.07300799  0.17872623  0.31886403  1
  Si0+  Si101  1  0.57203072  0.67645709  0.31931069  1
  Si0+  Si102  1  0.32111702  0.57385369  0.68559987  1
  Si0+  Si103  1  0.32269908  0.07080609  0.68233936  1
  Si0+  Si104  1  0.93036538  0.31965962  0.31792637  1
  Si0+  Si105  1  0.32265908  0.57158879  0.01497502  1
  Si0+  Si106  1  0.17996830  0.92859982  0.68079243  1
  Si0+  Si107  1  0.92690318  0.82656666  0.64980619  1
  Si0+  Si108  1  0.82185557  0.57240801  0.68424309  1
  Si0+  Si109  1  0.42603679  0.82279991  0.98346046  1
  Si0+  Si110  1  0.56952804  0.18090152  0.65217719  1
  Si0+  Si111  1  0.57348727  0.67624941  0.64763886  1
  Si0+  Si112  1  0.07383930  0.17502178  0.64955957  1
  Si0+  Si113  1  0.57297666  0.17640740  0.98067855  1
  Si0+  Si114  1  0.82286084  0.07254775  0.35242834  1
  Si0+  Si115  1  0.42698488  0.32273544  0.31892221  1
  Si0+  Si116  1  0.32400580  0.07230400  0.01794230  1
  Si0+  Si117  1  0.07378960  0.67793543  0.98302364  1
  Si0+  Si118  1  0.82101216  0.06989935  0.68153050  1
  Si0+  Si119  1  0.07202559  0.17764676  0.98453539  1
  O2-  O120  1  0.25789127  0.00067888  0.06007312  1
  O2-  O121  1  0.25676521  0.00082402  0.39621109  1
  O2-  O122  1  0.25001687  0.00061905  0.72360294  1
  O2-  O123  1  0.25346615  0.50347810  0.05839865  1
  O2-  O124  1  0.24777579  0.50074888  0.39819291  1
  O2-  O125  1  0.25620463  0.50161474  0.73001485  1
  O2-  O126  1  0.74499264  -0.00477874  0.05843070  1
  O2-  O127  1  0.75442825  0.00249946  0.39495317  1
  O2-  O128  1  0.75468895  -0.00629983  0.72319100  1
  O2-  O129  1  0.75010742  0.49991154  0.06283029  1
  O2-  O130  1  0.74959939  0.49979096  0.39946857  1
  O2-  O131  1  0.75074212  0.50616579  0.72824397  1
  O2-  O132  1  0.00615725  0.25301958  0.27694173  1
  O2-  O133  1  0.00794054  0.24692616  0.60668171  1
  O2-  O134  1  0.00785806  0.25035470  0.93995499  1
  O2-  O135  1  -0.00257393  0.74939005  0.26662781  1
  O2-  O136  1  -0.00671846  0.75580697  0.60739664  1
  O2-  O137  1  0.00429063  0.74669316  0.93928803  1
  O2-  O138  1  0.50044207  0.25945701  0.27402152  1
  O2-  O139  1  0.50142375  0.25474619  0.60942518  1
  O2-  O140  1  0.50597092  0.24742058  0.93736480  1
  O2-  O141  1  0.50354592  0.74500185  0.27358825  1
  O2-  O142  1  0.50651920  0.74666500  0.60419116  1
  O2-  O143  1  0.49694718  0.75634218  0.94025859  1
  O2-  O144  1  0.07046848  0.17666052  0.09022421  1
  O2-  O145  1  0.07143994  0.17683851  0.42420564  1
  O2-  O146  1  0.07241692  0.16701868  0.75459062  1
  O2-  O147  1  0.07714314  0.67910249  0.08768203  1
  O2-  O148  1  0.06957978  0.67938506  0.42884755  1
  O2-  O149  1  0.06862672  0.68341016  0.76661057  1
  O2-  O150  1  0.57066912  0.17271066  0.08577193  1
  O2-  O151  1  0.56976734  0.18019418  0.43210515  1
  O2-  O152  1  0.56780452  0.17819196  0.75707561  1
  O2-  O153  1  0.56952453  0.68072044  0.10026681  1
  O2-  O154  1  0.57043617  0.67888442  0.42516937  1
  O2-  O155  1  0.57310423  0.67801819  0.75344448  1
  O2-  O156  1  0.18157088  0.42387562  0.23497523  1
  O2-  O157  1  0.18180497  0.42892899  0.56981037  1
  O2-  O158  1  0.17894884  0.43176726  0.89913886  1
  O2-  O159  1  0.17839947  0.93270837  0.23512065  1
  O2-  O160  1  0.18068959  0.93040822  0.57609264  1
  O2-  O161  1  0.18240698  0.92982069  0.89892886  1
  O2-  O162  1  0.68123580  0.42744648  0.23433428  1
  O2-  O163  1  0.68237035  0.42609687  0.56925418  1
  O2-  O164  1  0.67869672  0.43096676  0.90016915  1
  O2-  O165  1  0.67786845  0.93293303  0.23211552  1
  O2-  O166  1  0.67399093  0.93318514  0.57654786  1
  O2-  O167  1  0.67617623  0.93052806  0.90730870  1
  O2-  O168  1  0.42855624  0.31773027  0.09947443  1
  O2-  O169  1  0.42488894  0.31749359  0.42484891  1
  O2-  O170  1  0.42432499  0.31750181  0.75632285  1
  O2-  O171  1  0.42532332  0.82296932  0.08851729  1
  O2-  O172  1  0.43135525  0.82150980  0.43107623  1
  O2-  O173  1  0.43431401  0.82028088  0.76677955  1
  O2-  O174  1  0.93146712  0.31976689  0.10137332  1
  O2-  O175  1  0.92861758  0.31600412  0.42344563  1
  O2-  O176  1  0.92888386  0.31707310  0.76606725  1
  O2-  O177  1  0.93071096  0.82401974  0.09877234  1
  O2-  O178  1  0.93120189  0.82232289  0.43296408  1
  O2-  O179  1  0.92947764  0.83088947  0.75544615  1
  O2-  O180  1  0.31924001  0.07229323  0.24417353  1
  O2-  O181  1  0.32477939  0.07213460  0.57770997  1
  O2-  O182  1  0.32332260  0.07259953  0.91165047  1
  O2-  O183  1  0.32381347  0.56824774  0.23489523  1
  O2-  O184  1  0.32042890  0.57454069  0.58046304  1
  O2-  O185  1  0.32172853  0.57258001  0.90899373  1
  O2-  O186  1  0.82307820  0.07445615  0.24708194  1
  O2-  O187  1  0.82006238  0.07157986  0.57677831  1
  O2-  O188  1  0.81945756  0.06912087  0.89979350  1
  O2-  O189  1  0.81919607  0.57271956  0.23651871  1
  O2-  O190  1  0.82054193  0.57199882  0.57893248  1
  O2-  O191  1  0.82099684  0.57172431  0.89993218  1
  O2-  O192  1  0.04113294  0.08868636  0.27075689  1
  O2-  O193  1  0.04391820  0.08356998  0.59982045  1
  O2-  O194  1  0.04141752  0.08613670  0.93670015  1
  O2-  O195  1  0.04304412  0.57709457  0.26457939  1
  O2-  O196  1  0.03863385  0.58554412  0.59720011  1
  O2-  O197  1  0.04614137  0.58501602  0.93660554  1
  O2-  O198  1  0.53855281  0.08778719  0.26015652  1
  O2-  O199  1  0.53818963  0.09033264  0.60374033  1
  O2-  O200  1  0.54439974  0.08383284  0.93157302  1
  O2-  O201  1  0.54524015  0.58215383  0.27539533  1
  O2-  O202  1  0.54692914  0.58240710  0.60290703  1
  O2-  O203  1  0.53740607  0.58603759  0.92833226  1
  O2-  O204  1  0.16656460  0.20086929  0.27225855  1
  O2-  O205  1  0.16909244  0.19705358  0.60527869  1
  O2-  O206  1  0.16789472  0.19552494  0.93994208  1
  O2-  O207  1  0.16862855  0.70539451  0.26364406  1
  O2-  O208  1  0.16459873  0.71200214  0.59889359  1
  O2-  O209  1  0.16713265  0.70462866  0.93532887  1
  O2-  O210  1  0.67010309  0.20662909  0.26435275  1
  O2-  O211  1  0.66195180  0.20535528  0.60483769  1
  O2-  O212  1  0.66740994  0.19850447  0.93536123  1
  O2-  O213  1  0.66533864  0.70394119  0.27518962  1
  O2-  O214  1  0.66832440  0.70024056  0.60355766  1
  O2-  O215  1  0.66439409  0.71063556  0.92629617  1
  O2-  O216  1  0.08345314  0.45842597  0.06716236  1
  O2-  O217  1  0.07909123  0.45285613  0.40027402  1
  O2-  O218  1  0.08188583  0.46430488  0.73242263  1
  O2-  O219  1  0.08678079  0.96323853  0.06834501  1
  O2-  O220  1  0.08512323  0.96530903  0.40463689  1
  O2-  O221  1  0.08739754  0.95661614  0.72746892  1
  O2-  O222  1  0.57749537  0.45809196  0.06363617  1
  O2-  O223  1  0.58055081  0.45011221  0.40157080  1
  O2-  O224  1  0.57974748  0.45494257  0.73246078  1
  O2-  O225  1  0.58165882  0.95212500  0.05806812  1
  O2-  O226  1  0.58242028  0.96723019  0.39888540  1
  O2-  O227  1  0.58870684  0.96456254  0.73108833  1
  O2-  O228  1  0.20826386  0.33043923  0.06312461  1
  O2-  O229  1  0.20651629  0.32819215  0.40301685  1
  O2-  O230  1  0.20666868  0.33038765  0.73449876  1
  O2-  O231  1  0.20936396  0.83187264  0.06733985  1
  O2-  O232  1  0.20915896  0.83279637  0.40069034  1
  O2-  O233  1  0.21001080  0.83770920  0.72832535  1
  O2-  O234  1  0.69980778  0.32803011  0.06253264  1
  O2-  O235  1  0.71194325  0.32883877  0.39948733  1
  O2-  O236  1  0.71060436  0.33072434  0.73471806  1
  O2-  O237  1  0.70026472  0.83320361  0.05637788  1
  O2-  O238  1  0.70409873  0.83554450  0.40438425  1
  O2-  O239  1  0.69800241  0.83480029  0.72614760  1
  O2-  O240  1  0.44735234  0.41870656  0.27699191  1
  O2-  O241  1  0.44805857  0.41584882  0.60731368  1
  O2-  O242  1  0.45540115  0.41579677  0.92833070  1
  O2-  O243  1  0.45881741  0.91685261  0.26293258  1
  O2-  O244  1  0.46210278  0.91784555  0.59996893  1
  O2-  O245  1  0.44774991  0.91788274  0.93752211  1
  O2-  O246  1  0.95361032  0.41274285  0.27270698  1
  O2-  O247  1  0.95790733  0.41533028  0.59815115  1
  O2-  O248  1  0.95928640  0.41905073  0.93359436  1
  O2-  O249  1  0.95665333  0.92269832  0.27012839  1
  O2-  O250  1  0.95255319  0.91982583  0.60307567  1
  O2-  O251  1  0.96477192  0.91805398  0.93204656  1
  O2-  O252  1  0.33543915  0.29073278  0.27179873  1
  O2-  O253  1  0.33606679  0.28794403  0.60353068  1
  O2-  O254  1  0.33430345  0.28413491  0.92994156  1
  O2-  O255  1  0.33254056  0.79033527  0.26447410  1
  O2-  O256  1  0.33531321  0.79076561  0.60028162  1
  O2-  O257  1  0.33355476  0.79398622  0.93576129  1
  O2-  O258  1  0.84149639  0.28594484  0.26940776  1
  O2-  O259  1  0.83508067  0.28200065  0.59801066  1
  O2-  O260  1  0.83415161  0.28619156  0.93456925  1
  O2-  O261  1  0.82646929  0.79820846  0.27013283  1
  O2-  O262  1  0.83072176  0.80399101  0.60753726  1
  O2-  O263  1  0.83397781  0.79599712  0.92879937  1
  O2-  O264  1  0.41909987  0.05013037  0.06218293  1
  O2-  O265  1  0.41758985  0.04791072  0.39319644  1
  O2-  O266  1  0.41331257  0.04121803  0.73191092  1
  O2-  O267  1  0.41545018  0.54433475  0.05989020  1
  O2-  O268  1  0.41738526  0.54511162  0.40771344  1
  O2-  O269  1  0.41660526  0.55169608  0.72954676  1
  O2-  O270  1  0.91638952  0.04091039  0.06862026  1
  O2-  O271  1  0.91578459  0.04902805  0.40083899  1
  O2-  O272  1  0.91438900  0.04669386  0.72900852  1
  O2-  O273  1  0.91918313  0.54720271  0.06759482  1
  O2-  O274  1  0.91801575  0.54180359  0.40270095  1
  O2-  O275  1  0.91491280  0.54425291  0.72885426  1
  O2-  O276  1  0.29708773  0.16415486  0.06568798  1
  O2-  O277  1  0.29528794  0.16277835  0.39885233  1
  O2-  O278  1  0.29515271  0.16158303  0.73236537  1
  O2-  O279  1  0.29982771  0.66555969  0.06099293  1
  O2-  O280  1  0.29277739  0.67023810  0.40161704  1
  O2-  O281  1  0.29173525  0.66651258  0.73216541  1
  O2-  O282  1  0.78980355  0.16464939  0.07011357  1
  O2-  O283  1  0.79336567  0.16435281  0.39984817  1
  O2-  O284  1  0.78724595  0.15890826  0.73054200  1
  O2-  O285  1  0.79078817  0.67278361  0.06322145  1
  O2-  O286  1  0.79403701  0.67045366  0.40602824  1
  O2-  O287  1  0.80020800  0.66862454  0.72860695  1
