# generated using pymatgen
data_Ca2Al2SiO7
_symmetry_space_group_name_H-M   'P 1'
_cell_length_a   15.46163729
_cell_length_b   15.46333606
_cell_length_c   15.28684319
_cell_angle_alpha   89.99848937
_cell_angle_beta   89.99156889
_cell_angle_gamma   89.98383857
_symmetry_Int_Tables_number   1
_chemical_formula_structural   Ca2Al2SiO7
_chemical_formula_sum   'Ca48 Al48 Si24 O168'
_cell_volume   3654.90812281
_cell_formula_units_Z   24
loop_
 _symmetry_equiv_pos_site_id
 _symmetry_equiv_pos_as_xyz
  1  'x, y, z'
loop_
 _atom_type_symbol
 _atom_type_oxidation_number
  Ca2+  2.0
  Al0+  0.0
  Si0+  0.0
  O2-  -2.0
loop_
 _atom_site_type_symbol
 _atom_site_label
 _atom_site_symmetry_multiplicity
 _atom_site_fract_x
 _atom_site_fract_y
 _atom_site_fract_z
 _atom_site_occupancy
  Ca2+  Ca0  1  0.17314753  0.08199239  0.17328490  1
  Ca2+  Ca1  1  0.17609621  0.07016959  0.50703144  1
  Ca2+  Ca2  1  0.17490348  0.08054532  0.83604375  1
  Ca2+  Ca3  1  0.17401928  0.58533519  0.16711836  1
  Ca2+  Ca4  1  0.16141028  0.57836943  0.50999762  1
  Ca2+  Ca5  1  0.16864841  0.57984982  0.83166262  1
  Ca2+  Ca6  1  0.66458577  0.07253320  0.16916464  1
  Ca2+  Ca7  1  0.66701556  0.08365064  0.50760857  1
  Ca2+  Ca8  1  0.66429507  0.07691087  0.83647042  1
  Ca2+  Ca9  1  0.67354226  0.59255090  0.17097471  1
  Ca2+  Ca10  1  0.67566072  0.59689938  0.50294853  1
  Ca2+  Ca11  1  0.67636391  0.59503304  0.83690811  1
  Ca2+  Ca12  1  0.07895274  0.32871624  0.16275597  1
  Ca2+  Ca13  1  0.07361971  0.34056685  0.49918746  1
  Ca2+  Ca14  1  0.08311943  0.33047543  0.82623483  1
  Ca2+  Ca15  1  0.07728234  0.84227818  0.16829305  1
  Ca2+  Ca16  1  0.07818457  0.83796137  0.49772887  1
  Ca2+  Ca17  1  0.07829986  0.82565698  0.82064229  1
  Ca2+  Ca18  1  0.58183294  0.33026230  0.16429353  1
  Ca2+  Ca19  1  0.57946234  0.32739415  0.50334300  1
  Ca2+  Ca20  1  0.57487530  0.32497324  0.82235357  1
  Ca2+  Ca21  1  0.58133389  0.82549883  0.16438460  1
  Ca2+  Ca22  1  0.57058122  0.82577399  0.50019636  1
  Ca2+  Ca23  1  0.57952954  0.82679741  0.82767450  1
  Ca2+  Ca24  1  0.33531314  0.42477596  0.16690009  1
  Ca2+  Ca25  1  0.32668796  0.41699094  0.51002620  1
  Ca2+  Ca26  1  0.33213906  0.41882058  0.83391905  1
  Ca2+  Ca27  1  0.32969408  0.92717554  0.17884912  1
  Ca2+  Ca28  1  0.33106586  0.91760096  0.50879732  1
  Ca2+  Ca29  1  0.33602081  0.92274990  0.83384586  1
  Ca2+  Ca30  1  0.83485933  0.42852103  0.17407052  1
  Ca2+  Ca31  1  0.83812829  0.42664953  0.50813579  1
  Ca2+  Ca32  1  0.83574640  0.42699782  0.83292921  1
  Ca2+  Ca33  1  0.82667309  0.91083677  0.17127285  1
  Ca2+  Ca34  1  0.83437831  0.90960502  0.50533067  1
  Ca2+  Ca35  1  0.82558465  0.90965360  0.83712917  1
  Ca2+  Ca36  1  0.40841488  0.16444041  0.16344597  1
  Ca2+  Ca37  1  0.41111040  0.16435110  0.50407204  1
  Ca2+  Ca38  1  0.41753631  0.16491233  0.82371877  1
  Ca2+  Ca39  1  0.42537770  0.67027597  0.15824791  1
  Ca2+  Ca40  1  0.42161358  0.67734122  0.49249038  1
  Ca2+  Ca41  1  0.42783413  0.66686444  0.82364235  1
  Ca2+  Ca42  1  0.92417543  0.17308400  0.16002942  1
  Ca2+  Ca43  1  0.91497114  0.18269240  0.49440241  1
  Ca2+  Ca44  1  0.92601639  0.17202157  0.82527394  1
  Ca2+  Ca45  1  0.91101244  0.66812922  0.16747973  1
  Ca2+  Ca46  1  0.91846247  0.67224523  0.50026200  1
  Ca2+  Ca47  1  0.91825318  0.66702540  0.82288799  1
  Al0+  Al48  1  -0.00068821  0.00216108  -0.00635812  1
  Al0+  Al49  1  0.00023596  0.00120088  0.33171220  1
  Al0+  Al50  1  0.00061549  0.00049538  0.66758883  1
  Al0+  Al51  1  -0.00107613  0.50143441  0.00538279  1
  Al0+  Al52  1  -0.00120145  0.50135162  0.33036102  1
  Al0+  Al53  1  0.00006813  0.50034602  0.66996259  1
  Al0+  Al54  1  0.49950493  -0.00070481  0.00970107  1
  Al0+  Al55  1  0.50139781  0.00069552  0.33444080  1
  Al0+  Al56  1  0.50226846  -0.00183181  0.66381175  1
  Al0+  Al57  1  0.50119248  0.49957624  -0.00067439  1
  Al0+  Al58  1  0.50208542  0.49683659  0.33011638  1
  Al0+  Al59  1  0.50364579  0.49611845  0.65770365  1
  Al0+  Al60  1  0.24781257  0.24934069  0.00000361  1
  Al0+  Al61  1  0.25050955  0.25016390  0.33670603  1
  Al0+  Al62  1  0.25003906  0.24944080  0.67070248  1
  Al0+  Al63  1  0.24794642  0.75107510  0.00356568  1
  Al0+  Al64  1  0.24947416  0.75070954  0.33197430  1
  Al0+  Al65  1  0.24966291  0.74794932  0.66547568  1
  Al0+  Al66  1  0.74955924  0.25140738  -0.00102985  1
  Al0+  Al67  1  0.74863491  0.25219939  0.32640187  1
  Al0+  Al68  1  0.75038466  0.25120239  0.66172729  1
  Al0+  Al69  1  0.74822504  0.75044009  0.00557784  1
  Al0+  Al70  1  0.75169740  0.75009564  0.33170239  1
  Al0+  Al71  1  0.75102387  0.75108807  0.66513242  1
  Al0+  Al72  1  0.32277003  0.57137878  0.01122951  1
  Al0+  Al73  1  0.81916325  0.57030701  0.35001677  1
  Al0+  Al74  1  0.92968022  0.82262494  0.65374949  1
  Al0+  Al75  1  0.07080419  0.18003284  0.98456588  1
  Al0+  Al76  1  0.57027924  0.67967863  0.98489213  1
  Al0+  Al77  1  0.81971504  0.56992044  0.01532953  1
  Al0+  Al78  1  0.56990935  0.67900350  0.31660038  1
  Al0+  Al79  1  0.92816231  0.32362582  0.31719875  1
  Al0+  Al80  1  0.17903356  0.42968247  0.67998721  1
  Al0+  Al81  1  0.93132517  0.32033423  0.65472090  1
  Al0+  Al82  1  0.93109536  0.82156206  0.31828740  1
  Al0+  Al83  1  0.17722707  0.92798042  0.34895212  1
  Al0+  Al84  1  0.42801174  0.81942004  0.65454639  1
  Al0+  Al85  1  0.17676467  0.92502205  0.68436606  1
  Al0+  Al86  1  0.07115631  0.67766961  0.65387436  1
  Al0+  Al87  1  0.32186290  0.06749286  0.68358645  1
  Al0+  Al88  1  0.57345318  0.67707886  0.65241375  1
  Al0+  Al89  1  0.32241475  0.07192142  0.35183943  1
  Al0+  Al90  1  0.81765568  0.57074083  0.68025375  1
  Al0+  Al91  1  0.31879819  0.07009478  0.01456475  1
  Al0+  Al92  1  0.57077934  0.17719519  0.65297310  1
  Al0+  Al93  1  0.42698451  0.82269637  0.31623475  1
  Al0+  Al94  1  0.68045468  0.93041719  0.01469792  1
  Al0+  Al95  1  0.42627642  0.32030715  0.65176449  1
  Si0+  Si96  1  0.07217164  0.67816863  0.98572586  1
  Si0+  Si97  1  0.42678860  0.82305257  0.98516715  1
  Si0+  Si98  1  0.68145626  0.92984095  0.35067508  1
  Si0+  Si99  1  0.67686991  0.42492791  0.35214605  1
  Si0+  Si100  1  0.92857977  0.81953930  0.98643040  1
  Si0+  Si101  1  0.92778254  0.32430084  0.98244478  1
  Si0+  Si102  1  0.07267324  0.67624867  0.31450145  1
  Si0+  Si103  1  0.82322761  0.07430606  0.01533089  1
  Si0+  Si104  1  0.17429455  0.92788587  0.01672729  1
  Si0+  Si105  1  0.67807668  0.42463948  0.68347352  1
  Si0+  Si106  1  0.42914926  0.32039410  0.98634400  1
  Si0+  Si107  1  0.18024759  0.43108788  0.34631741  1
  Si0+  Si108  1  0.57051370  0.17687491  0.98744229  1
  Si0+  Si109  1  0.57216899  0.17881301  0.31579728  1
  Si0+  Si110  1  0.07358411  0.17716017  0.64862148  1
  Si0+  Si111  1  0.42723027  0.31914157  0.31647029  1
  Si0+  Si112  1  0.32358641  0.57023500  0.34640299  1
  Si0+  Si113  1  0.82029631  0.07361691  0.34608180  1
  Si0+  Si114  1  0.82181756  0.07556393  0.68019430  1
  Si0+  Si115  1  0.32642859  0.57085055  0.67951049  1
  Si0+  Si116  1  0.68213188  0.93046078  0.68069202  1
  Si0+  Si117  1  0.17860726  0.42877786  0.01766368  1
  Si0+  Si118  1  0.07097306  0.18079565  0.31789452  1
  Si0+  Si119  1  0.67709498  0.42520556  0.01675729  1
  O2-  O120  1  0.24474502  -0.00517078  0.06058796  1
  O2-  O121  1  0.25500296  -0.00584541  0.39832059  1
  O2-  O122  1  0.24996164  -0.00403413  0.73471261  1
  O2-  O123  1  0.24738303  0.49788429  0.06106569  1
  O2-  O124  1  0.24945388  0.50306890  0.38901831  1
  O2-  O125  1  0.25753686  0.50199239  0.72436002  1
  O2-  O126  1  0.75522638  0.00618822  0.06134729  1
  O2-  O127  1  0.75198516  0.00218451  0.39174605  1
  O2-  O128  1  0.75384587  0.00160614  0.72266146  1
  O2-  O129  1  0.74598702  0.49341677  0.06100473  1
  O2-  O130  1  0.74358557  0.49556259  0.39531961  1
  O2-  O131  1  0.74058271  0.49860750  0.72816731  1
  O2-  O132  1  0.00176807  0.24794386  0.27110715  1
  O2-  O133  1  0.00449981  0.24578815  0.60474454  1
  O2-  O134  1  -0.00514969  0.25424287  0.93873936  1
  O2-  O135  1  0.00739972  0.74885814  0.27057172  1
  O2-  O136  1  0.00542046  0.75503766  0.60375272  1
  O2-  O137  1  0.00160881  0.75054210  0.94529368  1
  O2-  O138  1  0.49711324  0.24651311  0.27455545  1
  O2-  O139  1  0.49670136  0.24636912  0.60197346  1
  O2-  O140  1  0.49987556  0.24810180  0.94591100  1
  O2-  O141  1  0.49563153  0.74785150  0.26508096  1
  O2-  O142  1  0.49368369  0.74124420  0.60479360  1
  O2-  O143  1  0.49108955  0.75056732  0.94032715  1
  O2-  O144  1  0.06914927  0.18248369  0.09812178  1
  O2-  O145  1  0.06859052  0.18348330  0.42295988  1
  O2-  O146  1  0.07088396  0.17889172  0.75466654  1
  O2-  O147  1  0.07320508  0.67732699  0.09077499  1
  O2-  O148  1  0.07020196  0.67034467  0.41928195  1
  O2-  O149  1  0.06688578  0.67562567  0.76823676  1
  O2-  O150  1  0.57106896  0.17864431  0.09275508  1
  O2-  O151  1  0.57809254  0.18079019  0.41996933  1
  O2-  O152  1  0.57207108  0.17818557  0.76729848  1
  O2-  O153  1  0.57055878  0.68151422  0.09777331  1
  O2-  O154  1  0.56837943  0.68130942  0.42971648  1
  O2-  O155  1  0.57452196  0.68201358  0.76648577  1
  O2-  O156  1  0.18292876  0.43008908  0.24081386  1
  O2-  O157  1  0.17752665  0.43203670  0.56629397  1
  O2-  O158  1  0.17784538  0.42878493  0.91246656  1
  O2-  O159  1  0.17469068  0.93463269  0.23470411  1
  O2-  O160  1  0.17467844  0.92929804  0.57125404  1
  O2-  O161  1  0.17316469  0.92742303  0.91176445  1
  O2-  O162  1  0.67737519  0.42167758  0.24615460  1
  O2-  O163  1  0.68248614  0.41895650  0.57838179  1
  O2-  O164  1  0.67691224  0.42048620  0.91178779  1
  O2-  O165  1  0.68254624  0.93175615  0.24510465  1
  O2-  O166  1  0.68344033  0.93136634  0.57554859  1
  O2-  O167  1  0.68129224  0.93155881  0.90145958  1
  O2-  O168  1  0.42999245  0.32033065  0.09204097  1
  O2-  O169  1  0.42592722  0.32063194  0.42066396  1
  O2-  O170  1  0.42865171  0.32054497  0.76602072  1
  O2-  O171  1  0.42922611  0.82280050  0.09056975  1
  O2-  O172  1  0.42902881  0.82131299  0.42951407  1
  O2-  O173  1  0.43276676  0.82165558  0.76861783  1
  O2-  O174  1  0.92905525  0.32319242  0.08827428  1
  O2-  O175  1  0.92953781  0.32341950  0.43012828  1
  O2-  O176  1  0.93190786  0.31824093  0.76804225  1
  O2-  O177  1  0.92937120  0.81989511  0.09168316  1
  O2-  O178  1  0.92961443  0.82120289  0.43048474  1
  O2-  O179  1  0.92551782  0.81882886  0.76793586  1
  O2-  O180  1  0.31734120  0.07548985  0.23768380  1
  O2-  O181  1  0.32092690  0.06637810  0.57045084  1
  O2-  O182  1  0.32133108  0.07043115  0.90224917  1
  O2-  O183  1  0.32317571  0.56635209  0.24082570  1
  O2-  O184  1  0.32523926  0.56853176  0.57367207  1
  O2-  O185  1  0.32302312  0.56795672  0.89859701  1
  O2-  O186  1  0.81707508  0.07307804  0.24066903  1
  O2-  O187  1  0.81909949  0.07823787  0.57491105  1
  O2-  O188  1  0.82168716  0.07474999  0.90980958  1
  O2-  O189  1  0.81808411  0.56877018  0.23637862  1
  O2-  O190  1  0.81818575  0.57051295  0.56743186  1
  O2-  O191  1  0.82088783  0.56993131  0.90245475  1
  O2-  O192  1  0.04563139  0.08810262  0.27016181  1
  O2-  O193  1  0.04737852  0.08401704  0.60360243  1
  O2-  O194  1  0.04025367  0.08455758  0.92789509  1
  O2-  O195  1  0.04307810  0.58527514  0.26431510  1
  O2-  O196  1  0.03668667  0.58203429  0.59960863  1
  O2-  O197  1  0.04319467  0.58563139  0.94053071  1
  O2-  O198  1  0.54809159  0.08590879  0.26910191  1
  O2-  O199  1  0.54749256  0.07925900  0.59821443  1
  O2-  O200  1  0.54231294  0.08457332  0.94214300  1
  O2-  O201  1  0.54716476  0.57740607  0.26587295  1
  O2-  O202  1  0.55942950  0.57563649  0.60162379  1
  O2-  O203  1  0.54486481  0.58057499  0.93321673  1
  O2-  O204  1  0.16410892  0.21017610  0.27184167  1
  O2-  O205  1  0.16684998  0.20309001  0.60467260  1
  O2-  O206  1  0.16638390  0.21277776  0.93012349  1
  O2-  O207  1  0.16786386  0.69718712  0.26932730  1
  O2-  O208  1  0.17208982  0.69427706  0.60270854  1
  O2-  O209  1  0.16428125  0.70407618  0.93791889  1
  O2-  O210  1  0.66078838  0.21011070  0.26320289  1
  O2-  O211  1  0.66727019  0.20913258  0.59756256  1
  O2-  O212  1  0.66334758  0.20252217  0.94029524  1
  O2-  O213  1  0.66753291  0.71281238  0.26516144  1
  O2-  O214  1  0.66680864  0.71671465  0.59822470  1
  O2-  O215  1  0.66653275  0.71635820  0.93386988  1
  O2-  O216  1  0.08570029  0.45496748  0.06540368  1
  O2-  O217  1  0.08754649  0.45831945  0.39155440  1
  O2-  O218  1  0.08545934  0.46339849  0.73808511  1
  O2-  O219  1  0.08057583  0.95762597  0.06146587  1
  O2-  O220  1  0.07945740  0.96156548  0.40111615  1
  O2-  O221  1  0.07752948  0.95508794  0.73705898  1
  O2-  O222  1  0.58363985  0.45006181  0.06359359  1
  O2-  O223  1  0.58134264  0.44643504  0.39600818  1
  O2-  O224  1  0.58120818  0.44278992  0.72580224  1
  O2-  O225  1  0.58640452  0.96220704  0.07320805  1
  O2-  O226  1  0.58994279  0.95835129  0.39703590  1
  O2-  O227  1  0.59154371  0.95878089  0.72955351  1
  O2-  O228  1  0.20573799  0.33613198  0.06484085  1
  O2-  O229  1  0.20848258  0.34036816  0.39459950  1
  O2-  O230  1  0.20681112  0.33322784  0.73573388  1
  O2-  O231  1  0.19467655  0.83343334  0.06349329  1
  O2-  O232  1  0.19606111  0.82545637  0.39698491  1
  O2-  O233  1  0.20160854  0.82439493  0.73527334  1
  O2-  O234  1  0.70170606  0.33135627  0.06531004  1
  O2-  O235  1  0.70449350  0.33122479  0.39678420  1
  O2-  O236  1  0.70945521  0.33345202  0.73249347  1
  O2-  O237  1  0.71393270  0.83669341  0.07205278  1
  O2-  O238  1  0.71246482  0.83921694  0.39650705  1
  O2-  O239  1  0.71187212  0.84027662  0.73014462  1
  O2-  O240  1  0.45768392  0.40934853  0.26635430  1
  O2-  O241  1  0.45588157  0.41583439  0.59364035  1
  O2-  O242  1  0.45774086  0.41094097  0.93799449  1
  O2-  O243  1  0.45954486  0.92147866  0.26551298  1
  O2-  O244  1  0.46477296  0.91353321  0.59916904  1
  O2-  O245  1  0.45887572  0.91590495  0.94132342  1
  O2-  O246  1  0.96241734  0.41803339  0.26134602  1
  O2-  O247  1  0.96424569  0.41563733  0.60106172  1
  O2-  O248  1  0.95612673  0.41803270  0.93872125  1
  O2-  O249  1  0.95783640  0.91977085  0.26295632  1
  O2-  O250  1  0.95026209  0.92356813  0.60214122  1
  O2-  O251  1  0.95031494  0.91303172  0.93958367  1
  O2-  O252  1  0.33520437  0.29250455  0.26788146  1
  O2-  O253  1  0.32719263  0.29383281  0.59950833  1
  O2-  O254  1  0.33646956  0.29447105  0.94108872  1
  O2-  O255  1  0.32655742  0.79919540  0.26463602  1
  O2-  O256  1  0.32874704  0.79758404  0.60188203  1
  O2-  O257  1  0.33030985  0.80346761  0.94305431  1
  O2-  O258  1  0.83198249  0.29322830  0.26187831  1
  O2-  O259  1  0.83609241  0.28998975  0.59858064  1
  O2-  O260  1  0.83268107  0.30119843  0.93832613  1
  O2-  O261  1  0.83557804  0.78817680  0.26328413  1
  O2-  O262  1  0.83359989  0.79091331  0.59904558  1
  O2-  O263  1  0.83709438  0.78922040  0.94089810  1
  O2-  O264  1  0.41503613  0.04268231  0.07132907  1
  O2-  O265  1  0.42489969  0.05180487  0.39910331  1
  O2-  O266  1  0.42249020  0.03959594  0.73406168  1
  O2-  O267  1  0.41767658  0.53723894  0.06762888  1
  O2-  O268  1  0.41416324  0.53791365  0.39262047  1
  O2-  O269  1  0.42077543  0.54320842  0.72387582  1
  O2-  O270  1  0.91724266  0.04891225  0.06048879  1
  O2-  O271  1  0.91336026  0.05046451  0.39154989  1
  O2-  O272  1  0.91457862  0.05205613  0.72717509  1
  O2-  O273  1  0.91640647  0.54109308  0.07156293  1
  O2-  O274  1  0.91722571  0.53820237  0.39978799  1
  O2-  O275  1  0.91258273  0.53614718  0.73535031  1
  O2-  O276  1  0.28698943  0.16741158  0.06808923  1
  O2-  O277  1  0.29025242  0.16993402  0.40399535  1
  O2-  O278  1  0.29439372  0.16702288  0.73507230  1
  O2-  O279  1  0.29154588  0.66740754  0.06712696  1
  O2-  O280  1  0.30029682  0.66383931  0.39066405  1
  O2-  O281  1  0.30252623  0.66374921  0.72690896  1
  O2-  O282  1  0.79848411  0.16861185  0.06131445  1
  O2-  O283  1  0.78966599  0.16571694  0.39168247  1
  O2-  O284  1  0.79070468  0.16519626  0.73020377  1
  O2-  O285  1  0.78711653  0.66528446  0.07028577  1
  O2-  O286  1  0.78898099  0.66807362  0.40156823  1
  O2-  O287  1  0.78783670  0.66800057  0.73473399  1
