# generated using pymatgen
data_Ca2Al2SiO7
_symmetry_space_group_name_H-M   'P 1'
_cell_length_a   15.45492073
_cell_length_b   15.45535143
_cell_length_c   15.28113092
_cell_angle_alpha   89.98689786
_cell_angle_beta   90.00724047
_cell_angle_gamma   89.99517014
_symmetry_Int_Tables_number   1
_chemical_formula_structural   Ca2Al2SiO7
_chemical_formula_sum   'Ca48 Al48 Si24 O168'
_cell_volume   3650.06960971
_cell_formula_units_Z   24
loop_
 _symmetry_equiv_pos_site_id
 _symmetry_equiv_pos_as_xyz
  1  'x, y, z'
loop_
 _atom_type_symbol
 _atom_type_oxidation_number
  Ca2+  2.0
  Al0+  0.0
  Si0+  0.0
  O2-  -2.0
loop_
 _atom_site_type_symbol
 _atom_site_label
 _atom_site_symmetry_multiplicity
 _atom_site_fract_x
 _atom_site_fract_y
 _atom_site_fract_z
 _atom_site_occupancy
  Ca2+  Ca0  1  0.16319481  0.08049563  0.17433030  1
  Ca2+  Ca1  1  0.16805617  0.08074854  0.50382922  1
  Ca2+  Ca2  1  0.17006339  0.08818071  0.83594234  1
  Ca2+  Ca3  1  0.17933630  0.58375645  0.17174062  1
  Ca2+  Ca4  1  0.17596320  0.58556917  0.50639614  1
  Ca2+  Ca5  1  0.17415789  0.59022442  0.84027098  1
  Ca2+  Ca6  1  0.66702771  0.08065436  0.16405019  1
  Ca2+  Ca7  1  0.66702743  0.07612922  0.51303268  1
  Ca2+  Ca8  1  0.66178434  0.07604487  0.84158391  1
  Ca2+  Ca9  1  0.66363325  0.58406107  0.17120512  1
  Ca2+  Ca10  1  0.66161824  0.58017382  0.49830999  1
  Ca2+  Ca11  1  0.67349612  0.58654974  0.84439019  1
  Ca2+  Ca12  1  0.09255019  0.32414901  0.16319599  1
  Ca2+  Ca13  1  0.09329858  0.32298646  0.49592071  1
  Ca2+  Ca14  1  0.08271560  0.32301838  0.83000535  1
  Ca2+  Ca15  1  0.07946817  0.83229516  0.16349195  1
  Ca2+  Ca16  1  0.08135910  0.83159537  0.49370338  1
  Ca2+  Ca17  1  0.08369609  0.82025793  0.83092198  1
  Ca2+  Ca18  1  0.57863191  0.33299340  0.15844111  1
  Ca2+  Ca19  1  0.58471999  0.32916624  0.49526190  1
  Ca2+  Ca20  1  0.57943177  0.32418180  0.83343064  1
  Ca2+  Ca21  1  0.57646645  0.82326830  0.15684183  1
  Ca2+  Ca22  1  0.57668418  0.83023770  0.49760994  1
  Ca2+  Ca23  1  0.57635113  0.83797305  0.83178579  1
  Ca2+  Ca24  1  0.33434047  0.42597178  0.17205865  1
  Ca2+  Ca25  1  0.33011883  0.42911659  0.50073037  1
  Ca2+  Ca26  1  0.33727854  0.42833861  0.83937674  1
  Ca2+  Ca27  1  0.32744001  0.91465727  0.16814490  1
  Ca2+  Ca28  1  0.32870207  0.91875060  0.50773028  1
  Ca2+  Ca29  1  0.34083866  0.91931590  0.83551450  1
  Ca2+  Ca30  1  0.82694808  0.42375171  0.16908826  1
  Ca2+  Ca31  1  0.82629219  0.41411342  0.50012886  1
  Ca2+  Ca32  1  0.83196348  0.42164019  0.84074129  1
  Ca2+  Ca33  1  0.83139561  0.91787289  0.16665821  1
  Ca2+  Ca34  1  0.82734445  0.91204813  0.50357835  1
  Ca2+  Ca35  1  0.81756635  0.92042215  0.84319707  1
  Ca2+  Ca36  1  0.42123873  0.17866208  0.15433566  1
  Ca2+  Ca37  1  0.42014027  0.16149358  0.50195268  1
  Ca2+  Ca38  1  0.42434066  0.16752289  0.82895718  1
  Ca2+  Ca39  1  0.42245030  0.66415855  0.15785330  1
  Ca2+  Ca40  1  0.41510175  0.66731741  0.49727874  1
  Ca2+  Ca41  1  0.41318075  0.67716656  0.83198933  1
  Ca2+  Ca42  1  0.92614147  0.16481737  0.16038892  1
  Ca2+  Ca43  1  0.92982274  0.16404720  0.49440732  1
  Ca2+  Ca44  1  0.92568838  0.15702913  0.83343560  1
  Ca2+  Ca45  1  0.92005109  0.67085477  0.15942442  1
  Ca2+  Ca46  1  0.92352924  0.67378411  0.49467058  1
  Ca2+  Ca47  1  0.92810387  0.65750875  0.83117973  1
  Al0+  Al48  1  -0.00086376  -0.00080874  -0.00225964  1
  Al0+  Al49  1  0.00023671  -0.00011178  0.33011462  1
  Al0+  Al50  1  -0.00086263  -0.00078678  0.66273903  1
  Al0+  Al51  1  0.00002453  0.49795682  0.00228979  1
  Al0+  Al52  1  -0.00032181  0.49826434  0.33749174  1
  Al0+  Al53  1  -0.00018853  0.49874528  0.65966746  1
  Al0+  Al54  1  0.49856874  0.00013565  0.00229978  1
  Al0+  Al55  1  0.50137170  -0.00108800  0.33155732  1
  Al0+  Al56  1  0.49843351  -0.00053353  0.66503141  1
  Al0+  Al57  1  0.50018066  0.50118617  -0.00495492  1
  Al0+  Al58  1  0.50166382  0.49915702  0.33937090  1
  Al0+  Al59  1  0.49942631  0.49949124  0.67212646  1
  Al0+  Al60  1  0.24988816  0.25099670  -0.00912098  1
  Al0+  Al61  1  0.25332821  0.25055217  0.33307350  1
  Al0+  Al62  1  0.25022304  0.25070222  0.66623372  1
  Al0+  Al63  1  0.24947431  0.75014228  -0.00153015  1
  Al0+  Al64  1  0.24941998  0.75295271  0.34147617  1
  Al0+  Al65  1  0.24976930  0.75026929  0.66203901  1
  Al0+  Al66  1  0.75143821  0.24963745  0.00110147  1
  Al0+  Al67  1  0.75301295  0.24989473  0.33720591  1
  Al0+  Al68  1  0.75011110  0.24963025  0.66431438  1
  Al0+  Al69  1  0.74974488  0.75099536  0.00612805  1
  Al0+  Al70  1  0.74999645  0.75098307  0.32655852  1
  Al0+  Al71  1  0.74896974  0.74856072  0.67173168  1
  Al0+  Al72  1  0.56957649  0.17984329  0.65234682  1
  Al0+  Al73  1  0.43055677  0.82048074  0.65125773  1
  Al0+  Al74  1  0.68077499  0.42900218  0.34680995  1
  Al0+  Al75  1  0.07035364  0.17726938  0.98572103  1
  Al0+  Al76  1  0.82324161  0.57122127  0.01402011  1
  Al0+  Al77  1  0.07102588  0.67885457  0.65126364  1
  Al0+  Al78  1  0.56766828  0.67895045  0.32108910  1
  Al0+  Al79  1  0.67887001  0.92882893  0.67964981  1
  Al0+  Al80  1  0.07176853  0.18203401  0.31919758  1
  Al0+  Al81  1  0.17816603  0.93157900  0.34658974  1
  Al0+  Al82  1  0.67524761  0.92950326  0.01910511  1
  Al0+  Al83  1  0.31955552  0.57218876  0.68388786  1
  Al0+  Al84  1  0.32026042  0.57167679  0.01305093  1
  Al0+  Al85  1  0.82250295  0.07125899  0.01617613  1
  Al0+  Al86  1  0.17839894  0.42664079  0.34797293  1
  Al0+  Al87  1  0.06921322  0.67828562  0.98976373  1
  Al0+  Al88  1  0.57331906  0.67898282  0.98451588  1
  Al0+  Al89  1  0.31887156  0.07051534  0.68068224  1
  Al0+  Al90  1  0.57211513  0.17932242  0.98678346  1
  Al0+  Al91  1  0.92965499  0.82025152  0.31851175  1
  Al0+  Al92  1  0.07132352  0.17876845  0.65124151  1
  Al0+  Al93  1  0.42783335  0.32348601  0.98376972  1
  Al0+  Al94  1  0.32126430  0.57185725  0.34905730  1
  Al0+  Al95  1  0.42757388  0.82033372  0.98595804  1
  Si0+  Si96  1  0.32457564  0.07228466  0.34829598  1
  Si0+  Si97  1  0.17832793  0.42633458  0.01496430  1
  Si0+  Si98  1  0.42594228  0.82354712  0.31690304  1
  Si0+  Si99  1  0.17908158  0.92956076  0.01291378  1
  Si0+  Si100  1  0.43261755  0.31958451  0.32043043  1
  Si0+  Si101  1  0.57456488  0.17714223  0.31941369  1
  Si0+  Si102  1  0.67906169  0.42660533  0.68321230  1
  Si0+  Si103  1  0.92816599  0.32198322  0.98449724  1
  Si0+  Si104  1  0.82077476  0.07001747  0.34969442  1
  Si0+  Si105  1  0.57411928  0.67620548  0.65079035  1
  Si0+  Si106  1  0.67894550  0.92866755  0.34888634  1
  Si0+  Si107  1  0.07352132  0.67688169  0.31773219  1
  Si0+  Si108  1  0.92580822  0.82001186  0.65212572  1
  Si0+  Si109  1  0.17663041  0.42853347  0.68446030  1
  Si0+  Si110  1  0.92560947  0.32243421  0.31559628  1
  Si0+  Si111  1  0.67825840  0.42896461  0.01497873  1
  Si0+  Si112  1  0.31963001  0.07348247  0.01420460  1
  Si0+  Si113  1  0.82270045  0.07268773  0.68204402  1
  Si0+  Si114  1  0.17547184  0.92807500  0.68423404  1
  Si0+  Si115  1  0.82108638  0.56903570  0.67999741  1
  Si0+  Si116  1  0.92739129  0.32267271  0.64760530  1
  Si0+  Si117  1  0.82199077  0.57494032  0.35070537  1
  Si0+  Si118  1  0.42890646  0.32428756  0.64740530  1
  Si0+  Si119  1  0.92752513  0.82203638  0.98245974  1
  O2-  O120  1  0.24771494  0.00315678  0.05580619  1
  O2-  O121  1  0.25571077  0.00377298  0.39219324  1
  O2-  O122  1  0.24231754  -0.00188553  0.72909058  1
  O2-  O123  1  0.24690830  0.49503101  0.05889677  1
  O2-  O124  1  0.24351801  0.50470768  0.39850972  1
  O2-  O125  1  0.24306051  0.49825938  0.72984537  1
  O2-  O126  1  0.74916242  0.00138123  0.06778580  1
  O2-  O127  1  0.74748171  0.00157994  0.39260960  1
  O2-  O128  1  0.75322378  0.00485118  0.72500964  1
  O2-  O129  1  0.74427862  0.50023680  0.05950005  1
  O2-  O130  1  0.75503183  0.50417998  0.39507790  1
  O2-  O131  1  0.74950327  0.49901945  0.72326859  1
  O2-  O132  1  0.00043775  0.26018698  0.27225111  1
  O2-  O133  1  -0.00422004  0.25295720  0.60476183  1
  O2-  O134  1  -0.00623649  0.25057037  0.93987677  1
  O2-  O135  1  0.00313110  0.74340086  0.27306083  1
  O2-  O136  1  -0.00337014  0.75470797  0.60619417  1
  O2-  O137  1  -0.00858619  0.74837095  0.93937132  1
  O2-  O138  1  0.50286289  0.24742356  0.27817532  1
  O2-  O139  1  0.49719071  0.25521274  0.60219171  1
  O2-  O140  1  0.49916176  0.24953042  0.93577163  1
  O2-  O141  1  0.49079813  0.75101705  0.27440268  1
  O2-  O142  1  0.50423017  0.74339731  0.60637351  1
  O2-  O143  1  0.50217644  0.75153717  0.93471407  1
  O2-  O144  1  0.07178880  0.17832075  0.09891933  1
  O2-  O145  1  0.06985036  0.18087543  0.43235400  1
  O2-  O146  1  0.06889680  0.17965030  0.76425955  1
  O2-  O147  1  0.07011374  0.68182966  0.10280971  1
  O2-  O148  1  0.07141087  0.67980769  0.42354603  1
  O2-  O149  1  0.06864880  0.67783931  0.76458609  1
  O2-  O150  1  0.56967292  0.18258375  0.10130946  1
  O2-  O151  1  0.57367762  0.17637027  0.42471911  1
  O2-  O152  1  0.56988450  0.18177452  0.76473753  1
  O2-  O153  1  0.56939162  0.67737625  0.09845509  1
  O2-  O154  1  0.56861291  0.68181962  0.43470706  1
  O2-  O155  1  0.57786851  0.67684476  0.75565226  1
  O2-  O156  1  0.18417581  0.42406575  0.23449397  1
  O2-  O157  1  0.17865576  0.42908408  0.57882140  1
  O2-  O158  1  0.17652590  0.42690471  0.90934151  1
  O2-  O159  1  0.17842012  0.93270777  0.23301582  1
  O2-  O160  1  0.17523397  0.93027356  0.57836573  1
  O2-  O161  1  0.17888856  0.92937440  0.90790102  1
  O2-  O162  1  0.68112216  0.42811775  0.23411149  1
  O2-  O163  1  0.68007016  0.42595025  0.57782171  1
  O2-  O164  1  0.68205847  0.42748594  0.90906308  1
  O2-  O165  1  0.67800853  0.93099473  0.24457721  1
  O2-  O166  1  0.68202878  0.92845667  0.56558181  1
  O2-  O167  1  0.67604103  0.93126025  0.90514447  1
  O2-  O168  1  0.42820382  0.32215605  0.09833113  1
  O2-  O169  1  0.43387336  0.31859170  0.42559291  1
  O2-  O170  1  0.43142768  0.32465311  0.75261410  1
  O2-  O171  1  0.42454223  0.81831256  0.09987360  1
  O2-  O172  1  0.42954231  0.82806516  0.42243698  1
  O2-  O173  1  0.43151656  0.82136009  0.76380193  1
  O2-  O174  1  0.92939173  0.32367173  0.08993176  1
  O2-  O175  1  0.91984972  0.31646901  0.42103551  1
  O2-  O176  1  0.92699550  0.32609488  0.75301847  1
  O2-  O177  1  0.93207483  0.82381815  0.08823440  1
  O2-  O178  1  0.92862152  0.81876145  0.43219664  1
  O2-  O179  1  0.92530818  0.81808701  0.75729341  1
  O2-  O180  1  0.32541270  0.07313039  0.24263035  1
  O2-  O181  1  0.31835173  0.06819033  0.56708497  1
  O2-  O182  1  0.31911784  0.07345987  0.90913314  1
  O2-  O183  1  0.32293634  0.56964035  0.23538941  1
  O2-  O184  1  0.32006111  0.57004985  0.57072371  1
  O2-  O185  1  0.31664781  0.57300697  0.90004322  1
  O2-  O186  1  0.82008958  0.07092051  0.24508772  1
  O2-  O187  1  0.82244467  0.07193069  0.57586703  1
  O2-  O188  1  0.82484841  0.06686790  0.90246160  1
  O2-  O189  1  0.82152462  0.57410857  0.24538072  1
  O2-  O190  1  0.81978953  0.56931965  0.57484496  1
  O2-  O191  1  0.82545813  0.56581044  0.90022634  1
  O2-  O192  1  0.03664881  0.08688068  0.26576571  1
  O2-  O193  1  0.04081779  0.08163780  0.59681501  1
  O2-  O194  1  0.04025683  0.08106387  0.93032412  1
  O2-  O195  1  0.05151943  0.58080103  0.27554917  1
  O2-  O196  1  0.03933718  0.58314162  0.59576112  1
  O2-  O197  1  0.04106626  0.58066556  0.93575418  1
  O2-  O198  1  0.54846745  0.08497134  0.27209067  1
  O2-  O199  1  0.53703748  0.08458328  0.59675265  1
  O2-  O200  1  0.54203842  0.08121986  0.93601713  1
  O2-  O201  1  0.54113794  0.57998850  0.26976484  1
  O2-  O202  1  0.54889854  0.58099791  0.60710155  1
  O2-  O203  1  0.54931934  0.58041587  0.93106663  1
  O2-  O204  1  0.17072823  0.20837405  0.26676377  1
  O2-  O205  1  0.16807563  0.21045370  0.59770196  1
  O2-  O206  1  0.16457455  0.20945040  0.92877674  1
  O2-  O207  1  0.16733227  0.70607407  0.27444862  1
  O2-  O208  1  0.16573786  0.71073350  0.59568378  1
  O2-  O209  1  0.16245104  0.71443371  0.93333665  1
  O2-  O210  1  0.66687485  0.20576461  0.27451052  1
  O2-  O211  1  0.66755723  0.20865983  0.59832162  1
  O2-  O212  1  0.67118866  0.20607299  0.93439998  1
  O2-  O213  1  0.66378255  0.70958925  0.26685750  1
  O2-  O214  1  0.66770204  0.70240683  0.60380862  1
  O2-  O215  1  0.67419195  0.70501135  0.93517222  1
  O2-  O216  1  0.08485839  0.44886985  0.06234639  1
  O2-  O217  1  0.07601914  0.44277377  0.39885745  1
  O2-  O218  1  0.08042354  0.45135383  0.72664944  1
  O2-  O219  1  0.08682154  0.95571135  0.06005828  1
  O2-  O220  1  0.08228071  0.96434996  0.40136790  1
  O2-  O221  1  0.08021380  0.95101876  0.72850864  1
  O2-  O222  1  0.58390453  0.45243617  0.05983765  1
  O2-  O223  1  0.58641984  0.45881385  0.40553470  1
  O2-  O224  1  0.58711307  0.45143040  0.73041518  1
  O2-  O225  1  0.57744120  0.95911944  0.07376174  1
  O2-  O226  1  0.58606708  0.95483239  0.39611221  1
  O2-  O227  1  0.58306708  0.96169460  0.73172734  1
  O2-  O228  1  0.20557996  0.33214767  0.05955875  1
  O2-  O229  1  0.21479574  0.33085299  0.40297253  1
  O2-  O230  1  0.20263428  0.33479278  0.72972553  1
  O2-  O231  1  0.20929054  0.83973548  0.06260790  1
  O2-  O232  1  0.20470119  0.83596874  0.40456884  1
  O2-  O233  1  0.20266334  0.83425952  0.72773883  1
  O2-  O234  1  0.70558551  0.33650990  0.06265007  1
  O2-  O235  1  0.71336977  0.33306777  0.40372626  1
  O2-  O236  1  0.70958575  0.33550925  0.73070577  1
  O2-  O237  1  0.70454256  0.83153565  0.07224541  1
  O2-  O238  1  0.71017106  0.83730131  0.39506352  1
  O2-  O239  1  0.70909124  0.83278906  0.73525447  1
  O2-  O240  1  0.46288598  0.41064848  0.27377052  1
  O2-  O241  1  0.45745793  0.41758782  0.60173306  1
  O2-  O242  1  0.45846637  0.41932630  0.92843055  1
  O2-  O243  1  0.45504021  0.91578184  0.26876159  1
  O2-  O244  1  0.46248483  0.91554783  0.59504690  1
  O2-  O245  1  0.45300407  0.92060018  0.93586571  1
  O2-  O246  1  0.94284846  0.41986028  0.27436269  1
  O2-  O247  1  0.95179866  0.41480065  0.59762632  1
  O2-  O248  1  0.95698484  0.41346164  0.93529300  1
  O2-  O249  1  0.96223529  0.91552483  0.26362581  1
  O2-  O250  1  0.94732923  0.91447021  0.60519700  1
  O2-  O251  1  0.95797812  0.91257950  0.93366432  1
  O2-  O252  1  0.34187220  0.29248123  0.27110225  1
  O2-  O253  1  0.33477317  0.29874086  0.60311400  1
  O2-  O254  1  0.33098176  0.29635304  0.92772527  1
  O2-  O255  1  0.32951497  0.80319467  0.27516947  1
  O2-  O256  1  0.33360785  0.79178405  0.59693231  1
  O2-  O257  1  0.33065413  0.79092193  0.93056296  1
  O2-  O258  1  0.83468957  0.29057754  0.26696563  1
  O2-  O259  1  0.83363568  0.29697028  0.60124706  1
  O2-  O260  1  0.83403919  0.30030805  0.93794396  1
  O2-  O261  1  0.83393625  0.79165105  0.26215124  1
  O2-  O262  1  0.83343424  0.79014382  0.60466830  1
  O2-  O263  1  0.83166416  0.80145960  0.94108114  1
  O2-  O264  1  0.41013646  0.04682757  0.06411341  1
  O2-  O265  1  0.41856974  0.04582330  0.39477826  1
  O2-  O266  1  0.41482605  0.03782152  0.73381078  1
  O2-  O267  1  0.41826897  0.54108741  0.06423053  1
  O2-  O268  1  0.41665171  0.53685089  0.40441717  1
  O2-  O269  1  0.41683585  0.54113991  0.73673903  1
  O2-  O270  1  0.92080086  0.03950907  0.06929217  1
  O2-  O271  1  0.91161273  0.03864849  0.39667464  1
  O2-  O272  1  0.91658732  0.04608450  0.72703289  1
  O2-  O273  1  0.91737362  0.53616596  0.07098511  1
  O2-  O274  1  0.91616222  0.55174953  0.39729611  1
  O2-  O275  1  0.91326386  0.53890068  0.72590856  1
  O2-  O276  1  0.29135061  0.16620974  0.05991836  1
  O2-  O277  1  0.30029480  0.16540504  0.39533064  1
  O2-  O278  1  0.29097396  0.16865909  0.73355034  1
  O2-  O279  1  0.28605785  0.66696989  0.06790023  1
  O2-  O280  1  0.29778975  0.67142758  0.40213309  1
  O2-  O281  1  0.28745743  0.67005413  0.73395280  1
  O2-  O282  1  0.79857383  0.17143540  0.06857503  1
  O2-  O283  1  0.79615888  0.16198560  0.39862676  1
  O2-  O284  1  0.79990133  0.16753628  0.72654358  1
  O2-  O285  1  0.79875306  0.66870752  0.06807699  1
  O2-  O286  1  0.79295964  0.66790976  0.39650132  1
  O2-  O287  1  0.79573516  0.66009202  0.72959353  1
