# generated using pymatgen
data_Ca2Al2SiO7
_symmetry_space_group_name_H-M   'P 1'
_cell_length_a   15.45428116
_cell_length_b   15.45425178
_cell_length_c   15.28098272
_cell_angle_alpha   89.99787483
_cell_angle_beta   89.99124782
_cell_angle_gamma   90.00779795
_symmetry_Int_Tables_number   1
_chemical_formula_structural   Ca2Al2SiO7
_chemical_formula_sum   'Ca48 Al48 Si24 O168'
_cell_volume   3649.62352824
_cell_formula_units_Z   24
loop_
 _symmetry_equiv_pos_site_id
 _symmetry_equiv_pos_as_xyz
  1  'x, y, z'
loop_
 _atom_type_symbol
 _atom_type_oxidation_number
  Ca2+  2.0
  Al0+  0.0
  Si0+  0.0
  O2-  -2.0
loop_
 _atom_site_type_symbol
 _atom_site_label
 _atom_site_symmetry_multiplicity
 _atom_site_fract_x
 _atom_site_fract_y
 _atom_site_fract_z
 _atom_site_occupancy
  Ca2+  Ca0  1  0.16915901  0.07608102  0.17305902  1
  Ca2+  Ca1  1  0.16650392  0.07456299  0.50436974  1
  Ca2+  Ca2  1  0.16117498  0.08114038  0.83414986  1
  Ca2+  Ca3  1  0.17181377  0.58789406  0.17287895  1
  Ca2+  Ca4  1  0.18088006  0.57526138  0.50840618  1
  Ca2+  Ca5  1  0.16774072  0.57937316  0.83505732  1
  Ca2+  Ca6  1  0.67517575  0.07651439  0.16969350  1
  Ca2+  Ca7  1  0.67880135  0.08820799  0.50390754  1
  Ca2+  Ca8  1  0.67988656  0.08008828  0.84331967  1
  Ca2+  Ca9  1  0.67022532  0.59163451  0.16181387  1
  Ca2+  Ca10  1  0.66940131  0.57754513  0.51280897  1
  Ca2+  Ca11  1  0.66962257  0.58688300  0.83450232  1
  Ca2+  Ca12  1  0.07617140  0.32587484  0.16123504  1
  Ca2+  Ca13  1  0.08108947  0.33017885  0.49808774  1
  Ca2+  Ca14  1  0.08625769  0.32100939  0.82461684  1
  Ca2+  Ca15  1  0.08089515  0.82989156  0.15840464  1
  Ca2+  Ca16  1  0.08954672  0.83606326  0.49900790  1
  Ca2+  Ca17  1  0.07814770  0.83081958  0.83214702  1
  Ca2+  Ca18  1  0.57662033  0.33173760  0.16794667  1
  Ca2+  Ca19  1  0.57361535  0.34037923  0.49902570  1
  Ca2+  Ca20  1  0.57962089  0.33810495  0.82498113  1
  Ca2+  Ca21  1  0.57230248  0.83445385  0.15575176  1
  Ca2+  Ca22  1  0.57739838  0.82432711  0.49488724  1
  Ca2+  Ca23  1  0.58654667  0.82673243  0.83161096  1
  Ca2+  Ca24  1  0.33208257  0.42456076  0.17522206  1
  Ca2+  Ca25  1  0.33705088  0.42229986  0.50893712  1
  Ca2+  Ca26  1  0.33385413  0.41983870  0.82886677  1
  Ca2+  Ca27  1  0.32974405  0.91597592  0.17827213  1
  Ca2+  Ca28  1  0.32478015  0.91558284  0.49970735  1
  Ca2+  Ca29  1  0.32846985  0.91149627  0.83630435  1
  Ca2+  Ca30  1  0.83569478  0.42054543  0.16994554  1
  Ca2+  Ca31  1  0.82815411  0.41948637  0.50906210  1
  Ca2+  Ca32  1  0.82945699  0.42770924  0.83564806  1
  Ca2+  Ca33  1  0.83487629  0.92253574  0.16551438  1
  Ca2+  Ca34  1  0.83674171  0.93090830  0.50577080  1
  Ca2+  Ca35  1  0.83102389  0.92361425  0.84269264  1
  Ca2+  Ca36  1  0.40880389  0.17059841  0.16529714  1
  Ca2+  Ca37  1  0.41169388  0.17854370  0.49417983  1
  Ca2+  Ca38  1  0.42056752  0.17439875  0.82445650  1
  Ca2+  Ca39  1  0.41695381  0.67892922  0.16012936  1
  Ca2+  Ca40  1  0.41791790  0.66311782  0.49564395  1
  Ca2+  Ca41  1  0.42711137  0.66800357  0.82840704  1
  Ca2+  Ca42  1  0.91675839  0.16596967  0.16272451  1
  Ca2+  Ca43  1  0.91761911  0.16863025  0.49600160  1
  Ca2+  Ca44  1  0.92512468  0.15641952  0.82836187  1
  Ca2+  Ca45  1  0.92395923  0.67330106  0.15197287  1
  Ca2+  Ca46  1  0.91786282  0.66529645  0.49713632  1
  Ca2+  Ca47  1  0.91038299  0.66958377  0.83218384  1
  Al0+  Al48  1  0.00193146  -0.00000701  -0.00199214  1
  Al0+  Al49  1  -0.00115052  -0.00121462  0.34030151  1
  Al0+  Al50  1  0.00158801  -0.00067643  0.66887613  1
  Al0+  Al51  1  -0.00027065  0.49749181  0.00119441  1
  Al0+  Al52  1  -0.00000761  0.49906054  0.32886533  1
  Al0+  Al53  1  0.00132571  0.49984347  0.67285127  1
  Al0+  Al54  1  0.49920418  0.00351485  -0.00163718  1
  Al0+  Al55  1  0.50021933  -0.00072824  0.33536682  1
  Al0+  Al56  1  0.49974298  -0.00017603  0.66302181  1
  Al0+  Al57  1  0.49831577  0.50125464  -0.00038336  1
  Al0+  Al58  1  0.50213348  0.49881365  0.32949311  1
  Al0+  Al59  1  0.50085139  0.50102976  0.66646569  1
  Al0+  Al60  1  0.24755684  0.25116322  -0.00311361  1
  Al0+  Al61  1  0.24837428  0.24934365  0.32992038  1
  Al0+  Al62  1  0.25000826  0.24857981  0.65966045  1
  Al0+  Al63  1  0.25001717  0.74915365  -0.00737733  1
  Al0+  Al64  1  0.25150040  0.74766817  0.33840226  1
  Al0+  Al65  1  0.24892094  0.75060999  0.67473978  1
  Al0+  Al66  1  0.74862724  0.25213411  0.00531630  1
  Al0+  Al67  1  0.74995723  0.25092034  0.33182802  1
  Al0+  Al68  1  0.75170481  0.25034464  0.67678094  1
  Al0+  Al69  1  0.74864288  0.75028473  0.00255373  1
  Al0+  Al70  1  0.75146960  0.75003016  0.33291626  1
  Al0+  Al71  1  0.74964685  0.75223526  0.66095848  1
  Al0+  Al72  1  0.57061589  0.68131669  0.65097888  1
  Al0+  Al73  1  0.18045930  0.93031846  0.68394407  1
  Al0+  Al74  1  0.43162244  0.31944019  0.65304674  1
  Al0+  Al75  1  0.92944495  0.82081842  0.98547412  1
  Al0+  Al76  1  0.82392293  0.07119449  0.01704037  1
  Al0+  Al77  1  0.42805591  0.82545913  0.98354047  1
  Al0+  Al78  1  0.92792948  0.32101331  0.31991526  1
  Al0+  Al79  1  0.32301251  0.07366861  0.34831580  1
  Al0+  Al80  1  0.06963267  0.17757761  0.64960197  1
  Al0+  Al81  1  0.42766375  0.32071403  0.31837594  1
  Al0+  Al82  1  0.67887541  0.42970819  0.68149072  1
  Al0+  Al83  1  0.82039396  0.07037044  0.68155887  1
  Al0+  Al84  1  0.06917792  0.18061824  0.98662039  1
  Al0+  Al85  1  0.57000048  0.67954170  0.98462540  1
  Al0+  Al86  1  0.67696709  0.92883647  0.01500244  1
  Al0+  Al87  1  0.32227112  0.57108180  0.68389952  1
  Al0+  Al88  1  0.32179829  0.56850378  0.34520083  1
  Al0+  Al89  1  0.17927742  0.92812497  0.34740615  1
  Al0+  Al90  1  0.42946532  0.81911445  0.32171738  1
  Al0+  Al91  1  0.81886722  0.07067474  0.34806590  1
  Al0+  Al92  1  0.17949346  0.42591835  0.68110402  1
  Al0+  Al93  1  0.82234056  0.57428884  0.68034473  1
  Al0+  Al94  1  0.07183148  0.67580154  0.98377924  1
  Al0+  Al95  1  0.82083312  0.57007385  0.01541517  1
  Si0+  Si96  1  0.57268778  0.17795616  0.31693500  1
  Si0+  Si97  1  0.42838246  0.32088235  0.98514450  1
  Si0+  Si98  1  0.92794568  0.32301830  0.65231579  1
  Si0+  Si99  1  0.93061587  0.82023149  0.64983419  1
  Si0+  Si100  1  0.82270964  0.57141934  0.34667447  1
  Si0+  Si101  1  0.57544478  0.17645420  0.65133683  1
  Si0+  Si102  1  0.68048020  0.42980008  0.34728114  1
  Si0+  Si103  1  0.42476062  0.82277750  0.64794060  1
  Si0+  Si104  1  0.32316265  0.07248126  0.68267966  1
  Si0+  Si105  1  0.07201432  0.67723988  0.65100622  1
  Si0+  Si106  1  0.18184027  0.92838218  0.01392657  1
  Si0+  Si107  1  0.32028717  0.07414913  0.01247124  1
  Si0+  Si108  1  0.57174000  0.18087105  0.98610667  1
  Si0+  Si109  1  0.67710147  0.92584138  0.35159542  1
  Si0+  Si110  1  0.06963951  0.17570716  0.31664451  1
  Si0+  Si111  1  0.57453100  0.67716539  0.31521584  1
  Si0+  Si112  1  0.67628504  0.92857007  0.68083748  1
  Si0+  Si113  1  0.31973542  0.57009340  0.01576178  1
  Si0+  Si114  1  0.67461364  0.42858129  0.02067298  1
  Si0+  Si115  1  0.17598365  0.42793412  0.34758620  1
  Si0+  Si116  1  0.17961140  0.42649027  0.01629570  1
  Si0+  Si117  1  0.92493192  0.32199083  0.98201315  1
  Si0+  Si118  1  0.07018155  0.67934647  0.32125674  1
  Si0+  Si119  1  0.92857999  0.82173060  0.31947543  1
  O2-  O120  1  0.25548691  -0.00259893  0.05496544  1
  O2-  O121  1  0.25055601  0.00145320  0.39707627  1
  O2-  O122  1  0.25804378  0.00241850  0.72997616  1
  O2-  O123  1  0.24595934  0.50190117  0.05890414  1
  O2-  O124  1  0.25058685  0.48998587  0.39121876  1
  O2-  O125  1  0.24901030  0.49936496  0.73308570  1
  O2-  O126  1  0.75133511  -0.00125164  0.06570871  1
  O2-  O127  1  0.74466551  -0.00424465  0.39584922  1
  O2-  O128  1  0.74095461  0.00012007  0.72581813  1
  O2-  O129  1  0.74551604  0.49583478  0.06384451  1
  O2-  O130  1  0.75038354  0.50239346  0.38877817  1
  O2-  O131  1  0.75060343  0.50231662  0.73029493  1
  O2-  O132  1  0.00163565  0.24539191  0.27280305  1
  O2-  O133  1  -0.00444713  0.25451138  0.60561934  1
  O2-  O134  1  -0.00980290  0.25018539  0.93850883  1
  O2-  O135  1  -0.00026033  0.75048843  0.27847827  1
  O2-  O136  1  -0.00097765  0.74605107  0.60733659  1
  O2-  O137  1  -0.00283261  0.74521425  0.93388717  1
  O2-  O138  1  0.49774975  0.24072595  0.27209569  1
  O2-  O139  1  0.50688493  0.24464471  0.60633671  1
  O2-  O140  1  0.50162395  0.25243683  0.94326244  1
  O2-  O141  1  0.50629068  0.74729691  0.27347008  1
  O2-  O142  1  0.49365760  0.75390666  0.60424169  1
  O2-  O143  1  0.50156329  0.75475129  0.93437892  1
  O2-  O144  1  0.07279399  0.18301373  0.09989610  1
  O2-  O145  1  0.06809450  0.17613081  0.42205012  1
  O2-  O146  1  0.06819555  0.17744879  0.76285057  1
  O2-  O147  1  0.07420770  0.67999242  0.09853941  1
  O2-  O148  1  0.06752320  0.67697519  0.42632660  1
  O2-  O149  1  0.07177503  0.67892546  0.75563996  1
  O2-  O150  1  0.56992675  0.18147027  0.09122168  1
  O2-  O151  1  0.57688924  0.18333136  0.42228785  1
  O2-  O152  1  0.57243874  0.17564452  0.75718701  1
  O2-  O153  1  0.56397500  0.67750054  0.09862359  1
  O2-  O154  1  0.57632363  0.67654012  0.42081744  1
  O2-  O155  1  0.57221912  0.68395715  0.76353703  1
  O2-  O156  1  0.17429684  0.43215192  0.24155321  1
  O2-  O157  1  0.17933203  0.42857315  0.56696316  1
  O2-  O158  1  0.18419771  0.42245031  0.91181837  1
  O2-  O159  1  0.17835655  0.92740174  0.23330142  1
  O2-  O160  1  0.18065210  0.93049045  0.57087146  1
  O2-  O161  1  0.18110993  0.93044251  0.90900103  1
  O2-  O162  1  0.68017739  0.42933245  0.24218750  1
  O2-  O163  1  0.68025604  0.43009811  0.56710803  1
  O2-  O164  1  0.67288294  0.42684250  0.91563326  1
  O2-  O165  1  0.67835475  0.92560671  0.24628011  1
  O2-  O166  1  0.67893626  0.92887849  0.57490610  1
  O2-  O167  1  0.67710457  0.93368592  0.90118812  1
  O2-  O168  1  0.42734609  0.31971648  0.09041100  1
  O2-  O169  1  0.43206999  0.32422917  0.43087231  1
  O2-  O170  1  0.43237210  0.31688505  0.76680040  1
  O2-  O171  1  0.42503809  0.82333148  0.09771203  1
  O2-  O172  1  0.42965919  0.81514770  0.43460979  1
  O2-  O173  1  0.42697852  0.82446259  0.75328571  1
  O2-  O174  1  0.92817072  0.32255161  0.08818027  1
  O2-  O175  1  0.92827885  0.32325801  0.43288743  1
  O2-  O176  1  0.92862814  0.32229090  0.75766177  1
  O2-  O177  1  0.93501948  0.82137988  0.09993153  1
  O2-  O178  1  0.92640249  0.81980209  0.42469344  1
  O2-  O179  1  0.93061942  0.82073067  0.75453126  1
  O2-  O180  1  0.31939886  0.07296533  0.23381884  1
  O2-  O181  1  0.32209107  0.07187121  0.57739178  1
  O2-  O182  1  0.31816265  0.07828450  0.90758247  1
  O2-  O183  1  0.31783172  0.57025680  0.23161331  1
  O2-  O184  1  0.32131367  0.56945476  0.56971632  1
  O2-  O185  1  0.32185916  0.56631103  0.91129412  1
  O2-  O186  1  0.81943494  0.06901036  0.23541589  1
  O2-  O187  1  0.81990656  0.07059409  0.56792776  1
  O2-  O188  1  0.82222155  0.07018676  0.90361748  1
  O2-  O189  1  0.82336736  0.57130039  0.24188770  1
  O2-  O190  1  0.82188175  0.57215678  0.56564029  1
  O2-  O191  1  0.82006338  0.56787059  0.90290105  1
  O2-  O192  1  0.04175654  0.08181035  0.27208361  1
  O2-  O193  1  0.03596210  0.08125898  0.59666437  1
  O2-  O194  1  0.04371638  0.08320686  0.93255219  1
  O2-  O195  1  0.04290620  0.58873162  0.27068168  1
  O2-  O196  1  0.04663491  0.58424898  0.60407287  1
  O2-  O197  1  0.04813815  0.57475988  0.93513000  1
  O2-  O198  1  0.55426058  0.08167434  0.27395468  1
  O2-  O199  1  0.55245272  0.08278112  0.60333234  1
  O2-  O200  1  0.54399359  0.09093545  0.93599581  1
  O2-  O201  1  0.55036508  0.58378115  0.26870912  1
  O2-  O202  1  0.54117822  0.58408538  0.59759216  1
  O2-  O203  1  0.53812944  0.58134320  0.93208771  1
  O2-  O204  1  0.16327535  0.19957061  0.26957929  1
  O2-  O205  1  0.16604233  0.20632373  0.59461471  1
  O2-  O206  1  0.16384296  0.21583191  0.93038200  1
  O2-  O207  1  0.16219578  0.70696893  0.27464809  1
  O2-  O208  1  0.16369567  0.70887406  0.60495576  1
  O2-  O209  1  0.16825958  0.70527855  0.92896504  1
  O2-  O210  1  0.66230598  0.21144917  0.26692663  1
  O2-  O211  1  0.67018648  0.20326710  0.60831834  1
  O2-  O212  1  0.66407735  0.20860855  0.93956050  1
  O2-  O213  1  0.66912325  0.70283015  0.26992553  1
  O2-  O214  1  0.66626468  0.71304493  0.59339300  1
  O2-  O215  1  0.67016807  0.70305682  0.93461587  1
  O2-  O216  1  0.08584591  0.44807403  0.06250624  1
  O2-  O217  1  0.08455856  0.45922285  0.39520061  1
  O2-  O218  1  0.08161625  0.45173888  0.73595412  1
  O2-  O219  1  0.09121525  0.95856447  0.06185364  1
  O2-  O220  1  0.08139605  0.95446648  0.40287494  1
  O2-  O221  1  0.08532425  0.96407025  0.73780743  1
  O2-  O222  1  0.58114302  0.45648809  0.06717928  1
  O2-  O223  1  0.58863705  0.45733442  0.39443145  1
  O2-  O224  1  0.58156265  0.45846496  0.73474210  1
  O2-  O225  1  0.57892846  0.96268099  0.06795686  1
  O2-  O226  1  0.58334087  0.94844691  0.39799854  1
  O2-  O227  1  0.58052205  0.94827545  0.72489222  1
  O2-  O228  1  0.21287847  0.33724984  0.06652829  1
  O2-  O229  1  0.19383240  0.33137642  0.38895251  1
  O2-  O230  1  0.21057701  0.32726400  0.73205241  1
  O2-  O231  1  0.20713160  0.83489043  0.05968813  1
  O2-  O232  1  0.20901363  0.83095836  0.40255160  1
  O2-  O233  1  0.20662988  0.83377031  0.73942144  1
  O2-  O234  1  0.69883181  0.33508220  0.06845945  1
  O2-  O235  1  0.70872065  0.33893632  0.39521120  1
  O2-  O236  1  0.70478023  0.33245635  0.73813955  1
  O2-  O237  1  0.70008990  0.82996442  0.06888148  1
  O2-  O238  1  0.70537363  0.83217581  0.39735981  1
  O2-  O239  1  0.70669013  0.83659919  0.72603417  1
  O2-  O240  1  0.46442738  0.41478192  0.26135632  1
  O2-  O241  1  0.46311627  0.41569008  0.59893748  1
  O2-  O242  1  0.45479232  0.41305954  0.93893990  1
  O2-  O243  1  0.45549494  0.91814480  0.26915398  1
  O2-  O244  1  0.44952544  0.91702200  0.60138918  1
  O2-  O245  1  0.45114884  0.92589607  0.93185763  1
  O2-  O246  1  0.96043971  0.41643724  0.26247998  1
  O2-  O247  1  0.95315202  0.41735009  0.60636033  1
  O2-  O248  1  0.95360804  0.41430077  0.93647008  1
  O2-  O249  1  0.95675223  0.91370462  0.27329256  1
  O2-  O250  1  0.96434119  0.91006553  0.60199520  1
  O2-  O251  1  0.96192275  0.91718966  0.93140151  1
  O2-  O252  1  0.32932827  0.29561902  0.26336834  1
  O2-  O253  1  0.33633949  0.28880798  0.59672517  1
  O2-  O254  1  0.33813304  0.29032527  0.93715549  1
  O2-  O255  1  0.33294064  0.78557970  0.26782988  1
  O2-  O256  1  0.32993399  0.79626493  0.60534412  1
  O2-  O257  1  0.33166896  0.79365215  0.92965085  1
  O2-  O258  1  0.83176221  0.29189207  0.26408598  1
  O2-  O259  1  0.83324249  0.29650779  0.60816588  1
  O2-  O260  1  0.82825440  0.30268932  0.94032656  1
  O2-  O261  1  0.83712694  0.79425896  0.27080545  1
  O2-  O262  1  0.83869214  0.79715440  0.59981304  1
  O2-  O263  1  0.82904039  0.79715738  0.93601830  1
  O2-  O264  1  0.41413948  0.05496097  0.05883743  1
  O2-  O265  1  0.42260300  0.04944171  0.40058706  1
  O2-  O266  1  0.41917484  0.05086276  0.72689794  1
  O2-  O267  1  0.41001537  0.53920747  0.06484593  1
  O2-  O268  1  0.42047361  0.54015337  0.39597940  1
  O2-  O269  1  0.41921192  0.53961367  0.73642341  1
  O2-  O270  1  0.92284180  0.04166579  0.06902225  1
  O2-  O271  1  0.91404395  0.03912048  0.40400255  1
  O2-  O272  1  0.91468350  0.03297961  0.73383834  1
  O2-  O273  1  0.91810554  0.53839106  0.07004950  1
  O2-  O274  1  0.91443457  0.54219226  0.39364817  1
  O2-  O275  1  0.92034341  0.54872387  0.73413550  1
  O2-  O276  1  0.28633736  0.16374723  0.06181536  1
  O2-  O277  1  0.29464049  0.17333943  0.39910597  1
  O2-  O278  1  0.29542078  0.16540707  0.72803980  1
  O2-  O279  1  0.29240517  0.66365203  0.06040925  1
  O2-  O280  1  0.28823775  0.66151258  0.40293880  1
  O2-  O281  1  0.29481351  0.66881551  0.73701828  1
  O2-  O282  1  0.79414635  0.17059337  0.06832081  1
  O2-  O283  1  0.78724851  0.16805413  0.40051955  1
  O2-  O284  1  0.79600471  0.16657917  0.73845864  1
  O2-  O285  1  0.79167035  0.66670332  0.07070036  1
  O2-  O286  1  0.79828303  0.66443256  0.39382132  1
  O2-  O287  1  0.79283251  0.67372372  0.72954095  1
