# generated using pymatgen
data_Ca2Al2SiO7
_symmetry_space_group_name_H-M   'P 1'
_cell_length_a   15.46953615
_cell_length_b   15.47024655
_cell_length_c   15.29354362
_cell_angle_alpha   90.00018481
_cell_angle_beta   90.00383398
_cell_angle_gamma   90.00266270
_symmetry_Int_Tables_number   1
_chemical_formula_structural   Ca2Al2SiO7
_chemical_formula_sum   'Ca48 Al48 Si24 O168'
_cell_volume   3660.01319822
_cell_formula_units_Z   24
loop_
 _symmetry_equiv_pos_site_id
 _symmetry_equiv_pos_as_xyz
  1  'x, y, z'
loop_
 _atom_type_symbol
 _atom_type_oxidation_number
  Ca2+  2.0
  Al0+  0.0
  Si0+  0.0
  O2-  -2.0
loop_
 _atom_site_type_symbol
 _atom_site_label
 _atom_site_symmetry_multiplicity
 _atom_site_fract_x
 _atom_site_fract_y
 _atom_site_fract_z
 _atom_site_occupancy
  Ca2+  Ca0  1  0.17449223  0.06796829  0.17376655  1
  Ca2+  Ca1  1  0.16462268  0.07297452  0.50349349  1
  Ca2+  Ca2  1  0.16144374  0.07103113  0.83506640  1
  Ca2+  Ca3  1  0.17332119  0.59216702  0.16999342  1
  Ca2+  Ca4  1  0.17576352  0.58637939  0.50242287  1
  Ca2+  Ca5  1  0.17699273  0.58365649  0.84095928  1
  Ca2+  Ca6  1  0.66619753  0.08263988  0.17518298  1
  Ca2+  Ca7  1  0.66636231  0.08217347  0.49953810  1
  Ca2+  Ca8  1  0.67038907  0.07882359  0.83765715  1
  Ca2+  Ca9  1  0.66709237  0.57615992  0.17465671  1
  Ca2+  Ca10  1  0.67303317  0.58947801  0.50215735  1
  Ca2+  Ca11  1  0.66343652  0.58588614  0.84073844  1
  Ca2+  Ca12  1  0.07859147  0.34079882  0.16190460  1
  Ca2+  Ca13  1  0.08730791  0.32942990  0.49447516  1
  Ca2+  Ca14  1  0.09659989  0.32858594  0.82624720  1
  Ca2+  Ca15  1  0.08979123  0.82340562  0.16700253  1
  Ca2+  Ca16  1  0.07845163  0.83407268  0.49177024  1
  Ca2+  Ca17  1  0.08702494  0.82971311  0.83059693  1
  Ca2+  Ca18  1  0.58963569  0.33344627  0.16694523  1
  Ca2+  Ca19  1  0.58544994  0.32709660  0.49090060  1
  Ca2+  Ca20  1  0.58197079  0.33754246  0.83289953  1
  Ca2+  Ca21  1  0.56815468  0.82531935  0.16020193  1
  Ca2+  Ca22  1  0.56878292  0.82655188  0.49759362  1
  Ca2+  Ca23  1  0.56932713  0.82017400  0.82680125  1
  Ca2+  Ca24  1  0.32957010  0.43245757  0.16937827  1
  Ca2+  Ca25  1  0.33108322  0.43105905  0.50640423  1
  Ca2+  Ca26  1  0.32490448  0.42857636  0.83689619  1
  Ca2+  Ca27  1  0.32692599  0.91042556  0.17507298  1
  Ca2+  Ca28  1  0.32364070  0.91152733  0.50086473  1
  Ca2+  Ca29  1  0.32617335  0.90656761  0.83512625  1
  Ca2+  Ca30  1  0.82638918  0.42350486  0.17702581  1
  Ca2+  Ca31  1  0.83328059  0.41860651  0.49336776  1
  Ca2+  Ca32  1  0.82427798  0.41994851  0.84031326  1
  Ca2+  Ca33  1  0.83179691  0.91494624  0.17441616  1
  Ca2+  Ca34  1  0.83554834  0.90886436  0.50656163  1
  Ca2+  Ca35  1  0.83714266  0.91504456  0.83417952  1
  Ca2+  Ca36  1  0.41833521  0.16403409  0.16832677  1
  Ca2+  Ca37  1  0.41947725  0.16728555  0.48869266  1
  Ca2+  Ca38  1  0.41489024  0.17105631  0.82915492  1
  Ca2+  Ca39  1  0.41025507  0.67305816  0.16041555  1
  Ca2+  Ca40  1  0.40838245  0.67248254  0.49688638  1
  Ca2+  Ca41  1  0.41852741  0.66601279  0.83129534  1
  Ca2+  Ca42  1  0.91627309  0.17576916  0.16724669  1
  Ca2+  Ca43  1  0.92596686  0.17374176  0.49534766  1
  Ca2+  Ca44  1  0.92637358  0.17177415  0.82516486  1
  Ca2+  Ca45  1  0.92939637  0.66043252  0.16846978  1
  Ca2+  Ca46  1  0.92448114  0.67394667  0.48935980  1
  Ca2+  Ca47  1  0.92703382  0.66971134  0.82947503  1
  Al0+  Al48  1  0.00051164  0.00376308  0.00592381  1
  Al0+  Al49  1  -0.00134353  0.00191865  0.33223488  1
  Al0+  Al50  1  0.00026473  0.00379595  0.66365309  1
  Al0+  Al51  1  -0.00290887  0.50030544  -0.00565020  1
  Al0+  Al52  1  -0.00181878  0.49946771  0.32976354  1
  Al0+  Al53  1  -0.00405174  0.49846272  0.67022680  1
  Al0+  Al54  1  0.50130404  0.00119381  -0.00598765  1
  Al0+  Al55  1  0.50133238  0.00033291  0.32820043  1
  Al0+  Al56  1  0.50142188  -0.00167317  0.66529468  1
  Al0+  Al57  1  0.49953574  0.49753418  0.00506748  1
  Al0+  Al58  1  0.49876200  0.49704403  0.34256064  1
  Al0+  Al59  1  0.50222985  0.49792121  0.66632282  1
  Al0+  Al60  1  0.24996073  0.24918692  0.00294521  1
  Al0+  Al61  1  0.25279801  0.24876110  0.33177439  1
  Al0+  Al62  1  0.25224288  0.24833367  0.66214973  1
  Al0+  Al63  1  0.24690465  0.75111439  -0.00152015  1
  Al0+  Al64  1  0.24828891  0.75057070  0.33555760  1
  Al0+  Al65  1  0.25017379  0.75026685  0.67188832  1
  Al0+  Al66  1  0.75096088  0.25060126  0.00106382  1
  Al0+  Al67  1  0.75058518  0.24879213  0.32981251  1
  Al0+  Al68  1  0.75206824  0.24978931  0.66826677  1
  Al0+  Al69  1  0.74989398  0.75242371  -0.00093863  1
  Al0+  Al70  1  0.74896344  0.75002729  0.33452954  1
  Al0+  Al71  1  0.74893369  0.75008483  0.66354934  1
  Al0+  Al72  1  0.93180412  0.31956641  0.31901619  1
  Al0+  Al73  1  0.67975788  0.42768174  0.35059715  1
  Al0+  Al74  1  0.17767496  0.42720782  0.67849299  1
  Al0+  Al75  1  0.17921751  0.93044875  0.01436390  1
  Al0+  Al76  1  0.42657436  0.82027511  0.64942088  1
  Al0+  Al77  1  0.17851198  0.93006587  0.34983979  1
  Al0+  Al78  1  0.57117943  0.67643069  0.98814987  1
  Al0+  Al79  1  0.32391273  0.07055492  0.34757347  1
  Al0+  Al80  1  0.42706868  0.82176771  0.98417430  1
  Al0+  Al81  1  0.07048417  0.68002568  0.31984950  1
  Al0+  Al82  1  0.57054588  0.67558656  0.65018889  1
  Al0+  Al83  1  0.31943728  0.57136138  0.34743770  1
  Al0+  Al84  1  0.82141900  0.57239006  0.34950861  1
  Al0+  Al85  1  0.67944213  0.42964445  0.01430417  1
  Al0+  Al86  1  0.93162865  0.82044783  0.65572439  1
  Al0+  Al87  1  0.17658357  0.42684922  0.01488468  1
  Al0+  Al88  1  0.31885139  0.57094681  0.01581046  1
  Al0+  Al89  1  0.56983194  0.18039751  0.31931662  1
  Al0+  Al90  1  0.42966513  0.81854577  0.32016481  1
  Al0+  Al91  1  0.07228449  0.18176753  0.65249194  1
  Al0+  Al92  1  0.92588970  0.82352129  0.31803842  1
  Al0+  Al93  1  0.32171165  0.57152249  0.68350962  1
  Al0+  Al94  1  0.06885234  0.67931272  0.98441694  1
  Al0+  Al95  1  0.17769787  0.93140555  0.68098485  1
  Si0+  Si96  1  0.67924752  0.92912706  0.34834954  1
  Si0+  Si97  1  0.32537065  0.07131182  0.68266655  1
  Si0+  Si98  1  0.67851372  0.93043393  0.01458406  1
  Si0+  Si99  1  0.57131871  0.67507346  0.31867690  1
  Si0+  Si100  1  0.82021560  0.07136886  0.01609166  1
  Si0+  Si101  1  0.43099357  0.31901399  0.65142427  1
  Si0+  Si102  1  0.07502046  0.17772402  0.31361255  1
  Si0+  Si103  1  0.07162326  0.67553065  0.65180333  1
  Si0+  Si104  1  0.07014408  0.18053646  0.98551587  1
  Si0+  Si105  1  0.82163046  0.57486343  0.01550699  1
  Si0+  Si106  1  0.68139051  0.42642239  0.68218750  1
  Si0+  Si107  1  0.81981733  0.07157807  0.68187755  1
  Si0+  Si108  1  0.92824724  0.82668222  0.98478176  1
  Si0+  Si109  1  0.42860180  0.31915047  0.98542493  1
  Si0+  Si110  1  0.81926459  0.57372787  0.68352224  1
  Si0+  Si111  1  0.42704291  0.32418519  0.31502025  1
  Si0+  Si112  1  0.17652266  0.42674911  0.34711920  1
  Si0+  Si113  1  0.67881639  0.92848815  0.68265815  1
  Si0+  Si114  1  0.92473315  0.32234473  0.64985518  1
  Si0+  Si115  1  0.82030633  0.07152860  0.34915496  1
  Si0+  Si116  1  0.92749598  0.32042975  0.98291269  1
  Si0+  Si117  1  0.32474694  0.07299573  0.01510712  1
  Si0+  Si118  1  0.57366619  0.17952717  0.98268874  1
  Si0+  Si119  1  0.57366992  0.17844258  0.65331928  1
  O2-  O120  1  0.26151172  -0.00089001  0.05725883  1
  O2-  O121  1  0.25008598  0.00289570  0.39987856  1
  O2-  O122  1  0.25720572  0.00266615  0.72719964  1
  O2-  O123  1  0.24324510  0.50217974  0.06583135  1
  O2-  O124  1  0.24508748  0.49455765  0.39173453  1
  O2-  O125  1  0.24432472  0.50266419  0.73050725  1
  O2-  O126  1  0.75036621  -0.00009167  0.05849902  1
  O2-  O127  1  0.75558261  -0.00503039  0.39159107  1
  O2-  O128  1  0.75110928  -0.00096832  0.72540508  1
  O2-  O129  1  0.74942190  0.50920048  0.05848759  1
  O2-  O130  1  0.74722118  0.50307270  0.40160244  1
  O2-  O131  1  0.74827883  0.50120421  0.72426980  1
  O2-  O132  1  0.01017233  0.25014083  0.26931328  1
  O2-  O133  1  0.00230341  0.26249584  0.60842319  1
  O2-  O134  1  0.00398970  0.25544240  0.94099846  1
  O2-  O135  1  -0.00233502  0.75182157  0.26884983  1
  O2-  O136  1  0.00590079  0.74711548  0.60805435  1
  O2-  O137  1  -0.00550634  0.75652461  0.94018006  1
  O2-  O138  1  0.49596407  0.25480953  0.27131134  1
  O2-  O139  1  0.50173994  0.24680086  0.61052441  1
  O2-  O140  1  0.50095450  0.24871904  0.94143092  1
  O2-  O141  1  0.50064948  0.74023067  0.27340068  1
  O2-  O142  1  0.49436248  0.74322246  0.60093996  1
  O2-  O143  1  0.49808351  0.74675177  0.93708555  1
  O2-  O144  1  0.06579612  0.17950298  0.09007710  1
  O2-  O145  1  0.07211849  0.17790587  0.41936212  1
  O2-  O146  1  0.06794839  0.18009319  0.76619204  1
  O2-  O147  1  0.06805239  0.67808370  0.09680463  1
  O2-  O148  1  0.07027064  0.67997682  0.43374149  1
  O2-  O149  1  0.06806306  0.67541226  0.75760320  1
  O2-  O150  1  0.57646653  0.17813651  0.08713181  1
  O2-  O151  1  0.57135581  0.18113054  0.43294544  1
  O2-  O152  1  0.57552027  0.18030193  0.75878024  1
  O2-  O153  1  0.57381248  0.67955732  0.10145203  1
  O2-  O154  1  0.57240346  0.67962788  0.42409523  1
  O2-  O155  1  0.57293327  0.67793989  0.76381858  1
  O2-  O156  1  0.17802075  0.42716633  0.24163876  1
  O2-  O157  1  0.18121190  0.42618349  0.56502526  1
  O2-  O158  1  0.18256242  0.42316412  0.90164176  1
  O2-  O159  1  0.18030891  0.93007492  0.23621748  1
  O2-  O160  1  0.17387629  0.93418510  0.56881065  1
  O2-  O161  1  0.17391732  0.93493471  0.90113467  1
  O2-  O162  1  0.68301221  0.42747952  0.23695294  1
  O2-  O163  1  0.68524874  0.41862570  0.57831099  1
  O2-  O164  1  0.68321965  0.42468855  0.90061514  1
  O2-  O165  1  0.67919824  0.93289208  0.24299908  1
  O2-  O166  1  0.67881390  0.93165422  0.57780487  1
  O2-  O167  1  0.68047005  0.93424789  0.90923787  1
  O2-  O168  1  0.42888833  0.31626416  0.08998602  1
  O2-  O169  1  0.42734996  0.32234389  0.42077502  1
  O2-  O170  1  0.43253171  0.31740054  0.75704720  1
  O2-  O171  1  0.43056986  0.82414780  0.09779942  1
  O2-  O172  1  0.43080211  0.81935005  0.43292556  1
  O2-  O173  1  0.43111164  0.82423147  0.76261833  1
  O2-  O174  1  0.92404460  0.31630399  0.08759254  1
  O2-  O175  1  0.93202246  0.31567454  0.43224202  1
  O2-  O176  1  0.91526498  0.31620605  0.75510164  1
  O2-  O177  1  0.92764133  0.82901945  0.08948367  1
  O2-  O178  1  0.92807390  0.82287368  0.43191209  1
  O2-  O179  1  0.93076445  0.81915988  0.76917414  1
  O2-  O180  1  0.32337659  0.06818181  0.23366860  1
  O2-  O181  1  0.32724301  0.07260180  0.57783522  1
  O2-  O182  1  0.32264565  0.07853265  0.90948212  1
  O2-  O183  1  0.32067350  0.57146629  0.23469767  1
  O2-  O184  1  0.32131456  0.56928544  0.56991235  1
  O2-  O185  1  0.32064331  0.56731722  0.90242087  1
  O2-  O186  1  0.81708268  0.07352641  0.24367745  1
  O2-  O187  1  0.81659700  0.07490112  0.57736968  1
  O2-  O188  1  0.81971960  0.07243780  0.91058348  1
  O2-  O189  1  0.82061254  0.56975113  0.23572503  1
  O2-  O190  1  0.82055198  0.57435459  0.57904818  1
  O2-  O191  1  0.82189520  0.57207042  0.90931567  1
  O2-  O192  1  0.04247836  0.08684450  0.26682289  1
  O2-  O193  1  0.03242609  0.08997919  0.59606850  1
  O2-  O194  1  0.03530716  0.09099575  0.93707786  1
  O2-  O195  1  0.04243138  0.58190670  0.26583442  1
  O2-  O196  1  0.04248230  0.58226756  0.60717238  1
  O2-  O197  1  0.03626873  0.58380000  0.92761659  1
  O2-  O198  1  0.54112662  0.08508708  0.26150045  1
  O2-  O199  1  0.55052993  0.08561375  0.60682015  1
  O2-  O200  1  0.54845852  0.08835836  0.93235111  1
  O2-  O201  1  0.54968143  0.57832900  0.27860512  1
  O2-  O202  1  0.55311599  0.57368136  0.60042794  1
  O2-  O203  1  0.54646396  0.57573657  0.93710064  1
  O2-  O204  1  0.17038190  0.19747736  0.26926516  1
  O2-  O205  1  0.16972843  0.20526089  0.59700187  1
  O2-  O206  1  0.16381261  0.20309002  0.93922401  1
  O2-  O207  1  0.16700265  0.71164304  0.26563636  1
  O2-  O208  1  0.16698831  0.69802286  0.61047849  1
  O2-  O209  1  0.16399627  0.71107067  0.92934758  1
  O2-  O210  1  0.66584707  0.21041767  0.26345102  1
  O2-  O211  1  0.66505545  0.20834753  0.60619614  1
  O2-  O212  1  0.66506098  0.20939732  0.93438760  1
  O2-  O213  1  0.66429455  0.70245472  0.27293617  1
  O2-  O214  1  0.66678573  0.71133119  0.59716094  1
  O2-  O215  1  0.66984279  0.70715478  0.93437702  1
  O2-  O216  1  0.07341382  0.44913856  0.05939418  1
  O2-  O217  1  0.08210437  0.44901698  0.39185053  1
  O2-  O218  1  0.07462645  0.44319238  0.72851807  1
  O2-  O219  1  0.08582666  0.96903967  0.06984767  1
  O2-  O220  1  0.07877553  0.96062778  0.39979299  1
  O2-  O221  1  0.08254781  0.96933837  0.73492470  1
  O2-  O222  1  0.58183833  0.45101337  0.06889218  1
  O2-  O223  1  0.57959735  0.44602552  0.40290383  1
  O2-  O224  1  0.58823667  0.44911059  0.72880986  1
  O2-  O225  1  0.58742275  0.96181003  0.06081788  1
  O2-  O226  1  0.59082723  0.96513173  0.39611929  1
  O2-  O227  1  0.58905247  0.96005359  0.73209349  1
  O2-  O228  1  0.20588216  0.32883948  0.06861252  1
  O2-  O229  1  0.20140854  0.33185051  0.39097993  1
  O2-  O230  1  0.21207822  0.32900386  0.73026366  1
  O2-  O231  1  0.20439244  0.83272281  0.06647221  1
  O2-  O232  1  0.20709256  0.83279954  0.40325907  1
  O2-  O233  1  0.20418563  0.83385883  0.73492898  1
  O2-  O234  1  0.71470242  0.33345140  0.06709915  1
  O2-  O235  1  0.71468904  0.32954782  0.40132434  1
  O2-  O236  1  0.71285005  0.33624151  0.73310197  1
  O2-  O237  1  0.70424071  0.83870755  0.06230555  1
  O2-  O238  1  0.70086977  0.83666892  0.39650060  1
  O2-  O239  1  0.70783644  0.83734298  0.73012215  1
  O2-  O240  1  0.45476997  0.41735531  0.26981206  1
  O2-  O241  1  0.46090080  0.40928412  0.60362749  1
  O2-  O242  1  0.45807510  0.40970161  0.93736939  1
  O2-  O243  1  0.46529437  0.91298100  0.26535958  1
  O2-  O244  1  0.46219522  0.91794216  0.59782120  1
  O2-  O245  1  0.45817319  0.92002450  0.93041653  1
  O2-  O246  1  0.95571562  0.41625059  0.26278435  1
  O2-  O247  1  0.93923262  0.41936875  0.60826101  1
  O2-  O248  1  0.94569533  0.41360075  0.93495712  1
  O2-  O249  1  0.94878435  0.92456168  0.26745171  1
  O2-  O250  1  0.95611899  0.91904915  0.60309812  1
  O2-  O251  1  0.95452868  0.92139785  0.93969468  1
  O2-  O252  1  0.33423859  0.29864419  0.26714717  1
  O2-  O253  1  0.34093180  0.29179957  0.60169496  1
  O2-  O254  1  0.33796858  0.28838378  0.93664147  1
  O2-  O255  1  0.33239844  0.78978076  0.26828305  1
  O2-  O256  1  0.32578868  0.79580332  0.60013078  1
  O2-  O257  1  0.32825345  0.79594931  0.93286995  1
  O2-  O258  1  0.83787891  0.28167307  0.26403600  1
  O2-  O259  1  0.83621829  0.28522712  0.60014436  1
  O2-  O260  1  0.83851182  0.28446632  0.93360455  1
  O2-  O261  1  0.82562766  0.79798588  0.26688088  1
  O2-  O262  1  0.83419506  0.79204624  0.60276576  1
  O2-  O263  1  0.83324893  0.80464310  0.93901560  1
  O2-  O264  1  0.42193521  0.05435580  0.05675126  1
  O2-  O265  1  0.42380341  0.04413660  0.39834487  1
  O2-  O266  1  0.42024868  0.04889194  0.72952424  1
  O2-  O267  1  0.41572007  0.53844509  0.06918994  1
  O2-  O268  1  0.41454158  0.54046113  0.40425224  1
  O2-  O269  1  0.41999613  0.53624547  0.73383900  1
  O2-  O270  1  0.91132262  0.04720391  0.06563944  1
  O2-  O271  1  0.91424834  0.05216534  0.39523805  1
  O2-  O272  1  0.91146706  0.04543767  0.72997911  1
  O2-  O273  1  0.91317681  0.54306617  0.06084419  1
  O2-  O274  1  0.91878644  0.53898608  0.40212732  1
  O2-  O275  1  0.91014665  0.54565977  0.73325939  1
  O2-  O276  1  0.29477730  0.16354380  0.06455635  1
  O2-  O277  1  0.30103703  0.17194956  0.39796674  1
  O2-  O278  1  0.29926051  0.16534027  0.72799657  1
  O2-  O279  1  0.29077245  0.67021965  0.06549466  1
  O2-  O280  1  0.28551938  0.66557461  0.40289849  1
  O2-  O281  1  0.29775173  0.67029457  0.73683404  1
  O2-  O282  1  0.78955024  0.16202690  0.06372707  1
  O2-  O283  1  0.78548409  0.15985098  0.39805547  1
  O2-  O284  1  0.78904777  0.16143130  0.73311022  1
  O2-  O285  1  0.80260795  0.67050921  0.05939639  1
  O2-  O286  1  0.79455882  0.67164028  0.40266693  1
  O2-  O287  1  0.78988699  0.66465264  0.73185656  1
