# generated using pymatgen
data_Ca2Al2SiO7
_symmetry_space_group_name_H-M   'P 1'
_cell_length_a   15.46017347
_cell_length_b   15.46069164
_cell_length_c   15.28602034
_cell_angle_alpha   89.99411939
_cell_angle_beta   90.01170197
_cell_angle_gamma   90.00878545
_symmetry_Int_Tables_number   1
_chemical_formula_structural   Ca2Al2SiO7
_chemical_formula_sum   'Ca48 Al48 Si24 O168'
_cell_volume   3653.74048687
_cell_formula_units_Z   24
loop_
 _symmetry_equiv_pos_site_id
 _symmetry_equiv_pos_as_xyz
  1  'x, y, z'
loop_
 _atom_type_symbol
 _atom_type_oxidation_number
  Ca2+  2.0
  Al0+  0.0
  Si0+  0.0
  O2-  -2.0
loop_
 _atom_site_type_symbol
 _atom_site_label
 _atom_site_symmetry_multiplicity
 _atom_site_fract_x
 _atom_site_fract_y
 _atom_site_fract_z
 _atom_site_occupancy
  Ca2+  Ca0  1  0.16328206  0.07496903  0.17055253  1
  Ca2+  Ca1  1  0.15644578  0.06915993  0.50053111  1
  Ca2+  Ca2  1  0.16769365  0.07155022  0.84286664  1
  Ca2+  Ca3  1  0.17053313  0.58116382  0.17470591  1
  Ca2+  Ca4  1  0.16490751  0.57704861  0.50776443  1
  Ca2+  Ca5  1  0.17744973  0.59017530  0.83434983  1
  Ca2+  Ca6  1  0.67281799  0.08094522  0.18097298  1
  Ca2+  Ca7  1  0.66708659  0.07945711  0.49489118  1
  Ca2+  Ca8  1  0.66977300  0.07952717  0.83760719  1
  Ca2+  Ca9  1  0.67230864  0.57979249  0.17489586  1
  Ca2+  Ca10  1  0.67672569  0.58969050  0.50475966  1
  Ca2+  Ca11  1  0.67009797  0.59468394  0.83522423  1
  Ca2+  Ca12  1  0.08211182  0.32347424  0.16229661  1
  Ca2+  Ca13  1  0.08876252  0.33036915  0.48926443  1
  Ca2+  Ca14  1  0.08730160  0.32992426  0.83253771  1
  Ca2+  Ca15  1  0.08765412  0.83232016  0.16728502  1
  Ca2+  Ca16  1  0.08733981  0.82269646  0.49597423  1
  Ca2+  Ca17  1  0.08372910  0.83206381  0.82431359  1
  Ca2+  Ca18  1  0.59150939  0.32819189  0.16711810  1
  Ca2+  Ca19  1  0.58435089  0.33033328  0.49145348  1
  Ca2+  Ca20  1  0.57925698  0.33178957  0.82954615  1
  Ca2+  Ca21  1  0.57151946  0.83538283  0.16214172  1
  Ca2+  Ca22  1  0.57616475  0.83058348  0.49236861  1
  Ca2+  Ca23  1  0.57357511  0.82291343  0.83041481  1
  Ca2+  Ca24  1  0.32868703  0.42438140  0.17067550  1
  Ca2+  Ca25  1  0.32052372  0.42057807  0.50639231  1
  Ca2+  Ca26  1  0.32858368  0.42829898  0.83335312  1
  Ca2+  Ca27  1  0.32675468  0.91389305  0.16920929  1
  Ca2+  Ca28  1  0.32294545  0.91031893  0.49936490  1
  Ca2+  Ca29  1  0.32162516  0.91561090  0.84255294  1
  Ca2+  Ca30  1  0.83155146  0.41931850  0.17554072  1
  Ca2+  Ca31  1  0.83063537  0.42997194  0.49865348  1
  Ca2+  Ca32  1  0.83695876  0.42314491  0.83500944  1
  Ca2+  Ca33  1  0.82420948  0.92352819  0.17841287  1
  Ca2+  Ca34  1  0.83515534  0.91884110  0.50089888  1
  Ca2+  Ca35  1  0.83462123  0.91148799  0.83525707  1
  Ca2+  Ca36  1  0.42003087  0.16355694  0.16368121  1
  Ca2+  Ca37  1  0.42208384  0.16917918  0.49035907  1
  Ca2+  Ca38  1  0.41094694  0.16456288  0.83299608  1
  Ca2+  Ca39  1  0.41803048  0.67850442  0.15820111  1
  Ca2+  Ca40  1  0.41803439  0.66760544  0.49578657  1
  Ca2+  Ca41  1  0.42242970  0.65976367  0.83023444  1
  Ca2+  Ca42  1  0.92611645  0.16712148  0.16239771  1
  Ca2+  Ca43  1  0.92144905  0.16903536  0.48970744  1
  Ca2+  Ca44  1  0.92279450  0.17340053  0.83438399  1
  Ca2+  Ca45  1  0.92383693  0.65939844  0.16811556  1
  Ca2+  Ca46  1  0.92460195  0.66316546  0.49806359  1
  Ca2+  Ca47  1  0.92467246  0.67372408  0.81949386  1
  Al0+  Al48  1  -0.00100126  0.00060323  0.00007980  1
  Al0+  Al49  1  0.00033316  -0.00095852  0.33667697  1
  Al0+  Al50  1  -0.00156651  0.00292772  0.66901437  1
  Al0+  Al51  1  -0.00076972  0.49997775  -0.00442314  1
  Al0+  Al52  1  0.00102362  0.49978601  0.33537786  1
  Al0+  Al53  1  -0.00330972  0.49806138  0.67205155  1
  Al0+  Al54  1  0.49880728  -0.00133848  -0.00366448  1
  Al0+  Al55  1  0.50010359  0.00161610  0.32889467  1
  Al0+  Al56  1  0.50200524  -0.00014804  0.66683643  1
  Al0+  Al57  1  0.50185254  0.49822001  0.00156711  1
  Al0+  Al58  1  0.49960953  0.50012766  0.33524869  1
  Al0+  Al59  1  0.49977956  0.49727140  0.66349756  1
  Al0+  Al60  1  0.25143132  0.24885718  -0.00164296  1
  Al0+  Al61  1  0.25076364  0.25006705  0.33031756  1
  Al0+  Al62  1  0.25085588  0.25010262  0.66863894  1
  Al0+  Al63  1  0.25007505  0.75051290  0.00511497  1
  Al0+  Al64  1  0.25037949  0.75078136  0.32808684  1
  Al0+  Al65  1  0.25019774  0.75028089  0.67098857  1
  Al0+  Al66  1  0.75080718  0.25094725  -0.00597436  1
  Al0+  Al67  1  0.75005208  0.25147676  0.33752486  1
  Al0+  Al68  1  0.75095551  0.24909382  0.66699086  1
  Al0+  Al69  1  0.75037670  0.74902199  0.00023883  1
  Al0+  Al70  1  0.75031535  0.75139426  0.34039138  1
  Al0+  Al71  1  0.74826610  0.75200513  0.66393933  1
  Al0+  Al72  1  0.56908968  0.67792671  0.65112037  1
  Al0+  Al73  1  0.42700508  0.82114291  0.98241290  1
  Al0+  Al74  1  0.17882427  0.93033212  0.67961932  1
  Al0+  Al75  1  0.07182684  0.17666495  0.32015739  1
  Al0+  Al76  1  0.81807553  0.57245916  0.68265801  1
  Al0+  Al77  1  0.18103351  0.42850035  0.34383919  1
  Al0+  Al78  1  0.92853538  0.32196203  0.98384276  1
  Al0+  Al79  1  0.17663996  0.92905930  0.01776506  1
  Al0+  Al80  1  0.32253880  0.07231157  0.01583836  1
  Al0+  Al81  1  0.57089319  0.18231487  0.31970986  1
  Al0+  Al82  1  0.32148299  0.57061616  0.68026942  1
  Al0+  Al83  1  0.06954688  0.67802970  0.31938578  1
  Al0+  Al84  1  0.67727735  0.42936512  0.34819970  1
  Al0+  Al85  1  0.82214613  0.07098107  0.34834567  1
  Al0+  Al86  1  0.67564602  0.92949612  0.34849931  1
  Al0+  Al87  1  0.07218595  0.67854201  0.65279724  1
  Al0+  Al88  1  0.07233423  0.17794497  0.98342637  1
  Al0+  Al89  1  0.92876737  0.82420876  0.65095630  1
  Al0+  Al90  1  0.42971599  0.82013459  0.31929277  1
  Al0+  Al91  1  0.57144839  0.67762696  0.98662084  1
  Al0+  Al92  1  0.17620886  0.42634568  0.68309165  1
  Al0+  Al93  1  0.32250513  0.56981907  0.01549328  1
  Al0+  Al94  1  0.82222320  0.57250645  0.34838257  1
  Al0+  Al95  1  0.18002484  0.92842254  0.34803991  1
  Si0+  Si96  1  0.42960955  0.32154334  0.98447384  1
  Si0+  Si97  1  0.07119564  0.18191823  0.65155046  1
  Si0+  Si98  1  0.92957200  0.32164532  0.31877196  1
  Si0+  Si99  1  0.57419500  0.67691569  0.31770771  1
  Si0+  Si100  1  0.92723221  0.82201901  0.31686443  1
  Si0+  Si101  1  0.42908567  0.31895582  0.65094618  1
  Si0+  Si102  1  0.92660891  0.32050188  0.64950622  1
  Si0+  Si103  1  0.32201603  0.07247800  0.34903180  1
  Si0+  Si104  1  0.17693555  0.42897141  0.01655254  1
  Si0+  Si105  1  0.92818767  0.82034208  0.98837253  1
  Si0+  Si106  1  0.68006513  0.92828039  0.01301232  1
  Si0+  Si107  1  0.32464456  0.07129105  0.68110976  1
  Si0+  Si108  1  0.82009576  0.07245452  0.68459549  1
  Si0+  Si109  1  0.57176178  0.17848422  0.98393903  1
  Si0+  Si110  1  0.82151643  0.57142996  0.01425369  1
  Si0+  Si111  1  0.67899120  0.42626432  0.68466183  1
  Si0+  Si112  1  0.07089159  0.67877868  0.98603926  1
  Si0+  Si113  1  0.32122903  0.57348782  0.34858538  1
  Si0+  Si114  1  0.42824642  0.82362161  0.64981299  1
  Si0+  Si115  1  0.67780481  0.92993990  0.68393645  1
  Si0+  Si116  1  0.57253790  0.17813636  0.65140220  1
  Si0+  Si117  1  0.81828589  0.07249327  0.01374163  1
  Si0+  Si118  1  0.68011510  0.42706504  0.01379899  1
  Si0+  Si119  1  0.42696204  0.32373491  0.31501973  1
  O2-  O120  1  0.24944800  0.00194713  0.06590819  1
  O2-  O121  1  0.25278620  0.00554103  0.39468198  1
  O2-  O122  1  0.25629793  0.00294109  0.72486958  1
  O2-  O123  1  0.24495144  0.49752747  0.06169558  1
  O2-  O124  1  0.25437132  0.50318701  0.39220369  1
  O2-  O125  1  0.24429770  0.50349758  0.73094408  1
  O2-  O126  1  0.74757663  0.00195216  0.05608726  1
  O2-  O127  1  0.75078939  -0.00163128  0.39919617  1
  O2-  O128  1  0.75168400  -0.00147989  0.72659681  1
  O2-  O129  1  0.75107587  0.49878360  0.05453368  1
  O2-  O130  1  0.74427284  0.50583531  0.39755751  1
  O2-  O131  1  0.74239022  0.49844454  0.73092491  1
  O2-  O132  1  -0.00382827  0.25112355  0.27453610  1
  O2-  O133  1  0.00374780  0.25582448  0.60842500  1
  O2-  O134  1  0.00320618  0.25303380  0.93298164  1
  O2-  O135  1  -0.00676782  0.75132561  0.27143980  1
  O2-  O136  1  0.00065629  0.75139241  0.60222046  1
  O2-  O137  1  0.00172553  0.75257574  0.94590157  1
  O2-  O138  1  0.49896418  0.25834049  0.27055738  1
  O2-  O139  1  0.50002819  0.24724443  0.60983339  1
  O2-  O140  1  0.49757993  0.24638750  0.94201954  1
  O2-  O141  1  0.50668558  0.74633344  0.27363907  1
  O2-  O142  1  0.49257484  0.75101756  0.60533086  1
  O2-  O143  1  0.49651683  0.74545082  0.93448517  1
  O2-  O144  1  0.06836379  0.17765944  0.09687978  1
  O2-  O145  1  0.07073776  0.17899994  0.43386894  1
  O2-  O146  1  0.06918468  0.18138225  0.75644059  1
  O2-  O147  1  0.06770721  0.67473629  0.09110949  1
  O2-  O148  1  0.07080076  0.67689616  0.43198673  1
  O2-  O149  1  0.07142756  0.68179470  0.76715901  1
  O2-  O150  1  0.57659184  0.18073607  0.08839457  1
  O2-  O151  1  0.56771234  0.18253713  0.43327763  1
  O2-  O152  1  0.57339474  0.17884138  0.75697968  1
  O2-  O153  1  0.57521077  0.68031427  0.09988479  1
  O2-  O154  1  0.57089942  0.67681486  0.42336018  1
  O2-  O155  1  0.56907075  0.68031173  0.76428262  1
  O2-  O156  1  0.18233298  0.42904922  0.23058231  1
  O2-  O157  1  0.18121361  0.42171477  0.56956245  1
  O2-  O158  1  0.17827978  0.43082595  0.91106061  1
  O2-  O159  1  0.18039455  0.92871548  0.23557154  1
  O2-  O160  1  0.17912017  0.93135542  0.56655532  1
  O2-  O161  1  0.17482982  0.92992194  0.90377668  1
  O2-  O162  1  0.68050724  0.42839127  0.23387551  1
  O2-  O163  1  0.68229498  0.42221585  0.57978006  1
  O2-  O164  1  0.67948279  0.42363883  0.90889735  1
  O2-  O165  1  0.67716793  0.93243401  0.23407256  1
  O2-  O166  1  0.67325586  0.93418599  0.57972883  1
  O2-  O167  1  0.68344131  0.92936385  0.90752594  1
  O2-  O168  1  0.43290946  0.32341466  0.08911457  1
  O2-  O169  1  0.42537039  0.32019344  0.42083108  1
  O2-  O170  1  0.43047276  0.31783314  0.75635367  1
  O2-  O171  1  0.43098578  0.82219178  0.09593705  1
  O2-  O172  1  0.42879109  0.81776653  0.43280672  1
  O2-  O173  1  0.43241807  0.82816439  0.75490381  1
  O2-  O174  1  0.92518790  0.31998498  0.09720668  1
  O2-  O175  1  0.93156534  0.32144545  0.42461583  1
  O2-  O176  1  0.92132554  0.31540810  0.75429270  1
  O2-  O177  1  0.92401103  0.81833472  0.09306728  1
  O2-  O178  1  0.93016534  0.82329164  0.42199022  1
  O2-  O179  1  0.92992410  0.82295896  0.76575911  1
  O2-  O180  1  0.32209621  0.07210887  0.24384199  1
  O2-  O181  1  0.32781214  0.07245661  0.57569715  1
  O2-  O182  1  0.32181107  0.07026411  0.90161031  1
  O2-  O183  1  0.32044500  0.57155392  0.24273625  1
  O2-  O184  1  0.32334665  0.56653228  0.56678018  1
  O2-  O185  1  0.32285922  0.56681632  0.90254600  1
  O2-  O186  1  0.82031538  0.07028509  0.23397829  1
  O2-  O187  1  0.81856549  0.07600144  0.58030397  1
  O2-  O188  1  0.81591967  0.07209999  0.90814953  1
  O2-  O189  1  0.82265387  0.56865646  0.23387198  1
  O2-  O190  1  0.81817695  0.56984931  0.57022928  1
  O2-  O191  1  0.82024681  0.57357657  0.90951913  1
  O2-  O192  1  0.03977631  0.08034915  0.26677251  1
  O2-  O193  1  0.03813983  0.09146254  0.60513939  1
  O2-  O194  1  0.03723108  0.08120510  0.92971556  1
  O2-  O195  1  0.03830630  0.58165085  0.26379241  1
  O2-  O196  1  0.04209216  0.57783713  0.60490330  1
  O2-  O197  1  0.04197308  0.58865597  0.93647081  1
  O2-  O198  1  0.54034199  0.08707337  0.26356008  1
  O2-  O199  1  0.54636624  0.08594964  0.60434441  1
  O2-  O200  1  0.54734715  0.08637534  0.93514459  1
  O2-  O201  1  0.54946832  0.58235183  0.27241678  1
  O2-  O202  1  0.54352551  0.57918248  0.59853656  1
  O2-  O203  1  0.54799779  0.57705673  0.93471756  1
  O2-  O204  1  0.16775766  0.20808216  0.26562222  1
  O2-  O205  1  0.16501077  0.20495668  0.60590506  1
  O2-  O206  1  0.17207417  0.20330627  0.93109520  1
  O2-  O207  1  0.16486017  0.71010994  0.26391581  1
  O2-  O208  1  0.17200240  0.70501957  0.60152119  1
  O2-  O209  1  0.16359823  0.70525192  0.94124369  1
  O2-  O210  1  0.66845419  0.21256269  0.26613645  1
  O2-  O211  1  0.66376011  0.20784382  0.60455847  1
  O2-  O212  1  0.66101887  0.20987371  0.93260214  1
  O2-  O213  1  0.66987151  0.69981954  0.27489420  1
  O2-  O214  1  0.66418704  0.71272793  0.59795746  1
  O2-  O215  1  0.66898754  0.71108235  0.93271185  1
  O2-  O216  1  0.08219704  0.45422125  0.06051003  1
  O2-  O217  1  0.08496401  0.45669615  0.39869280  1
  O2-  O218  1  0.07523625  0.44430941  0.73364272  1
  O2-  O219  1  0.07695100  0.95758948  0.06940193  1
  O2-  O220  1  0.08386369  0.95796383  0.40251744  1
  O2-  O221  1  0.08305388  0.96469356  0.73387725  1
  O2-  O222  1  0.58907415  0.45210424  0.06309256  1
  O2-  O223  1  0.57619169  0.44942338  0.39985453  1
  O2-  O224  1  0.58272236  0.44607933  0.72709672  1
  O2-  O225  1  0.58682453  0.95381337  0.05676169  1
  O2-  O226  1  0.57936828  0.96413413  0.40211015  1
  O2-  O227  1  0.58828682  0.96264279  0.73434010  1
  O2-  O228  1  0.20335443  0.33443302  0.05940537  1
  O2-  O229  1  0.21286903  0.33231956  0.39879514  1
  O2-  O230  1  0.21303855  0.33044539  0.73783118  1
  O2-  O231  1  0.20395901  0.83067410  0.07062172  1
  O2-  O232  1  0.21465808  0.83219500  0.40030645  1
  O2-  O233  1  0.20672241  0.83411131  0.73504703  1
  O2-  O234  1  0.70975155  0.33520323  0.06100427  1
  O2-  O235  1  0.70800350  0.33325141  0.40391339  1
  O2-  O236  1  0.70849642  0.33348628  0.73240797  1
  O2-  O237  1  0.71126677  0.83847226  0.06171670  1
  O2-  O238  1  0.69907838  0.83088366  0.40196391  1
  O2-  O239  1  0.70401806  0.83821988  0.73143394  1
  O2-  O240  1  0.44910201  0.41904362  0.27064285  1
  O2-  O241  1  0.45708845  0.40877378  0.60093630  1
  O2-  O242  1  0.46365659  0.41006291  0.93440467  1
  O2-  O243  1  0.45987798  0.91669999  0.26512945  1
  O2-  O244  1  0.45938069  0.91582276  0.60259107  1
  O2-  O245  1  0.45871002  0.91833100  0.92766846  1
  O2-  O246  1  0.95691681  0.41366729  0.27104634  1
  O2-  O247  1  0.94649591  0.41503339  0.60584396  1
  O2-  O248  1  0.95412185  0.42089303  0.92958256  1
  O2-  O249  1  0.95485539  0.91482180  0.27008005  1
  O2-  O250  1  0.95357743  0.92510540  0.60130760  1
  O2-  O251  1  0.95022614  0.91364571  0.94105313  1
  O2-  O252  1  0.33607340  0.29478761  0.26572384  1
  O2-  O253  1  0.33769741  0.29027740  0.60282522  1
  O2-  O254  1  0.33773763  0.29719810  0.93552211  1
  O2-  O255  1  0.33546044  0.78796246  0.26221159  1
  O2-  O256  1  0.33290217  0.80150611  0.60716763  1
  O2-  O257  1  0.32640840  0.79520355  0.93386150  1
  O2-  O258  1  0.83484550  0.29838039  0.27444853  1
  O2-  O259  1  0.83743066  0.28509514  0.60097565  1
  O2-  O260  1  0.83201933  0.28989803  0.92685637  1
  O2-  O261  1  0.83116054  0.80055568  0.27302632  1
  O2-  O262  1  0.82870390  0.80001149  0.60077076  1
  O2-  O263  1  0.83827193  0.79004923  0.93783707  1
  O2-  O264  1  0.42345874  0.04580019  0.06566534  1
  O2-  O265  1  0.41558774  0.04682832  0.39469055  1
  O2-  O266  1  0.41904239  0.04824637  0.72824547  1
  O2-  O267  1  0.41845996  0.53566235  0.06916582  1
  O2-  O268  1  0.41571303  0.55066979  0.39366192  1
  O2-  O269  1  0.41838498  0.53390526  0.73337361  1
  O2-  O270  1  0.91005080  0.04548370  0.05994803  1
  O2-  O271  1  0.91911024  0.04264416  0.40348101  1
  O2-  O272  1  0.91184430  0.04781392  0.73358693  1
  O2-  O273  1  0.91372286  0.54324002  0.06089838  1
  O2-  O274  1  0.91756908  0.53724220  0.40264239  1
  O2-  O275  1  0.91323025  0.54020007  0.73866210  1
  O2-  O276  1  0.30087631  0.17355039  0.06640456  1
  O2-  O277  1  0.29920500  0.16705731  0.39425297  1
  O2-  O278  1  0.29908147  0.16467623  0.72749852  1
  O2-  O279  1  0.29308566  0.66631910  0.06892143  1
  O2-  O280  1  0.29442101  0.66621974  0.39363924  1
  O2-  O281  1  0.29943515  0.66984965  0.73449513  1
  O2-  O282  1  0.78892853  0.16430121  0.05947570  1
  O2-  O283  1  0.79310624  0.16854262  0.40192684  1
  O2-  O284  1  0.78663929  0.16202658  0.73434830  1
  O2-  O285  1  0.79324262  0.66220351  0.06351518  1
  O2-  O286  1  0.80092804  0.67174027  0.40177467  1
  O2-  O287  1  0.78744767  0.67042616  0.73506499  1
