# generated using pymatgen
data_Ca2Al2SiO7
_symmetry_space_group_name_H-M   'P 1'
_cell_length_a   15.45621479
_cell_length_b   15.45626700
_cell_length_c   15.28155434
_cell_angle_alpha   90.00989473
_cell_angle_beta   90.00970713
_cell_angle_gamma   90.01074943
_symmetry_Int_Tables_number   1
_chemical_formula_structural   Ca2Al2SiO7
_chemical_formula_sum   'Ca48 Al48 Si24 O168'
_cell_volume   3650.69259883
_cell_formula_units_Z   24
loop_
 _symmetry_equiv_pos_site_id
 _symmetry_equiv_pos_as_xyz
  1  'x, y, z'
loop_
 _atom_type_symbol
 _atom_type_oxidation_number
  Ca2+  2.0
  Al0+  0.0
  Si0+  0.0
  O2-  -2.0
loop_
 _atom_site_type_symbol
 _atom_site_label
 _atom_site_symmetry_multiplicity
 _atom_site_fract_x
 _atom_site_fract_y
 _atom_site_fract_z
 _atom_site_occupancy
  Ca2+  Ca0  1  0.16261955  0.07710527  0.16847563  1
  Ca2+  Ca1  1  0.16250629  0.07177565  0.50726041  1
  Ca2+  Ca2  1  0.15653943  0.07652369  0.83509561  1
  Ca2+  Ca3  1  0.17302640  0.57283125  0.17842664  1
  Ca2+  Ca4  1  0.17737004  0.58590184  0.50591705  1
  Ca2+  Ca5  1  0.17262341  0.58653213  0.83160161  1
  Ca2+  Ca6  1  0.66617155  0.07320960  0.17111016  1
  Ca2+  Ca7  1  0.66912315  0.07288130  0.51122492  1
  Ca2+  Ca8  1  0.66410140  0.07922831  0.83348452  1
  Ca2+  Ca9  1  0.67259957  0.57517334  0.17031873  1
  Ca2+  Ca10  1  0.67684139  0.58566853  0.51028532  1
  Ca2+  Ca11  1  0.66578314  0.57492561  0.82987487  1
  Ca2+  Ca12  1  0.08029257  0.33015471  0.15644630  1
  Ca2+  Ca13  1  0.08779029  0.32803445  0.49752306  1
  Ca2+  Ca14  1  0.07662090  0.32135493  0.82681330  1
  Ca2+  Ca15  1  0.07883803  0.83891004  0.16544031  1
  Ca2+  Ca16  1  0.08042755  0.83098178  0.49548373  1
  Ca2+  Ca17  1  0.08533976  0.83167346  0.82363421  1
  Ca2+  Ca18  1  0.57829899  0.33484959  0.15708083  1
  Ca2+  Ca19  1  0.58473376  0.33398140  0.50495665  1
  Ca2+  Ca20  1  0.57857470  0.33761651  0.82252252  1
  Ca2+  Ca21  1  0.58044064  0.83666465  0.16555514  1
  Ca2+  Ca22  1  0.58437006  0.83070604  0.49282220  1
  Ca2+  Ca23  1  0.58712183  0.83023837  0.82471240  1
  Ca2+  Ca24  1  0.32902635  0.41922210  0.17403702  1
  Ca2+  Ca25  1  0.33236609  0.42503979  0.50503976  1
  Ca2+  Ca26  1  0.34511191  0.42095700  0.83327692  1
  Ca2+  Ca27  1  0.32175033  0.91454684  0.17445104  1
  Ca2+  Ca28  1  0.32326209  0.90739563  0.50280714  1
  Ca2+  Ca29  1  0.31999423  0.91721607  0.83643084  1
  Ca2+  Ca30  1  0.83308954  0.41860551  0.16986246  1
  Ca2+  Ca31  1  0.83014775  0.43017179  0.50903165  1
  Ca2+  Ca32  1  0.82455533  0.41477701  0.83594079  1
  Ca2+  Ca33  1  0.82323818  0.91234605  0.17254966  1
  Ca2+  Ca34  1  0.82500422  0.91593279  0.50688948  1
  Ca2+  Ca35  1  0.82216174  0.92147205  0.83147299  1
  Ca2+  Ca36  1  0.41723767  0.17468530  0.15934503  1
  Ca2+  Ca37  1  0.42243958  0.16862356  0.50204952  1
  Ca2+  Ca38  1  0.42274290  0.18046397  0.82357342  1
  Ca2+  Ca39  1  0.41136902  0.67095974  0.16935120  1
  Ca2+  Ca40  1  0.42004990  0.66604044  0.49844124  1
  Ca2+  Ca41  1  0.42379917  0.66754638  0.82181817  1
  Ca2+  Ca42  1  0.92487320  0.17449238  0.15643901  1
  Ca2+  Ca43  1  0.91784996  0.16129365  0.50216337  1
  Ca2+  Ca44  1  0.92150232  0.16366413  0.82821343  1
  Ca2+  Ca45  1  0.91279555  0.66993617  0.16921773  1
  Ca2+  Ca46  1  0.91668524  0.66798214  0.49497525  1
  Ca2+  Ca47  1  0.92271056  0.66788726  0.82334824  1
  Al0+  Al48  1  -0.00175899  -0.00189581  0.00134677  1
  Al0+  Al49  1  -0.00047681  -0.00053429  0.33038973  1
  Al0+  Al50  1  -0.00231075  -0.00040491  0.66989731  1
  Al0+  Al51  1  0.00128052  0.50143631  -0.00427701  1
  Al0+  Al52  1  -0.00026391  0.49768355  0.33947251  1
  Al0+  Al53  1  0.00341737  0.50059841  0.66555404  1
  Al0+  Al54  1  0.49730624  0.00005555  0.00357147  1
  Al0+  Al55  1  0.49986952  -0.00112132  0.33089847  1
  Al0+  Al56  1  0.49541721  0.00180702  0.66733552  1
  Al0+  Al57  1  0.50281503  0.50296500  0.00321341  1
  Al0+  Al58  1  0.50035960  0.49874924  0.33416965  1
  Al0+  Al59  1  0.49969774  0.50408705  0.66323867  1
  Al0+  Al60  1  0.25117938  0.25066435  -0.00975434  1
  Al0+  Al61  1  0.25159429  0.24835947  0.33481575  1
  Al0+  Al62  1  0.24873603  0.25012573  0.65673107  1
  Al0+  Al63  1  0.25036007  0.75160824  0.00508212  1
  Al0+  Al64  1  0.25098117  0.74882248  0.33499208  1
  Al0+  Al65  1  0.24899035  0.74847162  0.67171444  1
  Al0+  Al66  1  0.74940268  0.25001157  0.00271025  1
  Al0+  Al67  1  0.75078297  0.24842610  0.33027594  1
  Al0+  Al68  1  0.75017089  0.24986436  0.66839344  1
  Al0+  Al69  1  0.75048410  0.74997559  0.00343446  1
  Al0+  Al70  1  0.75032999  0.74830233  0.33373706  1
  Al0+  Al71  1  0.75063085  0.75021954  0.67130668  1
  Al0+  Al72  1  0.17856584  0.42558197  0.34807916  1
  Al0+  Al73  1  0.92885328  0.82011209  0.31955618  1
  Al0+  Al74  1  0.07015923  0.17770870  0.98400205  1
  Al0+  Al75  1  0.07260831  0.67867170  0.65261284  1
  Al0+  Al76  1  0.18003021  0.93032341  0.67970584  1
  Al0+  Al77  1  0.67449055  0.92878153  0.68066876  1
  Al0+  Al78  1  0.32168652  0.57064055  0.34932029  1
  Al0+  Al79  1  0.57202508  0.68278510  0.65358789  1
  Al0+  Al80  1  0.92709816  0.32366198  0.98403429  1
  Al0+  Al81  1  0.67964938  0.42898006  0.01417875  1
  Al0+  Al82  1  0.17835270  0.92946777  0.01598001  1
  Al0+  Al83  1  0.57284913  0.17755990  0.65149004  1
  Al0+  Al84  1  0.81975884  0.56951563  0.34650691  1
  Al0+  Al85  1  0.43134011  0.32342128  0.98692535  1
  Al0+  Al86  1  0.42978233  0.32380479  0.64803820  1
  Al0+  Al87  1  0.42867262  0.82020833  0.31920553  1
  Al0+  Al88  1  0.67991974  0.43121037  0.67978931  1
  Al0+  Al89  1  0.67795117  0.92827863  0.01557478  1
  Al0+  Al90  1  0.31981108  0.56915480  0.68193813  1
  Al0+  Al91  1  0.82525574  0.57279141  0.68325645  1
  Al0+  Al92  1  0.82019202  0.07139093  0.68159938  1
  Al0+  Al93  1  0.67895095  0.92981076  0.34657228  1
  Al0+  Al94  1  0.06834058  0.17729261  0.65024468  1
  Al0+  Al95  1  0.17821173  0.93067251  0.34721485  1
  Si0+  Si96  1  0.32065526  0.07580593  0.68346763  1
  Si0+  Si97  1  0.57117643  0.17612436  0.98513583  1
  Si0+  Si98  1  0.92890113  0.82059645  0.65113372  1
  Si0+  Si99  1  0.92745226  0.81927493  0.98449881  1
  Si0+  Si100  1  0.17892729  0.42476763  0.68499681  1
  Si0+  Si101  1  0.57119367  0.68198063  0.98611031  1
  Si0+  Si102  1  0.32066160  0.07385968  0.01573989  1
  Si0+  Si103  1  0.92900915  0.32169365  0.31912278  1
  Si0+  Si104  1  0.32215469  0.57150840  0.01578666  1
  Si0+  Si105  1  0.32323326  0.07227051  0.35006627  1
  Si0+  Si106  1  0.67796126  0.42496420  0.34937533  1
  Si0+  Si107  1  0.07145724  0.17871027  0.31788056  1
  Si0+  Si108  1  0.17966270  0.42931976  0.01090196  1
  Si0+  Si109  1  0.07323746  0.68048116  0.98659259  1
  Si0+  Si110  1  0.82513833  0.57144740  0.01719350  1
  Si0+  Si111  1  0.43032129  0.32034748  0.31715439  1
  Si0+  Si112  1  0.42612234  0.82250726  0.65281908  1
  Si0+  Si113  1  0.82159606  0.07130616  0.01879113  1
  Si0+  Si114  1  0.82170729  0.07300929  0.34809946  1
  Si0+  Si115  1  0.07198453  0.67666415  0.31694665  1
  Si0+  Si116  1  0.57285986  0.67669852  0.31459488  1
  Si0+  Si117  1  0.57212540  0.17817981  0.31656154  1
  Si0+  Si118  1  0.92778262  0.32280544  0.64825595  1
  Si0+  Si119  1  0.42708579  0.82138799  0.98541640  1
  O2-  O120  1  0.25103285  0.00683221  0.06157327  1
  O2-  O121  1  0.25471711  0.00329150  0.39374991  1
  O2-  O122  1  0.25166849  0.00736238  0.72781833  1
  O2-  O123  1  0.25137938  0.49886534  0.05540304  1
  O2-  O124  1  0.24820489  0.49956832  0.39777988  1
  O2-  O125  1  0.24874322  0.49178105  0.73068690  1
  O2-  O126  1  0.75092552  0.00443384  0.06300412  1
  O2-  O127  1  0.75378086  0.00404949  0.39196389  1
  O2-  O128  1  0.74268477  0.00456626  0.73076192  1
  O2-  O129  1  0.75934786  0.49905787  0.06031295  1
  O2-  O130  1  0.74516365  0.49488464  0.39211536  1
  O2-  O131  1  0.75466557  0.49919947  0.73233013  1
  O2-  O132  1  0.00230438  0.25237703  0.27685317  1
  O2-  O133  1  -0.00455361  0.25334859  0.60256902  1
  O2-  O134  1  -0.00354238  0.24869326  0.93497613  1
  O2-  O135  1  0.00448495  0.74592541  0.27084067  1
  O2-  O136  1  -0.00502941  0.74975426  0.60623640  1
  O2-  O137  1  0.00123958  0.75039543  0.94402188  1
  O2-  O138  1  0.50250237  0.25085568  0.27401352  1
  O2-  O139  1  0.50233203  0.25067028  0.59977628  1
  O2-  O140  1  0.50741110  0.24957654  0.94202420  1
  O2-  O141  1  0.50302911  0.74505031  0.27057607  1
  O2-  O142  1  0.50207901  0.76256440  0.60827270  1
  O2-  O143  1  0.50162758  0.75460402  0.94361467  1
  O2-  O144  1  0.07050523  0.18056551  0.09858143  1
  O2-  O145  1  0.06977268  0.17705666  0.42258806  1
  O2-  O146  1  0.06664907  0.17731098  0.76315029  1
  O2-  O147  1  0.07390612  0.67927346  0.09174767  1
  O2-  O148  1  0.07117577  0.67870077  0.42214569  1
  O2-  O149  1  0.07417017  0.68331314  0.76664146  1
  O2-  O150  1  0.56749361  0.17537663  0.09149003  1
  O2-  O151  1  0.57313281  0.17816192  0.42085195  1
  O2-  O152  1  0.56897696  0.17704593  0.76537945  1
  O2-  O153  1  0.56995152  0.68128346  0.09141325  1
  O2-  O154  1  0.57405870  0.67771373  0.41979882  1
  O2-  O155  1  0.56887925  0.68180206  0.76752196  1
  O2-  O156  1  0.18027311  0.42491099  0.23302153  1
  O2-  O157  1  0.17984135  0.42620793  0.57941860  1
  O2-  O158  1  0.17894732  0.43203549  0.90639524  1
  O2-  O159  1  0.17780032  0.93400850  0.23374680  1
  O2-  O160  1  0.18072830  0.92950701  0.56654272  1
  O2-  O161  1  0.18070767  0.92539143  0.90327858  1
  O2-  O162  1  0.67872086  0.42472286  0.24321890  1
  O2-  O163  1  0.68216941  0.43355388  0.56586512  1
  O2-  O164  1  0.67514754  0.43370149  0.90217886  1
  O2-  O165  1  0.67934470  0.93204496  0.23292812  1
  O2-  O166  1  0.67775888  0.92729756  0.56702647  1
  O2-  O167  1  0.67903917  0.92680270  0.90321088  1
  O2-  O168  1  0.43049335  0.32164228  0.10090768  1
  O2-  O169  1  0.43045545  0.31992888  0.42134761  1
  O2-  O170  1  0.43218939  0.32321763  0.76215198  1
  O2-  O171  1  0.42496710  0.81853967  0.09059082  1
  O2-  O172  1  0.42981827  0.82067471  0.43187199  1
  O2-  O173  1  0.42414480  0.81843090  0.75904081  1
  O2-  O174  1  0.93221223  0.32441774  0.09868780  1
  O2-  O175  1  0.92587640  0.31970980  0.42355871  1
  O2-  O176  1  0.93015679  0.32303048  0.75383213  1
  O2-  O177  1  0.92643376  0.81753890  0.08997026  1
  O2-  O178  1  0.92948986  0.82034316  0.43208598  1
  O2-  O179  1  0.93097275  0.82047927  0.75731115  1
  O2-  O180  1  0.32103524  0.07515993  0.24403534  1
  O2-  O181  1  0.32065848  0.07402292  0.57770389  1
  O2-  O182  1  0.32305576  0.07059292  0.91071977  1
  O2-  O183  1  0.32036605  0.56735066  0.23446974  1
  O2-  O184  1  0.31850937  0.57083364  0.56946708  1
  O2-  O185  1  0.32246230  0.57383453  0.91100362  1
  O2-  O186  1  0.81934862  0.07521917  0.24234136  1
  O2-  O187  1  0.82224460  0.06604294  0.56754614  1
  O2-  O188  1  0.82236041  0.06916513  0.91371376  1
  O2-  O189  1  0.81916258  0.56689587  0.23269401  1
  O2-  O190  1  0.82317436  0.57264287  0.56946824  1
  O2-  O191  1  0.82517019  0.57466883  0.91239859  1
  O2-  O192  1  0.04122208  0.08880783  0.26774722  1
  O2-  O193  1  0.03451584  0.08082266  0.59714361  1
  O2-  O194  1  0.04074140  0.07788628  0.93415113  1
  O2-  O195  1  0.04460373  0.58199756  0.27227618  1
  O2-  O196  1  0.04941493  0.58031035  0.59881773  1
  O2-  O197  1  0.04836552  0.58898966  0.93739276  1
  O2-  O198  1  0.54217708  0.08770107  0.26731657  1
  O2-  O199  1  0.53990843  0.07978114  0.59747231  1
  O2-  O200  1  0.54113935  0.08376367  0.93880211  1
  O2-  O201  1  0.54689771  0.58211636  0.26875261  1
  O2-  O202  1  0.53738966  0.58968534  0.59664900  1
  O2-  O203  1  0.54053019  0.59132429  0.93898587  1
  O2-  O204  1  0.16488454  0.20380743  0.27144667  1
  O2-  O205  1  0.16468316  0.20504161  0.59429305  1
  O2-  O206  1  0.16797039  0.20454954  0.92995784  1
  O2-  O207  1  0.16620389  0.70005596  0.27109799  1
  O2-  O208  1  0.16787029  0.71408515  0.59914774  1
  O2-  O209  1  0.16506294  0.71034974  0.93984917  1
  O2-  O210  1  0.66421861  0.20444926  0.26725958  1
  O2-  O211  1  0.67237876  0.20273873  0.59881704  1
  O2-  O212  1  0.66743246  0.19499698  0.94393471  1
  O2-  O213  1  0.66540566  0.70332558  0.26682350  1
  O2-  O214  1  0.67031056  0.70951004  0.60092304  1
  O2-  O215  1  0.66390222  0.70826313  0.94020003  1
  O2-  O216  1  0.08838920  0.45843742  0.05983882  1
  O2-  O217  1  0.07941340  0.44755166  0.40060483  1
  O2-  O218  1  0.08600911  0.45210202  0.73072656  1
  O2-  O219  1  0.08021077  0.95701970  0.06895794  1
  O2-  O220  1  0.08162977  0.96282962  0.39976181  1
  O2-  O221  1  0.08342008  0.95933981  0.73392438  1
  O2-  O222  1  0.58607777  0.46671921  0.07224983  1
  O2-  O223  1  0.58349576  0.44768153  0.39318009  1
  O2-  O224  1  0.58277581  0.46523345  0.73141738  1
  O2-  O225  1  0.57955913  0.95686917  0.06856408  1
  O2-  O226  1  0.58181216  0.95990989  0.39828649  1
  O2-  O227  1  0.57394193  0.95226417  0.73225520  1
  O2-  O228  1  0.20681717  0.33642676  0.05670445  1
  O2-  O229  1  0.20887195  0.32790091  0.40085128  1
  O2-  O230  1  0.20211245  0.32933939  0.72772412  1
  O2-  O231  1  0.21274457  0.83443663  0.07214438  1
  O2-  O232  1  0.20716879  0.83280991  0.39793699  1
  O2-  O233  1  0.21368853  0.83595967  0.73632986  1
  O2-  O234  1  0.70286928  0.33043702  0.06923496  1
  O2-  O235  1  0.70474019  0.33104838  0.39350865  1
  O2-  O236  1  0.70262945  0.33135486  0.73180064  1
  O2-  O237  1  0.71162120  0.83254001  0.07071672  1
  O2-  O238  1  0.70844864  0.83236762  0.39723359  1
  O2-  O239  1  0.70866807  0.83351821  0.73628140  1
  O2-  O240  1  0.45637020  0.41274786  0.26887059  1
  O2-  O241  1  0.45937287  0.42144828  0.59518177  1
  O2-  O242  1  0.46233144  0.42139645  0.93607317  1
  O2-  O243  1  0.45816622  0.91701694  0.26294128  1
  O2-  O244  1  0.43887665  0.91928631  0.60976306  1
  O2-  O245  1  0.44946649  0.91551048  0.94080810  1
  O2-  O246  1  0.95503077  0.41390649  0.27111213  1
  O2-  O247  1  0.95619872  0.41588535  0.60238410  1
  O2-  O248  1  0.95669155  0.42146161  0.93083438  1
  O2-  O249  1  0.95870953  0.91677401  0.26307939  1
  O2-  O250  1  0.95680637  0.91291600  0.60491157  1
  O2-  O251  1  0.95281663  0.91183957  0.93893649  1
  O2-  O252  1  0.33857768  0.29022797  0.26925220  1
  O2-  O253  1  0.33166134  0.29546407  0.59454992  1
  O2-  O254  1  0.33615793  0.29494223  0.92996058  1
  O2-  O255  1  0.33216939  0.78786741  0.26331747  1
  O2-  O256  1  0.33622905  0.78677302  0.60596549  1
  O2-  O257  1  0.33645745  0.78947094  0.93782764  1
  O2-  O258  1  0.83805556  0.29237326  0.26871901  1
  O2-  O259  1  0.83390037  0.29888374  0.60279229  1
  O2-  O260  1  0.82616707  0.29834967  0.93571117  1
  O2-  O261  1  0.83332040  0.78607170  0.26351130  1
  O2-  O262  1  0.83460746  0.79666190  0.60653381  1
  O2-  O263  1  0.83650562  0.78917613  0.93687820  1
  O2-  O264  1  0.41295000  0.04805647  0.06534768  1
  O2-  O265  1  0.41710134  0.04708762  0.39425456  1
  O2-  O266  1  0.41332730  0.05162731  0.73177040  1
  O2-  O267  1  0.41348375  0.54545130  0.06461484  1
  O2-  O268  1  0.42078685  0.54199296  0.39989177  1
  O2-  O269  1  0.41713476  0.54123115  0.73566768  1
  O2-  O270  1  0.91385006  0.04281461  0.06648330  1
  O2-  O271  1  0.91589116  0.04814949  0.39186492  1
  O2-  O272  1  0.91491797  0.03655378  0.73826820  1
  O2-  O273  1  0.92014030  0.54913308  0.06318258  1
  O2-  O274  1  0.91578825  0.54064167  0.40127510  1
  O2-  O275  1  0.92570844  0.54728937  0.73335853  1
  O2-  O276  1  0.29617545  0.16911515  0.06020471  1
  O2-  O277  1  0.29865196  0.16511948  0.39718990  1
  O2-  O278  1  0.29484303  0.17029794  0.72684694  1
  O2-  O279  1  0.29174080  0.66198480  0.06474483  1
  O2-  O280  1  0.29534073  0.66899968  0.40158460  1
  O2-  O281  1  0.28575317  0.66342680  0.73928850  1
  O2-  O282  1  0.79939395  0.16593841  0.06505062  1
  O2-  O283  1  0.79656789  0.16653642  0.39466627  1
  O2-  O284  1  0.79984375  0.17139227  0.73390055  1
  O2-  O285  1  0.79404456  0.66302968  0.06515876  1
  O2-  O286  1  0.78948195  0.66542200  0.40043652  1
  O2-  O287  1  0.79610877  0.66992614  0.73744141  1
