# generated using pymatgen
data_Ca2Al2SiO7
_symmetry_space_group_name_H-M   'P 1'
_cell_length_a   15.45904538
_cell_length_b   15.45705422
_cell_length_c   15.28378436
_cell_angle_alpha   89.99491006
_cell_angle_beta   89.98881158
_cell_angle_gamma   89.99310710
_symmetry_Int_Tables_number   1
_chemical_formula_structural   Ca2Al2SiO7
_chemical_formula_sum   'Ca48 Al48 Si24 O168'
_cell_volume   3652.08006865
_cell_formula_units_Z   24
loop_
 _symmetry_equiv_pos_site_id
 _symmetry_equiv_pos_as_xyz
  1  'x, y, z'
loop_
 _atom_type_symbol
 _atom_type_oxidation_number
  Ca2+  2.0
  Al0+  0.0
  Si0+  0.0
  O2-  -2.0
loop_
 _atom_site_type_symbol
 _atom_site_label
 _atom_site_symmetry_multiplicity
 _atom_site_fract_x
 _atom_site_fract_y
 _atom_site_fract_z
 _atom_site_occupancy
  Ca2+  Ca0  1  0.16781032  0.07779255  0.18067170  1
  Ca2+  Ca1  1  0.17307199  0.09123567  0.50403855  1
  Ca2+  Ca2  1  0.16807452  0.08828883  0.83114544  1
  Ca2+  Ca3  1  0.17103392  0.58562487  0.17139422  1
  Ca2+  Ca4  1  0.15653060  0.57899540  0.50696931  1
  Ca2+  Ca5  1  0.16326010  0.57872179  0.83424039  1
  Ca2+  Ca6  1  0.67488622  0.08246819  0.17014584  1
  Ca2+  Ca7  1  0.67394009  0.09093905  0.49982850  1
  Ca2+  Ca8  1  0.67645908  0.07320860  0.84180542  1
  Ca2+  Ca9  1  0.67404643  0.58440787  0.16961150  1
  Ca2+  Ca10  1  0.67154118  0.57656529  0.50849138  1
  Ca2+  Ca11  1  0.67945798  0.57901210  0.83451713  1
  Ca2+  Ca12  1  0.07359613  0.32446834  0.16602376  1
  Ca2+  Ca13  1  0.07672375  0.32815958  0.49884499  1
  Ca2+  Ca14  1  0.07369211  0.33178066  0.82467986  1
  Ca2+  Ca15  1  0.08186461  0.83324405  0.16532657  1
  Ca2+  Ca16  1  0.08407590  0.82394045  0.49774864  1
  Ca2+  Ca17  1  0.06960096  0.82577216  0.82518336  1
  Ca2+  Ca18  1  0.57891978  0.32438832  0.16291968  1
  Ca2+  Ca19  1  0.58332504  0.33084471  0.49359365  1
  Ca2+  Ca20  1  0.57821113  0.33914795  0.83166691  1
  Ca2+  Ca21  1  0.58809828  0.83036236  0.16427213  1
  Ca2+  Ca22  1  0.57665953  0.82949909  0.49609091  1
  Ca2+  Ca23  1  0.58102345  0.83449272  0.82683019  1
  Ca2+  Ca24  1  0.33742216  0.41919734  0.16574198  1
  Ca2+  Ca25  1  0.32311439  0.41878742  0.50900958  1
  Ca2+  Ca26  1  0.32504655  0.41966508  0.83962754  1
  Ca2+  Ca27  1  0.32359817  0.92333635  0.17828864  1
  Ca2+  Ca28  1  0.32829027  0.92479679  0.50361330  1
  Ca2+  Ca29  1  0.33488953  0.92045241  0.83279184  1
  Ca2+  Ca30  1  0.84401576  0.41902533  0.16886620  1
  Ca2+  Ca31  1  0.83382779  0.41883657  0.51095875  1
  Ca2+  Ca32  1  0.84178083  0.42538999  0.83495264  1
  Ca2+  Ca33  1  0.83623013  0.92710143  0.16742392  1
  Ca2+  Ca34  1  0.83843981  0.92223078  0.50206604  1
  Ca2+  Ca35  1  0.83427497  0.91697514  0.84539956  1
  Ca2+  Ca36  1  0.41964864  0.16553767  0.16434700  1
  Ca2+  Ca37  1  0.41985104  0.16205825  0.49415035  1
  Ca2+  Ca38  1  0.41685464  0.16938134  0.82800749  1
  Ca2+  Ca39  1  0.42351086  0.66305986  0.16190496  1
  Ca2+  Ca40  1  0.42126159  0.67263739  0.49454724  1
  Ca2+  Ca41  1  0.41578936  0.67153344  0.82812426  1
  Ca2+  Ca42  1  0.91077911  0.17242258  0.16300738  1
  Ca2+  Ca43  1  0.92227503  0.17751546  0.49076335  1
  Ca2+  Ca44  1  0.91850606  0.17470037  0.82625078  1
  Ca2+  Ca45  1  0.92288032  0.67127615  0.15985238  1
  Ca2+  Ca46  1  0.92341197  0.66687395  0.50038706  1
  Ca2+  Ca47  1  0.91074598  0.67356584  0.82594767  1
  Al0+  Al48  1  0.00154780  -0.00174034  -0.00010980  1
  Al0+  Al49  1  -0.00062153  -0.00104926  0.34118439  1
  Al0+  Al50  1  0.00299592  -0.00022443  0.66086214  1
  Al0+  Al51  1  0.00234252  0.49672809  0.00290355  1
  Al0+  Al52  1  0.00097966  0.50293554  0.32538376  1
  Al0+  Al53  1  -0.00089395  0.50046274  0.67000744  1
  Al0+  Al54  1  0.50027378  -0.00193618  0.00417149  1
  Al0+  Al55  1  0.49978865  -0.00016843  0.33126884  1
  Al0+  Al56  1  0.49915460  0.00073473  0.66663539  1
  Al0+  Al57  1  0.49979735  0.49945621  -0.00112642  1
  Al0+  Al58  1  0.50092403  0.50178065  0.32997788  1
  Al0+  Al59  1  0.50013887  0.49964744  0.66986892  1
  Al0+  Al60  1  0.25126222  0.25051221  -0.00240981  1
  Al0+  Al61  1  0.24787576  0.25299846  0.33324412  1
  Al0+  Al62  1  0.25173832  0.25185094  0.67358089  1
  Al0+  Al63  1  0.25242735  0.74863792  0.00367112  1
  Al0+  Al64  1  0.25079515  0.75075834  0.33356576  1
  Al0+  Al65  1  0.25041939  0.75302858  0.65887703  1
  Al0+  Al66  1  0.74926593  0.24963350  -0.00365999  1
  Al0+  Al67  1  0.74636795  0.25131767  0.32818906  1
  Al0+  Al68  1  0.74714196  0.24871983  0.67019005  1
  Al0+  Al69  1  0.74988701  0.74713648  0.00443313  1
  Al0+  Al70  1  0.74975698  0.74960880  0.33091369  1
  Al0+  Al71  1  0.74804441  0.75001959  0.66391354  1
  Al0+  Al72  1  0.42987720  0.32030863  0.98490831  1
  Al0+  Al73  1  0.67678354  0.42530949  0.68257178  1
  Al0+  Al74  1  0.82041771  0.57094194  0.68050526  1
  Al0+  Al75  1  0.92644175  0.32002760  0.65294133  1
  Al0+  Al76  1  0.67778929  0.92691522  0.01566181  1
  Al0+  Al77  1  0.17700051  0.92712223  0.35151113  1
  Al0+  Al78  1  0.93014356  0.81880679  0.98891812  1
  Al0+  Al79  1  0.92779749  0.32085245  0.31816166  1
  Al0+  Al80  1  0.92866876  0.32020316  0.98397769  1
  Al0+  Al81  1  0.56951780  0.17836915  0.31932348  1
  Al0+  Al82  1  0.07158193  0.68058118  0.31754355  1
  Al0+  Al83  1  0.17902301  0.43051431  0.68035378  1
  Al0+  Al84  1  0.32036127  0.07342268  0.34827105  1
  Al0+  Al85  1  0.07401599  0.18027809  0.65211216  1
  Al0+  Al86  1  0.82246577  0.56864948  0.01601537  1
  Al0+  Al87  1  0.32109084  0.06978124  0.68244008  1
  Al0+  Al88  1  0.42947824  0.82300853  0.65252650  1
  Al0+  Al89  1  0.06995057  0.67885220  0.65390797  1
  Al0+  Al90  1  0.32071189  0.57047989  0.01353166  1
  Al0+  Al91  1  0.81863207  0.07301929  0.34828645  1
  Al0+  Al92  1  0.07147275  0.17747744  0.31950034  1
  Al0+  Al93  1  0.92469950  0.82265806  0.65061483  1
  Al0+  Al94  1  0.57108934  0.67879719  0.31871080  1
  Al0+  Al95  1  0.82281653  0.07153291  0.01354997  1
  Si0+  Si96  1  0.82329169  0.07006314  0.68006792  1
  Si0+  Si97  1  0.42864781  0.82067389  0.98599175  1
  Si0+  Si98  1  0.07310078  0.17605352  0.98378029  1
  Si0+  Si99  1  0.67809121  0.43110631  0.34585004  1
  Si0+  Si100  1  0.42662294  0.32365274  0.31840236  1
  Si0+  Si101  1  0.18090775  0.92854185  0.01333400  1
  Si0+  Si102  1  0.17789270  0.92620224  0.68541732  1
  Si0+  Si103  1  0.32117284  0.07182202  0.01490274  1
  Si0+  Si104  1  0.92677858  0.82244469  0.31606929  1
  Si0+  Si105  1  0.32274907  0.57467822  0.68081903  1
  Si0+  Si106  1  0.57060311  0.17540121  0.98121796  1
  Si0+  Si107  1  0.56887118  0.17853176  0.65320315  1
  Si0+  Si108  1  0.57124992  0.67868417  0.98354502  1
  Si0+  Si109  1  0.57020905  0.67707599  0.65047689  1
  Si0+  Si110  1  0.32364177  0.57034844  0.34870641  1
  Si0+  Si111  1  0.67899852  0.93068342  0.67813305  1
  Si0+  Si112  1  0.67856178  0.92625375  0.35144553  1
  Si0+  Si113  1  0.82220774  0.57107617  0.34756456  1
  Si0+  Si114  1  0.67683571  0.42848554  0.01805413  1
  Si0+  Si115  1  0.17821522  0.43262440  0.34741936  1
  Si0+  Si116  1  0.42969662  0.32248009  0.65261689  1
  Si0+  Si117  1  0.42933532  0.82123076  0.31427667  1
  Si0+  Si118  1  0.17906256  0.42607833  0.02022697  1
  Si0+  Si119  1  0.07487381  0.67803899  0.98469256  1
  O2-  O120  1  0.24897987  0.00239128  0.05599783  1
  O2-  O121  1  0.24590341  0.00427883  0.39898346  1
  O2-  O122  1  0.24467334  -0.00285179  0.73029761  1
  O2-  O123  1  0.24688649  0.49671443  0.06331625  1
  O2-  O124  1  0.25082381  0.50212096  0.39083497  1
  O2-  O125  1  0.25168107  0.50902191  0.72514424  1
  O2-  O126  1  0.74999350  -0.00033119  0.06356405  1
  O2-  O127  1  0.74502425  -0.00341500  0.39629891  1
  O2-  O128  1  0.75716762  -0.00674118  0.72096516  1
  O2-  O129  1  0.75058232  0.49086462  0.06367414  1
  O2-  O130  1  0.75177131  0.49885375  0.38851018  1
  O2-  O131  1  0.75165484  0.49521932  0.73078196  1
  O2-  O132  1  -0.00499389  0.24370143  0.26820800  1
  O2-  O133  1  -0.00245251  0.24766453  0.60267118  1
  O2-  O134  1  0.00196607  0.24254989  0.94039054  1
  O2-  O135  1  -0.00111169  0.75711231  0.27171956  1
  O2-  O136  1  -0.00225021  0.75037980  0.60303852  1
  O2-  O137  1  0.00173465  0.74165888  0.94103555  1
  O2-  O138  1  0.48990717  0.24949388  0.27495364  1
  O2-  O139  1  0.50245635  0.25394131  0.61061061  1
  O2-  O140  1  0.50279126  0.24472105  0.93635001  1
  O2-  O141  1  0.49828810  0.75356729  0.26891319  1
  O2-  O142  1  0.50034533  0.74450275  0.60635100  1
  O2-  O143  1  0.50187363  0.75240367  0.94269562  1
  O2-  O144  1  0.07594424  0.17651414  0.08917026  1
  O2-  O145  1  0.07409176  0.18503216  0.43234878  1
  O2-  O146  1  0.07209055  0.18169896  0.76631825  1
  O2-  O147  1  0.07681705  0.68262629  0.09043307  1
  O2-  O148  1  0.06827931  0.67615778  0.43003939  1
  O2-  O149  1  0.07193081  0.68131056  0.76775319  1
  O2-  O150  1  0.56804015  0.17557528  0.08684238  1
  O2-  O151  1  0.57070469  0.18295460  0.43288166  1
  O2-  O152  1  0.56565786  0.17491008  0.75810891  1
  O2-  O153  1  0.56911680  0.67789428  0.08881573  1
  O2-  O154  1  0.56750614  0.67793509  0.43175447  1
  O2-  O155  1  0.57003155  0.67864659  0.75627460  1
  O2-  O156  1  0.18042510  0.43395421  0.24234011  1
  O2-  O157  1  0.18204307  0.43012603  0.56673337  1
  O2-  O158  1  0.17999569  0.42641340  0.91461142  1
  O2-  O159  1  0.18179883  0.92592309  0.23661015  1
  O2-  O160  1  0.18107701  0.92394857  0.58052622  1
  O2-  O161  1  0.18355298  0.92660211  0.90846571  1
  O2-  O162  1  0.67468705  0.43374788  0.24096715  1
  O2-  O163  1  0.67320789  0.42804889  0.56842446  1
  O2-  O164  1  0.67359836  0.43372152  0.91285269  1
  O2-  O165  1  0.68072017  0.92520561  0.24606962  1
  O2-  O166  1  0.67554139  0.93434638  0.57326613  1
  O2-  O167  1  0.67554939  0.92840941  0.90130306  1
  O2-  O168  1  0.43133223  0.31817980  0.09829251  1
  O2-  O169  1  0.42963591  0.32846805  0.42403849  1
  O2-  O170  1  0.43012182  0.32196058  0.75770440  1
  O2-  O171  1  0.42702516  0.81921666  0.09073936  1
  O2-  O172  1  0.43113276  0.81980364  0.41990793  1
  O2-  O173  1  0.43317332  0.82289382  0.76643429  1
  O2-  O174  1  0.93163555  0.32042852  0.09697514  1
  O2-  O175  1  0.92824329  0.32395850  0.43146086  1
  O2-  O176  1  0.92818153  0.31813859  0.76666160  1
  O2-  O177  1  0.93460123  0.82047356  0.10179270  1
  O2-  O178  1  0.92303731  0.81748406  0.42132468  1
  O2-  O179  1  0.92411175  0.82195794  0.76480534  1
  O2-  O180  1  0.32063150  0.07053474  0.23387131  1
  O2-  O181  1  0.32446055  0.06934731  0.57000704  1
  O2-  O182  1  0.32292557  0.07030828  0.90979457  1
  O2-  O183  1  0.32547022  0.56788286  0.24348784  1
  O2-  O184  1  0.32693086  0.57012108  0.57508396  1
  O2-  O185  1  0.31852591  0.57226592  0.90051292  1
  O2-  O186  1  0.81632785  0.07275943  0.23534396  1
  O2-  O187  1  0.81829719  0.07328565  0.57510653  1
  O2-  O188  1  0.82192632  0.06834957  0.89934602  1
  O2-  O189  1  0.82130206  0.57079258  0.24230224  1
  O2-  O190  1  0.81739878  0.57114855  0.56635853  1
  O2-  O191  1  0.81955472  0.57158801  0.90341353  1
  O2-  O192  1  0.05011744  0.07486881  0.27304204  1
  O2-  O193  1  0.05550516  0.07939286  0.60187448  1
  O2-  O194  1  0.05188386  0.08142161  0.93786864  1
  O2-  O195  1  0.03974903  0.58681069  0.25893944  1
  O2-  O196  1  0.04153882  0.58066990  0.60089951  1
  O2-  O197  1  0.05510993  0.58112658  0.94480924  1
  O2-  O198  1  0.54349491  0.08085142  0.26458760  1
  O2-  O199  1  0.53666033  0.08985098  0.60300089  1
  O2-  O200  1  0.54243778  0.08145344  0.93657940  1
  O2-  O201  1  0.53802557  0.58407248  0.26175131  1
  O2-  O202  1  0.54446984  0.58314032  0.60469758  1
  O2-  O203  1  0.53971250  0.58864073  0.93587838  1
  O2-  O204  1  0.16847022  0.21056042  0.26438130  1
  O2-  O205  1  0.17243244  0.21401639  0.60251886  1
  O2-  O206  1  0.16619244  0.20406938  0.93724245  1
  O2-  O207  1  0.17049409  0.70788642  0.26541627  1
  O2-  O208  1  0.16834314  0.70494065  0.59866314  1
  O2-  O209  1  0.16734254  0.70764157  0.93853843  1
  O2-  O210  1  0.66138955  0.21457528  0.26056673  1
  O2-  O211  1  0.66162657  0.20262905  0.60634805  1
  O2-  O212  1  0.66433865  0.19893046  0.93520648  1
  O2-  O213  1  0.66774251  0.70834055  0.26401317  1
  O2-  O214  1  0.66190939  0.70393595  0.60216452  1
  O2-  O215  1  0.66319780  0.70513995  0.93676575  1
  O2-  O216  1  0.08627584  0.45014986  0.06759512  1
  O2-  O217  1  0.08731081  0.46494489  0.39343464  1
  O2-  O218  1  0.08358812  0.45962807  0.73686655  1
  O2-  O219  1  0.08923486  0.95358880  0.06175737  1
  O2-  O220  1  0.07680186  0.94463621  0.40351101  1
  O2-  O221  1  0.08310134  0.95053158  0.73046110  1
  O2-  O222  1  0.58535888  0.45932666  0.06565972  1
  O2-  O223  1  0.58743710  0.46227974  0.39492012  1
  O2-  O224  1  0.57942809  0.45772605  0.73723122  1
  O2-  O225  1  0.57940304  0.95462691  0.07071224  1
  O2-  O226  1  0.58297810  0.94944174  0.39414072  1
  O2-  O227  1  0.59080542  0.96528495  0.72885264  1
  O2-  O228  1  0.20897551  0.33315914  0.06567378  1
  O2-  O229  1  0.20430629  0.34103789  0.39549705  1
  O2-  O230  1  0.21523992  0.33811734  0.73880574  1
  O2-  O231  1  0.21221882  0.83871592  0.06296638  1
  O2-  O232  1  0.21227154  0.82982401  0.40394418  1
  O2-  O233  1  0.20772502  0.83350030  0.73172052  1
  O2-  O234  1  0.69512202  0.33111036  0.05842670  1
  O2-  O235  1  0.70064242  0.33794079  0.39200394  1
  O2-  O236  1  0.69717928  0.32543510  0.73636147  1
  O2-  O237  1  0.70347226  0.82835583  0.06835291  1
  O2-  O238  1  0.70483352  0.83244964  0.39790202  1
  O2-  O239  1  0.69690657  0.83572559  0.72340434  1
  O2-  O240  1  0.45896144  0.41410527  0.26919524  1
  O2-  O241  1  0.45468747  0.41510937  0.60480265  1
  O2-  O242  1  0.46115829  0.41686518  0.93075495  1
  O2-  O243  1  0.45360634  0.91480742  0.26790059  1
  O2-  O244  1  0.46618668  0.91686256  0.59747952  1
  O2-  O245  1  0.45418115  0.91374925  0.93938987  1
  O2-  O246  1  0.96272859  0.41676845  0.26362933  1
  O2-  O247  1  0.95428107  0.41942952  0.60344537  1
  O2-  O248  1  0.96382379  0.41690159  0.93197948  1
  O2-  O249  1  0.94969210  0.91783642  0.27354076  1
  O2-  O250  1  0.95348288  0.92048907  0.59779852  1
  O2-  O251  1  0.96230118  0.91458069  0.93344939  1
  O2-  O252  1  0.33183343  0.30497564  0.27279550  1
  O2-  O253  1  0.33883805  0.29277441  0.60587454  1
  O2-  O254  1  0.33291926  0.29125846  0.93044537  1
  O2-  O255  1  0.33632607  0.79391971  0.26861180  1
  O2-  O256  1  0.33392518  0.79697511  0.59564999  1
  O2-  O257  1  0.33829232  0.78967459  0.93714663  1
  O2-  O258  1  0.82815088  0.29791800  0.26531845  1
  O2-  O259  1  0.82608561  0.29298880  0.60279624  1
  O2-  O260  1  0.82998152  0.29527116  0.93123706  1
  O2-  O261  1  0.83475898  0.79386805  0.26844783  1
  O2-  O262  1  0.82604762  0.79624782  0.59674706  1
  O2-  O263  1  0.83169053  0.78970255  0.93752477  1
  O2-  O264  1  0.41206007  0.04269760  0.06318406  1
  O2-  O265  1  0.41976178  0.04267923  0.39893370  1
  O2-  O266  1  0.41654058  0.03490794  0.73784226  1
  O2-  O267  1  0.41719344  0.53776927  0.06762705  1
  O2-  O268  1  0.41458948  0.54040488  0.39697687  1
  O2-  O269  1  0.41459444  0.54709352  0.72963496  1
  O2-  O270  1  0.92137180  0.04237929  0.06660297  1
  O2-  O271  1  0.91492593  0.04486002  0.40342031  1
  O2-  O272  1  0.91767052  0.04827215  0.72446148  1
  O2-  O273  1  0.92065996  0.54065108  0.06907338  1
  O2-  O274  1  0.91490776  0.54364399  0.39252040  1
  O2-  O275  1  0.91834812  0.54707159  0.73573741  1
  O2-  O276  1  0.29652197  0.16491943  0.06068044  1
  O2-  O277  1  0.29713555  0.17468187  0.39893262  1
  O2-  O278  1  0.29328750  0.16658137  0.73800521  1
  O2-  O279  1  0.29253954  0.66665862  0.07097343  1
  O2-  O280  1  0.29993279  0.66384717  0.39340364  1
  O2-  O281  1  0.30133220  0.67073863  0.72317994  1
  O2-  O282  1  0.79231189  0.17038741  0.06467820  1
  O2-  O283  1  0.78236268  0.16948905  0.40033826  1
  O2-  O284  1  0.78928632  0.15861360  0.73012646  1
  O2-  O285  1  0.78811711  0.66301561  0.07195325  1
  O2-  O286  1  0.79239547  0.66256916  0.39392826  1
  O2-  O287  1  0.78612102  0.66890442  0.73322148  1
