# generated using pymatgen
data_Ca2Al2SiO7
_symmetry_space_group_name_H-M   'P 1'
_cell_length_a   15.46104736
_cell_length_b   15.45909186
_cell_length_c   15.28474326
_cell_angle_alpha   90.00486805
_cell_angle_beta   89.98850754
_cell_angle_gamma   90.00714083
_symmetry_Int_Tables_number   1
_chemical_formula_structural   Ca2Al2SiO7
_chemical_formula_sum   'Ca48 Al48 Si24 O168'
_cell_volume   3653.26371139
_cell_formula_units_Z   24
loop_
 _symmetry_equiv_pos_site_id
 _symmetry_equiv_pos_as_xyz
  1  'x, y, z'
loop_
 _atom_type_symbol
 _atom_type_oxidation_number
  Ca2+  2.0
  Al0+  0.0
  Si0+  0.0
  O2-  -2.0
loop_
 _atom_site_type_symbol
 _atom_site_label
 _atom_site_symmetry_multiplicity
 _atom_site_fract_x
 _atom_site_fract_y
 _atom_site_fract_z
 _atom_site_occupancy
  Ca2+  Ca0  1  0.17936409  0.08088341  0.17340077  1
  Ca2+  Ca1  1  0.17100512  0.08132650  0.49378338  1
  Ca2+  Ca2  1  0.17285483  0.08466017  0.84050639  1
  Ca2+  Ca3  1  0.17051711  0.58100632  0.16931492  1
  Ca2+  Ca4  1  0.18377678  0.58591835  0.50300171  1
  Ca2+  Ca5  1  0.17248738  0.57652639  0.84087500  1
  Ca2+  Ca6  1  0.66795938  0.07139722  0.17006554  1
  Ca2+  Ca7  1  0.66482397  0.07166133  0.50846124  1
  Ca2+  Ca8  1  0.66858324  0.07919489  0.83643406  1
  Ca2+  Ca9  1  0.66404983  0.58304554  0.17138441  1
  Ca2+  Ca10  1  0.65795147  0.57555325  0.49677466  1
  Ca2+  Ca11  1  0.67302856  0.58302350  0.84217082  1
  Ca2+  Ca12  1  0.08064965  0.33687710  0.16236050  1
  Ca2+  Ca13  1  0.06995607  0.33297906  0.49570957  1
  Ca2+  Ca14  1  0.07820820  0.33502908  0.83034787  1
  Ca2+  Ca15  1  0.08127240  0.83201103  0.16483586  1
  Ca2+  Ca16  1  0.07711218  0.83779868  0.48841190  1
  Ca2+  Ca17  1  0.08439924  0.82588754  0.83196547  1
  Ca2+  Ca18  1  0.57195247  0.33718413  0.16533898  1
  Ca2+  Ca19  1  0.57849484  0.32644563  0.49353516  1
  Ca2+  Ca20  1  0.57254851  0.32565025  0.82550898  1
  Ca2+  Ca21  1  0.58775656  0.82714143  0.16438391  1
  Ca2+  Ca22  1  0.58344316  0.82812396  0.48865081  1
  Ca2+  Ca23  1  0.59349463  0.83185232  0.83507946  1
  Ca2+  Ca24  1  0.33099707  0.41618705  0.17389108  1
  Ca2+  Ca25  1  0.34746979  0.42670255  0.50131513  1
  Ca2+  Ca26  1  0.33350486  0.41572142  0.83896358  1
  Ca2+  Ca27  1  0.33374896  0.92588996  0.17803718  1
  Ca2+  Ca28  1  0.33440843  0.91697999  0.49717787  1
  Ca2+  Ca29  1  0.33373076  0.92646484  0.84032949  1
  Ca2+  Ca30  1  0.82867664  0.42498239  0.17468560  1
  Ca2+  Ca31  1  0.82828861  0.40843843  0.50053298  1
  Ca2+  Ca32  1  0.83292078  0.41915257  0.83963271  1
  Ca2+  Ca33  1  0.82459370  0.91450971  0.17150113  1
  Ca2+  Ca34  1  0.82295600  0.91708837  0.50560857  1
  Ca2+  Ca35  1  0.82224621  0.92929695  0.84050423  1
  Ca2+  Ca36  1  0.40887055  0.17300214  0.16120051  1
  Ca2+  Ca37  1  0.41892985  0.17490712  0.49412207  1
  Ca2+  Ca38  1  0.41756737  0.17535255  0.82802075  1
  Ca2+  Ca39  1  0.42611106  0.66783373  0.16773923  1
  Ca2+  Ca40  1  0.41903863  0.66978984  0.48774402  1
  Ca2+  Ca41  1  0.42344760  0.66525570  0.83059953  1
  Ca2+  Ca42  1  0.91303762  0.17103130  0.16450857  1
  Ca2+  Ca43  1  0.90946962  0.17310848  0.49646181  1
  Ca2+  Ca44  1  0.91039448  0.16877423  0.82557029  1
  Ca2+  Ca45  1  0.91778702  0.67250130  0.15939816  1
  Ca2+  Ca46  1  0.92142069  0.67510857  0.49046782  1
  Ca2+  Ca47  1  0.92192649  0.66127418  0.83514056  1
  Al0+  Al48  1  -0.00035804  0.00147107  0.00106608  1
  Al0+  Al49  1  0.00114195  0.00144342  0.33058398  1
  Al0+  Al50  1  0.00020635  -0.00101485  0.67063678  1
  Al0+  Al51  1  0.00063582  0.50099274  0.00356759  1
  Al0+  Al52  1  0.00008861  0.49986019  0.33093643  1
  Al0+  Al53  1  0.00206359  0.49950241  0.66020365  1
  Al0+  Al54  1  0.49992619  0.00106051  0.00756827  1
  Al0+  Al55  1  0.50135969  0.00083954  0.33963112  1
  Al0+  Al56  1  0.49790081  -0.00230860  0.66909051  1
  Al0+  Al57  1  0.49932549  0.50231775  -0.01017601  1
  Al0+  Al58  1  0.50130042  0.49807269  0.33306009  1
  Al0+  Al59  1  0.50136072  0.50186062  0.67032177  1
  Al0+  Al60  1  0.24685956  0.25172405  0.00241213  1
  Al0+  Al61  1  0.24797539  0.24990343  0.33646864  1
  Al0+  Al62  1  0.24697005  0.25134580  0.66041745  1
  Al0+  Al63  1  0.24992355  0.74924800  -0.00612532  1
  Al0+  Al64  1  0.25043858  0.74998926  0.33622705  1
  Al0+  Al65  1  0.25192985  0.74738127  0.67290875  1
  Al0+  Al66  1  0.74725235  0.25024293  0.00298781  1
  Al0+  Al67  1  0.74936550  0.25168715  0.33032677  1
  Al0+  Al68  1  0.74839155  0.24931948  0.66288642  1
  Al0+  Al69  1  0.75096729  0.75005091  0.00072824  1
  Al0+  Al70  1  0.75314525  0.74946466  0.33028313  1
  Al0+  Al71  1  0.75145229  0.74886417  0.66979267  1
  Al0+  Al72  1  0.67998321  0.42969235  0.34648101  1
  Al0+  Al73  1  0.07110074  0.67864873  0.98564101  1
  Al0+  Al74  1  0.42920349  0.31913867  0.31944629  1
  Al0+  Al75  1  0.17906655  0.92888482  0.34674047  1
  Al0+  Al76  1  0.82276001  0.07458786  0.01712831  1
  Al0+  Al77  1  0.56957152  0.17651691  0.65168909  1
  Al0+  Al78  1  0.18021181  0.43075197  0.01336796  1
  Al0+  Al79  1  0.57171724  0.68103778  0.98435869  1
  Al0+  Al80  1  0.68116245  0.92717385  0.34815196  1
  Al0+  Al81  1  0.42668026  0.32033633  0.98649604  1
  Al0+  Al82  1  0.31904459  0.07124829  0.01177985  1
  Al0+  Al83  1  0.32278654  0.56986268  0.68341374  1
  Al0+  Al84  1  0.42795108  0.32262108  0.65022871  1
  Al0+  Al85  1  0.67650463  0.92617933  0.68316897  1
  Al0+  Al86  1  0.92761368  0.32136609  0.31659936  1
  Al0+  Al87  1  0.92895473  0.32044225  0.65413351  1
  Al0+  Al88  1  0.32306960  0.07334610  0.35109799  1
  Al0+  Al89  1  0.67995536  0.92940599  0.01772047  1
  Al0+  Al90  1  0.42799385  0.82298311  0.31960310  1
  Al0+  Al91  1  0.32047268  0.56819816  0.34414613  1
  Al0+  Al92  1  0.57124130  0.67867395  0.31913126  1
  Al0+  Al93  1  0.82109823  0.56897648  0.01302706  1
  Al0+  Al94  1  0.93006052  0.82234682  0.31970541  1
  Al0+  Al95  1  0.82029283  0.07179101  0.68017845  1
  Si0+  Si96  1  0.67510346  0.42906300  0.01464098  1
  Si0+  Si97  1  0.07281167  0.67918691  0.65071005  1
  Si0+  Si98  1  0.17813185  0.92545440  0.01471896  1
  Si0+  Si99  1  0.07002124  0.17973174  0.98566797  1
  Si0+  Si100  1  0.92792546  0.32064191  0.98658709  1
  Si0+  Si101  1  0.42683455  0.81922806  0.65339499  1
  Si0+  Si102  1  0.17839225  0.92749344  0.68308558  1
  Si0+  Si103  1  0.57116016  0.17709345  0.98444435  1
  Si0+  Si104  1  0.42822579  0.82424876  0.98330277  1
  Si0+  Si105  1  0.07349349  0.67803571  0.31722442  1
  Si0+  Si106  1  0.17524898  0.42728063  0.35239228  1
  Si0+  Si107  1  0.07107179  0.17937120  0.31422651  1
  Si0+  Si108  1  0.57251856  0.17702494  0.31551318  1
  Si0+  Si109  1  0.82407173  0.57182653  0.35092389  1
  Si0+  Si110  1  0.57348150  0.68071357  0.65222374  1
  Si0+  Si111  1  0.68004931  0.42927827  0.68200822  1
  Si0+  Si112  1  0.82386091  0.57009274  0.67996487  1
  Si0+  Si113  1  0.31846633  0.07215260  0.68123008  1
  Si0+  Si114  1  0.82166382  0.07258765  0.34919507  1
  Si0+  Si115  1  0.07215776  0.17422183  0.64876786  1
  Si0+  Si116  1  0.92849771  0.82325774  0.98064072  1
  Si0+  Si117  1  0.17640691  0.42925635  0.68185103  1
  Si0+  Si118  1  0.93124196  0.81980508  0.65363047  1
  Si0+  Si119  1  0.32384253  0.57326362  0.01655062  1
  O2-  O120  1  0.24814652  -0.00754700  0.05748663  1
  O2-  O121  1  0.25364688  -0.00310190  0.39919493  1
  O2-  O122  1  0.24712715  0.00112238  0.72433322  1
  O2-  O123  1  0.25653622  0.50337078  0.06013741  1
  O2-  O124  1  0.24643917  0.49389944  0.39490997  1
  O2-  O125  1  0.25023134  0.49145189  0.72714873  1
  O2-  O126  1  0.75349309  0.00054575  0.06669729  1
  O2-  O127  1  0.75514154  0.00293088  0.39451010  1
  O2-  O128  1  0.74620388  0.00218396  0.73022263  1
  O2-  O129  1  0.74448300  0.49670749  0.05914285  1
  O2-  O130  1  0.75574214  0.50313933  0.39554106  1
  O2-  O131  1  0.75418685  0.49812334  0.72282019  1
  O2-  O132  1  0.00320202  0.24849249  0.26921794  1
  O2-  O133  1  0.00001236  0.24133124  0.60796065  1
  O2-  O134  1  -0.00624734  0.24522126  0.94319618  1
  O2-  O135  1  0.00495611  0.74713307  0.27395774  1
  O2-  O136  1  0.00349260  0.75134321  0.60856804  1
  O2-  O137  1  -0.00153295  0.75488458  0.93661075  1
  O2-  O138  1  0.49924249  0.24107330  0.27117029  1
  O2-  O139  1  0.49792675  0.24859418  0.60089722  1
  O2-  O140  1  0.50190468  0.24572790  0.94046116  1
  O2-  O141  1  0.50220298  0.75374109  0.26918521  1
  O2-  O142  1  0.50256709  0.75256830  0.61223852  1
  O2-  O143  1  0.49735565  0.75661729  0.93735035  1
  O2-  O144  1  0.07238773  0.18221152  0.09021139  1
  O2-  O145  1  0.06970281  0.17933276  0.42011499  1
  O2-  O146  1  0.07570856  0.17474480  0.75460549  1
  O2-  O147  1  0.07035681  0.68016360  0.09834206  1
  O2-  O148  1  0.07146284  0.67764588  0.42349341  1
  O2-  O149  1  0.07078578  0.67824930  0.75580744  1
  O2-  O150  1  0.57174103  0.17791375  0.08974445  1
  O2-  O151  1  0.57427457  0.17998834  0.42116310  1
  O2-  O152  1  0.56753192  0.17924354  0.76587571  1
  O2-  O153  1  0.57000951  0.67838083  0.09667351  1
  O2-  O154  1  0.56927891  0.67804868  0.43355811  1
  O2-  O155  1  0.57467276  0.68052495  0.75735201  1
  O2-  O156  1  0.17399855  0.42884928  0.24665855  1
  O2-  O157  1  0.17077795  0.43458776  0.57695023  1
  O2-  O158  1  0.17871117  0.43073109  0.89985397  1
  O2-  O159  1  0.17820405  0.93149101  0.23317076  1
  O2-  O160  1  0.17717578  0.92512062  0.57855741  1
  O2-  O161  1  0.17870550  0.92716787  0.90822733  1
  O2-  O162  1  0.68031692  0.43164880  0.23337167  1
  O2-  O163  1  0.67919552  0.43133314  0.57694553  1
  O2-  O164  1  0.67861931  0.42872387  0.90849233  1
  O2-  O165  1  0.68307382  0.92698285  0.23554539  1
  O2-  O166  1  0.68032494  0.92172081  0.56983991  1
  O2-  O167  1  0.68117917  0.93130596  0.90394832  1
  O2-  O168  1  0.42709572  0.32015909  0.09946321  1
  O2-  O169  1  0.43362908  0.32059363  0.43235979  1
  O2-  O170  1  0.42793872  0.31999014  0.76427817  1
  O2-  O171  1  0.42590480  0.82283502  0.08823417  1
  O2-  O172  1  0.42842620  0.81851763  0.43401561  1
  O2-  O173  1  0.42282893  0.81759376  0.75848627  1
  O2-  O174  1  0.93046525  0.32134348  0.09131920  1
  O2-  O175  1  0.92879564  0.31911290  0.43001774  1
  O2-  O176  1  0.93230255  0.32419672  0.76769248  1
  O2-  O177  1  0.93008647  0.82247632  0.08615949  1
  O2-  O178  1  0.93095063  0.82015110  0.43381313  1
  O2-  O179  1  0.93383571  0.81733936  0.75844534  1
  O2-  O180  1  0.31813515  0.07559033  0.23750417  1
  O2-  O181  1  0.31734544  0.07036345  0.57677586  1
  O2-  O182  1  0.31593740  0.07120697  0.89773532  1
  O2-  O183  1  0.31869931  0.56671381  0.23112758  1
  O2-  O184  1  0.32157378  0.57333478  0.57043902  1
  O2-  O185  1  0.32173481  0.57216949  0.91056890  1
  O2-  O186  1  0.81985271  0.07215808  0.24370077  1
  O2-  O187  1  0.82297469  0.06753442  0.56678464  1
  O2-  O188  1  0.82188870  0.07533707  0.90350070  1
  O2-  O189  1  0.82569257  0.57018859  0.24545477  1
  O2-  O190  1  0.82419256  0.57258103  0.57525771  1
  O2-  O191  1  0.82219095  0.56476540  0.89888024  1
  O2-  O192  1  0.04635853  0.08658447  0.26667642  1
  O2-  O193  1  0.04928672  0.07916591  0.60423172  1
  O2-  O194  1  0.04984361  0.08563642  0.93802785  1
  O2-  O195  1  0.04808780  0.58455839  0.27123680  1
  O2-  O196  1  0.04454832  0.58915221  0.60099873  1
  O2-  O197  1  0.03627397  0.58284565  0.93079853  1
  O2-  O198  1  0.55149077  0.08145591  0.27294514  1
  O2-  O199  1  0.54138969  0.07670356  0.60126014  1
  O2-  O200  1  0.54529378  0.08318033  0.93932274  1
  O2-  O201  1  0.53981631  0.58164460  0.26582260  1
  O2-  O202  1  0.54473468  0.58851704  0.60679164  1
  O2-  O203  1  0.54162770  0.58610437  0.92527559  1
  O2-  O204  1  0.16460859  0.20602416  0.26913640  1
  O2-  O205  1  0.16279250  0.20293116  0.59855732  1
  O2-  O206  1  0.15834782  0.21352453  0.93461822  1
  O2-  O207  1  0.16638098  0.70322434  0.27108907  1
  O2-  O208  1  0.16587290  0.70737137  0.60652929  1
  O2-  O209  1  0.16728867  0.70724593  0.92758813  1
  O2-  O210  1  0.66367005  0.20752601  0.26767777  1
  O2-  O211  1  0.66745008  0.20434464  0.59804592  1
  O2-  O212  1  0.66446603  0.20452274  0.93728049  1
  O2-  O213  1  0.67129157  0.70238237  0.26820402  1
  O2-  O214  1  0.66611053  0.70571283  0.60480322  1
  O2-  O215  1  0.66954717  0.71021464  0.93013803  1
  O2-  O216  1  0.08542251  0.46325293  0.06916348  1
  O2-  O217  1  0.08197471  0.45567592  0.39848332  1
  O2-  O218  1  0.08506311  0.46120030  0.73041261  1
  O2-  O219  1  0.08433870  0.95100020  0.05910482  1
  O2-  O220  1  0.08172368  0.96257552  0.40129694  1
  O2-  O221  1  0.08689421  0.95279486  0.73266643  1
  O2-  O222  1  0.58151173  0.45824490  0.05776729  1
  O2-  O223  1  0.58547182  0.46186692  0.40336452  1
  O2-  O224  1  0.59066807  0.46042145  0.73186848  1
  O2-  O225  1  0.58169574  0.95631069  0.07076209  1
  O2-  O226  1  0.58472557  0.95557258  0.40315793  1
  O2-  O227  1  0.57626927  0.94970482  0.73530507  1
  O2-  O228  1  0.20730727  0.33475764  0.06938277  1
  O2-  O229  1  0.19576282  0.33282629  0.39763588  1
  O2-  O230  1  0.19455811  0.33210076  0.72426861  1
  O2-  O231  1  0.20090296  0.83046675  0.05821719  1
  O2-  O232  1  0.20154438  0.82981622  0.40148279  1
  O2-  O233  1  0.20898238  0.83706495  0.73221521  1
  O2-  O234  1  0.69712785  0.33530562  0.06080771  1
  O2-  O235  1  0.71200547  0.33335402  0.40098155  1
  O2-  O236  1  0.70579624  0.33694870  0.72863936  1
  O2-  O237  1  0.70945948  0.83059481  0.06801176  1
  O2-  O238  1  0.71432333  0.83033588  0.40101152  1
  O2-  O239  1  0.71133914  0.82927838  0.73702932  1
  O2-  O240  1  0.46383891  0.41374541  0.26480384  1
  O2-  O241  1  0.46134341  0.42182101  0.60191987  1
  O2-  O242  1  0.45604518  0.41626375  0.93022333  1
  O2-  O243  1  0.45194896  0.92432013  0.27173383  1
  O2-  O244  1  0.44783146  0.91302764  0.60795164  1
  O2-  O245  1  0.45328361  0.91912845  0.93866349  1
  O2-  O246  1  0.95792349  0.41895073  0.26417173  1
  O2-  O247  1  0.96268926  0.41501760  0.59660020  1
  O2-  O248  1  0.96097520  0.41077905  0.93907298  1
  O2-  O249  1  0.96012090  0.91837369  0.26471581  1
  O2-  O250  1  0.95787217  0.91222032  0.60711136  1
  O2-  O251  1  0.95453177  0.91753435  0.93506793  1
  O2-  O252  1  0.32883175  0.29391225  0.27018482  1
  O2-  O253  1  0.32741840  0.29978735  0.59903430  1
  O2-  O254  1  0.32966670  0.28846761  0.93287518  1
  O2-  O255  1  0.32937060  0.79398866  0.26754952  1
  O2-  O256  1  0.33629925  0.78690882  0.60565157  1
  O2-  O257  1  0.33502509  0.79902931  0.93452170  1
  O2-  O258  1  0.83155688  0.29159882  0.26170930  1
  O2-  O259  1  0.83205841  0.29388542  0.59930433  1
  O2-  O260  1  0.83371121  0.29820003  0.94061187  1
  O2-  O261  1  0.83646050  0.78874709  0.26293627  1
  O2-  O262  1  0.83999478  0.78886503  0.60687474  1
  O2-  O263  1  0.83626651  0.79492081  0.93442863  1
  O2-  O264  1  0.41543992  0.04678454  0.06731643  1
  O2-  O265  1  0.42165779  0.04982140  0.40483415  1
  O2-  O266  1  0.40899587  0.04330556  0.73016636  1
  O2-  O267  1  0.41897820  0.54922943  0.05823360  1
  O2-  O268  1  0.41608058  0.53672894  0.39965438  1
  O2-  O269  1  0.42009368  0.54292690  0.73817978  1
  O2-  O270  1  0.92364040  0.05060406  0.06729274  1
  O2-  O271  1  0.91708411  0.05070434  0.39238947  1
  O2-  O272  1  0.91919702  0.04317522  0.73452473  1
  O2-  O273  1  0.91545877  0.53736840  0.06935060  1
  O2-  O274  1  0.91821724  0.54661071  0.39704509  1
  O2-  O275  1  0.91673431  0.54240696  0.72597683  1
  O2-  O276  1  0.28209192  0.16483241  0.06635156  1
  O2-  O277  1  0.28685365  0.16910444  0.40603948  1
  O2-  O278  1  0.28900865  0.16492661  0.72657252  1
  O2-  O279  1  0.29584054  0.66731607  0.05967061  1
  O2-  O280  1  0.28966669  0.66391129  0.40077079  1
  O2-  O281  1  0.28805813  0.66425086  0.74022143  1
  O2-  O282  1  0.79359194  0.17295105  0.07000314  1
  O2-  O283  1  0.79496388  0.16659083  0.39347275  1
  O2-  O284  1  0.79460759  0.17192763  0.73176330  1
  O2-  O285  1  0.79484581  0.66684224  0.06465403  1
  O2-  O286  1  0.79983614  0.66550639  0.39659463  1
  O2-  O287  1  0.79537973  0.66034800  0.73004592  1
