# generated using pymatgen
data_Ca2Al2SiO7
_symmetry_space_group_name_H-M   'P 1'
_cell_length_a   15.46297380
_cell_length_b   15.46417319
_cell_length_c   15.28701899
_cell_angle_alpha   89.98950924
_cell_angle_beta   90.00258589
_cell_angle_gamma   90.00955767
_symmetry_Int_Tables_number   1
_chemical_formula_structural   Ca2Al2SiO7
_chemical_formula_sum   'Ca48 Al48 Si24 O168'
_cell_volume   3655.46404170
_cell_formula_units_Z   24
loop_
 _symmetry_equiv_pos_site_id
 _symmetry_equiv_pos_as_xyz
  1  'x, y, z'
loop_
 _atom_type_symbol
 _atom_type_oxidation_number
  Ca2+  2.0
  Al0+  0.0
  Si0+  0.0
  O2-  -2.0
loop_
 _atom_site_type_symbol
 _atom_site_label
 _atom_site_symmetry_multiplicity
 _atom_site_fract_x
 _atom_site_fract_y
 _atom_site_fract_z
 _atom_site_occupancy
  Ca2+  Ca0  1  0.16760811  0.06518449  0.17323552  1
  Ca2+  Ca1  1  0.17385526  0.07909873  0.50949241  1
  Ca2+  Ca2  1  0.17258325  0.08152977  0.83535153  1
  Ca2+  Ca3  1  0.16360856  0.58921616  0.17097501  1
  Ca2+  Ca4  1  0.17146929  0.58073600  0.50718900  1
  Ca2+  Ca5  1  0.16901936  0.58287227  0.83284879  1
  Ca2+  Ca6  1  0.67350538  0.09132589  0.17036973  1
  Ca2+  Ca7  1  0.67197373  0.08465273  0.50874344  1
  Ca2+  Ca8  1  0.67104208  0.08676297  0.83356560  1
  Ca2+  Ca9  1  0.67942137  0.57957049  0.17695301  1
  Ca2+  Ca10  1  0.66231757  0.57336888  0.50902541  1
  Ca2+  Ca11  1  0.66548572  0.57803830  0.83627911  1
  Ca2+  Ca12  1  0.07882635  0.32972210  0.16153872  1
  Ca2+  Ca13  1  0.08112604  0.33000058  0.50373658  1
  Ca2+  Ca14  1  0.07467669  0.32837627  0.81798373  1
  Ca2+  Ca15  1  0.08799934  0.82503613  0.16200824  1
  Ca2+  Ca16  1  0.08379963  0.82931128  0.49170457  1
  Ca2+  Ca17  1  0.08497268  0.83186177  0.83434675  1
  Ca2+  Ca18  1  0.59432637  0.32523100  0.16815297  1
  Ca2+  Ca19  1  0.59567295  0.32491161  0.49810339  1
  Ca2+  Ca20  1  0.58888191  0.32323889  0.82569452  1
  Ca2+  Ca21  1  0.56947114  0.83934450  0.16195977  1
  Ca2+  Ca22  1  0.57144304  0.84153015  0.50118409  1
  Ca2+  Ca23  1  0.57575963  0.83080958  0.82054889  1
  Ca2+  Ca24  1  0.33041992  0.41963020  0.17129129  1
  Ca2+  Ca25  1  0.32754446  0.42444473  0.51450514  1
  Ca2+  Ca26  1  0.33050062  0.42107469  0.82974565  1
  Ca2+  Ca27  1  0.32580219  0.90384887  0.16842875  1
  Ca2+  Ca28  1  0.33115864  0.91369780  0.50505417  1
  Ca2+  Ca29  1  0.33551919  0.91733219  0.83444768  1
  Ca2+  Ca30  1  0.83017836  0.42712807  0.17246304  1
  Ca2+  Ca31  1  0.82537454  0.41974235  0.50286275  1
  Ca2+  Ca32  1  0.82981832  0.41648602  0.83191335  1
  Ca2+  Ca33  1  0.83514123  0.93089658  0.17190222  1
  Ca2+  Ca34  1  0.82689283  0.92834482  0.50907203  1
  Ca2+  Ca35  1  0.82697394  0.92725901  0.83533354  1
  Ca2+  Ca36  1  0.43229204  0.16649528  0.16180329  1
  Ca2+  Ca37  1  0.42957281  0.15889865  0.49933001  1
  Ca2+  Ca38  1  0.42724380  0.16205063  0.82412167  1
  Ca2+  Ca39  1  0.41760375  0.67744428  0.16305643  1
  Ca2+  Ca40  1  0.41946705  0.67277851  0.50133616  1
  Ca2+  Ca41  1  0.41861843  0.67738312  0.82341614  1
  Ca2+  Ca42  1  0.91126553  0.16465054  0.16301703  1
  Ca2+  Ca43  1  0.91037149  0.16902215  0.50203718  1
  Ca2+  Ca44  1  0.91831168  0.16810858  0.82121475  1
  Ca2+  Ca45  1  0.92482172  0.65889317  0.16183173  1
  Ca2+  Ca46  1  0.92211730  0.66526102  0.49284409  1
  Ca2+  Ca47  1  0.92073559  0.66105111  0.83115455  1
  Al0+  Al48  1  0.00119250  -0.00187097  0.00829987  1
  Al0+  Al49  1  0.00129302  -0.00040402  0.34198336  1
  Al0+  Al50  1  0.00075199  -0.00079177  0.66620503  1
  Al0+  Al51  1  -0.00008920  0.49882763  -0.00169799  1
  Al0+  Al52  1  0.00029785  0.49873554  0.33232641  1
  Al0+  Al53  1  -0.00052588  0.49840258  0.66394420  1
  Al0+  Al54  1  0.50017786  0.00186396  -0.00811033  1
  Al0+  Al55  1  0.49943060  0.00200485  0.32064753  1
  Al0+  Al56  1  0.49828533  -0.00086595  0.66555110  1
  Al0+  Al57  1  0.49781273  0.49845862  0.00332693  1
  Al0+  Al58  1  0.49893742  0.49997169  0.33498244  1
  Al0+  Al59  1  0.49980994  0.50090337  0.67476035  1
  Al0+  Al60  1  0.25096284  0.25015721  0.00253853  1
  Al0+  Al61  1  0.25008859  0.24852623  0.33053006  1
  Al0+  Al62  1  0.24900875  0.24857974  0.67137094  1
  Al0+  Al63  1  0.24963568  0.74859718  -0.00592537  1
  Al0+  Al64  1  0.24849309  0.74866691  0.33055391  1
  Al0+  Al65  1  0.24987047  0.74961452  0.66722514  1
  Al0+  Al66  1  0.75042308  0.25045199  -0.00073458  1
  Al0+  Al67  1  0.75210216  0.25176757  0.33486160  1
  Al0+  Al68  1  0.75187425  0.25328406  0.66612848  1
  Al0+  Al69  1  0.75054885  0.75108220  0.00637545  1
  Al0+  Al70  1  0.75084101  0.75304425  0.33590144  1
  Al0+  Al71  1  0.75074250  0.74963273  0.66595789  1
  Al0+  Al72  1  0.82150622  0.57142636  0.01295268  1
  Al0+  Al73  1  0.67900096  0.43179196  0.34871747  1
  Al0+  Al74  1  0.06712523  0.67991024  0.32033006  1
  Al0+  Al75  1  0.07282534  0.17621787  0.65160374  1
  Al0+  Al76  1  0.57171382  0.18239945  0.31920996  1
  Al0+  Al77  1  0.32067681  0.57272019  0.68307181  1
  Al0+  Al78  1  0.82014929  0.07069776  0.34877522  1
  Al0+  Al79  1  0.43027240  0.81900064  0.31836559  1
  Al0+  Al80  1  0.57105579  0.18324820  0.98361538  1
  Al0+  Al81  1  0.18226383  0.92885648  0.01356977  1
  Al0+  Al82  1  0.67918636  0.43016662  0.68204620  1
  Al0+  Al83  1  0.57338937  0.67671943  0.65287728  1
  Al0+  Al84  1  0.18230589  0.92742132  0.34809457  1
  Al0+  Al85  1  0.06830402  0.67865250  0.98372128  1
  Al0+  Al86  1  0.82356167  0.57354116  0.34917353  1
  Al0+  Al87  1  0.17719556  0.42896422  0.68156665  1
  Al0+  Al88  1  0.67777680  0.92797438  0.68058523  1
  Al0+  Al89  1  0.81966476  0.07059022  0.01365914  1
  Al0+  Al90  1  0.43008602  0.81877844  0.98391679  1
  Al0+  Al91  1  0.92878866  0.32171228  0.64860567  1
  Al0+  Al92  1  0.32095035  0.06994592  0.67895529  1
  Al0+  Al93  1  0.82054208  0.07152238  0.68195418  1
  Al0+  Al94  1  0.57018933  0.18078310  0.65282649  1
  Al0+  Al95  1  0.42851735  0.82072970  0.65005895  1
  Si0+  Si96  1  0.31902473  0.57008070  0.34638946  1
  Si0+  Si97  1  0.17701240  0.92638330  0.68371696  1
  Si0+  Si98  1  0.42464479  0.32453073  0.31722585  1
  Si0+  Si99  1  0.42726156  0.32251609  0.65252761  1
  Si0+  Si100  1  0.42414530  0.32414084  0.98184466  1
  Si0+  Si101  1  0.32446057  0.07343504  0.01821762  1
  Si0+  Si102  1  0.93155481  0.31919026  0.98563897  1
  Si0+  Si103  1  0.92706194  0.82442978  0.98441105  1
  Si0+  Si104  1  0.57319578  0.67511289  0.31688398  1
  Si0+  Si105  1  0.07183772  0.17638264  0.98822858  1
  Si0+  Si106  1  0.92829015  0.82192980  0.65214208  1
  Si0+  Si107  1  0.67749736  0.42843756  0.01706795  1
  Si0+  Si108  1  0.57420562  0.67630683  0.98690004  1
  Si0+  Si109  1  0.92691495  0.82582723  0.31710956  1
  Si0+  Si110  1  0.31934999  0.57027359  0.01678805  1
  Si0+  Si111  1  0.67349290  0.92945642  0.34761931  1
  Si0+  Si112  1  0.06965124  0.67972498  0.65175600  1
  Si0+  Si113  1  0.93193569  0.31859872  0.31607960  1
  Si0+  Si114  1  0.17883414  0.42556481  0.34668111  1
  Si0+  Si115  1  0.82324188  0.57334381  0.68230371  1
  Si0+  Si116  1  0.67544720  0.92858680  0.01703190  1
  Si0+  Si117  1  0.07376249  0.17678023  0.31664453  1
  Si0+  Si118  1  0.32279241  0.07292019  0.34768785  1
  Si0+  Si119  1  0.17830626  0.42826832  0.01605928  1
  O2-  O120  1  0.25705390  0.00329199  0.06213590  1
  O2-  O121  1  0.25620121  0.00309590  0.39278822  1
  O2-  O122  1  0.24479689  -0.00344211  0.72602095  1
  O2-  O123  1  0.24952764  0.49811815  0.06020623  1
  O2-  O124  1  0.25317810  0.49347219  0.38686556  1
  O2-  O125  1  0.24847668  0.50045972  0.73324626  1
  O2-  O126  1  0.74498468  -0.00355579  0.06179497  1
  O2-  O127  1  0.74530145  -0.00522205  0.39167643  1
  O2-  O128  1  0.74738310  0.00138438  0.73243176  1
  O2-  O129  1  0.74158267  0.50210908  0.05969559  1
  O2-  O130  1  0.74476420  0.50950576  0.39874916  1
  O2-  O131  1  0.75146007  0.50828497  0.72691756  1
  O2-  O132  1  0.00164287  0.24623633  0.27290123  1
  O2-  O133  1  -0.00015419  0.24694558  0.60050228  1
  O2-  O134  1  0.00120333  0.24651327  0.94493296  1
  O2-  O135  1  -0.00975861  0.75206392  0.27227803  1
  O2-  O136  1  -0.00061310  0.75072456  0.60962315  1
  O2-  O137  1  -0.00889939  0.75168660  0.93852190  1
  O2-  O138  1  0.49616874  0.25816217  0.27377755  1
  O2-  O139  1  0.49560231  0.25568139  0.60538199  1
  O2-  O140  1  0.49363714  0.25638851  0.93896041  1
  O2-  O141  1  0.50841831  0.74714248  0.27145793  1
  O2-  O142  1  0.50315822  0.75013720  0.60179343  1
  O2-  O143  1  0.50881232  0.74668265  0.94108958  1
  O2-  O144  1  0.07112180  0.17958440  0.09381043  1
  O2-  O145  1  0.07848463  0.17976880  0.42075910  1
  O2-  O146  1  0.07098813  0.17706564  0.76617613  1
  O2-  O147  1  0.06886852  0.67835465  0.09690998  1
  O2-  O148  1  0.06909885  0.68059057  0.43341475  1
  O2-  O149  1  0.06859732  0.67974038  0.75701264  1
  O2-  O150  1  0.57248670  0.18654428  0.09718396  1
  O2-  O151  1  0.57067713  0.18107023  0.43176665  1
  O2-  O152  1  0.56977716  0.18252853  0.76596375  1
  O2-  O153  1  0.57084783  0.67586830  0.09273772  1
  O2-  O154  1  0.56816953  0.67079766  0.42157904  1
  O2-  O155  1  0.57198766  0.67789664  0.76712816  1
  O2-  O156  1  0.17876151  0.42507657  0.24089658  1
  O2-  O157  1  0.17889375  0.43244691  0.56727856  1
  O2-  O158  1  0.17794098  0.42754865  0.91183032  1
  O2-  O159  1  0.18333742  0.92632468  0.23469314  1
  O2-  O160  1  0.17775184  0.92410373  0.57801444  1
  O2-  O161  1  0.18079305  0.93168543  0.90088260  1
  O2-  O162  1  0.68330502  0.43113448  0.23440109  1
  O2-  O163  1  0.68038892  0.42969137  0.56929920  1
  O2-  O164  1  0.67870077  0.42720201  0.91180007  1
  O2-  O165  1  0.67329141  0.93160582  0.24161889  1
  O2-  O166  1  0.68003571  0.92997079  0.56660408  1
  O2-  O167  1  0.67696995  0.92794970  0.91196909  1
  O2-  O168  1  0.42105071  0.32466303  0.08768351  1
  O2-  O169  1  0.41758463  0.32468061  0.42180917  1
  O2-  O170  1  0.42870183  0.31987907  0.75842872  1
  O2-  O171  1  0.42883040  0.81527550  0.09760729  1
  O2-  O172  1  0.42893115  0.81841510  0.43059458  1
  O2-  O173  1  0.42766697  0.81900273  0.76362351  1
  O2-  O174  1  0.93323706  0.32002666  0.09130806  1
  O2-  O175  1  0.93346971  0.31950699  0.42036423  1
  O2-  O176  1  0.93018579  0.32254566  0.76303632  1
  O2-  O177  1  0.93050142  0.82648453  0.08988468  1
  O2-  O178  1  0.93105942  0.82716688  0.42263803  1
  O2-  O179  1  0.92967096  0.82188687  0.75739714  1
  O2-  O180  1  0.31935704  0.07521644  0.24198005  1
  O2-  O181  1  0.32077626  0.06830087  0.56554220  1
  O2-  O182  1  0.32185751  0.07556000  0.91291196  1
  O2-  O183  1  0.31714298  0.56977495  0.24062617  1
  O2-  O184  1  0.31728538  0.57255623  0.56876292  1
  O2-  O185  1  0.31888641  0.56889024  0.91246635  1
  O2-  O186  1  0.81968803  0.07137969  0.23496975  1
  O2-  O187  1  0.81912977  0.06902583  0.56836842  1
  O2-  O188  1  0.82115810  0.07144774  0.90149261  1
  O2-  O189  1  0.82580549  0.56713211  0.23515452  1
  O2-  O190  1  0.82572477  0.57164164  0.57701952  1
  O2-  O191  1  0.82309126  0.56716669  0.90024370  1
  O2-  O192  1  0.04465602  0.08380091  0.27228304  1
  O2-  O193  1  0.04790624  0.07678988  0.59893796  1
  O2-  O194  1  0.04544047  0.08373259  0.94362366  1
  O2-  O195  1  0.04054966  0.58162626  0.26522339  1
  O2-  O196  1  0.04250059  0.58824824  0.60398464  1
  O2-  O197  1  0.03877511  0.58119260  0.93039986  1
  O2-  O198  1  0.54110680  0.08846277  0.25914689  1
  O2-  O199  1  0.53827109  0.08462228  0.59961396  1
  O2-  O200  1  0.54289751  0.08631761  0.93003756  1
  O2-  O201  1  0.54423980  0.58298715  0.26792383  1
  O2-  O202  1  0.54039779  0.57843390  0.60197220  1
  O2-  O203  1  0.54664308  0.58184320  0.94313904  1
  O2-  O204  1  0.16420829  0.20534230  0.26553605  1
  O2-  O205  1  0.17111683  0.20680910  0.59902350  1
  O2-  O206  1  0.16486560  0.20376728  0.94318197  1
  O2-  O207  1  0.16265030  0.71223694  0.26430879  1
  O2-  O208  1  0.16145116  0.70712093  0.60483267  1
  O2-  O209  1  0.16367273  0.71062854  0.92925724  1
  O2-  O210  1  0.66820817  0.21635037  0.26505993  1
  O2-  O211  1  0.66670644  0.21291183  0.60071115  1
  O2-  O212  1  0.66744478  0.21605359  0.93040512  1
  O2-  O213  1  0.66968260  0.69753253  0.27455151  1
  O2-  O214  1  0.67362756  0.69882644  0.60090553  1
  O2-  O215  1  0.67013417  0.69714913  0.94398130  1
  O2-  O216  1  0.08702750  0.45683368  0.06417653  1
  O2-  O217  1  0.08870168  0.45643381  0.39352141  1
  O2-  O218  1  0.07919636  0.45915136  0.73420922  1
  O2-  O219  1  0.08697066  0.95852692  0.07160758  1
  O2-  O220  1  0.08645233  0.95682201  0.40294047  1
  O2-  O221  1  0.08343203  0.95014096  0.73012430  1
  O2-  O222  1  0.58135168  0.44632340  0.06221569  1
  O2-  O223  1  0.57711008  0.45064360  0.39867877  1
  O2-  O224  1  0.58320220  0.45641182  0.73929571  1
  O2-  O225  1  0.58162944  0.95745092  0.06123316  1
  O2-  O226  1  0.58012871  0.95950847  0.39100439  1
  O2-  O227  1  0.57890198  0.95405428  0.73196083  1
  O2-  O228  1  0.20508889  0.33623364  0.06547223  1
  O2-  O229  1  0.20304687  0.33254789  0.39277493  1
  O2-  O230  1  0.20351584  0.33099523  0.73561780  1
  O2-  O231  1  0.21388246  0.83074398  0.06530854  1
  O2-  O232  1  0.21333661  0.83076206  0.40137738  1
  O2-  O233  1  0.20346646  0.83369867  0.73067139  1
  O2-  O234  1  0.71123844  0.33781295  0.06416116  1
  O2-  O235  1  0.71527800  0.33597730  0.40053836  1
  O2-  O236  1  0.71541648  0.33624513  0.73739107  1
  O2-  O237  1  0.69700392  0.83461425  0.06497091  1
  O2-  O238  1  0.69269103  0.83408912  0.39224897  1
  O2-  O239  1  0.70802531  0.82976494  0.73371808  1
  O2-  O240  1  0.44792056  0.41883811  0.26997334  1
  O2-  O241  1  0.45026210  0.41782759  0.61006127  1
  O2-  O242  1  0.44819137  0.41905163  0.93772782  1
  O2-  O243  1  0.45615897  0.91553014  0.26041314  1
  O2-  O244  1  0.45565590  0.91869919  0.59593869  1
  O2-  O245  1  0.45509295  0.91737994  0.93222291  1
  O2-  O246  1  0.96313775  0.40901705  0.26684778  1
  O2-  O247  1  0.96034814  0.41877424  0.59392023  1
  O2-  O248  1  0.96168290  0.40907905  0.93695796  1
  O2-  O249  1  0.95895032  0.91803648  0.27082052  1
  O2-  O250  1  0.95701452  0.91239553  0.60298666  1
  O2-  O251  1  0.95950779  0.91601733  0.93773485  1
  O2-  O252  1  0.33250411  0.29663797  0.26658637  1
  O2-  O253  1  0.33278353  0.29852650  0.60817511  1
  O2-  O254  1  0.32997949  0.29903250  0.93623004  1
  O2-  O255  1  0.33559518  0.78133881  0.26406944  1
  O2-  O256  1  0.32980423  0.78971434  0.59824672  1
  O2-  O257  1  0.33549549  0.78458835  0.92961595  1
  O2-  O258  1  0.84057956  0.29118942  0.26772969  1
  O2-  O259  1  0.83136693  0.29402097  0.59463312  1
  O2-  O260  1  0.83926320  0.29351061  0.93939066  1
  O2-  O261  1  0.83026016  0.80943966  0.27291163  1
  O2-  O262  1  0.83749994  0.79531339  0.60283812  1
  O2-  O263  1  0.83080861  0.80379088  0.94199563  1
  O2-  O264  1  0.41935754  0.04845362  0.06137043  1
  O2-  O265  1  0.41827030  0.04799254  0.38862809  1
  O2-  O266  1  0.41540680  0.03759740  0.73533527  1
  O2-  O267  1  0.41127446  0.54372784  0.06628598  1
  O2-  O268  1  0.41202690  0.54834773  0.39315751  1
  O2-  O269  1  0.41690870  0.54466806  0.73961926  1
  O2-  O270  1  0.91557771  0.04011230  0.07054578  1
  O2-  O271  1  0.91689012  0.04277880  0.40306118  1
  O2-  O272  1  0.91958514  0.04095445  0.73295917  1
  O2-  O273  1  0.91652517  0.53344174  0.06712107  1
  O2-  O274  1  0.91994615  0.53718286  0.40141188  1
  O2-  O275  1  0.91538212  0.54292494  0.72886621  1
  O2-  O276  1  0.29919986  0.16729375  0.06515155  1
  O2-  O277  1  0.29629464  0.16616658  0.39398119  1
  O2-  O278  1  0.29257669  0.16551319  0.73635525  1
  O2-  O279  1  0.28804564  0.66108643  0.06343916  1
  O2-  O280  1  0.28416833  0.65836759  0.39427881  1
  O2-  O281  1  0.28791050  0.66927095  0.73714363  1
  O2-  O282  1  0.78893122  0.16801055  0.06760979  1
  O2-  O283  1  0.78993906  0.16754931  0.40045463  1
  O2-  O284  1  0.79537069  0.17115424  0.73217126  1
  O2-  O285  1  0.79957719  0.66982303  0.06865634  1
  O2-  O286  1  0.80782537  0.67684795  0.39608294  1
  O2-  O287  1  0.80437493  0.66808317  0.72824906  1
