# generated using pymatgen
data_Ca2Al2SiO7
_symmetry_space_group_name_H-M   'P 1'
_cell_length_a   15.45956403
_cell_length_b   15.46092107
_cell_length_c   15.28504150
_cell_angle_alpha   90.00003581
_cell_angle_beta   90.01016814
_cell_angle_gamma   89.98856644
_symmetry_Int_Tables_number   1
_chemical_formula_structural   Ca2Al2SiO7
_chemical_formula_sum   'Ca48 Al48 Si24 O168'
_cell_volume   3653.41672132
_cell_formula_units_Z   24
loop_
 _symmetry_equiv_pos_site_id
 _symmetry_equiv_pos_as_xyz
  1  'x, y, z'
loop_
 _atom_type_symbol
 _atom_type_oxidation_number
  Ca2+  2.0
  Al0+  0.0
  Si0+  0.0
  O2-  -2.0
loop_
 _atom_site_type_symbol
 _atom_site_label
 _atom_site_symmetry_multiplicity
 _atom_site_fract_x
 _atom_site_fract_y
 _atom_site_fract_z
 _atom_site_occupancy
  Ca2+  Ca0  1  0.16309522  0.07567912  0.17018913  1
  Ca2+  Ca1  1  0.16125974  0.08251504  0.50092303  1
  Ca2+  Ca2  1  0.17207166  0.08543567  0.84457889  1
  Ca2+  Ca3  1  0.16652594  0.57516850  0.16925035  1
  Ca2+  Ca4  1  0.16722406  0.57658238  0.51044730  1
  Ca2+  Ca5  1  0.15486451  0.57119820  0.83464979  1
  Ca2+  Ca6  1  0.67265946  0.07951439  0.17653012  1
  Ca2+  Ca7  1  0.67714010  0.08840667  0.50499186  1
  Ca2+  Ca8  1  0.67277994  0.09362799  0.83574714  1
  Ca2+  Ca9  1  0.67217980  0.58002696  0.18123853  1
  Ca2+  Ca10  1  0.66670017  0.58259017  0.49914198  1
  Ca2+  Ca11  1  0.66486947  0.58391007  0.83456868  1
  Ca2+  Ca12  1  0.07975000  0.32199865  0.16311769  1
  Ca2+  Ca13  1  0.07501597  0.32416531  0.49451306  1
  Ca2+  Ca14  1  0.08482676  0.32655521  0.82516064  1
  Ca2+  Ca15  1  0.07924927  0.83974770  0.16004028  1
  Ca2+  Ca16  1  0.08697605  0.82779865  0.49397634  1
  Ca2+  Ca17  1  0.07923326  0.83571502  0.83184029  1
  Ca2+  Ca18  1  0.58053193  0.33214249  0.16625474  1
  Ca2+  Ca19  1  0.58140175  0.33126977  0.49235712  1
  Ca2+  Ca20  1  0.58143084  0.32132767  0.82953489  1
  Ca2+  Ca21  1  0.57575381  0.83858063  0.16425743  1
  Ca2+  Ca22  1  0.58304558  0.82456639  0.48938901  1
  Ca2+  Ca23  1  0.57389710  0.83066376  0.82792902  1
  Ca2+  Ca24  1  0.32868506  0.41021254  0.17110535  1
  Ca2+  Ca25  1  0.32874222  0.41298809  0.50459609  1
  Ca2+  Ca26  1  0.31889922  0.41626613  0.83828167  1
  Ca2+  Ca27  1  0.32795738  0.91656837  0.16950505  1
  Ca2+  Ca28  1  0.33001342  0.91198556  0.49762611  1
  Ca2+  Ca29  1  0.32606110  0.92158735  0.84528540  1
  Ca2+  Ca30  1  0.82821407  0.42200386  0.17972778  1
  Ca2+  Ca31  1  0.83549772  0.41377117  0.49923810  1
  Ca2+  Ca32  1  0.83708912  0.41509902  0.83334163  1
  Ca2+  Ca33  1  0.82859036  0.92040833  0.17752276  1
  Ca2+  Ca34  1  0.82868836  0.92986114  0.49958089  1
  Ca2+  Ca35  1  0.83528460  0.92256468  0.83588358  1
  Ca2+  Ca36  1  0.42137507  0.16578664  0.16219189  1
  Ca2+  Ca37  1  0.42213830  0.17284852  0.49543541  1
  Ca2+  Ca38  1  0.42690903  0.15677181  0.83295775  1
  Ca2+  Ca39  1  0.42120463  0.67858248  0.16769401  1
  Ca2+  Ca40  1  0.42879832  0.66931083  0.48995233  1
  Ca2+  Ca41  1  0.41726864  0.67385512  0.82954318  1
  Ca2+  Ca42  1  0.92575911  0.16068936  0.16663128  1
  Ca2+  Ca43  1  0.92030242  0.17019452  0.49506406  1
  Ca2+  Ca44  1  0.93062400  0.16968293  0.82306772  1
  Ca2+  Ca45  1  0.91123352  0.67376440  0.16361521  1
  Ca2+  Ca46  1  0.92274925  0.66175673  0.49609143  1
  Ca2+  Ca47  1  0.92136737  0.67637748  0.82952955  1
  Al0+  Al48  1  -0.00021730  0.00102323  -0.00642572  1
  Al0+  Al49  1  0.00149682  -0.00295914  0.33951125  1
  Al0+  Al50  1  -0.00189978  0.00039290  0.66758654  1
  Al0+  Al51  1  -0.00155480  0.50072662  0.00705908  1
  Al0+  Al52  1  0.00062189  0.49750304  0.33258538  1
  Al0+  Al53  1  -0.00142080  0.50178597  0.66549240  1
  Al0+  Al54  1  0.50080061  -0.00087669  -0.00596837  1
  Al0+  Al55  1  0.49720217  -0.00064087  0.33501654  1
  Al0+  Al56  1  0.49939425  -0.00041222  0.66124898  1
  Al0+  Al57  1  0.49976601  0.49933145  -0.00075515  1
  Al0+  Al58  1  0.49981951  0.50011654  0.32783312  1
  Al0+  Al59  1  0.49950761  0.50237940  0.66709595  1
  Al0+  Al60  1  0.25124086  0.25103672  0.00558404  1
  Al0+  Al61  1  0.25049615  0.24711666  0.32673666  1
  Al0+  Al62  1  0.25004333  0.24878713  0.66908535  1
  Al0+  Al63  1  0.25012791  0.74738221  -0.00129659  1
  Al0+  Al64  1  0.25160754  0.74845007  0.33356191  1
  Al0+  Al65  1  0.24904899  0.75053521  0.66532882  1
  Al0+  Al66  1  0.75003286  0.25182411  -0.00117681  1
  Al0+  Al67  1  0.75097047  0.25227767  0.33679860  1
  Al0+  Al68  1  0.74986828  0.25094983  0.66620309  1
  Al0+  Al69  1  0.75127581  0.75082234  -0.00589152  1
  Al0+  Al70  1  0.75291761  0.74856560  0.33938033  1
  Al0+  Al71  1  0.74808783  0.75089389  0.66505766  1
  Al0+  Al72  1  0.92877090  0.82185546  0.98681700  1
  Al0+  Al73  1  0.67688950  0.42979320  0.34902251  1
  Al0+  Al74  1  0.42810940  0.82012685  0.98493199  1
  Al0+  Al75  1  0.67571690  0.92865821  0.34740965  1
  Al0+  Al76  1  0.42804579  0.82220504  0.31745387  1
  Al0+  Al77  1  0.17890830  0.42974480  0.67884833  1
  Al0+  Al78  1  0.18062634  0.92768929  0.34785332  1
  Al0+  Al79  1  0.92790556  0.32140501  0.31607810  1
  Al0+  Al80  1  0.82143175  0.07154194  0.34758786  1
  Al0+  Al81  1  0.57405446  0.68046795  0.31718491  1
  Al0+  Al82  1  0.42906298  0.32075744  0.32006496  1
  Al0+  Al83  1  0.92923317  0.32220677  0.65223026  1
  Al0+  Al84  1  0.07389037  0.17741399  0.65144552  1
  Al0+  Al85  1  0.17827733  0.42923245  0.01636863  1
  Al0+  Al86  1  0.17773299  0.92880033  0.01366798  1
  Al0+  Al87  1  0.06955110  0.17579465  0.31679336  1
  Al0+  Al88  1  0.57071846  0.17936036  0.65201311  1
  Al0+  Al89  1  0.82358928  0.57098842  0.35023706  1
  Al0+  Al90  1  0.57049228  0.67886224  0.65214212  1
  Al0+  Al91  1  0.07124659  0.18057382  0.98602031  1
  Al0+  Al92  1  0.57130823  0.17974248  0.98784198  1
  Al0+  Al93  1  0.81952305  0.07236718  0.68346371  1
  Al0+  Al94  1  0.06932043  0.68129736  0.65404951  1
  Al0+  Al95  1  0.32441943  0.07048331  0.01579282  1
  Si0+  Si96  1  0.93217086  0.81869621  0.32096724  1
  Si0+  Si97  1  0.81847009  0.57266134  0.01372765  1
  Si0+  Si98  1  0.82054154  0.07188461  0.01312508  1
  Si0+  Si99  1  0.67867440  0.42896702  0.01381944  1
  Si0+  Si100  1  0.17898222  0.92741713  0.68194746  1
  Si0+  Si101  1  0.07110679  0.67580677  0.98530059  1
  Si0+  Si102  1  0.18038613  0.42666379  0.34844516  1
  Si0+  Si103  1  0.67722761  0.92823020  0.68482447  1
  Si0+  Si104  1  0.32468536  0.57153057  0.01845268  1
  Si0+  Si105  1  0.68054622  0.92805895  0.01161238  1
  Si0+  Si106  1  0.31970094  0.56978379  0.34778360  1
  Si0+  Si107  1  0.32162568  0.07342015  0.35182415  1
  Si0+  Si108  1  0.42793106  0.32392223  0.98190912  1
  Si0+  Si109  1  0.67669100  0.43020686  0.68374279  1
  Si0+  Si110  1  0.92850001  0.32370220  0.98423284  1
  Si0+  Si111  1  0.82024083  0.57287932  0.68403556  1
  Si0+  Si112  1  0.32177689  0.07019672  0.68102189  1
  Si0+  Si113  1  0.42705482  0.82194234  0.64855719  1
  Si0+  Si114  1  0.07327274  0.67650561  0.31815965  1
  Si0+  Si115  1  0.42812213  0.32218069  0.65337187  1
  Si0+  Si116  1  0.57283705  0.17789802  0.31869107  1
  Si0+  Si117  1  0.57246609  0.67756906  0.98320685  1
  Si0+  Si118  1  0.92681031  0.82323569  0.64763711  1
  Si0+  Si119  1  0.32220463  0.57349798  0.68373446  1
  O2-  O120  1  0.24990178  0.00007374  0.06476611  1
  O2-  O121  1  0.25428085  0.00292106  0.39564477  1
  O2-  O122  1  0.24818589  0.00092362  0.72251968  1
  O2-  O123  1  0.25560952  0.50262467  0.06205285  1
  O2-  O124  1  0.25070840  0.49779383  0.39161967  1
  O2-  O125  1  0.25279487  0.50543654  0.72771432  1
  O2-  O126  1  0.74994537  0.00013287  0.05451981  1
  O2-  O127  1  0.74281901  0.00549308  0.39699822  1
  O2-  O128  1  0.74376786  -0.00201688  0.73128031  1
  O2-  O129  1  0.74683390  0.50264717  0.05506662  1
  O2-  O130  1  0.75054725  0.49982249  0.40007263  1
  O2-  O131  1  0.74860840  0.50148954  0.72594059  1
  O2-  O132  1  -0.00342098  0.24663513  0.26608794  1
  O2-  O133  1  0.00057121  0.24895030  0.60372892  1
  O2-  O134  1  -0.00109627  0.25776525  0.93950273  1
  O2-  O135  1  0.00146799  0.74670335  0.27665761  1
  O2-  O136  1  -0.00301711  0.75591303  0.60383763  1
  O2-  O137  1  0.00726760  0.74961005  0.94199017  1
  O2-  O138  1  0.50524496  0.24723259  0.27388454  1
  O2-  O139  1  0.49756487  0.25589781  0.60729770  1
  O2-  O140  1  0.49412306  0.25200352  0.93933251  1
  O2-  O141  1  0.50651186  0.75679611  0.26763862  1
  O2-  O142  1  0.49610525  0.75327186  0.60609250  1
  O2-  O143  1  0.50210002  0.74405517  0.93852800  1
  O2-  O144  1  0.06675309  0.17732661  0.09850383  1
  O2-  O145  1  0.07087235  0.17837018  0.43023044  1
  O2-  O146  1  0.07599032  0.17937197  0.76543304  1
  O2-  O147  1  0.06778790  0.67290731  0.09089039  1
  O2-  O148  1  0.07419128  0.67739136  0.42346670  1
  O2-  O149  1  0.06645235  0.68179700  0.76736224  1
  O2-  O150  1  0.57471926  0.18262191  0.10057037  1
  O2-  O151  1  0.57001383  0.17931034  0.42442678  1
  O2-  O152  1  0.56893463  0.18031457  0.76547929  1
  O2-  O153  1  0.57517866  0.67851583  0.08797450  1
  O2-  O154  1  0.56966949  0.67924993  0.43082252  1
  O2-  O155  1  0.56856652  0.67978833  0.76593342  1
  O2-  O156  1  0.18147953  0.42977476  0.24323015  1
  O2-  O157  1  0.18283827  0.43133383  0.56580217  1
  O2-  O158  1  0.17676428  0.43205387  0.90287600  1
  O2-  O159  1  0.17905961  0.92645712  0.23513934  1
  O2-  O160  1  0.18193752  0.92379472  0.57701826  1
  O2-  O161  1  0.17841326  0.93021336  0.89945602  1
  O2-  O162  1  0.67704215  0.43235165  0.23456285  1
  O2-  O163  1  0.67306702  0.43124788  0.57952219  1
  O2-  O164  1  0.67928846  0.42904138  0.90834680  1
  O2-  O165  1  0.67901379  0.92994783  0.23268156  1
  O2-  O166  1  0.67917181  0.92794122  0.57980230  1
  O2-  O167  1  0.68255071  0.92628277  0.90649082  1
  O2-  O168  1  0.43203253  0.32780598  0.08718255  1
  O2-  O169  1  0.42708660  0.31891050  0.43362926  1
  O2-  O170  1  0.42917017  0.32183913  0.75901196  1
  O2-  O171  1  0.43040375  0.82008915  0.09729939  1
  O2-  O172  1  0.42477173  0.81499873  0.43101631  1
  O2-  O173  1  0.42711546  0.82145237  0.75452774  1
  O2-  O174  1  0.92679739  0.32315891  0.08920066  1
  O2-  O175  1  0.93301722  0.32365079  0.42926651  1
  O2-  O176  1  0.93152165  0.32230714  0.76671048  1
  O2-  O177  1  0.92398774  0.81902398  0.09985579  1
  O2-  O178  1  0.93541445  0.81839439  0.42591010  1
  O2-  O179  1  0.92765269  0.82147146  0.75386754  1
  O2-  O180  1  0.32255983  0.07438947  0.24662862  1
  O2-  O181  1  0.32340047  0.07036358  0.57619417  1
  O2-  O182  1  0.32421303  0.06746476  0.90126890  1
  O2-  O183  1  0.31609217  0.57087560  0.24268094  1
  O2-  O184  1  0.32244510  0.57276578  0.57819145  1
  O2-  O185  1  0.32722698  0.56983717  0.91265154  1
  O2-  O186  1  0.82201212  0.06654391  0.23303156  1
  O2-  O187  1  0.81883594  0.07074406  0.57095572  1
  O2-  O188  1  0.81876020  0.07244456  0.90801426  1
  O2-  O189  1  0.82278995  0.57186732  0.23577224  1
  O2-  O190  1  0.82096175  0.57382455  0.57979250  1
  O2-  O191  1  0.81874029  0.57285160  0.90834149  1
  O2-  O192  1  0.04032763  0.07574393  0.26708369  1
  O2-  O193  1  0.04573881  0.07789589  0.60154390  1
  O2-  O194  1  0.03937435  0.08587769  0.92922024  1
  O2-  O195  1  0.04692471  0.58466654  0.27080079  1
  O2-  O196  1  0.03827548  0.58591641  0.59906448  1
  O2-  O197  1  0.03690475  0.58486436  0.93789608  1
  O2-  O198  1  0.54612725  0.08428111  0.27357918  1
  O2-  O199  1  0.54023127  0.08331555  0.59765590  1
  O2-  O200  1  0.54443054  0.08367010  0.93044441  1
  O2-  O201  1  0.54030155  0.58445435  0.26295594  1
  O2-  O202  1  0.54002633  0.58212947  0.59870689  1
  O2-  O203  1  0.54808240  0.58292019  0.93743014  1
  O2-  O204  1  0.16748803  0.20450417  0.26376806  1
  O2-  O205  1  0.17276686  0.20514617  0.59952782  1
  O2-  O206  1  0.17050464  0.20963871  0.93651604  1
  O2-  O207  1  0.16438467  0.70430729  0.27054403  1
  O2-  O208  1  0.16699173  0.70868944  0.59987583  1
  O2-  O209  1  0.16660170  0.69233359  0.94030870  1
  O2-  O210  1  0.66699698  0.20160873  0.27394860  1
  O2-  O211  1  0.66650041  0.21106060  0.59969873  1
  O2-  O212  1  0.66622042  0.21574288  0.93156455  1
  O2-  O213  1  0.67585727  0.70287594  0.26900024  1
  O2-  O214  1  0.66755367  0.70798183  0.59941513  1
  O2-  O215  1  0.66459543  0.70481686  0.93433641  1
  O2-  O216  1  0.08302765  0.46290188  0.07200623  1
  O2-  O217  1  0.08898611  0.45520134  0.39471265  1
  O2-  O218  1  0.08278482  0.46346833  0.73321674  1
  O2-  O219  1  0.07779578  0.95772669  0.06412726  1
  O2-  O220  1  0.08528423  0.95540294  0.40529224  1
  O2-  O221  1  0.08491326  0.95045720  0.72664013  1
  O2-  O222  1  0.58537768  0.45312222  0.05976537  1
  O2-  O223  1  0.57763130  0.45917797  0.40045120  1
  O2-  O224  1  0.58559074  0.45974382  0.73337748  1
  O2-  O225  1  0.58828824  0.95482520  0.05700506  1
  O2-  O226  1  0.57476315  0.94809610  0.39897228  1
  O2-  O227  1  0.58118919  0.95190423  0.72757014  1
  O2-  O228  1  0.20877078  0.33394843  0.07189094  1
  O2-  O229  1  0.21000388  0.33450673  0.39310421  1
  O2-  O230  1  0.21172537  0.33413365  0.73469245  1
  O2-  O231  1  0.20177294  0.82721978  0.06246322  1
  O2-  O232  1  0.21294664  0.83071026  0.40233025  1
  O2-  O233  1  0.20834581  0.83641778  0.73118372  1
  O2-  O234  1  0.70878425  0.33876321  0.06262674  1
  O2-  O235  1  0.70165471  0.33102426  0.40226865  1
  O2-  O236  1  0.70532298  0.33893475  0.73190833  1
  O2-  O237  1  0.70951428  0.83633202  0.05867800  1
  O2-  O238  1  0.70977086  0.83287435  0.40161454  1
  O2-  O239  1  0.70408058  0.83457372  0.73180979  1
  O2-  O240  1  0.45653978  0.41656431  0.26307160  1
  O2-  O241  1  0.45049984  0.41706160  0.60882360  1
  O2-  O242  1  0.45636420  0.41613531  0.93322421  1
  O2-  O243  1  0.44794645  0.92347110  0.26690667  1
  O2-  O244  1  0.45113712  0.91492968  0.60162219  1
  O2-  O245  1  0.46137779  0.91419741  0.92762106  1
  O2-  O246  1  0.95963407  0.41925218  0.26238393  1
  O2-  O247  1  0.95561202  0.42090824  0.60037997  1
  O2-  O248  1  0.95161259  0.41947439  0.94078129  1
  O2-  O249  1  0.96132982  0.90929989  0.27272566  1
  O2-  O250  1  0.95120034  0.91700620  0.60330018  1
  O2-  O251  1  0.95727821  0.91677266  0.92869880  1
  O2-  O252  1  0.33473035  0.28860069  0.26279791  1
  O2-  O253  1  0.33585214  0.29419974  0.60673396  1
  O2-  O254  1  0.33266620  0.30189834  0.93903000  1
  O2-  O255  1  0.33244005  0.78484344  0.26352587  1
  O2-  O256  1  0.33341418  0.79618314  0.60361645  1
  O2-  O257  1  0.33171504  0.78826401  0.92972266  1
  O2-  O258  1  0.82647825  0.29971434  0.26635075  1
  O2-  O259  1  0.82995798  0.29650012  0.60164562  1
  O2-  O260  1  0.83514078  0.29796387  0.93737743  1
  O2-  O261  1  0.84000276  0.79210882  0.27388661  1
  O2-  O262  1  0.83331670  0.79635484  0.60394330  1
  O2-  O263  1  0.83539646  0.78709066  0.92735326  1
  O2-  O264  1  0.42344620  0.04004251  0.06646481  1
  O2-  O265  1  0.41512957  0.04965380  0.39945151  1
  O2-  O266  1  0.41345702  0.03948150  0.72831860  1
  O2-  O267  1  0.41858305  0.54614121  0.06456019  1
  O2-  O268  1  0.41212379  0.54258080  0.39332194  1
  O2-  O269  1  0.41545053  0.54835486  0.73162681  1
  O2-  O270  1  0.91213306  0.04255398  0.05840692  1
  O2-  O271  1  0.91578907  0.03507046  0.40305981  1
  O2-  O272  1  0.91646826  0.03938373  0.73744443  1
  O2-  O273  1  0.90932085  0.54699604  0.06350927  1
  O2-  O274  1  0.92290890  0.54149538  0.40205746  1
  O2-  O275  1  0.91132208  0.54481413  0.73308470  1
  O2-  O276  1  0.30324939  0.17110082  0.06612166  1
  O2-  O277  1  0.29353854  0.16643283  0.39842526  1
  O2-  O278  1  0.29777061  0.16213566  0.73021177  1
  O2-  O279  1  0.29800487  0.66466007  0.06422712  1
  O2-  O280  1  0.29081928  0.65977934  0.39780234  1
  O2-  O281  1  0.29622432  0.66751001  0.72951895  1
  O2-  O282  1  0.79237333  0.16373929  0.06011229  1
  O2-  O283  1  0.79901236  0.17120175  0.39958074  1
  O2-  O284  1  0.78818507  0.16927076  0.73765139  1
  O2-  O285  1  0.79057241  0.66496440  0.06050802  1
  O2-  O286  1  0.79973852  0.66899120  0.40553099  1
  O2-  O287  1  0.79099422  0.66492438  0.73189223  1
