# generated using pymatgen
data_Ca2Al2SiO7
_symmetry_space_group_name_H-M   'P 1'
_cell_length_a   15.46159675
_cell_length_b   15.45924023
_cell_length_c   15.28405150
_cell_angle_alpha   90.01040284
_cell_angle_beta   89.98087424
_cell_angle_gamma   90.01583247
_symmetry_Int_Tables_number   1
_chemical_formula_structural   Ca2Al2SiO7
_chemical_formula_sum   'Ca48 Al48 Si24 O168'
_cell_volume   3653.26295296
_cell_formula_units_Z   24
loop_
 _symmetry_equiv_pos_site_id
 _symmetry_equiv_pos_as_xyz
  1  'x, y, z'
loop_
 _atom_type_symbol
 _atom_type_oxidation_number
  Ca2+  2.0
  Al0+  0.0
  Si0+  0.0
  O2-  -2.0
loop_
 _atom_site_type_symbol
 _atom_site_label
 _atom_site_symmetry_multiplicity
 _atom_site_fract_x
 _atom_site_fract_y
 _atom_site_fract_z
 _atom_site_occupancy
  Ca2+  Ca0  1  0.18093911  0.08152203  0.16981329  1
  Ca2+  Ca1  1  0.17426162  0.08221162  0.50027271  1
  Ca2+  Ca2  1  0.17365251  0.07987639  0.84093892  1
  Ca2+  Ca3  1  0.17381195  0.58585250  0.16938327  1
  Ca2+  Ca4  1  0.16809924  0.58715869  0.49875147  1
  Ca2+  Ca5  1  0.16969011  0.57271002  0.83978143  1
  Ca2+  Ca6  1  0.66633976  0.07667209  0.17305128  1
  Ca2+  Ca7  1  0.67552730  0.08445228  0.49972732  1
  Ca2+  Ca8  1  0.67340670  0.07571009  0.83605784  1
  Ca2+  Ca9  1  0.67236486  0.57479039  0.17073771  1
  Ca2+  Ca10  1  0.66902151  0.57431971  0.50054343  1
  Ca2+  Ca11  1  0.67118299  0.57430386  0.84181405  1
  Ca2+  Ca12  1  0.08594855  0.33332587  0.16079812  1
  Ca2+  Ca13  1  0.07812074  0.33787897  0.50130485  1
  Ca2+  Ca14  1  0.08120427  0.33728785  0.82724426  1
  Ca2+  Ca15  1  0.07184429  0.82658390  0.16602473  1
  Ca2+  Ca16  1  0.07427608  0.82691022  0.49098002  1
  Ca2+  Ca17  1  0.07160987  0.83082001  0.82956865  1
  Ca2+  Ca18  1  0.58565456  0.33015360  0.16227628  1
  Ca2+  Ca19  1  0.59237487  0.32905383  0.49270714  1
  Ca2+  Ca20  1  0.57993033  0.34186536  0.83213589  1
  Ca2+  Ca21  1  0.57564928  0.83563477  0.15956264  1
  Ca2+  Ca22  1  0.57295204  0.83325854  0.49577962  1
  Ca2+  Ca23  1  0.57632281  0.83523869  0.83355625  1
  Ca2+  Ca24  1  0.33438511  0.42630843  0.16686646  1
  Ca2+  Ca25  1  0.32740473  0.42592107  0.50433862  1
  Ca2+  Ca26  1  0.32391603  0.41919236  0.84636954  1
  Ca2+  Ca27  1  0.34349153  0.92417267  0.17294811  1
  Ca2+  Ca28  1  0.34132265  0.91885376  0.50093625  1
  Ca2+  Ca29  1  0.33860753  0.91974866  0.84098509  1
  Ca2+  Ca30  1  0.82556766  0.42789259  0.17212784  1
  Ca2+  Ca31  1  0.82528987  0.41845597  0.50469420  1
  Ca2+  Ca32  1  0.82456526  0.41814226  0.83974745  1
  Ca2+  Ca33  1  0.82982470  0.91462478  0.17195794  1
  Ca2+  Ca34  1  0.84555197  0.92579441  0.50339116  1
  Ca2+  Ca35  1  0.83368303  0.91747282  0.84053240  1
  Ca2+  Ca36  1  0.41909881  0.16914340  0.16077676  1
  Ca2+  Ca37  1  0.42631492  0.16961430  0.48862834  1
  Ca2+  Ca38  1  0.41579207  0.17198713  0.83592035  1
  Ca2+  Ca39  1  0.41041992  0.67333355  0.16075178  1
  Ca2+  Ca40  1  0.41256106  0.67597667  0.49109703  1
  Ca2+  Ca41  1  0.41121717  0.67507505  0.83150991  1
  Ca2+  Ca42  1  0.91625260  0.16552736  0.16577438  1
  Ca2+  Ca43  1  0.90731318  0.17082147  0.49652608  1
  Ca2+  Ca44  1  0.91669028  0.17271724  0.82428782  1
  Ca2+  Ca45  1  0.91260135  0.66769215  0.16150473  1
  Ca2+  Ca46  1  0.91917563  0.67499624  0.48778065  1
  Ca2+  Ca47  1  0.90647113  0.67609143  0.83155563  1
  Al0+  Al48  1  0.00252523  0.00003028  -0.00443946  1
  Al0+  Al49  1  0.00105455  0.00050320  0.33247947  1
  Al0+  Al50  1  0.00392008  0.00139470  0.66803387  1
  Al0+  Al51  1  0.00011836  0.49862434  0.00535203  1
  Al0+  Al52  1  -0.00030952  0.49976770  0.33248646  1
  Al0+  Al53  1  0.00068485  0.50020765  0.66601306  1
  Al0+  Al54  1  0.50259278  0.00086560  0.00138112  1
  Al0+  Al55  1  0.50176565  0.00262910  0.33157665  1
  Al0+  Al56  1  0.50201268  0.00164242  0.66328506  1
  Al0+  Al57  1  0.49909723  0.49890885  0.00214256  1
  Al0+  Al58  1  0.49663774  0.49971992  0.34299817  1
  Al0+  Al59  1  0.49988505  0.50170979  0.66950005  1
  Al0+  Al60  1  0.25163129  0.24784238  0.00268291  1
  Al0+  Al61  1  0.24982189  0.24892760  0.33884997  1
  Al0+  Al62  1  0.25120768  0.25063642  0.66851419  1
  Al0+  Al63  1  0.24601765  0.75040414  -0.00365340  1
  Al0+  Al64  1  0.24704389  0.75064166  0.32870021  1
  Al0+  Al65  1  0.24935073  0.75302542  0.66325849  1
  Al0+  Al66  1  0.75147949  0.24760904  0.00073605  1
  Al0+  Al67  1  0.74975620  0.24669474  0.33268395  1
  Al0+  Al68  1  0.75078100  0.24926690  0.67240118  1
  Al0+  Al69  1  0.74810758  0.75162892  0.00197078  1
  Al0+  Al70  1  0.74587994  0.74907568  0.33502728  1
  Al0+  Al71  1  0.74697639  0.75139260  0.65933700  1
  Al0+  Al72  1  0.92803169  0.82232260  0.65267487  1
  Al0+  Al73  1  0.32026390  0.57375500  0.01368920  1
  Al0+  Al74  1  0.67948675  0.42787036  0.34835889  1
  Al0+  Al75  1  0.92904037  0.32001524  0.65375784  1
  Al0+  Al76  1  0.67953569  0.42877594  0.68223102  1
  Al0+  Al77  1  0.82261029  0.06889430  0.68104026  1
  Al0+  Al78  1  0.57180945  0.18169687  0.31885725  1
  Al0+  Al79  1  0.43063553  0.82013162  0.31868809  1
  Al0+  Al80  1  0.82196189  0.06729650  0.34583113  1
  Al0+  Al81  1  0.32294068  0.07065099  0.34850600  1
  Al0+  Al82  1  0.68037969  0.93052784  0.01275100  1
  Al0+  Al83  1  0.32132936  0.06780779  0.01281751  1
  Al0+  Al84  1  0.43050880  0.32048593  0.98750117  1
  Al0+  Al85  1  0.92608272  0.82200401  0.31765406  1
  Al0+  Al86  1  0.17883651  0.42727465  0.01596282  1
  Al0+  Al87  1  0.06957367  0.67689690  0.31607213  1
  Al0+  Al88  1  0.82011607  0.57194437  0.01330933  1
  Al0+  Al89  1  0.31848726  0.57280169  0.34769324  1
  Al0+  Al90  1  0.42818895  0.82163807  0.98669077  1
  Al0+  Al91  1  0.17965476  0.42968980  0.68034489  1
  Al0+  Al92  1  0.82198168  0.57256639  0.35002863  1
  Al0+  Al93  1  0.67745020  0.42587990  0.01560087  1
  Al0+  Al94  1  0.42958683  0.82119591  0.65249637  1
  Al0+  Al95  1  0.92787916  0.81989321  0.98566810  1
  Si0+  Si96  1  0.07225579  0.17955748  0.98468028  1
  Si0+  Si97  1  0.42768698  0.32251661  0.65202786  1
  Si0+  Si98  1  0.32073735  0.57478916  0.68315971  1
  Si0+  Si99  1  0.82151786  0.57407630  0.68127946  1
  Si0+  Si100  1  0.57015394  0.18131211  0.65226286  1
  Si0+  Si101  1  0.18067823  0.92936735  0.68221286  1
  Si0+  Si102  1  0.17694483  0.42605435  0.35132842  1
  Si0+  Si103  1  0.67637605  0.92743991  0.35109230  1
  Si0+  Si104  1  0.07521214  0.17839269  0.64904742  1
  Si0+  Si105  1  0.57439227  0.17756055  0.98077837  1
  Si0+  Si106  1  0.92933239  0.31896697  0.31816318  1
  Si0+  Si107  1  0.17891937  0.92953774  0.34982693  1
  Si0+  Si108  1  0.07133906  0.67868637  0.65026429  1
  Si0+  Si109  1  0.82556227  0.07085524  0.01580646  1
  Si0+  Si110  1  0.17564595  0.92778214  0.01652836  1
  Si0+  Si111  1  0.56970211  0.67413701  0.31663303  1
  Si0+  Si112  1  0.57104022  0.67560693  0.64802897  1
  Si0+  Si113  1  0.92925340  0.32034975  0.98595454  1
  Si0+  Si114  1  0.57115793  0.67767728  0.98411695  1
  Si0+  Si115  1  0.07348732  0.17891059  0.31826504  1
  Si0+  Si116  1  0.67676808  0.92817915  0.68224080  1
  Si0+  Si117  1  0.42534628  0.32264935  0.31879868  1
  Si0+  Si118  1  0.32371224  0.07053089  0.68191401  1
  Si0+  Si119  1  0.07038952  0.67539863  0.98077046  1
  O2-  O120  1  0.25138110  -0.01116036  0.06003137  1
  O2-  O121  1  0.25077232  -0.00571362  0.39640379  1
  O2-  O122  1  0.25344689  -0.00093655  0.72426329  1
  O2-  O123  1  0.24918989  0.50103541  0.06434729  1
  O2-  O124  1  0.24382293  0.49733333  0.39408308  1
  O2-  O125  1  0.25525015  0.50318786  0.72690671  1
  O2-  O126  1  0.75766743  0.00240178  0.05947122  1
  O2-  O127  1  0.75251837  -0.01150715  0.39442020  1
  O2-  O128  1  0.75253176  -0.01075240  0.72645106  1
  O2-  O129  1  0.74915375  0.49882317  0.06298338  1
  O2-  O130  1  0.75069490  0.49982048  0.39998611  1
  O2-  O131  1  0.75420680  0.50462300  0.72662743  1
  O2-  O132  1  0.00354307  0.25070513  0.27586345  1
  O2-  O133  1  0.00411799  0.24513700  0.60568224  1
  O2-  O134  1  0.00107681  0.25025295  0.94265123  1
  O2-  O135  1  -0.00846639  0.74383875  0.26769203  1
  O2-  O136  1  -0.00103600  0.74397758  0.60700780  1
  O2-  O137  1  -0.00056438  0.74258223  0.93711784  1
  O2-  O138  1  0.49689197  0.25713896  0.27477793  1
  O2-  O139  1  0.50164632  0.25496283  0.60950717  1
  O2-  O140  1  0.50873479  0.25003936  0.93747395  1
  O2-  O141  1  0.50288382  0.74396870  0.27124713  1
  O2-  O142  1  0.50080614  0.74404140  0.60544489  1
  O2-  O143  1  0.49888675  0.74331418  0.93919787  1
  O2-  O144  1  0.07123688  0.17818082  0.08988183  1
  O2-  O145  1  0.07521929  0.17914772  0.42331391  1
  O2-  O146  1  0.07728961  0.17849047  0.75478331  1
  O2-  O147  1  0.07166995  0.67749189  0.08586305  1
  O2-  O148  1  0.07069782  0.68088071  0.43040112  1
  O2-  O149  1  0.07416934  0.68101808  0.75571914  1
  O2-  O150  1  0.57381892  0.17631767  0.08615700  1
  O2-  O151  1  0.57156841  0.18195744  0.43287236  1
  O2-  O152  1  0.56680744  0.17802991  0.75715025  1
  O2-  O153  1  0.57204744  0.68015753  0.08946374  1
  O2-  O154  1  0.56718772  0.67540262  0.42263946  1
  O2-  O155  1  0.57225378  0.67485610  0.75350041  1
  O2-  O156  1  0.17943192  0.42131348  0.24627303  1
  O2-  O157  1  0.18213990  0.42861615  0.56739152  1
  O2-  O158  1  0.17914203  0.42738306  0.90196084  1
  O2-  O159  1  0.17771076  0.93404047  0.24442280  1
  O2-  O160  1  0.18029112  0.93043894  0.57735306  1
  O2-  O161  1  0.17295762  0.93290832  0.91040835  1
  O2-  O162  1  0.68149798  0.42764830  0.23517686  1
  O2-  O163  1  0.68075172  0.42728510  0.56953975  1
  O2-  O164  1  0.68051683  0.42728844  0.90155068  1
  O2-  O165  1  0.67375284  0.93157645  0.24552380  1
  O2-  O166  1  0.67137392  0.93281030  0.57717937  1
  O2-  O167  1  0.68030878  0.93268891  0.89908623  1
  O2-  O168  1  0.42880997  0.31688212  0.10028705  1
  O2-  O169  1  0.42352762  0.31935487  0.42503649  1
  O2-  O170  1  0.42602113  0.31971419  0.75706019  1
  O2-  O171  1  0.43158173  0.82355540  0.09928220  1
  O2-  O172  1  0.43262681  0.82020690  0.43236365  1
  O2-  O173  1  0.43088806  0.82244063  0.76560630  1
  O2-  O174  1  0.92899885  0.31698025  0.09112381  1
  O2-  O175  1  0.92959895  0.31704105  0.42356426  1
  O2-  O176  1  0.93046331  0.31803082  0.76710028  1
  O2-  O177  1  0.93015050  0.82279655  0.09798127  1
  O2-  O178  1  0.93335197  0.82477828  0.43150744  1
  O2-  O179  1  0.92962217  0.82170780  0.76607045  1
  O2-  O180  1  0.32061925  0.07184206  0.23566478  1
  O2-  O181  1  0.32350384  0.07043520  0.57691258  1
  O2-  O182  1  0.31876480  0.06831970  0.89886188  1
  O2-  O183  1  0.31885465  0.57218366  0.23517350  1
  O2-  O184  1  0.31868210  0.57521203  0.57749898  1
  O2-  O185  1  0.31736999  0.57328225  0.89946653  1
  O2-  O186  1  0.82100762  0.06880520  0.23284989  1
  O2-  O187  1  0.81948763  0.07049750  0.56807133  1
  O2-  O188  1  0.82563457  0.07105411  0.90989041  1
  O2-  O189  1  0.82066698  0.56969158  0.23668532  1
  O2-  O190  1  0.82004573  0.57263294  0.57601814  1
  O2-  O191  1  0.81867837  0.57086834  0.89892677  1
  O2-  O192  1  0.04498763  0.08844723  0.26928658  1
  O2-  O193  1  0.05316803  0.08393381  0.60385240  1
  O2-  O194  1  0.04534609  0.08857001  0.93408189  1
  O2-  O195  1  0.05002672  0.57543503  0.26560268  1
  O2-  O196  1  0.05110339  0.58389588  0.60468576  1
  O2-  O197  1  0.04689829  0.57998140  0.93694270  1
  O2-  O198  1  0.53957396  0.08629181  0.26432034  1
  O2-  O199  1  0.54036060  0.09131484  0.60211499  1
  O2-  O200  1  0.54339461  0.08634343  0.93273266  1
  O2-  O201  1  0.54237296  0.57999522  0.27332574  1
  O2-  O202  1  0.54548572  0.58197774  0.60125671  1
  O2-  O203  1  0.54941879  0.58282630  0.93872808  1
  O2-  O204  1  0.16555381  0.20695739  0.27065540  1
  O2-  O205  1  0.16824587  0.20651431  0.60183757  1
  O2-  O206  1  0.16368159  0.20661476  0.93626626  1
  O2-  O207  1  0.16467224  0.71196041  0.26071411  1
  O2-  O208  1  0.16301088  0.70947635  0.60223771  1
  O2-  O209  1  0.16204960  0.70357883  0.93130056  1
  O2-  O210  1  0.66789264  0.20962859  0.26251403  1
  O2-  O211  1  0.66300506  0.20800057  0.60708898  1
  O2-  O212  1  0.67001683  0.19825967  0.93557138  1
  O2-  O213  1  0.66424411  0.69716906  0.27195619  1
  O2-  O214  1  0.66272138  0.70245295  0.59842169  1
  O2-  O215  1  0.66229640  0.70837287  0.93536089  1
  O2-  O216  1  0.08004191  0.45097962  0.06909271  1
  O2-  O217  1  0.08258596  0.44987520  0.39623978  1
  O2-  O218  1  0.08246917  0.45947861  0.73435638  1
  O2-  O219  1  0.08606143  0.96258360  0.06481881  1
  O2-  O220  1  0.08793618  0.96103969  0.39816640  1
  O2-  O221  1  0.09102569  0.95946007  0.73276837  1
  O2-  O222  1  0.57870162  0.45107315  0.06721124  1
  O2-  O223  1  0.58034682  0.45234166  0.40262663  1
  O2-  O224  1  0.58132100  0.45873637  0.73469318  1
  O2-  O225  1  0.58645998  0.96476024  0.06896709  1
  O2-  O226  1  0.58723241  0.96347597  0.39984111  1
  O2-  O227  1  0.58662042  0.96316247  0.73107359  1
  O2-  O228  1  0.20785908  0.32911546  0.06806604  1
  O2-  O229  1  0.20371086  0.33388432  0.40058202  1
  O2-  O230  1  0.20936815  0.33208802  0.73401526  1
  O2-  O231  1  0.19154387  0.83131580  0.05767997  1
  O2-  O232  1  0.20064841  0.83502669  0.39443600  1
  O2-  O233  1  0.20708489  0.83746918  0.73017959  1
  O2-  O234  1  0.70691746  0.32664903  0.06589611  1
  O2-  O235  1  0.71201437  0.32982665  0.40006298  1
  O2-  O236  1  0.70990034  0.33305874  0.73755936  1
  O2-  O237  1  0.70618860  0.83431691  0.06812049  1
  O2-  O238  1  0.68976765  0.83091018  0.39482836  1
  O2-  O239  1  0.69393344  0.83113961  0.72415695  1
  O2-  O240  1  0.44698613  0.41850068  0.27709201  1
  O2-  O241  1  0.45055392  0.41695122  0.60775237  1
  O2-  O242  1  0.45577699  0.41825851  0.93184645  1
  O2-  O243  1  0.46393519  0.91693449  0.26717669  1
  O2-  O244  1  0.46296219  0.91764894  0.59856869  1
  O2-  O245  1  0.46425016  0.91735620  0.93257743  1
  O2-  O246  1  0.95452111  0.41117953  0.27123030  1
  O2-  O247  1  0.95972329  0.41673118  0.59936752  1
  O2-  O248  1  0.95559922  0.41273868  0.93937213  1
  O2-  O249  1  0.96080862  0.91923688  0.26504388  1
  O2-  O250  1  0.96505388  0.91849179  0.60144958  1
  O2-  O251  1  0.96290921  0.91606529  0.93084163  1
  O2-  O252  1  0.33273902  0.29277082  0.27330235  1
  O2-  O253  1  0.33756875  0.29110567  0.60329145  1
  O2-  O254  1  0.33515313  0.28341163  0.93237074  1
  O2-  O255  1  0.33204869  0.79519316  0.26728336  1
  O2-  O256  1  0.33170942  0.79513036  0.59823138  1
  O2-  O257  1  0.32893861  0.79723219  0.93308025  1
  O2-  O258  1  0.84042350  0.28535484  0.26988385  1
  O2-  O259  1  0.83274810  0.28591201  0.60079398  1
  O2-  O260  1  0.83821310  0.29071493  0.93707011  1
  O2-  O261  1  0.82304961  0.80200610  0.27147553  1
  O2-  O262  1  0.82925248  0.80012101  0.59920635  1
  O2-  O263  1  0.82991674  0.79241839  0.93171862  1
  O2-  O264  1  0.41879228  0.04239472  0.06577754  1
  O2-  O265  1  0.41984317  0.04118833  0.40241845  1
  O2-  O266  1  0.41564880  0.04285597  0.72870690  1
  O2-  O267  1  0.41872849  0.54721757  0.06578892  1
  O2-  O268  1  0.41270400  0.54304610  0.40720317  1
  O2-  O269  1  0.41563974  0.55332771  0.72744287  1
  O2-  O270  1  0.92035930  0.04728709  0.05989246  1
  O2-  O271  1  0.92053754  0.04362339  0.40054965  1
  O2-  O272  1  0.92214294  0.04548479  0.73336708  1
  O2-  O273  1  0.91793552  0.54417294  0.06652766  1
  O2-  O274  1  0.92139610  0.54420237  0.40117199  1
  O2-  O275  1  0.91634285  0.55178193  0.72560160  1
  O2-  O276  1  0.28581011  0.16133897  0.06839136  1
  O2-  O277  1  0.28904062  0.16541959  0.40524650  1
  O2-  O278  1  0.29481213  0.16216591  0.72900504  1
  O2-  O279  1  0.29032078  0.67269291  0.06499302  1
  O2-  O280  1  0.28533491  0.66956222  0.40099216  1
  O2-  O281  1  0.29232167  0.66842376  0.72801780  1
  O2-  O282  1  0.80091388  0.16440353  0.06168918  1
  O2-  O283  1  0.78634059  0.16210914  0.40058827  1
  O2-  O284  1  0.78738901  0.16263374  0.73767727  1
  O2-  O285  1  0.79175348  0.66956920  0.06596419  1
  O2-  O286  1  0.79319514  0.67136907  0.40272931  1
  O2-  O287  1  0.79290766  0.66849619  0.72513931  1
