# generated using pymatgen
data_Ca2Al2SiO7
_symmetry_space_group_name_H-M   'P 1'
_cell_length_a   15.45640171
_cell_length_b   15.45638911
_cell_length_c   15.28238355
_cell_angle_alpha   89.98913403
_cell_angle_beta   90.01859057
_cell_angle_gamma   89.99925176
_symmetry_Int_Tables_number   1
_chemical_formula_structural   Ca2Al2SiO7
_chemical_formula_sum   'Ca48 Al48 Si24 O168'
_cell_volume   3650.96360108
_cell_formula_units_Z   24
loop_
 _symmetry_equiv_pos_site_id
 _symmetry_equiv_pos_as_xyz
  1  'x, y, z'
loop_
 _atom_type_symbol
 _atom_type_oxidation_number
  Ca2+  2.0
  Al0+  0.0
  Si0+  0.0
  O2-  -2.0
loop_
 _atom_site_type_symbol
 _atom_site_label
 _atom_site_symmetry_multiplicity
 _atom_site_fract_x
 _atom_site_fract_y
 _atom_site_fract_z
 _atom_site_occupancy
  Ca2+  Ca0  1  0.17227680  0.08998725  0.17105044  1
  Ca2+  Ca1  1  0.16858406  0.08601640  0.50626482  1
  Ca2+  Ca2  1  0.16332451  0.07794768  0.84130148  1
  Ca2+  Ca3  1  0.17286184  0.58361281  0.17050107  1
  Ca2+  Ca4  1  0.16869604  0.57832268  0.51255531  1
  Ca2+  Ca5  1  0.17413705  0.58367600  0.83572353  1
  Ca2+  Ca6  1  0.65905093  0.08277429  0.16937228  1
  Ca2+  Ca7  1  0.67306091  0.08376261  0.51030487  1
  Ca2+  Ca8  1  0.67044103  0.07689517  0.83887463  1
  Ca2+  Ca9  1  0.66405017  0.57970507  0.17441256  1
  Ca2+  Ca10  1  0.66143113  0.57139053  0.50275244  1
  Ca2+  Ca11  1  0.66521070  0.57594228  0.83755588  1
  Ca2+  Ca12  1  0.08007229  0.32173774  0.15884629  1
  Ca2+  Ca13  1  0.08295215  0.32630448  0.49885410  1
  Ca2+  Ca14  1  0.07631239  0.32542314  0.82394126  1
  Ca2+  Ca15  1  0.08745271  0.83096681  0.16468159  1
  Ca2+  Ca16  1  0.09264492  0.82322013  0.49995860  1
  Ca2+  Ca17  1  0.09253950  0.83196468  0.82489097  1
  Ca2+  Ca18  1  0.58088462  0.32447134  0.16637283  1
  Ca2+  Ca19  1  0.58012053  0.33295050  0.49080593  1
  Ca2+  Ca20  1  0.58416567  0.32799132  0.83045836  1
  Ca2+  Ca21  1  0.58546108  0.82367196  0.15701398  1
  Ca2+  Ca22  1  0.58448751  0.82834676  0.49486113  1
  Ca2+  Ca23  1  0.58721168  0.83203525  0.83115136  1
  Ca2+  Ca24  1  0.33977316  0.41938867  0.16961181  1
  Ca2+  Ca25  1  0.32933554  0.42109446  0.50759548  1
  Ca2+  Ca26  1  0.32715375  0.42573625  0.83341957  1
  Ca2+  Ca27  1  0.33035309  0.93103140  0.16549726  1
  Ca2+  Ca28  1  0.33012001  0.92600148  0.50348885  1
  Ca2+  Ca29  1  0.32044540  0.92174343  0.84043156  1
  Ca2+  Ca30  1  0.82844713  0.41229319  0.16969414  1
  Ca2+  Ca31  1  0.82205863  0.40921146  0.50630572  1
  Ca2+  Ca32  1  0.83389074  0.40799115  0.83321873  1
  Ca2+  Ca33  1  0.82689656  0.91661575  0.16713637  1
  Ca2+  Ca34  1  0.82655059  0.92491576  0.50968086  1
  Ca2+  Ca35  1  0.82714971  0.92283297  0.83455171  1
  Ca2+  Ca36  1  0.41934595  0.16636176  0.16422718  1
  Ca2+  Ca37  1  0.42091927  0.17499527  0.48724459  1
  Ca2+  Ca38  1  0.42160098  0.15547767  0.83510656  1
  Ca2+  Ca39  1  0.42824482  0.66337356  0.15989041  1
  Ca2+  Ca40  1  0.41841212  0.66824907  0.49522787  1
  Ca2+  Ca41  1  0.41572409  0.66208398  0.83129061  1
  Ca2+  Ca42  1  0.92686988  0.17152860  0.15873687  1
  Ca2+  Ca43  1  0.92527995  0.16455090  0.50226544  1
  Ca2+  Ca44  1  0.92356276  0.17188379  0.82673028  1
  Ca2+  Ca45  1  0.92340841  0.66610052  0.16455803  1
  Ca2+  Ca46  1  0.93025830  0.66475908  0.49841441  1
  Ca2+  Ca47  1  0.92476059  0.67157306  0.82576387  1
  Al0+  Al48  1  -0.00312773  -0.00176622  0.00222629  1
  Al0+  Al49  1  -0.00115217  -0.00185603  0.33022136  1
  Al0+  Al50  1  -0.00083934  0.00016155  0.66991304  1
  Al0+  Al51  1  -0.00080766  0.50125666  -0.00285610  1
  Al0+  Al52  1  0.00000669  0.50167635  0.32875213  1
  Al0+  Al53  1  -0.00159271  0.49898960  0.66139444  1
  Al0+  Al54  1  0.49807294  -0.00248206  0.00304551  1
  Al0+  Al55  1  0.49770432  -0.00047762  0.33634119  1
  Al0+  Al56  1  0.49982013  -0.00248845  0.66745499  1
  Al0+  Al57  1  0.50097034  0.49923673  -0.00077618  1
  Al0+  Al58  1  0.50023935  0.50102441  0.33078337  1
  Al0+  Al59  1  0.50144793  0.49952763  0.67445083  1
  Al0+  Al60  1  0.24998997  0.25154486  -0.00185747  1
  Al0+  Al61  1  0.25032565  0.25216839  0.33009928  1
  Al0+  Al62  1  0.25237703  0.25243901  0.66832228  1
  Al0+  Al63  1  0.25236825  0.74997539  0.01001040  1
  Al0+  Al64  1  0.25014376  0.75137024  0.32811072  1
  Al0+  Al65  1  0.25375930  0.75287045  0.66771919  1
  Al0+  Al66  1  0.74823312  0.24958048  -0.00588496  1
  Al0+  Al67  1  0.74965870  0.24911855  0.33472726  1
  Al0+  Al68  1  0.75061152  0.24942092  0.67187308  1
  Al0+  Al69  1  0.75106928  0.74758493  -0.00086433  1
  Al0+  Al70  1  0.75211445  0.74946280  0.33208730  1
  Al0+  Al71  1  0.74977218  0.74813551  0.66689974  1
  Al0+  Al72  1  0.17505757  0.92892388  0.01746809  1
  Al0+  Al73  1  0.57185706  0.67798277  0.98385356  1
  Al0+  Al74  1  0.82121798  0.07128778  0.68326103  1
  Al0+  Al75  1  0.56766170  0.17701618  0.98518602  1
  Al0+  Al76  1  0.57245661  0.17737517  0.32084727  1
  Al0+  Al77  1  0.67978767  0.42916947  0.68214065  1
  Al0+  Al78  1  0.68029711  0.43017328  0.34537145  1
  Al0+  Al79  1  0.92892497  0.32218662  0.98440772  1
  Al0+  Al80  1  0.07321376  0.17755284  0.65144244  1
  Al0+  Al81  1  0.32153580  0.56905879  0.01661166  1
  Al0+  Al82  1  0.07209745  0.67847456  0.31832988  1
  Al0+  Al83  1  0.07047461  0.17881942  0.32006778  1
  Al0+  Al84  1  0.18060538  0.93157779  0.67687319  1
  Al0+  Al85  1  0.32083995  0.57230700  0.68014197  1
  Al0+  Al86  1  0.42878239  0.32242352  0.31905582  1
  Al0+  Al87  1  0.31960380  0.07306250  0.34863325  1
  Al0+  Al88  1  0.57023942  0.68113140  0.32113580  1
  Al0+  Al89  1  0.92720221  0.32075420  0.64852868  1
  Al0+  Al90  1  0.07238347  0.17726254  0.98426386  1
  Al0+  Al91  1  0.31933736  0.07344771  0.01524601  1
  Al0+  Al92  1  0.68000050  0.92790629  0.01479938  1
  Al0+  Al93  1  0.07293440  0.68098528  0.65527052  1
  Al0+  Al94  1  0.67691425  0.92673793  0.68115586  1
  Al0+  Al95  1  0.17610453  0.42785071  0.68087510  1
  Si0+  Si96  1  0.92614803  0.82180916  0.65025393  1
  Si0+  Si97  1  0.56925630  0.17771065  0.65352409  1
  Si0+  Si98  1  0.17707849  0.92851069  0.35109282  1
  Si0+  Si99  1  0.32299444  0.07447399  0.68166486  1
  Si0+  Si100  1  0.67983541  0.42800359  0.01594287  1
  Si0+  Si101  1  0.32068205  0.57192535  0.34740720  1
  Si0+  Si102  1  0.07287196  0.68174686  0.98564722  1
  Si0+  Si103  1  0.92691658  0.32174665  0.31735094  1
  Si0+  Si104  1  0.92759193  0.81958306  0.98485617  1
  Si0+  Si105  1  0.82199289  0.57082910  0.01529853  1
  Si0+  Si106  1  0.92800336  0.82155312  0.31549186  1
  Si0+  Si107  1  0.17740797  0.43068345  0.34669736  1
  Si0+  Si108  1  0.17608097  0.43016669  0.01708356  1
  Si0+  Si109  1  0.42805654  0.32369487  0.98047310  1
  Si0+  Si110  1  0.67891643  0.92676688  0.34729957  1
  Si0+  Si111  1  0.43007678  0.82128798  0.65085905  1
  Si0+  Si112  1  0.42865326  0.81952865  0.98266847  1
  Si0+  Si113  1  0.82403390  0.57350077  0.35098959  1
  Si0+  Si114  1  0.82153770  0.06983687  0.34727742  1
  Si0+  Si115  1  0.57142954  0.67722570  0.65184808  1
  Si0+  Si116  1  0.43145320  0.32310424  0.65324216  1
  Si0+  Si117  1  0.81879666  0.07311681  0.01898249  1
  Si0+  Si118  1  0.82266132  0.57221072  0.68278751  1
  Si0+  Si119  1  0.42717876  0.82347426  0.31450828  1
  O2-  O120  1  0.24123288  0.00740833  0.06554910  1
  O2-  O121  1  0.24289081  -0.00015203  0.39525024  1
  O2-  O122  1  0.24794894  0.01223989  0.72395788  1
  O2-  O123  1  0.24723722  0.49473942  0.06450416  1
  O2-  O124  1  0.24757698  0.50324539  0.38917681  1
  O2-  O125  1  0.24509055  0.50385715  0.72953631  1
  O2-  O126  1  0.74965036  0.00542126  0.06504956  1
  O2-  O127  1  0.74601220  0.00191037  0.38848097  1
  O2-  O128  1  0.74798162  -0.00116552  0.73110058  1
  O2-  O129  1  0.75231432  0.49835699  0.05708059  1
  O2-  O130  1  0.75548508  0.50423711  0.39390541  1
  O2-  O131  1  0.75635230  0.50226345  0.72846861  1
  O2-  O132  1  -0.00374835  0.25414171  0.27345753  1
  O2-  O133  1  0.00221195  0.25066471  0.60018036  1
  O2-  O134  1  0.00146412  0.25075812  0.93551588  1
  O2-  O135  1  -0.00260938  0.75311626  0.27173281  1
  O2-  O136  1  -0.00214996  0.75543860  0.60688101  1
  O2-  O137  1  0.00588260  0.75622055  0.94324314  1
  O2-  O138  1  0.49907409  0.24777288  0.27065361  1
  O2-  O139  1  0.49868474  0.24850555  0.61090125  1
  O2-  O140  1  0.49142210  0.24959577  0.93666736  1
  O2-  O141  1  0.49868781  0.75692010  0.27147275  1
  O2-  O142  1  0.50258351  0.75043646  0.60971015  1
  O2-  O143  1  0.49728849  0.75183473  0.93608536  1
  O2-  O144  1  0.06977333  0.17989990  0.09855773  1
  O2-  O145  1  0.06945849  0.17850295  0.43283756  1
  O2-  O146  1  0.07202229  0.17669940  0.76440635  1
  O2-  O147  1  0.06935638  0.68023349  0.09097242  1
  O2-  O148  1  0.07320258  0.67903376  0.43141822  1
  O2-  O149  1  0.07249124  0.68411447  0.76863681  1
  O2-  O150  1  0.56917922  0.18014742  0.09811792  1
  O2-  O151  1  0.57318231  0.17912567  0.43502352  1
  O2-  O152  1  0.56636927  0.17640357  0.75856475  1
  O2-  O153  1  0.57227685  0.67870729  0.09729254  1
  O2-  O154  1  0.56773069  0.68143994  0.43468094  1
  O2-  O155  1  0.57118461  0.67709571  0.75668677  1
  O2-  O156  1  0.17658917  0.43294150  0.24159320  1
  O2-  O157  1  0.18059541  0.42851958  0.56640788  1
  O2-  O158  1  0.17500236  0.43495191  0.91190018  1
  O2-  O159  1  0.17814887  0.92782239  0.24585927  1
  O2-  O160  1  0.18592849  0.92773003  0.56377003  1
  O2-  O161  1  0.17921630  0.92498142  0.90381853  1
  O2-  O162  1  0.68229178  0.43123721  0.23212639  1
  O2-  O163  1  0.67604612  0.43145124  0.56879139  1
  O2-  O164  1  0.67939048  0.42969623  0.91087410  1
  O2-  O165  1  0.68183685  0.92383564  0.24232166  1
  O2-  O166  1  0.67726187  0.92790257  0.56671569  1
  O2-  O167  1  0.68412619  0.92717261  0.90217906  1
  O2-  O168  1  0.43261591  0.32716474  0.08599275  1
  O2-  O169  1  0.43026797  0.32395479  0.43331203  1
  O2-  O170  1  0.43364989  0.32493399  0.75800444  1
  O2-  O171  1  0.43138379  0.81743023  0.08842133  1
  O2-  O172  1  0.42646792  0.82145068  0.42066767  1
  O2-  O173  1  0.42886469  0.82234980  0.75537525  1
  O2-  O174  1  0.92918764  0.32160671  0.09885019  1
  O2-  O175  1  0.92633414  0.32155106  0.42246344  1
  O2-  O176  1  0.92780403  0.31850215  0.76174181  1
  O2-  O177  1  0.92400867  0.81459756  0.09008060  1
  O2-  O178  1  0.92581676  0.82178482  0.42079999  1
  O2-  O179  1  0.92363602  0.81807427  0.75589953  1
  O2-  O180  1  0.32000692  0.07143665  0.23614856  1
  O2-  O181  1  0.32641986  0.07200101  0.57589173  1
  O2-  O182  1  0.32146075  0.06712691  0.90140924  1
  O2-  O183  1  0.32073426  0.57024167  0.24235678  1
  O2-  O184  1  0.32285304  0.57082248  0.56586233  1
  O2-  O185  1  0.31891310  0.56958532  0.90380271  1
  O2-  O186  1  0.82290971  0.06794313  0.24234946  1
  O2-  O187  1  0.81861022  0.06965376  0.56849128  1
  O2-  O188  1  0.81798345  0.07079086  0.91379601  1
  O2-  O189  1  0.82405572  0.57420143  0.24506561  1
  O2-  O190  1  0.81927103  0.57520713  0.57718808  1
  O2-  O191  1  0.82246389  0.57349089  0.91053123  1
  O2-  O192  1  0.03987996  0.08177514  0.26688099  1
  O2-  O193  1  0.04273095  0.07847911  0.59908818  1
  O2-  O194  1  0.04213551  0.07716053  0.93591605  1
  O2-  O195  1  0.04012345  0.58354783  0.26098818  1
  O2-  O196  1  0.04207945  0.58539010  0.59942652  1
  O2-  O197  1  0.04129444  0.59150550  0.93810724  1
  O2-  O198  1  0.54551885  0.07746688  0.27056263  1
  O2-  O199  1  0.54322029  0.08518149  0.60591813  1
  O2-  O200  1  0.53835740  0.07897281  0.93259098  1
  O2-  O201  1  0.53797662  0.58641901  0.26534697  1
  O2-  O202  1  0.54016438  0.58580173  0.60551746  1
  O2-  O203  1  0.54078259  0.58119362  0.93098582  1
  O2-  O204  1  0.16560915  0.21177858  0.26582454  1
  O2-  O205  1  0.17379972  0.20589203  0.60091164  1
  O2-  O206  1  0.17206219  0.20243772  0.93304351  1
  O2-  O207  1  0.16782237  0.70950052  0.26272297  1
  O2-  O208  1  0.16938149  0.71354029  0.60088142  1
  O2-  O209  1  0.16702677  0.70673655  0.94263752  1
  O2-  O210  1  0.67044520  0.20577861  0.26673595  1
  O2-  O211  1  0.66183236  0.20560724  0.60908488  1
  O2-  O212  1  0.66306726  0.20965478  0.93029635  1
  O2-  O213  1  0.66884580  0.70764228  0.26855430  1
  O2-  O214  1  0.66380399  0.70212381  0.60371223  1
  O2-  O215  1  0.66909193  0.70805069  0.93099560  1
  O2-  O216  1  0.08351583  0.45991246  0.06396437  1
  O2-  O217  1  0.08495907  0.45838507  0.39326972  1
  O2-  O218  1  0.07583123  0.45269539  0.73004628  1
  O2-  O219  1  0.07288107  0.94613105  0.06798641  1
  O2-  O220  1  0.08093222  0.94828944  0.39430048  1
  O2-  O221  1  0.08166122  0.95050902  0.73022165  1
  O2-  O222  1  0.58892946  0.45792475  0.06287415  1
  O2-  O223  1  0.58399485  0.46410169  0.39936679  1
  O2-  O224  1  0.58649835  0.46320111  0.74002222  1
  O2-  O225  1  0.58182246  0.95282566  0.06749903  1
  O2-  O226  1  0.58500645  0.94746574  0.39326218  1
  O2-  O227  1  0.57837155  0.95342190  0.73427299  1
  O2-  O228  1  0.19854574  0.33489786  0.06043736  1
  O2-  O229  1  0.20597219  0.33957728  0.39397175  1
  O2-  O230  1  0.20997938  0.33233215  0.73634617  1
  O2-  O231  1  0.21002614  0.83337244  0.07327789  1
  O2-  O232  1  0.20774095  0.83470336  0.39543756  1
  O2-  O233  1  0.21827733  0.83853061  0.73344148  1
  O2-  O234  1  0.70739325  0.33569370  0.06233786  1
  O2-  O235  1  0.70924807  0.33311106  0.40037621  1
  O2-  O236  1  0.70750088  0.33283452  0.73679660  1
  O2-  O237  1  0.71616034  0.83171071  0.06801445  1
  O2-  O238  1  0.71128713  0.83658335  0.39633253  1
  O2-  O239  1  0.70459229  0.82738507  0.73217313  1
  O2-  O240  1  0.45993387  0.41907160  0.26421822  1
  O2-  O241  1  0.46348228  0.41395992  0.60573461  1
  O2-  O242  1  0.46109841  0.41418280  0.93255318  1
  O2-  O243  1  0.45123724  0.91754932  0.27020473  1
  O2-  O244  1  0.45821199  0.91230709  0.60035366  1
  O2-  O245  1  0.45293048  0.91290829  0.93667897  1
  O2-  O246  1  0.94976539  0.41634792  0.27158014  1
  O2-  O247  1  0.94888661  0.42078279  0.59525562  1
  O2-  O248  1  0.95434629  0.42213562  0.93199173  1
  O2-  O249  1  0.95278292  0.91384333  0.26638753  1
  O2-  O250  1  0.94826552  0.91631152  0.60581678  1
  O2-  O251  1  0.94550265  0.91425194  0.94016107  1
  O2-  O252  1  0.33067138  0.29802748  0.26438542  1
  O2-  O253  1  0.33856652  0.30018049  0.60572439  1
  O2-  O254  1  0.33183869  0.30629447  0.93741264  1
  O2-  O255  1  0.33512667  0.79672090  0.26696114  1
  O2-  O256  1  0.34087596  0.79185550  0.59923430  1
  O2-  O257  1  0.33440199  0.79094461  0.93928489  1
  O2-  O258  1  0.83429917  0.29413655  0.27053388  1
  O2-  O259  1  0.82788129  0.28867254  0.59776402  1
  O2-  O260  1  0.83031336  0.29475201  0.93223719  1
  O2-  O261  1  0.83568182  0.79391753  0.26701416  1
  O2-  O262  1  0.83389608  0.79277796  0.60157074  1
  O2-  O263  1  0.84048031  0.78326023  0.93422955  1
  O2-  O264  1  0.41516612  0.03744836  0.06985648  1
  O2-  O265  1  0.41565534  0.03994762  0.40455588  1
  O2-  O266  1  0.41332571  0.03976041  0.72883125  1
  O2-  O267  1  0.41917617  0.53714977  0.06892049  1
  O2-  O268  1  0.41199535  0.54355858  0.39498597  1
  O2-  O269  1  0.41662371  0.54032525  0.73597644  1
  O2-  O270  1  0.91154721  0.04496276  0.06566855  1
  O2-  O271  1  0.91135282  0.03669902  0.39610065  1
  O2-  O272  1  0.91793136  0.04140167  0.73764907  1
  O2-  O273  1  0.91416728  0.54456352  0.06410217  1
  O2-  O274  1  0.91863692  0.54849402  0.39562293  1
  O2-  O275  1  0.91726997  0.55020715  0.72762570  1
  O2-  O276  1  0.29999995  0.17543123  0.06548915  1
  O2-  O277  1  0.29154542  0.17151781  0.40072995  1
  O2-  O278  1  0.30829698  0.17007143  0.72632562  1
  O2-  O279  1  0.29249672  0.66444070  0.07332311  1
  O2-  O280  1  0.29525005  0.66595628  0.39189155  1
  O2-  O281  1  0.29666782  0.67119388  0.73327456  1
  O2-  O282  1  0.79292159  0.16745566  0.06321623  1
  O2-  O283  1  0.79705412  0.16201787  0.39509484  1
  O2-  O284  1  0.79145268  0.16739625  0.73791693  1
  O2-  O285  1  0.79258458  0.66086706  0.06528119  1
  O2-  O286  1  0.79937477  0.66736086  0.39708255  1
  O2-  O287  1  0.79556390  0.66469115  0.73081314  1
