# generated using pymatgen
data_Ca2Al2SiO7
_symmetry_space_group_name_H-M   'P 1'
_cell_length_a   15.45800187
_cell_length_b   15.45895553
_cell_length_c   15.28339691
_cell_angle_alpha   89.98197365
_cell_angle_beta   90.00281835
_cell_angle_gamma   90.00394924
_symmetry_Int_Tables_number   1
_chemical_formula_structural   Ca2Al2SiO7
_chemical_formula_sum   'Ca48 Al48 Si24 O168'
_cell_volume   3652.19007744
_cell_formula_units_Z   24
loop_
 _symmetry_equiv_pos_site_id
 _symmetry_equiv_pos_as_xyz
  1  'x, y, z'
loop_
 _atom_type_symbol
 _atom_type_oxidation_number
  Ca2+  2.0
  Al0+  0.0
  Si0+  0.0
  O2-  -2.0
loop_
 _atom_site_type_symbol
 _atom_site_label
 _atom_site_symmetry_multiplicity
 _atom_site_fract_x
 _atom_site_fract_y
 _atom_site_fract_z
 _atom_site_occupancy
  Ca2+  Ca0  1  0.18304840  0.08639972  0.17049919  1
  Ca2+  Ca1  1  0.17184935  0.08260341  0.50615000  1
  Ca2+  Ca2  1  0.16806021  0.08003421  0.83630388  1
  Ca2+  Ca3  1  0.17433512  0.57712060  0.17298227  1
  Ca2+  Ca4  1  0.17174004  0.58096959  0.49760242  1
  Ca2+  Ca5  1  0.17471286  0.57572440  0.84847329  1
  Ca2+  Ca6  1  0.67179433  0.09527423  0.17231701  1
  Ca2+  Ca7  1  0.67522923  0.08645685  0.50649348  1
  Ca2+  Ca8  1  0.67318986  0.08532219  0.84099759  1
  Ca2+  Ca9  1  0.66763722  0.58998467  0.16905733  1
  Ca2+  Ca10  1  0.65711091  0.57969123  0.50730992  1
  Ca2+  Ca11  1  0.66410778  0.58064426  0.83835141  1
  Ca2+  Ca12  1  0.08661028  0.33976532  0.16323463  1
  Ca2+  Ca13  1  0.08216028  0.32970902  0.49657690  1
  Ca2+  Ca14  1  0.08359631  0.32777398  0.82922682  1
  Ca2+  Ca15  1  0.08703678  0.81920658  0.16272916  1
  Ca2+  Ca16  1  0.08521024  0.83142565  0.49483694  1
  Ca2+  Ca17  1  0.08565504  0.82959442  0.82870558  1
  Ca2+  Ca18  1  0.56867794  0.32394942  0.16252430  1
  Ca2+  Ca19  1  0.57351746  0.33321327  0.49437024  1
  Ca2+  Ca20  1  0.57200542  0.33373794  0.82992406  1
  Ca2+  Ca21  1  0.58243136  0.82348587  0.16276649  1
  Ca2+  Ca22  1  0.59270241  0.82361105  0.49851550  1
  Ca2+  Ca23  1  0.58871867  0.82383584  0.83027477  1
  Ca2+  Ca24  1  0.32953531  0.41904065  0.17034562  1
  Ca2+  Ca25  1  0.33886484  0.41715513  0.49771630  1
  Ca2+  Ca26  1  0.33156309  0.41584493  0.84175067  1
  Ca2+  Ca27  1  0.34124151  0.92911543  0.16844358  1
  Ca2+  Ca28  1  0.32962893  0.92259785  0.50246482  1
  Ca2+  Ca29  1  0.32765479  0.92093362  0.83781264  1
  Ca2+  Ca30  1  0.83150705  0.42304292  0.16684923  1
  Ca2+  Ca31  1  0.82168215  0.42024665  0.50615554  1
  Ca2+  Ca32  1  0.82299854  0.42005540  0.83855455  1
  Ca2+  Ca33  1  0.83074342  0.92770687  0.16985117  1
  Ca2+  Ca34  1  0.82692883  0.92609173  0.50689852  1
  Ca2+  Ca35  1  0.82779929  0.92561495  0.83406517  1
  Ca2+  Ca36  1  0.41746109  0.17156445  0.15810035  1
  Ca2+  Ca37  1  0.42029404  0.17711218  0.48902348  1
  Ca2+  Ca38  1  0.41192336  0.17784251  0.83158229  1
  Ca2+  Ca39  1  0.42230686  0.65767724  0.16206854  1
  Ca2+  Ca40  1  0.42544121  0.66705504  0.49316477  1
  Ca2+  Ca41  1  0.42638046  0.65908343  0.83127320  1
  Ca2+  Ca42  1  0.91482193  0.16560748  0.16258526  1
  Ca2+  Ca43  1  0.91944783  0.15757886  0.49895920  1
  Ca2+  Ca44  1  0.92014859  0.15945209  0.82817310  1
  Ca2+  Ca45  1  0.92844787  0.66078918  0.15852668  1
  Ca2+  Ca46  1  0.92414600  0.67121911  0.49089867  1
  Ca2+  Ca47  1  0.92155723  0.66151701  0.83450684  1
  Al0+  Al48  1  -0.00286711  -0.00204129  0.00498540  1
  Al0+  Al49  1  -0.00178372  0.00060355  0.33476018  1
  Al0+  Al50  1  0.00193704  -0.00157885  0.66909518  1
  Al0+  Al51  1  -0.00231999  0.49902418  0.00002595  1
  Al0+  Al52  1  0.00030844  0.49975234  0.33499085  1
  Al0+  Al53  1  0.00139980  0.49856846  0.66415660  1
  Al0+  Al54  1  0.50110787  -0.00224596  -0.00132576  1
  Al0+  Al55  1  0.50311865  -0.00213428  0.33681256  1
  Al0+  Al56  1  0.49987141  -0.00026787  0.67062677  1
  Al0+  Al57  1  0.49910603  0.49785744  -0.00390004  1
  Al0+  Al58  1  0.49933907  0.49923521  0.32795363  1
  Al0+  Al59  1  0.50012984  0.50024574  0.66289042  1
  Al0+  Al60  1  0.24792806  0.24794275  0.00274066  1
  Al0+  Al61  1  0.24750765  0.25030790  0.33832498  1
  Al0+  Al62  1  0.24868571  0.25197045  0.65690993  1
  Al0+  Al63  1  0.25008699  0.74830832  -0.00162065  1
  Al0+  Al64  1  0.25087496  0.74939753  0.33217700  1
  Al0+  Al65  1  0.25264114  0.75041823  0.67012062  1
  Al0+  Al66  1  0.74992755  0.25049159  0.00077063  1
  Al0+  Al67  1  0.75161525  0.25241965  0.33581715  1
  Al0+  Al68  1  0.74995294  0.25395038  0.67629308  1
  Al0+  Al69  1  0.75133776  0.75108731  -0.00004560  1
  Al0+  Al70  1  0.75210418  0.75256938  0.32860441  1
  Al0+  Al71  1  0.75367194  0.75121147  0.66547305  1
  Al0+  Al72  1  0.57091041  0.68236413  0.65367389  1
  Al0+  Al73  1  0.42605790  0.31896118  0.31591663  1
  Al0+  Al74  1  0.32304659  0.57091748  0.01427626  1
  Al0+  Al75  1  0.07109736  0.67900437  0.31954781  1
  Al0+  Al76  1  0.57252074  0.17743929  0.98384578  1
  Al0+  Al77  1  0.42640879  0.31836046  0.98408864  1
  Al0+  Al78  1  0.81996905  0.07148065  0.68294035  1
  Al0+  Al79  1  0.06801037  0.17854162  0.65312417  1
  Al0+  Al80  1  0.32347820  0.07129727  0.34771055  1
  Al0+  Al81  1  0.81958119  0.07269867  0.34872341  1
  Al0+  Al82  1  0.67739496  0.92662340  0.68267212  1
  Al0+  Al83  1  0.18108901  0.92856922  0.67980942  1
  Al0+  Al84  1  0.07091655  0.67798849  0.98482737  1
  Al0+  Al85  1  0.57101455  0.67930145  0.31904398  1
  Al0+  Al86  1  0.81944308  0.07147667  0.01599325  1
  Al0+  Al87  1  0.42962151  0.32027585  0.65041687  1
  Al0+  Al88  1  0.32025341  0.06874026  0.01098754  1
  Al0+  Al89  1  0.32309490  0.57125788  0.35006005  1
  Al0+  Al90  1  0.67697283  0.43221533  0.68076342  1
  Al0+  Al91  1  0.17709754  0.42923701  0.35227247  1
  Al0+  Al92  1  0.57299959  0.17795749  0.32167884  1
  Al0+  Al93  1  0.17798776  0.42754919  0.01326780  1
  Al0+  Al94  1  0.57090260  0.67962926  0.98569229  1
  Al0+  Al95  1  0.81862601  0.57133231  0.01303253  1
  Si0+  Si96  1  0.32090786  0.07550976  0.68181466  1
  Si0+  Si97  1  0.07386505  0.67756747  0.65190870  1
  Si0+  Si98  1  0.42576866  0.82378656  0.65016155  1
  Si0+  Si99  1  0.06928265  0.17769198  0.31788175  1
  Si0+  Si100  1  0.82540857  0.57236671  0.68144265  1
  Si0+  Si101  1  0.06878489  0.17708851  0.98769020  1
  Si0+  Si102  1  0.93213180  0.82017520  0.65089755  1
  Si0+  Si103  1  0.32017146  0.56995483  0.68115787  1
  Si0+  Si104  1  0.67808073  0.92731712  0.01846512  1
  Si0+  Si105  1  0.17794981  0.42892513  0.68126082  1
  Si0+  Si106  1  0.17630709  0.92642525  0.01750510  1
  Si0+  Si107  1  0.92908038  0.32149146  0.31870046  1
  Si0+  Si108  1  0.57404204  0.17733205  0.65270441  1
  Si0+  Si109  1  0.42712035  0.82262897  0.31699064  1
  Si0+  Si110  1  0.67952708  0.92530444  0.35042814  1
  Si0+  Si111  1  0.42718689  0.82323963  0.98201625  1
  Si0+  Si112  1  0.68052827  0.43206084  0.34651403  1
  Si0+  Si113  1  0.92799012  0.32130627  0.98477093  1
  Si0+  Si114  1  0.67681927  0.42821214  0.01843800  1
  Si0+  Si115  1  0.82167602  0.57321094  0.34743999  1
  Si0+  Si116  1  0.92912509  0.82359230  0.31451410  1
  Si0+  Si117  1  0.92630417  0.32360804  0.64992156  1
  Si0+  Si118  1  0.17851049  0.92908178  0.34779805  1
  Si0+  Si119  1  0.92953587  0.82261030  0.98114298  1
  O2-  O120  1  0.24718867  -0.00696185  0.06051246  1
  O2-  O121  1  0.24726705  -0.00317085  0.39312054  1
  O2-  O122  1  0.25535548  0.00355893  0.72624852  1
  O2-  O123  1  0.24927073  0.50004217  0.06281447  1
  O2-  O124  1  0.25193103  0.49885234  0.40193724  1
  O2-  O125  1  0.24713970  0.50091310  0.72303080  1
  O2-  O126  1  0.74074414  0.00155664  0.06311230  1
  O2-  O127  1  0.74251756  0.00000254  0.39345603  1
  O2-  O128  1  0.74287324  0.00479023  0.73288675  1
  O2-  O129  1  0.74157396  0.50106951  0.06289678  1
  O2-  O130  1  0.74617535  0.50827115  0.39034847  1
  O2-  O131  1  0.75385380  0.50666625  0.72478244  1
  O2-  O132  1  0.00034921  0.25088140  0.27591963  1
  O2-  O133  1  -0.00966790  0.25058711  0.60570752  1
  O2-  O134  1  -0.00198968  0.24811821  0.94459414  1
  O2-  O135  1  -0.00292443  0.75390819  0.27147493  1
  O2-  O136  1  0.00252419  0.74785809  0.60885357  1
  O2-  O137  1  -0.00150242  0.75424765  0.93606735  1
  O2-  O138  1  0.49400074  0.24081756  0.26976012  1
  O2-  O139  1  0.50312978  0.24252879  0.60679069  1
  O2-  O140  1  0.49865287  0.24681607  0.93306416  1
  O2-  O141  1  0.49431016  0.75209152  0.27325951  1
  O2-  O142  1  0.50008584  0.76070984  0.60643718  1
  O2-  O143  1  0.49348342  0.75151760  0.93872767  1
  O2-  O144  1  0.06764983  0.17669232  0.09286512  1
  O2-  O145  1  0.06654478  0.17514806  0.42296930  1
  O2-  O146  1  0.06908499  0.18066262  0.76673731  1
  O2-  O147  1  0.06882058  0.67881944  0.09779967  1
  O2-  O148  1  0.06820731  0.68184900  0.43353225  1
  O2-  O149  1  0.07198375  0.67688921  0.75675784  1
  O2-  O150  1  0.57274923  0.18081892  0.09744622  1
  O2-  O151  1  0.57567381  0.18336341  0.43556967  1
  O2-  O152  1  0.57285789  0.17982526  0.75794867  1
  O2-  O153  1  0.57213253  0.68318084  0.09878569  1
  O2-  O154  1  0.57304549  0.68163136  0.43241024  1
  O2-  O155  1  0.56906191  0.68079346  0.76649619  1
  O2-  O156  1  0.17270194  0.43225294  0.23926243  1
  O2-  O157  1  0.17462364  0.43119890  0.57670543  1
  O2-  O158  1  0.17758677  0.42716534  0.89877215  1
  O2-  O159  1  0.17741281  0.93095294  0.24230910  1
  O2-  O160  1  0.18196786  0.92758282  0.56659252  1
  O2-  O161  1  0.17491443  0.92898163  0.91155971  1
  O2-  O162  1  0.68535985  0.43131403  0.24176820  1
  O2-  O163  1  0.67801200  0.43427959  0.56691815  1
  O2-  O164  1  0.67980361  0.42921600  0.91261285  1
  O2-  O165  1  0.68301212  0.91973693  0.24525323  1
  O2-  O166  1  0.68370408  0.92355804  0.56912560  1
  O2-  O167  1  0.68212861  0.92494599  0.91308964  1
  O2-  O168  1  0.42537890  0.31672621  0.09717268  1
  O2-  O169  1  0.43166569  0.32047533  0.42990448  1
  O2-  O170  1  0.42679084  0.32070043  0.76319594  1
  O2-  O171  1  0.42930808  0.82657605  0.08755453  1
  O2-  O172  1  0.42623572  0.82265063  0.42271459  1
  O2-  O173  1  0.41998125  0.81930649  0.75523828  1
  O2-  O174  1  0.92723034  0.32186667  0.09018362  1
  O2-  O175  1  0.92793896  0.32200077  0.42374179  1
  O2-  O176  1  0.93079054  0.32884832  0.75523692  1
  O2-  O177  1  0.93150110  0.82352762  0.08671662  1
  O2-  O178  1  0.92916088  0.82259623  0.42052747  1
  O2-  O179  1  0.93300553  0.81967969  0.75581503  1
  O2-  O180  1  0.32150302  0.06961448  0.23438761  1
  O2-  O181  1  0.31837855  0.07404019  0.57613861  1
  O2-  O182  1  0.31473476  0.06895834  0.89778725  1
  O2-  O183  1  0.32192362  0.57122552  0.23710178  1
  O2-  O184  1  0.31904171  0.57152948  0.57627393  1
  O2-  O185  1  0.32127195  0.56979348  0.89976766  1
  O2-  O186  1  0.82106311  0.07138156  0.23572593  1
  O2-  O187  1  0.82073121  0.06864341  0.56911471  1
  O2-  O188  1  0.82343090  0.06832137  0.90339139  1
  O2-  O189  1  0.82314461  0.57042577  0.24255370  1
  O2-  O190  1  0.82850407  0.57070665  0.57541187  1
  O2-  O191  1  0.81965578  0.56784504  0.89972791  1
  O2-  O192  1  0.03927182  0.08690418  0.26962695  1
  O2-  O193  1  0.04011932  0.08076909  0.59920091  1
  O2-  O194  1  0.03975057  0.08480005  0.94113850  1
  O2-  O195  1  0.03611197  0.58326088  0.26731192  1
  O2-  O196  1  0.04630678  0.58579510  0.60385218  1
  O2-  O197  1  0.03561459  0.58240813  0.93070499  1
  O2-  O198  1  0.55751039  0.07451520  0.27448441  1
  O2-  O199  1  0.55420483  0.08094279  0.60919247  1
  O2-  O200  1  0.55038094  0.07618352  0.93443994  1
  O2-  O201  1  0.54453830  0.58261084  0.26448985  1
  O2-  O202  1  0.53553123  0.58791881  0.59858682  1
  O2-  O203  1  0.54341469  0.58196347  0.93216648  1
  O2-  O204  1  0.16180556  0.20405001  0.27219836  1
  O2-  O205  1  0.16176823  0.21189967  0.59543632  1
  O2-  O206  1  0.15965973  0.20389139  0.93880567  1
  O2-  O207  1  0.16745233  0.70963520  0.26559139  1
  O2-  O208  1  0.16576882  0.70726299  0.60609617  1
  O2-  O209  1  0.16796729  0.70690284  0.93033976  1
  O2-  O210  1  0.66940997  0.21485789  0.26875138  1
  O2-  O211  1  0.66851738  0.20624258  0.60974013  1
  O2-  O212  1  0.67119245  0.20856184  0.93217493  1
  O2-  O213  1  0.66826767  0.71125687  0.26571832  1
  O2-  O214  1  0.67054496  0.70733482  0.60090764  1
  O2-  O215  1  0.66799802  0.71216488  0.93274885  1
  O2-  O216  1  0.07876804  0.45477129  0.06460097  1
  O2-  O217  1  0.07884783  0.46083981  0.40645938  1
  O2-  O218  1  0.08520555  0.45443573  0.72875840  1
  O2-  O219  1  0.08374798  0.95247071  0.06473051  1
  O2-  O220  1  0.08489411  0.95506555  0.39443378  1
  O2-  O221  1  0.08549908  0.95804231  0.73569698  1
  O2-  O222  1  0.58196227  0.44955106  0.06163187  1
  O2-  O223  1  0.58760411  0.45639419  0.39237354  1
  O2-  O224  1  0.58185678  0.46615297  0.73517555  1
  O2-  O225  1  0.58208133  0.94440954  0.06199270  1
  O2-  O226  1  0.58427147  0.94093422  0.39615504  1
  O2-  O227  1  0.57526911  0.94333612  0.73284797  1
  O2-  O228  1  0.20273224  0.32904795  0.06713824  1
  O2-  O229  1  0.19960372  0.32924307  0.40431089  1
  O2-  O230  1  0.20678026  0.33628758  0.72572924  1
  O2-  O231  1  0.20060439  0.83190680  0.06113284  1
  O2-  O232  1  0.20292901  0.83530576  0.39399473  1
  O2-  O233  1  0.21157420  0.83253522  0.73650621  1
  O2-  O234  1  0.70943817  0.33736300  0.06513444  1
  O2-  O235  1  0.71498703  0.34399015  0.39720081  1
  O2-  O236  1  0.70702292  0.33804820  0.73920142  1
  O2-  O237  1  0.71126069  0.83678362  0.06651797  1
  O2-  O238  1  0.71421298  0.83476239  0.39917915  1
  O2-  O239  1  0.71488621  0.83060415  0.73626476  1
  O2-  O240  1  0.45970613  0.41535886  0.26314518  1
  O2-  O241  1  0.46434778  0.41544529  0.59596131  1
  O2-  O242  1  0.45534311  0.41632201  0.93023769  1
  O2-  O243  1  0.45657488  0.91505957  0.27010706  1
  O2-  O244  1  0.44413267  0.92045094  0.60699063  1
  O2-  O245  1  0.45455694  0.91468315  0.93240184  1
  O2-  O246  1  0.95622719  0.41335644  0.27076198  1
  O2-  O247  1  0.95641059  0.41493538  0.59974716  1
  O2-  O248  1  0.95592792  0.41139356  0.93455048  1
  O2-  O249  1  0.95583251  0.91700490  0.26842717  1
  O2-  O250  1  0.96262478  0.91042250  0.60225864  1
  O2-  O251  1  0.95642569  0.91609764  0.93469079  1
  O2-  O252  1  0.32440752  0.29528401  0.26862097  1
  O2-  O253  1  0.33322327  0.29298483  0.59435550  1
  O2-  O254  1  0.32745551  0.28740017  0.93149213  1
  O2-  O255  1  0.33310824  0.80151475  0.27016698  1
  O2-  O256  1  0.33480360  0.79193354  0.60078935  1
  O2-  O257  1  0.33201684  0.80143501  0.93724727  1
  O2-  O258  1  0.83852178  0.29330774  0.26950348  1
  O2-  O259  1  0.82998235  0.30350123  0.60733230  1
  O2-  O260  1  0.83650441  0.29450343  0.93671365  1
  O2-  O261  1  0.83645515  0.79917965  0.26682033  1
  O2-  O262  1  0.84149256  0.79296117  0.60059430  1
  O2-  O263  1  0.83646639  0.79603606  0.93524898  1
  O2-  O264  1  0.41745075  0.03875310  0.06447590  1
  O2-  O265  1  0.41986530  0.04055739  0.40250041  1
  O2-  O266  1  0.41593469  0.05554580  0.72654869  1
  O2-  O267  1  0.42165018  0.54222940  0.06570189  1
  O2-  O268  1  0.42290984  0.54252163  0.40144827  1
  O2-  O269  1  0.41121992  0.53906065  0.72698573  1
  O2-  O270  1  0.91462862  0.03696260  0.07183918  1
  O2-  O271  1  0.91573533  0.03814915  0.40243262  1
  O2-  O272  1  0.91714531  0.03617249  0.73440002  1
  O2-  O273  1  0.91301966  0.53536637  0.06809304  1
  O2-  O274  1  0.91055286  0.54102882  0.39756422  1
  O2-  O275  1  0.91813066  0.54300127  0.72835040  1
  O2-  O276  1  0.28550045  0.16218091  0.06788049  1
  O2-  O277  1  0.28976376  0.16590695  0.40261126  1
  O2-  O278  1  0.28860193  0.16802359  0.72587060  1
  O2-  O279  1  0.29737730  0.67100437  0.06504054  1
  O2-  O280  1  0.29366004  0.67064659  0.40219147  1
  O2-  O281  1  0.29500704  0.66177425  0.72947634  1
  O2-  O282  1  0.79418287  0.17033383  0.06848068  1
  O2-  O283  1  0.79357393  0.17054988  0.40302316  1
  O2-  O284  1  0.80148919  0.17238180  0.73472057  1
  O2-  O285  1  0.79407281  0.66941889  0.06699822  1
  O2-  O286  1  0.80022977  0.66804809  0.39176778  1
  O2-  O287  1  0.80490648  0.66714622  0.72552542  1
