# generated using pymatgen
data_Ca2Al2SiO7
_symmetry_space_group_name_H-M   'P 1'
_cell_length_a   15.45980277
_cell_length_b   15.45989823
_cell_length_c   15.28503373
_cell_angle_alpha   89.98483732
_cell_angle_beta   90.00406307
_cell_angle_gamma   90.01259302
_symmetry_Int_Tables_number   1
_chemical_formula_structural   Ca2Al2SiO7
_chemical_formula_sum   'Ca48 Al48 Si24 O168'
_cell_volume   3653.22948779
_cell_formula_units_Z   24
loop_
 _symmetry_equiv_pos_site_id
 _symmetry_equiv_pos_as_xyz
  1  'x, y, z'
loop_
 _atom_type_symbol
 _atom_type_oxidation_number
  Ca2+  2.0
  Al0+  0.0
  Si0+  0.0
  O2-  -2.0
loop_
 _atom_site_type_symbol
 _atom_site_label
 _atom_site_symmetry_multiplicity
 _atom_site_fract_x
 _atom_site_fract_y
 _atom_site_fract_z
 _atom_site_occupancy
  Ca2+  Ca0  1  0.16241150  0.07533777  0.16937279  1
  Ca2+  Ca1  1  0.16645358  0.07273638  0.51034430  1
  Ca2+  Ca2  1  0.16791494  0.08271743  0.84139102  1
  Ca2+  Ca3  1  0.17760988  0.58933880  0.17420325  1
  Ca2+  Ca4  1  0.17400904  0.58934403  0.50655140  1
  Ca2+  Ca5  1  0.17514208  0.58401684  0.83271983  1
  Ca2+  Ca6  1  0.67650450  0.08256939  0.17907600  1
  Ca2+  Ca7  1  0.66829859  0.09167770  0.49951706  1
  Ca2+  Ca8  1  0.67237635  0.08945126  0.83600507  1
  Ca2+  Ca9  1  0.66744247  0.57652217  0.17817472  1
  Ca2+  Ca10  1  0.66892406  0.57145735  0.50709009  1
  Ca2+  Ca11  1  0.67221601  0.57489355  0.83065647  1
  Ca2+  Ca12  1  0.07457615  0.32647816  0.16189309  1
  Ca2+  Ca13  1  0.07101963  0.33320862  0.49701640  1
  Ca2+  Ca14  1  0.08068706  0.31925993  0.82260097  1
  Ca2+  Ca15  1  0.09236912  0.83426699  0.16798981  1
  Ca2+  Ca16  1  0.09301848  0.82585644  0.49701084  1
  Ca2+  Ca17  1  0.09266474  0.83122208  0.82782924  1
  Ca2+  Ca18  1  0.58618998  0.32912473  0.17070142  1
  Ca2+  Ca19  1  0.58464440  0.32929675  0.49857360  1
  Ca2+  Ca20  1  0.57623313  0.32705610  0.82045112  1
  Ca2+  Ca21  1  0.58840974  0.82893447  0.16776652  1
  Ca2+  Ca22  1  0.58194215  0.82625459  0.48864738  1
  Ca2+  Ca23  1  0.57799047  0.83105192  0.82654150  1
  Ca2+  Ca24  1  0.33140176  0.42632338  0.17097518  1
  Ca2+  Ca25  1  0.34035459  0.42848435  0.50587138  1
  Ca2+  Ca26  1  0.34071227  0.42480475  0.83387099  1
  Ca2+  Ca27  1  0.32310752  0.92190576  0.16865905  1
  Ca2+  Ca28  1  0.32403072  0.92130102  0.50598505  1
  Ca2+  Ca29  1  0.32250277  0.93190637  0.83395415  1
  Ca2+  Ca30  1  0.82748916  0.41317575  0.17765727  1
  Ca2+  Ca31  1  0.82644998  0.41203703  0.50687982  1
  Ca2+  Ca32  1  0.83311886  0.41140047  0.82626589  1
  Ca2+  Ca33  1  0.83156476  0.93090462  0.17447096  1
  Ca2+  Ca34  1  0.82738872  0.92034490  0.49808138  1
  Ca2+  Ca35  1  0.83255543  0.92439083  0.83871772  1
  Ca2+  Ca36  1  0.42294782  0.16028806  0.16275985  1
  Ca2+  Ca37  1  0.42497673  0.16643679  0.49883423  1
  Ca2+  Ca38  1  0.41793137  0.16786868  0.81962266  1
  Ca2+  Ca39  1  0.41812899  0.66191513  0.16749279  1
  Ca2+  Ca40  1  0.41820696  0.66429279  0.49150005  1
  Ca2+  Ca41  1  0.41050558  0.66595753  0.82851829  1
  Ca2+  Ca42  1  0.91449616  0.16589448  0.16444841  1
  Ca2+  Ca43  1  0.91572831  0.17530844  0.49705002  1
  Ca2+  Ca44  1  0.92753196  0.16472633  0.82709874  1
  Ca2+  Ca45  1  0.92547411  0.66897241  0.16547841  1
  Ca2+  Ca46  1  0.92876357  0.65995867  0.49683201  1
  Ca2+  Ca47  1  0.92373819  0.67017851  0.81992734  1
  Al0+  Al48  1  -0.00269656  -0.00046554  0.00445155  1
  Al0+  Al49  1  -0.00026945  -0.00042165  0.34354775  1
  Al0+  Al50  1  -0.00346742  -0.00385643  0.66588247  1
  Al0+  Al51  1  -0.00110874  0.50081893  -0.00190553  1
  Al0+  Al52  1  0.00182298  0.49958422  0.32056226  1
  Al0+  Al53  1  0.00129000  0.50173274  0.66398384  1
  Al0+  Al54  1  0.49911178  -0.00370360  0.00042831  1
  Al0+  Al55  1  0.49935559  -0.00086787  0.32972217  1
  Al0+  Al56  1  0.49828595  -0.00196621  0.66539867  1
  Al0+  Al57  1  0.50206773  0.49970211  0.00327049  1
  Al0+  Al58  1  0.50059319  0.50045050  0.33544119  1
  Al0+  Al59  1  0.50192183  0.49958984  0.67340206  1
  Al0+  Al60  1  0.25081182  0.25231025  0.00086274  1
  Al0+  Al61  1  0.24904912  0.25184339  0.33196420  1
  Al0+  Al62  1  0.25174779  0.25160226  0.65779498  1
  Al0+  Al63  1  0.25248710  0.75020397  0.00603518  1
  Al0+  Al64  1  0.25170406  0.75128284  0.33544055  1
  Al0+  Al65  1  0.25024130  0.75162194  0.67094515  1
  Al0+  Al66  1  0.74805109  0.25104577  0.00282690  1
  Al0+  Al67  1  0.74907980  0.25116101  0.33281183  1
  Al0+  Al68  1  0.74934266  0.24874676  0.66708512  1
  Al0+  Al69  1  0.75072541  0.74676720  -0.00280781  1
  Al0+  Al70  1  0.75232727  0.75109287  0.33040402  1
  Al0+  Al71  1  0.74998436  0.74954108  0.67072845  1
  Al0+  Al72  1  0.67736840  0.92743477  0.34750148  1
  Al0+  Al73  1  0.92908121  0.31922779  0.31844873  1
  Al0+  Al74  1  0.32055547  0.07353141  0.67822688  1
  Al0+  Al75  1  0.81775856  0.07065385  0.01268959  1
  Al0+  Al76  1  0.57015132  0.17649727  0.65213427  1
  Al0+  Al77  1  0.07258877  0.68121574  0.31809276  1
  Al0+  Al78  1  0.32096639  0.57011543  0.68024728  1
  Al0+  Al79  1  0.42839028  0.32465878  0.65122485  1
  Al0+  Al80  1  0.18084750  0.93116155  0.34932804  1
  Al0+  Al81  1  0.17692145  0.93067583  0.68226458  1
  Al0+  Al82  1  0.07148217  0.68230656  0.65433796  1
  Al0+  Al83  1  0.32308510  0.07526601  0.01509249  1
  Al0+  Al84  1  0.68048952  0.43076173  0.34750917  1
  Al0+  Al85  1  0.31857044  0.56862430  0.34767309  1
  Al0+  Al86  1  0.82359034  0.57168817  0.68062027  1
  Al0+  Al87  1  0.93045212  0.31996540  0.65238635  1
  Al0+  Al88  1  0.32025681  0.56914390  0.01541098  1
  Al0+  Al89  1  0.56827046  0.17960986  0.31796830  1
  Al0+  Al90  1  0.57196380  0.67844066  0.32084054  1
  Al0+  Al91  1  0.68051471  0.42688774  0.68375032  1
  Al0+  Al92  1  0.07302846  0.17447514  0.65104816  1
  Al0+  Al93  1  0.06912951  0.17939970  0.98871077  1
  Al0+  Al94  1  0.81961486  0.07241866  0.35184220  1
  Al0+  Al95  1  0.17857972  0.93093165  0.01616244  1
  Si0+  Si96  1  0.17546006  0.42704740  0.34919651  1
  Si0+  Si97  1  0.43096423  0.32264175  0.98692936  1
  Si0+  Si98  1  0.92284796  0.82190986  0.64858294  1
  Si0+  Si99  1  0.57160879  0.67726941  0.98273982  1
  Si0+  Si100  1  0.92486592  0.32329243  0.98220402  1
  Si0+  Si101  1  0.07220051  0.17582857  0.31739103  1
  Si0+  Si102  1  0.42988331  0.81871280  0.65197632  1
  Si0+  Si103  1  0.67706669  0.92649722  0.68182838  1
  Si0+  Si104  1  0.17492535  0.42792468  0.01655588  1
  Si0+  Si105  1  0.92868561  0.82402038  0.31553436  1
  Si0+  Si106  1  0.82264535  0.57284887  0.01643160  1
  Si0+  Si107  1  0.82573740  0.57265854  0.34646033  1
  Si0+  Si108  1  0.92807626  0.81924207  0.98526538  1
  Si0+  Si109  1  0.42880631  0.81947227  0.98296504  1
  Si0+  Si110  1  0.57013715  0.17789704  0.98656992  1
  Si0+  Si111  1  0.42684448  0.32384091  0.31476612  1
  Si0+  Si112  1  0.07287019  0.67988072  0.98447133  1
  Si0+  Si113  1  0.57217906  0.67938484  0.65352276  1
  Si0+  Si114  1  0.68108282  0.43127629  0.01697775  1
  Si0+  Si115  1  0.81883347  0.06984055  0.68240473  1
  Si0+  Si116  1  0.42806152  0.82141423  0.31433993  1
  Si0+  Si117  1  0.67724766  0.92418152  0.01475392  1
  Si0+  Si118  1  0.17663010  0.42770748  0.68117400  1
  Si0+  Si119  1  0.32328122  0.07532389  0.34945054  1
  O2-  O120  1  0.24745706  0.00688029  0.06502625  1
  O2-  O121  1  0.25165975  0.01021416  0.39339412  1
  O2-  O122  1  0.24026865  0.01158206  0.73028690  1
  O2-  O123  1  0.24207644  0.49809631  0.06141608  1
  O2-  O124  1  0.24438198  0.49432479  0.39470200  1
  O2-  O125  1  0.24912843  0.49245416  0.72687683  1
  O2-  O126  1  0.74148659  -0.00334674  0.05802110  1
  O2-  O127  1  0.74476308  0.00165444  0.40030333  1
  O2-  O128  1  0.74646948  -0.00095782  0.72387830  1
  O2-  O129  1  0.75535802  0.49895340  0.05878384  1
  O2-  O130  1  0.75568027  0.50653108  0.39102340  1
  O2-  O131  1  0.75471166  0.49772295  0.73310987  1
  O2-  O132  1  0.00367241  0.24410953  0.27209116  1
  O2-  O133  1  0.00264043  0.24871056  0.60172633  1
  O2-  O134  1  -0.00418064  0.25596802  0.94112524  1
  O2-  O135  1  -0.00212934  0.75584589  0.27034406  1
  O2-  O136  1  -0.00576552  0.75457720  0.60748582  1
  O2-  O137  1  0.00105814  0.75021986  0.94251563  1
  O2-  O138  1  0.49056787  0.25085858  0.26933301  1
  O2-  O139  1  0.49806040  0.24920505  0.60337890  1
  O2-  O140  1  0.49410165  0.24385400  0.94533458  1
  O2-  O141  1  0.50022728  0.75491966  0.27100257  1
  O2-  O142  1  0.50040445  0.74771888  0.60931715  1
  O2-  O143  1  0.50152843  0.74914357  0.94058988  1
  O2-  O144  1  0.06550950  0.18040237  0.10187893  1
  O2-  O145  1  0.07266557  0.17774026  0.42245074  1
  O2-  O146  1  0.06953326  0.17466915  0.76553590  1
  O2-  O147  1  0.07158443  0.68012243  0.08954599  1
  O2-  O148  1  0.07270866  0.68104764  0.43083806  1
  O2-  O149  1  0.07256251  0.68447756  0.76829718  1
  O2-  O150  1  0.57241723  0.18079592  0.09145113  1
  O2-  O151  1  0.56769227  0.18118287  0.43030632  1
  O2-  O152  1  0.57013480  0.17662257  0.76694346  1
  O2-  O153  1  0.57319021  0.67702390  0.08770565  1
  O2-  O154  1  0.56919298  0.67805872  0.43393857  1
  O2-  O155  1  0.57213957  0.68306751  0.75923056  1
  O2-  O156  1  0.17751293  0.42764282  0.24311005  1
  O2-  O157  1  0.17398777  0.43329581  0.57587234  1
  O2-  O158  1  0.17435316  0.42865872  0.91116622  1
  O2-  O159  1  0.18218221  0.93159081  0.23605962  1
  O2-  O160  1  0.18325882  0.92624136  0.56906678  1
  O2-  O161  1  0.18091949  0.92902725  0.90309252  1
  O2-  O162  1  0.68129777  0.43199361  0.23330496  1
  O2-  O163  1  0.67980155  0.42937188  0.57061103  1
  O2-  O164  1  0.67974798  0.43172679  0.91234880  1
  O2-  O165  1  0.68164305  0.92823025  0.23332441  1
  O2-  O166  1  0.67822220  0.92143219  0.57745289  1
  O2-  O167  1  0.67852693  0.92253371  0.90883796  1
  O2-  O168  1  0.43578041  0.32721041  0.09172918  1
  O2-  O169  1  0.42848646  0.32572348  0.41969916  1
  O2-  O170  1  0.43237593  0.32625631  0.76586496  1
  O2-  O171  1  0.42994854  0.81936188  0.08780116  1
  O2-  O172  1  0.42715034  0.81902662  0.42013895  1
  O2-  O173  1  0.43256914  0.81769332  0.75747290  1
  O2-  O174  1  0.92340286  0.32413730  0.08770820  1
  O2-  O175  1  0.93002253  0.32097223  0.43096591  1
  O2-  O176  1  0.93173969  0.31592607  0.76669057  1
  O2-  O177  1  0.92399912  0.81548434  0.08988241  1
  O2-  O178  1  0.92658409  0.82216562  0.42072596  1
  O2-  O179  1  0.91914010  0.82135126  0.75469826  1
  O2-  O180  1  0.32299804  0.07335898  0.24359069  1
  O2-  O181  1  0.32557014  0.06492054  0.56517074  1
  O2-  O182  1  0.32536421  0.07368179  0.90194663  1
  O2-  O183  1  0.31869257  0.56748244  0.23412837  1
  O2-  O184  1  0.32090774  0.57304862  0.56754422  1
  O2-  O185  1  0.32068398  0.56852486  0.90240180  1
  O2-  O186  1  0.81936466  0.07084931  0.23765907  1
  O2-  O187  1  0.81847057  0.06977677  0.57783532  1
  O2-  O188  1  0.81679034  0.06919964  0.89921920  1
  O2-  O189  1  0.82383790  0.57077874  0.23998588  1
  O2-  O190  1  0.81983855  0.57497650  0.56739043  1
  O2-  O191  1  0.82135165  0.57647867  0.91182735  1
  O2-  O192  1  0.04463938  0.08134124  0.27422298  1
  O2-  O193  1  0.04081664  0.07618475  0.60035488  1
  O2-  O194  1  0.03592231  0.08249305  0.93612940  1
  O2-  O195  1  0.04372343  0.58619665  0.25896032  1
  O2-  O196  1  0.04402280  0.58577159  0.59941381  1
  O2-  O197  1  0.04592013  0.58721326  0.93803303  1
  O2-  O198  1  0.54211998  0.08147518  0.26277406  1
  O2-  O199  1  0.54350709  0.07748984  0.59928129  1
  O2-  O200  1  0.55051993  0.08258484  0.94217947  1
  O2-  O201  1  0.53789188  0.58332815  0.26459239  1
  O2-  O202  1  0.54620944  0.58645853  0.60982584  1
  O2-  O203  1  0.54162622  0.58566113  0.93616297  1
  O2-  O204  1  0.16623233  0.20084140  0.27036133  1
  O2-  O205  1  0.17206641  0.19725702  0.59835789  1
  O2-  O206  1  0.16751636  0.20883578  0.93636354  1
  O2-  O207  1  0.16889080  0.71511198  0.26451739  1
  O2-  O208  1  0.16764731  0.71602357  0.60089497  1
  O2-  O209  1  0.16574973  0.70835710  0.93982049  1
  O2-  O210  1  0.66366659  0.21465380  0.26362443  1
  O2-  O211  1  0.66848738  0.20533020  0.60103348  1
  O2-  O212  1  0.66030827  0.21151610  0.93851292  1
  O2-  O213  1  0.66940870  0.70661434  0.26488651  1
  O2-  O214  1  0.66337220  0.70848930  0.60691262  1
  O2-  O215  1  0.66369014  0.70392188  0.93439260  1
  O2-  O216  1  0.08002927  0.45210541  0.06182890  1
  O2-  O217  1  0.08121532  0.45511541  0.39128018  1
  O2-  O218  1  0.08578698  0.45706157  0.73086440  1
  O2-  O219  1  0.07890415  0.95396043  0.06891564  1
  O2-  O220  1  0.08352134  0.95408580  0.40427704  1
  O2-  O221  1  0.07368743  0.94518228  0.73102637  1
  O2-  O222  1  0.59151536  0.46333863  0.06596253  1
  O2-  O223  1  0.58463699  0.46178193  0.40088249  1
  O2-  O224  1  0.58540990  0.46065550  0.74067665  1
  O2-  O225  1  0.58208245  0.94342837  0.05911616  1
  O2-  O226  1  0.57574914  0.94857304  0.39598842  1
  O2-  O227  1  0.58503466  0.95256951  0.72965642  1
  O2-  O228  1  0.20234477  0.33610626  0.06487123  1
  O2-  O229  1  0.19696958  0.33230300  0.39437498  1
  O2-  O230  1  0.19839553  0.33190195  0.72384062  1
  O2-  O231  1  0.21248430  0.83407568  0.06975554  1
  O2-  O232  1  0.21701108  0.83621155  0.40226431  1
  O2-  O233  1  0.21590580  0.83665466  0.73776588  1
  O2-  O234  1  0.70568892  0.33872002  0.06464717  1
  O2-  O235  1  0.71102888  0.33500332  0.40024865  1
  O2-  O236  1  0.70835186  0.32850360  0.73831758  1
  O2-  O237  1  0.70611558  0.83077245  0.05992591  1
  O2-  O238  1  0.70863235  0.82912964  0.40004905  1
  O2-  O239  1  0.70580021  0.83666388  0.73358504  1
  O2-  O240  1  0.45895421  0.41517823  0.26720910  1
  O2-  O241  1  0.46253040  0.42279209  0.60015151  1
  O2-  O242  1  0.46751603  0.41144617  0.93786730  1
  O2-  O243  1  0.44986418  0.91515555  0.26679114  1
  O2-  O244  1  0.45822735  0.90885542  0.60292788  1
  O2-  O245  1  0.45639421  0.91089021  0.93346621  1
  O2-  O246  1  0.95913800  0.41411108  0.25879556  1
  O2-  O247  1  0.95563907  0.41947303  0.60064044  1
  O2-  O248  1  0.94745144  0.41873568  0.93743236  1
  O2-  O249  1  0.95630955  0.91836678  0.27164730  1
  O2-  O250  1  0.94450791  0.91558164  0.60224916  1
  O2-  O251  1  0.95260050  0.91233280  0.93942294  1
  O2-  O252  1  0.33071287  0.30460238  0.26966061  1
  O2-  O253  1  0.32940489  0.30669151  0.59603187  1
  O2-  O254  1  0.33591280  0.30617488  0.94194569  1
  O2-  O255  1  0.33711244  0.79004976  0.26652638  1
  O2-  O256  1  0.33869858  0.78978344  0.60540116  1
  O2-  O257  1  0.33809009  0.78745649  0.93619875  1
  O2-  O258  1  0.83305236  0.28832865  0.26322214  1
  O2-  O259  1  0.83179583  0.29043204  0.60183647  1
  O2-  O260  1  0.83077147  0.29625189  0.93744843  1
  O2-  O261  1  0.83627990  0.79890988  0.26586999  1
  O2-  O262  1  0.82990944  0.79437823  0.60208886  1
  O2-  O263  1  0.83730014  0.78984630  0.93491822  1
  O2-  O264  1  0.42037585  0.03957880  0.06795266  1
  O2-  O265  1  0.41612149  0.04604808  0.39372687  1
  O2-  O266  1  0.41595936  0.03518353  0.73374603  1
  O2-  O267  1  0.41728166  0.53649438  0.06823222  1
  O2-  O268  1  0.41541286  0.53869579  0.40049311  1
  O2-  O269  1  0.41749441  0.54314341  0.73704876  1
  O2-  O270  1  0.91162618  0.03769604  0.06939724  1
  O2-  O271  1  0.91635395  0.04304198  0.40612499  1
  O2-  O272  1  0.90922276  0.03883947  0.73097687  1
  O2-  O273  1  0.91641735  0.54937746  0.06231457  1
  O2-  O274  1  0.92024881  0.54502235  0.38836636  1
  O2-  O275  1  0.92275336  0.54649775  0.73423689  1
  O2-  O276  1  0.30303899  0.17618032  0.06646251  1
  O2-  O277  1  0.30318564  0.17145975  0.39210373  1
  O2-  O278  1  0.30550476  0.17707147  0.72503422  1
  O2-  O279  1  0.29255017  0.66563156  0.07024755  1
  O2-  O280  1  0.29006631  0.66587754  0.39996082  1
  O2-  O281  1  0.28698210  0.66497765  0.73618707  1
  O2-  O282  1  0.78777194  0.16747112  0.06696367  1
  O2-  O283  1  0.78904140  0.17024630  0.40260834  1
  O2-  O284  1  0.79144921  0.16040714  0.73186420  1
  O2-  O285  1  0.79142226  0.66323916  0.06486972  1
  O2-  O286  1  0.80529131  0.66799135  0.38934473  1
  O2-  O287  1  0.79130378  0.66849477  0.73738837  1
