# generated using pymatgen
data_Ca2Al2SiO7
_symmetry_space_group_name_H-M   'P 1'
_cell_length_a   15.45757947
_cell_length_b   15.45780674
_cell_length_c   15.28343378
_cell_angle_alpha   89.99651254
_cell_angle_beta   89.98940634
_cell_angle_gamma   89.97615992
_symmetry_Int_Tables_number   1
_chemical_formula_structural   Ca2Al2SiO7
_chemical_formula_sum   'Ca48 Al48 Si24 O168'
_cell_volume   3651.82750189
_cell_formula_units_Z   24
loop_
 _symmetry_equiv_pos_site_id
 _symmetry_equiv_pos_as_xyz
  1  'x, y, z'
loop_
 _atom_type_symbol
 _atom_type_oxidation_number
  Ca2+  2.0
  Al0+  0.0
  Si0+  0.0
  O2-  -2.0
loop_
 _atom_site_type_symbol
 _atom_site_label
 _atom_site_symmetry_multiplicity
 _atom_site_fract_x
 _atom_site_fract_y
 _atom_site_fract_z
 _atom_site_occupancy
  Ca2+  Ca0  1  0.16823748  0.08436173  0.17114486  1
  Ca2+  Ca1  1  0.17110176  0.08562886  0.50232608  1
  Ca2+  Ca2  1  0.15933251  0.08674441  0.83827367  1
  Ca2+  Ca3  1  0.17671300  0.58798242  0.17025395  1
  Ca2+  Ca4  1  0.17674616  0.57870719  0.51103546  1
  Ca2+  Ca5  1  0.17426378  0.58388620  0.83664485  1
  Ca2+  Ca6  1  0.67392658  0.08292682  0.16964932  1
  Ca2+  Ca7  1  0.66373628  0.07632474  0.51049786  1
  Ca2+  Ca8  1  0.66718716  0.07887437  0.83799346  1
  Ca2+  Ca9  1  0.66927860  0.58190342  0.17658586  1
  Ca2+  Ca10  1  0.66815426  0.58191775  0.49503266  1
  Ca2+  Ca11  1  0.66648207  0.58244989  0.83957221  1
  Ca2+  Ca12  1  0.07056197  0.33130584  0.16002533  1
  Ca2+  Ca13  1  0.08439384  0.33327611  0.49909732  1
  Ca2+  Ca14  1  0.08342569  0.32610927  0.82813473  1
  Ca2+  Ca15  1  0.07396445  0.82704618  0.16088389  1
  Ca2+  Ca16  1  0.07806954  0.82582732  0.49561153  1
  Ca2+  Ca17  1  0.08207537  0.82235216  0.83372411  1
  Ca2+  Ca18  1  0.57234648  0.34500689  0.16595389  1
  Ca2+  Ca19  1  0.57412964  0.33538795  0.49534089  1
  Ca2+  Ca20  1  0.57067988  0.33021010  0.82769012  1
  Ca2+  Ca21  1  0.57789862  0.82024181  0.16686002  1
  Ca2+  Ca22  1  0.57991677  0.82803081  0.49146343  1
  Ca2+  Ca23  1  0.58633772  0.82885132  0.83152373  1
  Ca2+  Ca24  1  0.33636292  0.42295578  0.17206550  1
  Ca2+  Ca25  1  0.33560101  0.42510672  0.50641427  1
  Ca2+  Ca26  1  0.33235504  0.42026504  0.83564732  1
  Ca2+  Ca27  1  0.33392844  0.92374986  0.17656785  1
  Ca2+  Ca28  1  0.34242129  0.92393969  0.50062123  1
  Ca2+  Ca29  1  0.32983589  0.92098199  0.83814991  1
  Ca2+  Ca30  1  0.82961325  0.41907082  0.17909247  1
  Ca2+  Ca31  1  0.83097813  0.41683043  0.49681270  1
  Ca2+  Ca32  1  0.83132587  0.41330249  0.83938283  1
  Ca2+  Ca33  1  0.84270567  0.91956850  0.16952827  1
  Ca2+  Ca34  1  0.82712274  0.91311670  0.50493890  1
  Ca2+  Ca35  1  0.83189156  0.92108709  0.84049889  1
  Ca2+  Ca36  1  0.41232153  0.17903855  0.16464826  1
  Ca2+  Ca37  1  0.41724258  0.17798815  0.49450189  1
  Ca2+  Ca38  1  0.41764384  0.18089985  0.82441445  1
  Ca2+  Ca39  1  0.42684692  0.65362944  0.16471833  1
  Ca2+  Ca40  1  0.41778409  0.66787853  0.48974502  1
  Ca2+  Ca41  1  0.41798159  0.65938579  0.83229777  1
  Ca2+  Ca42  1  0.91715844  0.17651190  0.15728020  1
  Ca2+  Ca43  1  0.92387243  0.17243668  0.49533485  1
  Ca2+  Ca44  1  0.92300404  0.16607398  0.83494952  1
  Ca2+  Ca45  1  0.91547620  0.67510339  0.16021808  1
  Ca2+  Ca46  1  0.92150917  0.66644202  0.49191873  1
  Ca2+  Ca47  1  0.93135854  0.66487854  0.83076400  1
  Al0+  Al48  1  -0.00162291  -0.00007099  -0.00098534  1
  Al0+  Al49  1  0.00136482  -0.00172921  0.33305672  1
  Al0+  Al50  1  -0.00043189  0.00101269  0.66212699  1
  Al0+  Al51  1  -0.00012974  0.50019944  -0.00596434  1
  Al0+  Al52  1  0.00081876  0.49858258  0.33294674  1
  Al0+  Al53  1  0.00140398  0.50029378  0.66612920  1
  Al0+  Al54  1  0.50008138  -0.00183274  0.00365497  1
  Al0+  Al55  1  0.50068336  0.00021848  0.33334456  1
  Al0+  Al56  1  0.50101180  -0.00078635  0.67234618  1
  Al0+  Al57  1  0.49970540  0.49994150  -0.00595724  1
  Al0+  Al58  1  0.50045226  0.49851123  0.33525333  1
  Al0+  Al59  1  0.50226687  0.50161075  0.66654165  1
  Al0+  Al60  1  0.24901866  0.25179009  -0.00576249  1
  Al0+  Al61  1  0.25185925  0.24810750  0.33366451  1
  Al0+  Al62  1  0.24879833  0.25174625  0.66160612  1
  Al0+  Al63  1  0.25154649  0.75140745  0.00345760  1
  Al0+  Al64  1  0.24888807  0.75280076  0.33485461  1
  Al0+  Al65  1  0.25020730  0.75137013  0.66649418  1
  Al0+  Al66  1  0.74805196  0.24780133  0.00188114  1
  Al0+  Al67  1  0.75078874  0.24918976  0.33639488  1
  Al0+  Al68  1  0.75076869  0.24937869  0.66536450  1
  Al0+  Al69  1  0.74683743  0.74971076  -0.00705017  1
  Al0+  Al70  1  0.75094114  0.75042813  0.32958298  1
  Al0+  Al71  1  0.74919221  0.75098517  0.67255175  1
  Al0+  Al72  1  0.17825175  0.42812822  0.68301300  1
  Al0+  Al73  1  0.92930878  0.81974856  0.32070242  1
  Al0+  Al74  1  0.92479676  0.32224139  0.98501581  1
  Al0+  Al75  1  0.07216388  0.67899261  0.65146003  1
  Al0+  Al76  1  0.32047029  0.56927679  0.01514759  1
  Al0+  Al77  1  0.56830223  0.67941604  0.98462574  1
  Al0+  Al78  1  0.42692734  0.82339402  0.31901724  1
  Al0+  Al79  1  0.57140121  0.17732322  0.65302977  1
  Al0+  Al80  1  0.56879791  0.67862495  0.31956972  1
  Al0+  Al81  1  0.82272368  0.57309920  0.34661617  1
  Al0+  Al82  1  0.67887143  0.42761344  0.34918678  1
  Al0+  Al83  1  0.43005541  0.32248879  0.64911221  1
  Al0+  Al84  1  0.67861313  0.92902735  0.68188704  1
  Al0+  Al85  1  0.32008603  0.57122430  0.34659920  1
  Al0+  Al86  1  0.42982818  0.32066545  0.98577135  1
  Al0+  Al87  1  0.32150057  0.07071399  0.34739004  1
  Al0+  Al88  1  0.81975205  0.06881935  0.01486860  1
  Al0+  Al89  1  0.07442548  0.67880043  0.98571714  1
  Al0+  Al90  1  0.32258131  0.57276365  0.68286596  1
  Al0+  Al91  1  0.42984795  0.31998345  0.31902003  1
  Al0+  Al92  1  0.06994133  0.18042214  0.98666216  1
  Al0+  Al93  1  0.92886281  0.32046625  0.32073867  1
  Al0+  Al94  1  0.07003748  0.17845293  0.65033948  1
  Al0+  Al95  1  0.92791332  0.82127010  0.98341846  1
  Si0+  Si96  1  0.82105632  0.57149946  0.68264187  1
  Si0+  Si97  1  0.92669270  0.32366783  0.64860421  1
  Si0+  Si98  1  0.68024220  0.42863204  0.68268978  1
  Si0+  Si99  1  0.82339505  0.07091789  0.34983662  1
  Si0+  Si100  1  0.82151222  0.57131007  0.01191030  1
  Si0+  Si101  1  0.31991890  0.07083947  0.68199304  1
  Si0+  Si102  1  0.67667431  0.92513742  0.02078014  1
  Si0+  Si103  1  0.17631410  0.92924988  0.35216689  1
  Si0+  Si104  1  0.57304308  0.68014066  0.65135031  1
  Si0+  Si105  1  0.67944550  0.42945326  0.01280403  1
  Si0+  Si106  1  0.57095105  0.17466307  0.98533153  1
  Si0+  Si107  1  0.68075415  0.93014939  0.34705419  1
  Si0+  Si108  1  0.32103971  0.07297616  0.01341582  1
  Si0+  Si109  1  0.17741519  0.93013630  0.68163132  1
  Si0+  Si110  1  0.42814541  0.82498880  0.98296104  1
  Si0+  Si111  1  0.17787370  0.42680059  0.34840249  1
  Si0+  Si112  1  0.17923680  0.92979035  0.01538563  1
  Si0+  Si113  1  0.07177234  0.17789433  0.31692345  1
  Si0+  Si114  1  0.57346988  0.17633353  0.31670171  1
  Si0+  Si115  1  0.82342934  0.07231621  0.68315668  1
  Si0+  Si116  1  0.17664223  0.42642308  0.01710579  1
  Si0+  Si117  1  0.07292821  0.67638153  0.31766149  1
  Si0+  Si118  1  0.92769509  0.82013954  0.65053705  1
  Si0+  Si119  1  0.42889198  0.82135673  0.65388791  1
  O2-  O120  1  0.24988244  0.00226980  0.05607779  1
  O2-  O121  1  0.24894699  -0.00561388  0.39580391  1
  O2-  O122  1  0.24638839  0.00275850  0.72526366  1
  O2-  O123  1  0.24306764  0.49711088  0.06199259  1
  O2-  O124  1  0.24438044  0.49759872  0.39275234  1
  O2-  O125  1  0.25091395  0.50004075  0.73243949  1
  O2-  O126  1  0.74702797  -0.00735571  0.06416555  1
  O2-  O127  1  0.75107949  0.00110814  0.39137021  1
  O2-  O128  1  0.75214297  0.00575070  0.72664903  1
  O2-  O129  1  0.75525482  0.49589273  0.05397197  1
  O2-  O130  1  0.75215062  0.49991861  0.39793110  1
  O2-  O131  1  0.75223717  0.49839847  0.72549274  1
  O2-  O132  1  0.00296008  0.24596355  0.27327174  1
  O2-  O133  1  -0.00364960  0.25493616  0.60563372  1
  O2-  O134  1  -0.00084952  0.25280192  0.93522860  1
  O2-  O135  1  0.00087374  0.74217167  0.27434887  1
  O2-  O136  1  -0.00482814  0.75155889  0.60496613  1
  O2-  O137  1  -0.00117617  0.74751792  0.93504199  1
  O2-  O138  1  0.50652705  0.24655174  0.27218453  1
  O2-  O139  1  0.50200254  0.24934638  0.60018506  1
  O2-  O140  1  0.50069387  0.24120467  0.94132790  1
  O2-  O141  1  0.49199094  0.74562980  0.26856603  1
  O2-  O142  1  0.49858561  0.74878940  0.61203285  1
  O2-  O143  1  0.49459234  0.75510145  0.93768953  1
  O2-  O144  1  0.07023354  0.18099826  0.10039003  1
  O2-  O145  1  0.07036221  0.17729452  0.42266903  1
  O2-  O146  1  0.06654571  0.17530854  0.76295694  1
  O2-  O147  1  0.07458398  0.68191883  0.09935023  1
  O2-  O148  1  0.07260327  0.67897805  0.42345339  1
  O2-  O149  1  0.07203046  0.68202562  0.76431672  1
  O2-  O150  1  0.57041063  0.17329119  0.09094952  1
  O2-  O151  1  0.57151288  0.17403936  0.42214901  1
  O2-  O152  1  0.56831924  0.17865742  0.76695689  1
  O2-  O153  1  0.56927422  0.67780171  0.09716353  1
  O2-  O154  1  0.57062077  0.68254849  0.43358539  1
  O2-  O155  1  0.57472564  0.68092117  0.75654415  1
  O2-  O156  1  0.17774723  0.42639445  0.24268953  1
  O2-  O157  1  0.17823390  0.43067370  0.56904742  1
  O2-  O158  1  0.17911183  0.42416649  0.91188662  1
  O2-  O159  1  0.17279240  0.93277193  0.24652376  1
  O2-  O160  1  0.17839292  0.93017732  0.57681363  1
  O2-  O161  1  0.18144976  0.92928466  0.90979665  1
  O2-  O162  1  0.67971676  0.42849915  0.23500348  1
  O2-  O163  1  0.68031058  0.42952394  0.57802348  1
  O2-  O164  1  0.67952081  0.43129128  0.90717924  1
  O2-  O165  1  0.68119929  0.93175690  0.24218704  1
  O2-  O166  1  0.68056135  0.92712925  0.56831802  1
  O2-  O167  1  0.67455037  0.92822406  0.91510353  1
  O2-  O168  1  0.43114110  0.32075514  0.09902930  1
  O2-  O169  1  0.42910835  0.31925170  0.43156577  1
  O2-  O170  1  0.43174430  0.32124247  0.76306618  1
  O2-  O171  1  0.42999639  0.82992786  0.08786044  1
  O2-  O172  1  0.43318675  0.82561265  0.43304671  1
  O2-  O173  1  0.42865815  0.82314288  0.75910761  1
  O2-  O174  1  0.92437555  0.32093280  0.09873712  1
  O2-  O175  1  0.92994031  0.31758048  0.43383554  1
  O2-  O176  1  0.92406376  0.32255123  0.75396335  1
  O2-  O177  1  0.93055902  0.82024938  0.09724270  1
  O2-  O178  1  0.93074003  0.82125930  0.43408025  1
  O2-  O179  1  0.92908618  0.81978291  0.75576420  1
  O2-  O180  1  0.31790833  0.07160771  0.23376634  1
  O2-  O181  1  0.32141989  0.06711508  0.57705149  1
  O2-  O182  1  0.32190636  0.07023904  0.90810847  1
  O2-  O183  1  0.31974354  0.56832069  0.23327151  1
  O2-  O184  1  0.32234235  0.57426670  0.56915213  1
  O2-  O185  1  0.32110200  0.56796701  0.90237489  1
  O2-  O186  1  0.82368024  0.07020262  0.24478334  1
  O2-  O187  1  0.82463834  0.06984683  0.57725563  1
  O2-  O188  1  0.81727131  0.06832612  0.90169603  1
  O2-  O189  1  0.82116591  0.57332884  0.23261649  1
  O2-  O190  1  0.81920199  0.57405490  0.57779971  1
  O2-  O191  1  0.81860751  0.57118577  0.90636092  1
  O2-  O192  1  0.04653802  0.08390983  0.27212391  1
  O2-  O193  1  0.03881988  0.08250471  0.59387272  1
  O2-  O194  1  0.04119123  0.08218768  0.93382497  1
  O2-  O195  1  0.05309077  0.58161239  0.27275123  1
  O2-  O196  1  0.04190600  0.58232634  0.59828659  1
  O2-  O197  1  0.04880296  0.58057153  0.93163172  1
  O2-  O198  1  0.54735011  0.08383832  0.26910892  1
  O2-  O199  1  0.54287420  0.07745539  0.60273588  1
  O2-  O200  1  0.54771536  0.07989503  0.94023709  1
  O2-  O201  1  0.54437505  0.57927322  0.26737526  1
  O2-  O202  1  0.54997814  0.58739674  0.60489439  1
  O2-  O203  1  0.53710750  0.58478218  0.92735500  1
  O2-  O204  1  0.16578103  0.20194621  0.27204827  1
  O2-  O205  1  0.16664819  0.20686020  0.59580328  1
  O2-  O206  1  0.16799951  0.20542832  0.93115566  1
  O2-  O207  1  0.16464227  0.70709781  0.27106905  1
  O2-  O208  1  0.16755363  0.71402950  0.59769873  1
  O2-  O209  1  0.17131366  0.71348629  0.93300894  1
  O2-  O210  1  0.66859218  0.19919021  0.27291372  1
  O2-  O211  1  0.67203900  0.20008792  0.60219218  1
  O2-  O212  1  0.66351454  0.20132806  0.93891561  1
  O2-  O213  1  0.66553393  0.71140103  0.26587801  1
  O2-  O214  1  0.66398016  0.71214188  0.60483312  1
  O2-  O215  1  0.66340214  0.70938260  0.92703313  1
  O2-  O216  1  0.08081621  0.44998611  0.06033051  1
  O2-  O217  1  0.08379807  0.44894445  0.39520465  1
  O2-  O218  1  0.07865372  0.45502705  0.73499224  1
  O2-  O219  1  0.08750976  0.95744262  0.06242170  1
  O2-  O220  1  0.08502819  0.95917348  0.40192952  1
  O2-  O221  1  0.08464315  0.95704399  0.72785078  1
  O2-  O222  1  0.58944797  0.46355670  0.05936509  1
  O2-  O223  1  0.58232605  0.45823580  0.40406466  1
  O2-  O224  1  0.58983267  0.45921628  0.73126976  1
  O2-  O225  1  0.58352523  0.95228882  0.06780589  1
  O2-  O226  1  0.58925777  0.95748570  0.39553980  1
  O2-  O227  1  0.58276078  0.95768325  0.73977413  1
  O2-  O228  1  0.20414164  0.33306416  0.06354549  1
  O2-  O229  1  0.20450252  0.33331215  0.39403458  1
  O2-  O230  1  0.20548237  0.32800981  0.73377553  1
  O2-  O231  1  0.20798378  0.83999434  0.06583109  1
  O2-  O232  1  0.19687850  0.83461998  0.39788315  1
  O2-  O233  1  0.20850010  0.84015049  0.73064915  1
  O2-  O234  1  0.69907579  0.33573820  0.05960383  1
  O2-  O235  1  0.70720798  0.32919470  0.40350141  1
  O2-  O236  1  0.70655034  0.33589143  0.72994347  1
  O2-  O237  1  0.70056027  0.82978509  0.06324948  1
  O2-  O238  1  0.70962739  0.83888668  0.39474717  1
  O2-  O239  1  0.71055967  0.83392669  0.73906259  1
  O2-  O240  1  0.46132000  0.41601216  0.26511027  1
  O2-  O241  1  0.46255915  0.42092021  0.59850224  1
  O2-  O242  1  0.46639220  0.41303701  0.92881406  1
  O2-  O243  1  0.46066061  0.91978194  0.26456001  1
  O2-  O244  1  0.45943663  0.91269828  0.60746844  1
  O2-  O245  1  0.45536922  0.91790086  0.93471811  1
  O2-  O246  1  0.95762422  0.41738488  0.26606748  1
  O2-  O247  1  0.95169793  0.41729922  0.60297757  1
  O2-  O248  1  0.94780854  0.42144655  0.93213541  1
  O2-  O249  1  0.96361560  0.91558369  0.26641682  1
  O2-  O250  1  0.95266930  0.91365604  0.60406631  1
  O2-  O251  1  0.95841166  0.91850975  0.93061763  1
  O2-  O252  1  0.33401203  0.28618204  0.26469292  1
  O2-  O253  1  0.33179410  0.29440893  0.59744702  1
  O2-  O254  1  0.33366369  0.29213641  0.93100459  1
  O2-  O255  1  0.32434486  0.80682128  0.27076377  1
  O2-  O256  1  0.33694684  0.79807044  0.60520468  1
  O2-  O257  1  0.33350193  0.80200684  0.93880886  1
  O2-  O258  1  0.83187429  0.28939492  0.26797970  1
  O2-  O259  1  0.83368234  0.29693235  0.60183940  1
  O2-  O260  1  0.82676522  0.29056119  0.93258191  1
  O2-  O261  1  0.83326142  0.79421849  0.26417023  1
  O2-  O262  1  0.83307532  0.79376879  0.60671697  1
  O2-  O263  1  0.82847793  0.79714192  0.93171374  1
  O2-  O264  1  0.41250435  0.04509207  0.06184723  1
  O2-  O265  1  0.41856528  0.04046473  0.40170791  1
  O2-  O266  1  0.40961458  0.04000326  0.73212261  1
  O2-  O267  1  0.41751200  0.53342916  0.06593810  1
  O2-  O268  1  0.41636591  0.54058544  0.40022208  1
  O2-  O269  1  0.42293445  0.54585064  0.73348383  1
  O2-  O270  1  0.91687933  0.03937519  0.06944605  1
  O2-  O271  1  0.91485075  0.04102883  0.39711085  1
  O2-  O272  1  0.91593320  0.04242569  0.72943450  1
  O2-  O273  1  0.91577061  0.55093203  0.05746824  1
  O2-  O274  1  0.92151934  0.54478439  0.39977856  1
  O2-  O275  1  0.91359935  0.54516626  0.72890587  1
  O2-  O276  1  0.29293330  0.16520757  0.05971637  1
  O2-  O277  1  0.28882738  0.16569009  0.40361115  1
  O2-  O278  1  0.29355112  0.16391642  0.72633012  1
  O2-  O279  1  0.29526293  0.66853095  0.06770768  1
  O2-  O280  1  0.29332815  0.67036558  0.39857751  1
  O2-  O281  1  0.29382301  0.67232813  0.73468462  1
  O2-  O282  1  0.78660507  0.16481792  0.07063742  1
  O2-  O283  1  0.79771289  0.16228127  0.39845111  1
  O2-  O284  1  0.80159872  0.16720386  0.72826008  1
  O2-  O285  1  0.78878182  0.66266430  0.05740955  1
  O2-  O286  1  0.79297669  0.67132468  0.40042207  1
  O2-  O287  1  0.79076929  0.66157137  0.73217314  1
