# generated using pymatgen
data_Ca2Al2SiO7
_symmetry_space_group_name_H-M   'P 1'
_cell_length_a   15.45534557
_cell_length_b   15.45647288
_cell_length_c   15.28242269
_cell_angle_alpha   90.00591652
_cell_angle_beta   89.99825455
_cell_angle_gamma   90.01077496
_symmetry_Int_Tables_number   1
_chemical_formula_structural   Ca2Al2SiO7
_chemical_formula_sum   'Ca48 Al48 Si24 O168'
_cell_volume   3650.74343969
_cell_formula_units_Z   24
loop_
 _symmetry_equiv_pos_site_id
 _symmetry_equiv_pos_as_xyz
  1  'x, y, z'
loop_
 _atom_type_symbol
 _atom_type_oxidation_number
  Ca2+  2.0
  Al0+  0.0
  Si0+  0.0
  O2-  -2.0
loop_
 _atom_site_type_symbol
 _atom_site_label
 _atom_site_symmetry_multiplicity
 _atom_site_fract_x
 _atom_site_fract_y
 _atom_site_fract_z
 _atom_site_occupancy
  Ca2+  Ca0  1  0.17414657  0.07816600  0.17022977  1
  Ca2+  Ca1  1  0.16720756  0.07006842  0.50418955  1
  Ca2+  Ca2  1  0.17543143  0.07359794  0.83916746  1
  Ca2+  Ca3  1  0.16937764  0.57363729  0.16681392  1
  Ca2+  Ca4  1  0.17351258  0.57990327  0.50427993  1
  Ca2+  Ca5  1  0.18160217  0.58003124  0.83987252  1
  Ca2+  Ca6  1  0.66927039  0.08302123  0.17762440  1
  Ca2+  Ca7  1  0.67234253  0.08334031  0.49838099  1
  Ca2+  Ca8  1  0.67081399  0.09078399  0.83561578  1
  Ca2+  Ca9  1  0.66215605  0.57701863  0.17004681  1
  Ca2+  Ca10  1  0.66673232  0.58426439  0.51066223  1
  Ca2+  Ca11  1  0.66123832  0.57023733  0.83214090  1
  Ca2+  Ca12  1  0.07970115  0.33841250  0.15886815  1
  Ca2+  Ca13  1  0.07603588  0.33662852  0.49489900  1
  Ca2+  Ca14  1  0.07345417  0.34175282  0.82932841  1
  Ca2+  Ca15  1  0.08025274  0.84455200  0.16608537  1
  Ca2+  Ca16  1  0.08063296  0.83686832  0.49362023  1
  Ca2+  Ca17  1  0.08794240  0.83677584  0.82861046  1
  Ca2+  Ca18  1  0.58805051  0.32037739  0.15944303  1
  Ca2+  Ca19  1  0.57955482  0.33395257  0.49965907  1
  Ca2+  Ca20  1  0.58344254  0.33282331  0.82859747  1
  Ca2+  Ca21  1  0.58153875  0.83162377  0.16682669  1
  Ca2+  Ca22  1  0.57820784  0.82380788  0.48915552  1
  Ca2+  Ca23  1  0.57117249  0.82337904  0.82120500  1
  Ca2+  Ca24  1  0.32456739  0.41879438  0.16964312  1
  Ca2+  Ca25  1  0.33178542  0.41949600  0.50798414  1
  Ca2+  Ca26  1  0.33849604  0.42654826  0.83894288  1
  Ca2+  Ca27  1  0.32714379  0.91743316  0.17080554  1
  Ca2+  Ca28  1  0.32676522  0.90286074  0.50304763  1
  Ca2+  Ca29  1  0.32566470  0.91460567  0.83907077  1
  Ca2+  Ca30  1  0.82932588  0.41238788  0.16588781  1
  Ca2+  Ca31  1  0.82508982  0.42364949  0.51230770  1
  Ca2+  Ca32  1  0.82656686  0.41403479  0.83373451  1
  Ca2+  Ca33  1  0.82725129  0.92409517  0.18130149  1
  Ca2+  Ca34  1  0.83046527  0.92399303  0.50119775  1
  Ca2+  Ca35  1  0.83141821  0.92497203  0.83361131  1
  Ca2+  Ca36  1  0.42844171  0.15872049  0.16075499  1
  Ca2+  Ca37  1  0.42155083  0.17379808  0.49503996  1
  Ca2+  Ca38  1  0.41963197  0.17027841  0.82984143  1
  Ca2+  Ca39  1  0.41516539  0.66977645  0.16851136  1
  Ca2+  Ca40  1  0.42430984  0.67121308  0.49900285  1
  Ca2+  Ca41  1  0.41621615  0.66510758  0.82122933  1
  Ca2+  Ca42  1  0.91757008  0.17022843  0.16033523  1
  Ca2+  Ca43  1  0.90989222  0.16732176  0.49962100  1
  Ca2+  Ca44  1  0.91650535  0.17774512  0.82669031  1
  Ca2+  Ca45  1  0.91663362  0.67647137  0.16555159  1
  Ca2+  Ca46  1  0.91498384  0.67192183  0.49369014  1
  Ca2+  Ca47  1  0.92047427  0.66440700  0.82683969  1
  Al0+  Al48  1  -0.00116535  0.00210124  0.00007536  1
  Al0+  Al49  1  0.00173911  0.00279797  0.33608148  1
  Al0+  Al50  1  0.00003368  0.00035554  0.67614048  1
  Al0+  Al51  1  -0.00082290  0.50390435  -0.00193818  1
  Al0+  Al52  1  -0.00048528  0.50030052  0.33566592  1
  Al0+  Al53  1  -0.00137047  0.50043770  0.66292629  1
  Al0+  Al54  1  0.50151776  -0.00222876  -0.00521188  1
  Al0+  Al55  1  0.50028191  0.00032371  0.33073056  1
  Al0+  Al56  1  0.49814673  0.00009266  0.66102232  1
  Al0+  Al57  1  0.50254456  0.49890355  0.01123164  1
  Al0+  Al58  1  0.49837720  0.49994602  0.32877121  1
  Al0+  Al59  1  0.49986674  0.49845129  0.66555941  1
  Al0+  Al60  1  0.25137399  0.24852228  0.00601089  1
  Al0+  Al61  1  0.24710985  0.25049991  0.33804547  1
  Al0+  Al62  1  0.24846905  0.24614842  0.66176066  1
  Al0+  Al63  1  0.24814585  0.74966676  0.00908693  1
  Al0+  Al64  1  0.25066502  0.74710801  0.33236510  1
  Al0+  Al65  1  0.24807955  0.74742550  0.67070835  1
  Al0+  Al66  1  0.75115864  0.25090278  -0.00460889  1
  Al0+  Al67  1  0.74956374  0.25242308  0.33419781  1
  Al0+  Al68  1  0.75180098  0.24971606  0.66877761  1
  Al0+  Al69  1  0.74995704  0.75014995  -0.00407817  1
  Al0+  Al70  1  0.75077551  0.75023931  0.32668814  1
  Al0+  Al71  1  0.75173372  0.75136973  0.66871848  1
  Al0+  Al72  1  0.81889610  0.06955406  0.68270003  1
  Al0+  Al73  1  0.82301076  0.57453982  0.68124192  1
  Al0+  Al74  1  0.17681383  0.42897641  0.01221167  1
  Al0+  Al75  1  0.57274740  0.67765719  0.31556351  1
  Al0+  Al76  1  0.68221028  0.42853081  0.01564297  1
  Al0+  Al77  1  0.57031735  0.18239833  0.32086522  1
  Al0+  Al78  1  0.18148010  0.92911122  0.34776828  1
  Al0+  Al79  1  0.17784649  0.93006565  0.01739934  1
  Al0+  Al80  1  0.32499196  0.07065530  0.01435920  1
  Al0+  Al81  1  0.17764468  0.42880150  0.34936958  1
  Al0+  Al82  1  0.42547230  0.82089769  0.65262827  1
  Al0+  Al83  1  0.42800846  0.32024843  0.65503122  1
  Al0+  Al84  1  0.18152513  0.92897612  0.68040661  1
  Al0+  Al85  1  0.67746840  0.92724316  0.34763637  1
  Al0+  Al86  1  0.92989499  0.32099801  0.65053190  1
  Al0+  Al87  1  0.93155401  0.32181168  0.98558808  1
  Al0+  Al88  1  0.42729138  0.82096660  0.31597062  1
  Al0+  Al89  1  0.67883878  0.42958673  0.68084828  1
  Al0+  Al90  1  0.57083139  0.17768491  0.98472915  1
  Al0+  Al91  1  0.31912103  0.56700008  0.67789098  1
  Al0+  Al92  1  0.57189975  0.67913090  0.65352674  1
  Al0+  Al93  1  0.32384896  0.57138573  0.01795055  1
  Al0+  Al94  1  0.82137216  0.07358112  0.34784532  1
  Al0+  Al95  1  0.93179955  0.82289779  0.32106576  1
  Si0+  Si96  1  0.42828053  0.32257028  0.98664958  1
  Si0+  Si97  1  0.67510550  0.92763841  0.68310591  1
  Si0+  Si98  1  0.81843644  0.07084144  0.01451929  1
  Si0+  Si99  1  0.92970189  0.32218747  0.31819970  1
  Si0+  Si100  1  0.42828294  0.81780167  0.98518044  1
  Si0+  Si101  1  0.57362721  0.17756395  0.64883188  1
  Si0+  Si102  1  0.07126400  0.17975341  0.31815573  1
  Si0+  Si103  1  0.68029865  0.92673619  0.01290041  1
  Si0+  Si104  1  0.57173344  0.67688012  0.98413150  1
  Si0+  Si105  1  0.67849348  0.42963116  0.34752294  1
  Si0+  Si106  1  0.07396658  0.17673608  0.98304524  1
  Si0+  Si107  1  0.82026667  0.57106940  0.34578040  1
  Si0+  Si108  1  0.42462419  0.32177834  0.31531810  1
  Si0+  Si109  1  0.07033191  0.68161401  0.98469695  1
  Si0+  Si110  1  0.92812213  0.82361935  0.98310611  1
  Si0+  Si111  1  0.32404704  0.07438848  0.68187922  1
  Si0+  Si112  1  0.32369794  0.07258071  0.35169319  1
  Si0+  Si113  1  0.93037051  0.82360195  0.65349703  1
  Si0+  Si114  1  0.07028506  0.67924534  0.65192313  1
  Si0+  Si115  1  0.07005794  0.17564434  0.64934423  1
  Si0+  Si116  1  0.07128075  0.67624322  0.31590656  1
  Si0+  Si117  1  0.32261113  0.56985246  0.35280851  1
  Si0+  Si118  1  0.17682048  0.42451363  0.68094766  1
  Si0+  Si119  1  0.82226469  0.57486117  0.01786596  1
  O2-  O120  1  0.25073905  0.00166530  0.06572269  1
  O2-  O121  1  0.25950865  -0.00057247  0.39600546  1
  O2-  O122  1  0.25998752  0.00063644  0.72485615  1
  O2-  O123  1  0.25227548  0.49627949  0.06402572  1
  O2-  O124  1  0.25468090  0.49987619  0.39642121  1
  O2-  O125  1  0.24880004  0.48845282  0.72582868  1
  O2-  O126  1  0.74966251  -0.00148767  0.05662031  1
  O2-  O127  1  0.75015277  -0.00028961  0.39637192  1
  O2-  O128  1  0.74050522  -0.00139517  0.72985725  1
  O2-  O129  1  0.75516815  0.50523721  0.06278445  1
  O2-  O130  1  0.74452833  0.50564677  0.38811961  1
  O2-  O131  1  0.75055164  0.50289134  0.73065993  1
  O2-  O132  1  0.00058568  0.25139571  0.27576107  1
  O2-  O133  1  0.00576225  0.24773815  0.60319066  1
  O2-  O134  1  0.01118138  0.25131402  0.93939731  1
  O2-  O135  1  0.00762112  0.75001591  0.27165948  1
  O2-  O136  1  -0.00307317  0.74863308  0.61107093  1
  O2-  O137  1  0.00131020  0.75470570  0.94151618  1
  O2-  O138  1  0.49326302  0.25323744  0.27119841  1
  O2-  O139  1  0.50204346  0.24491569  0.60732002  1
  O2-  O140  1  0.49405382  0.25170791  0.94086864  1
  O2-  O141  1  0.50193964  0.75127003  0.26548862  1
  O2-  O142  1  0.50359124  0.75482090  0.60391189  1
  O2-  O143  1  0.49599059  0.74332526  0.94274710  1
  O2-  O144  1  0.06861477  0.17283943  0.08872329  1
  O2-  O145  1  0.07142860  0.17991987  0.42307799  1
  O2-  O146  1  0.06875565  0.17562968  0.75494361  1
  O2-  O147  1  0.06675171  0.67993898  0.08964516  1
  O2-  O148  1  0.06775201  0.67402780  0.42169066  1
  O2-  O149  1  0.07145135  0.68009809  0.75732752  1
  O2-  O150  1  0.57339094  0.17821556  0.09786604  1
  O2-  O151  1  0.57152089  0.18742446  0.43382103  1
  O2-  O152  1  0.57298339  0.17769256  0.75469288  1
  O2-  O153  1  0.57576976  0.68122340  0.08876390  1
  O2-  O154  1  0.57266814  0.67532681  0.42883515  1
  O2-  O155  1  0.56810800  0.67846977  0.76783611  1
  O2-  O156  1  0.17568413  0.43070314  0.23637979  1
  O2-  O157  1  0.17690345  0.42848291  0.57517306  1
  O2-  O158  1  0.17524072  0.43406108  0.89872691  1
  O2-  O159  1  0.17948462  0.93489490  0.23520222  1
  O2-  O160  1  0.17870177  0.92938213  0.56737833  1
  O2-  O161  1  0.17907691  0.92937231  0.90360956  1
  O2-  O162  1  0.68323997  0.42658573  0.24234162  1
  O2-  O163  1  0.68002978  0.43026425  0.56669748  1
  O2-  O164  1  0.68106640  0.42889255  0.90309283  1
  O2-  O165  1  0.68081932  0.92935901  0.23313296  1
  O2-  O166  1  0.67861741  0.92675664  0.57795762  1
  O2-  O167  1  0.68344824  0.92532260  0.90775158  1
  O2-  O168  1  0.43074117  0.32202794  0.09219489  1
  O2-  O169  1  0.42583727  0.32178631  0.42125402  1
  O2-  O170  1  0.42767536  0.31917558  0.76822376  1
  O2-  O171  1  0.43154309  0.81960345  0.08989110  1
  O2-  O172  1  0.42555844  0.81543482  0.42924677  1
  O2-  O173  1  0.42473149  0.81767355  0.76706850  1
  O2-  O174  1  0.93046699  0.31799345  0.09941394  1
  O2-  O175  1  0.93013171  0.32326999  0.42303349  1
  O2-  O176  1  0.93129482  0.32045650  0.76375646  1
  O2-  O177  1  0.92625167  0.82347427  0.08814277  1
  O2-  O178  1  0.93242771  0.82043556  0.43441381  1
  O2-  O179  1  0.93312450  0.82452576  0.75906055  1
  O2-  O180  1  0.32055314  0.07507458  0.24616333  1
  O2-  O181  1  0.32099537  0.07915105  0.57663152  1
  O2-  O182  1  0.32450790  0.06764890  0.90046093  1
  O2-  O183  1  0.32114709  0.56833717  0.24719229  1
  O2-  O184  1  0.31604226  0.56768407  0.56510351  1
  O2-  O185  1  0.32356229  0.57227872  0.90392208  1
  O2-  O186  1  0.82056013  0.07471397  0.23356608  1
  O2-  O187  1  0.81984250  0.06757907  0.56997463  1
  O2-  O188  1  0.81836941  0.06929600  0.90931558  1
  O2-  O189  1  0.82382415  0.56743596  0.24057936  1
  O2-  O190  1  0.82394002  0.57336154  0.56708470  1
  O2-  O191  1  0.82176634  0.57696594  0.91264826  1
  O2-  O192  1  0.04307665  0.08925068  0.26887996  1
  O2-  O193  1  0.03777004  0.08315871  0.60447490  1
  O2-  O194  1  0.04113658  0.08603234  0.93394134  1
  O2-  O195  1  0.03782227  0.58527816  0.26799220  1
  O2-  O196  1  0.04485043  0.58797153  0.60212139  1
  O2-  O197  1  0.04069461  0.59203787  0.93398541  1
  O2-  O198  1  0.54490395  0.08443474  0.26699232  1
  O2-  O199  1  0.55073886  0.08366267  0.60205629  1
  O2-  O200  1  0.54414293  0.08053233  0.92861897  1
  O2-  O201  1  0.54181560  0.57930086  0.26173663  1
  O2-  O202  1  0.54206922  0.58174514  0.60029499  1
  O2-  O203  1  0.54768085  0.58177158  0.94242677  1
  O2-  O204  1  0.16319548  0.20775258  0.27057414  1
  O2-  O205  1  0.16469319  0.19413776  0.60235264  1
  O2-  O206  1  0.17095707  0.19433451  0.94115549  1
  O2-  O207  1  0.16655618  0.69492116  0.27206523  1
  O2-  O208  1  0.16018280  0.70952780  0.60305986  1
  O2-  O209  1  0.16358622  0.70839449  0.93919411  1
  O2-  O210  1  0.66634938  0.21656170  0.26574732  1
  O2-  O211  1  0.66648766  0.20566243  0.60384436  1
  O2-  O212  1  0.66598439  0.21232031  0.93021371  1
  O2-  O213  1  0.67151100  0.70244538  0.26068026  1
  O2-  O214  1  0.67280127  0.70460725  0.60339789  1
  O2-  O215  1  0.66222814  0.70774552  0.93505900  1
  O2-  O216  1  0.08000864  0.46387541  0.06646623  1
  O2-  O217  1  0.08168057  0.46284984  0.40360705  1
  O2-  O218  1  0.08419452  0.45504981  0.72506812  1
  O2-  O219  1  0.07794443  0.95977666  0.06724729  1
  O2-  O220  1  0.08636651  0.96400986  0.40235031  1
  O2-  O221  1  0.08734449  0.96247378  0.73775180  1
  O2-  O222  1  0.58727994  0.45610594  0.07378406  1
  O2-  O223  1  0.58338902  0.45157173  0.39043443  1
  O2-  O224  1  0.58088732  0.45701366  0.73507920  1
  O2-  O225  1  0.58740301  0.95189906  0.05753245  1
  O2-  O226  1  0.57874609  0.95462690  0.39941086  1
  O2-  O227  1  0.57926868  0.95007190  0.72658654  1
  O2-  O228  1  0.19752870  0.32870119  0.06489498  1
  O2-  O229  1  0.20325610  0.33120071  0.40408524  1
  O2-  O230  1  0.19489130  0.32782233  0.72261926  1
  O2-  O231  1  0.20230549  0.83185461  0.07112174  1
  O2-  O232  1  0.20513746  0.82862174  0.39792242  1
  O2-  O233  1  0.20830914  0.83214882  0.73593690  1
  O2-  O234  1  0.71791078  0.33254526  0.06870425  1
  O2-  O235  1  0.71127116  0.34132836  0.39756983  1
  O2-  O236  1  0.70916357  0.33205299  0.73385038  1
  O2-  O237  1  0.70974906  0.83556133  0.06073837  1
  O2-  O238  1  0.70823988  0.82813752  0.39754743  1
  O2-  O239  1  0.70409351  0.83604730  0.73178366  1
  O2-  O240  1  0.44874375  0.41527431  0.26943603  1
  O2-  O241  1  0.45970518  0.41462056  0.59759948  1
  O2-  O242  1  0.45840535  0.41640461  0.94285185  1
  O2-  O243  1  0.45123431  0.92130737  0.26495778  1
  O2-  O244  1  0.44373026  0.92220589  0.60137854  1
  O2-  O245  1  0.45895855  0.90736607  0.93490478  1
  O2-  O246  1  0.95827419  0.41386738  0.27043080  1
  O2-  O247  1  0.95876095  0.41794601  0.59513110  1
  O2-  O248  1  0.95669827  0.42094597  0.93315402  1
  O2-  O249  1  0.96190803  0.92020215  0.26704346  1
  O2-  O250  1  0.96321524  0.91401178  0.60709517  1
  O2-  O251  1  0.95414018  0.91626817  0.93583695  1
  O2-  O252  1  0.32951394  0.29641442  0.27230346  1
  O2-  O253  1  0.33122481  0.29095220  0.59855364  1
  O2-  O254  1  0.33266469  0.30189500  0.94227145  1
  O2-  O255  1  0.32949102  0.78848850  0.26212464  1
  O2-  O256  1  0.32877257  0.78508034  0.60085485  1
  O2-  O257  1  0.33336999  0.79300814  0.94259928  1
  O2-  O258  1  0.83791483  0.29449570  0.27095203  1
  O2-  O259  1  0.83343696  0.28791689  0.59775246  1
  O2-  O260  1  0.83780978  0.28562236  0.93020371  1
  O2-  O261  1  0.83750801  0.79080388  0.26299113  1
  O2-  O262  1  0.83706479  0.80117576  0.60718840  1
  O2-  O263  1  0.83747688  0.79371796  0.93389192  1
  O2-  O264  1  0.42318849  0.03808102  0.06572760  1
  O2-  O265  1  0.41915392  0.05361287  0.39517677  1
  O2-  O266  1  0.42010880  0.05516109  0.72532574  1
  O2-  O267  1  0.42117365  0.54593828  0.07349845  1
  O2-  O268  1  0.41694987  0.54392996  0.39700138  1
  O2-  O269  1  0.41562288  0.53867783  0.73232323  1
  O2-  O270  1  0.91111225  0.04502758  0.06091795  1
  O2-  O271  1  0.91983111  0.04718386  0.40063506  1
  O2-  O272  1  0.91281696  0.03550606  0.74030244  1
  O2-  O273  1  0.91620336  0.55156557  0.06355426  1
  O2-  O274  1  0.90987468  0.54002448  0.39554826  1
  O2-  O275  1  0.92182904  0.54420007  0.73333865  1
  O2-  O276  1  0.30187731  0.16941553  0.06923201  1
  O2-  O277  1  0.29248257  0.16440298  0.39882983  1
  O2-  O278  1  0.29249207  0.16525191  0.73124902  1
  O2-  O279  1  0.28991560  0.66672546  0.07291818  1
  O2-  O280  1  0.29463316  0.66267855  0.39801664  1
  O2-  O281  1  0.28346329  0.66041080  0.73524566  1
  O2-  O282  1  0.79034294  0.16240638  0.06075201  1
  O2-  O283  1  0.79013182  0.17131974  0.40135074  1
  O2-  O284  1  0.79081859  0.16645522  0.73705027  1
  O2-  O285  1  0.79478584  0.66884304  0.06325309  1
  O2-  O286  1  0.79850956  0.66503113  0.39051311  1
  O2-  O287  1  0.80173741  0.67444306  0.73488809  1
