# generated using pymatgen
data_Ca2Al2SiO7
_symmetry_space_group_name_H-M   'P 1'
_cell_length_a   15.45798096
_cell_length_b   15.45759804
_cell_length_c   15.28428080
_cell_angle_alpha   89.99350247
_cell_angle_beta   89.99650382
_cell_angle_gamma   89.97819819
_symmetry_Int_Tables_number   1
_chemical_formula_structural   Ca2Al2SiO7
_chemical_formula_sum   'Ca48 Al48 Si24 O168'
_cell_volume   3652.07552875
_cell_formula_units_Z   24
loop_
 _symmetry_equiv_pos_site_id
 _symmetry_equiv_pos_as_xyz
  1  'x, y, z'
loop_
 _atom_type_symbol
 _atom_type_oxidation_number
  Ca2+  2.0
  Al0+  0.0
  Si0+  0.0
  O2-  -2.0
loop_
 _atom_site_type_symbol
 _atom_site_label
 _atom_site_symmetry_multiplicity
 _atom_site_fract_x
 _atom_site_fract_y
 _atom_site_fract_z
 _atom_site_occupancy
  Ca2+  Ca0  1  0.17241319  0.08126724  0.17579640  1
  Ca2+  Ca1  1  0.17240329  0.08422032  0.51077733  1
  Ca2+  Ca2  1  0.16333247  0.08033606  0.83104835  1
  Ca2+  Ca3  1  0.16326140  0.58132445  0.16198262  1
  Ca2+  Ca4  1  0.16715379  0.58407555  0.50801993  1
  Ca2+  Ca5  1  0.16655083  0.58191631  0.84245317  1
  Ca2+  Ca6  1  0.67604033  0.08288895  0.16675863  1
  Ca2+  Ca7  1  0.66464349  0.08098257  0.50713089  1
  Ca2+  Ca8  1  0.67099313  0.08397142  0.83943953  1
  Ca2+  Ca9  1  0.66713594  0.57445979  0.17141284  1
  Ca2+  Ca10  1  0.67702726  0.58380937  0.50691037  1
  Ca2+  Ca11  1  0.66829673  0.58187887  0.83814220  1
  Ca2+  Ca12  1  0.07893547  0.32927061  0.15934297  1
  Ca2+  Ca13  1  0.08094561  0.32387052  0.50052274  1
  Ca2+  Ca14  1  0.07334822  0.33446036  0.82675941  1
  Ca2+  Ca15  1  0.07761321  0.82448242  0.15544564  1
  Ca2+  Ca16  1  0.08333598  0.83414824  0.50491321  1
  Ca2+  Ca17  1  0.07731144  0.82566984  0.82824875  1
  Ca2+  Ca18  1  0.58897913  0.33786063  0.16219016  1
  Ca2+  Ca19  1  0.58065374  0.33095792  0.50228242  1
  Ca2+  Ca20  1  0.57928966  0.33104836  0.82591899  1
  Ca2+  Ca21  1  0.57200967  0.82629068  0.15868083  1
  Ca2+  Ca22  1  0.58032333  0.82710076  0.49757084  1
  Ca2+  Ca23  1  0.57964356  0.82144263  0.83190645  1
  Ca2+  Ca24  1  0.32888407  0.42528672  0.16370728  1
  Ca2+  Ca25  1  0.33279137  0.41514891  0.50707036  1
  Ca2+  Ca26  1  0.32702129  0.42009584  0.84143001  1
  Ca2+  Ca27  1  0.33712823  0.91713916  0.17388936  1
  Ca2+  Ca28  1  0.33017094  0.92672478  0.50953174  1
  Ca2+  Ca29  1  0.33072277  0.91852678  0.83469649  1
  Ca2+  Ca30  1  0.82509326  0.42014571  0.17115668  1
  Ca2+  Ca31  1  0.83417121  0.42671860  0.50544610  1
  Ca2+  Ca32  1  0.83309135  0.41820267  0.84019596  1
  Ca2+  Ca33  1  0.83942055  0.92025647  0.16476030  1
  Ca2+  Ca34  1  0.83377229  0.91515906  0.50907853  1
  Ca2+  Ca35  1  0.84259797  0.92087010  0.83683805  1
  Ca2+  Ca36  1  0.41787308  0.16608358  0.16564385  1
  Ca2+  Ca37  1  0.41350956  0.16607372  0.50115252  1
  Ca2+  Ca38  1  0.42075299  0.17400694  0.82109594  1
  Ca2+  Ca39  1  0.41777003  0.67534418  0.15430163  1
  Ca2+  Ca40  1  0.42369145  0.67219054  0.49611057  1
  Ca2+  Ca41  1  0.42628155  0.66020397  0.83247636  1
  Ca2+  Ca42  1  0.92118229  0.17011403  0.15782695  1
  Ca2+  Ca43  1  0.92994707  0.16815232  0.49907259  1
  Ca2+  Ca44  1  0.91570426  0.17913553  0.82736926  1
  Ca2+  Ca45  1  0.91829761  0.66886053  0.15823298  1
  Ca2+  Ca46  1  0.91623707  0.66489970  0.50267881  1
  Ca2+  Ca47  1  0.92553832  0.66996569  0.82331581  1
  Al0+  Al48  1  0.00239805  0.00044055  0.00318808  1
  Al0+  Al49  1  0.00153659  -0.00072804  0.32903018  1
  Al0+  Al50  1  -0.00014388  -0.00030593  0.66452664  1
  Al0+  Al51  1  -0.00088636  0.49765678  -0.00104224  1
  Al0+  Al52  1  -0.00042017  0.49914788  0.33665183  1
  Al0+  Al53  1  -0.00035556  0.50208162  0.66289382  1
  Al0+  Al54  1  0.50121381  -0.00077339  -0.00222861  1
  Al0+  Al55  1  0.50045055  0.00136200  0.33299788  1
  Al0+  Al56  1  0.50049870  0.00032615  0.66989704  1
  Al0+  Al57  1  0.49880275  0.49939845  0.00559098  1
  Al0+  Al58  1  0.49954706  0.49797605  0.33709841  1
  Al0+  Al59  1  0.50125817  0.49993228  0.65719424  1
  Al0+  Al60  1  0.25079002  0.24908658  0.00520483  1
  Al0+  Al61  1  0.25124814  0.24943429  0.33145209  1
  Al0+  Al62  1  0.25041229  0.25143025  0.66583361  1
  Al0+  Al63  1  0.24976048  0.75237207  -0.00284919  1
  Al0+  Al64  1  0.24829324  0.74999953  0.32977936  1
  Al0+  Al65  1  0.24983032  0.75106283  0.66789931  1
  Al0+  Al66  1  0.75202487  0.24896115  0.00566958  1
  Al0+  Al67  1  0.74949007  0.24981506  0.33845188  1
  Al0+  Al68  1  0.74766207  0.25110882  0.65724665  1
  Al0+  Al69  1  0.74748109  0.75257782  -0.00517825  1
  Al0+  Al70  1  0.75025503  0.74986916  0.33431084  1
  Al0+  Al71  1  0.75033962  0.74929863  0.66489270  1
  Al0+  Al72  1  0.57120457  0.67905023  0.65134076  1
  Al0+  Al73  1  0.31998708  0.57239736  0.01400167  1
  Al0+  Al74  1  0.42753426  0.82358636  0.98266833  1
  Al0+  Al75  1  0.92946360  0.82077554  0.65087853  1
  Al0+  Al76  1  0.82082328  0.57046849  0.68342970  1
  Al0+  Al77  1  0.06907406  0.67748308  0.98546700  1
  Al0+  Al78  1  0.17763531  0.92877280  0.68403592  1
  Al0+  Al79  1  0.92652848  0.32407799  0.65002702  1
  Al0+  Al80  1  0.56964281  0.67569914  0.98614920  1
  Al0+  Al81  1  0.92845792  0.31869013  0.98889591  1
  Al0+  Al82  1  0.32103670  0.07012157  0.34768699  1
  Al0+  Al83  1  0.92792038  0.82338867  0.98552708  1
  Al0+  Al84  1  0.82127017  0.57182465  0.34902759  1
  Al0+  Al85  1  0.07339244  0.67915816  0.65048798  1
  Al0+  Al86  1  0.07002475  0.17947411  0.65402250  1
  Al0+  Al87  1  0.67953334  0.42920340  0.01138199  1
  Al0+  Al88  1  0.67677843  0.42697417  0.35287491  1
  Al0+  Al89  1  0.42846305  0.32125289  0.65245359  1
  Al0+  Al90  1  0.07180204  0.17922166  0.31779361  1
  Al0+  Al91  1  0.42980901  0.82056806  0.32173565  1
  Al0+  Al92  1  0.57077474  0.17668040  0.65213532  1
  Al0+  Al93  1  0.82149733  0.06934229  0.01250850  1
  Al0+  Al94  1  0.32125626  0.07282916  0.68460515  1
  Al0+  Al95  1  0.17598211  0.42720499  0.01497176  1
  Si0+  Si96  1  0.67869998  0.92784998  0.68240990  1
  Si0+  Si97  1  0.57203169  0.67749383  0.31660061  1
  Si0+  Si98  1  0.92844442  0.32101819  0.31602050  1
  Si0+  Si99  1  0.17713541  0.92660891  0.34970517  1
  Si0+  Si100  1  0.17932037  0.43031863  0.67991806  1
  Si0+  Si101  1  0.82343777  0.06980041  0.34927500  1
  Si0+  Si102  1  0.32327438  0.57123021  0.67890312  1
  Si0+  Si103  1  0.42883020  0.32191507  0.31510248  1
  Si0+  Si104  1  0.68017096  0.93081763  0.34729425  1
  Si0+  Si105  1  0.67774209  0.42855884  0.68313335  1
  Si0+  Si106  1  0.81965174  0.07206349  0.67908297  1
  Si0+  Si107  1  0.18007867  0.93035701  0.01694859  1
  Si0+  Si108  1  0.42845436  0.31954028  0.98841848  1
  Si0+  Si109  1  0.67590788  0.92756594  0.01752227  1
  Si0+  Si110  1  0.32373613  0.07089161  0.01628926  1
  Si0+  Si111  1  0.07063451  0.67709344  0.31743580  1
  Si0+  Si112  1  0.82143343  0.57414321  0.01367935  1
  Si0+  Si113  1  0.18030054  0.42922880  0.34897742  1
  Si0+  Si114  1  0.57191045  0.17985890  0.98843718  1
  Si0+  Si115  1  0.57210686  0.17905585  0.31630395  1
  Si0+  Si116  1  0.92754869  0.82090575  0.31738284  1
  Si0+  Si117  1  0.42819066  0.82222065  0.65054921  1
  Si0+  Si118  1  0.31954475  0.57262740  0.34845021  1
  Si0+  Si119  1  0.07502145  0.17812250  0.98434897  1
  O2-  O120  1  0.25341530  -0.00043144  0.05901085  1
  O2-  O121  1  0.24592257  -0.00452778  0.39292434  1
  O2-  O122  1  0.24954374  0.00101385  0.73511294  1
  O2-  O123  1  0.24528324  0.50273069  0.06475289  1
  O2-  O124  1  0.24996429  0.50118432  0.39221915  1
  O2-  O125  1  0.25032153  0.50219289  0.72073030  1
  O2-  O126  1  0.74934502  -0.00780316  0.06117013  1
  O2-  O127  1  0.75312641  -0.00140894  0.39175446  1
  O2-  O128  1  0.74836330  0.00162451  0.72221924  1
  O2-  O129  1  0.75095845  0.50724745  0.05829211  1
  O2-  O130  1  0.74840462  0.50069554  0.39973202  1
  O2-  O131  1  0.74826998  0.49335164  0.72949149  1
  O2-  O132  1  -0.00472268  0.25134910  0.27021790  1
  O2-  O133  1  -0.00171590  0.25059293  0.60190250  1
  O2-  O134  1  0.00696022  0.24794055  0.94220380  1
  O2-  O135  1  -0.00228480  0.74778719  0.27747661  1
  O2-  O136  1  0.00156163  0.75033894  0.59866000  1
  O2-  O137  1  -0.00602678  0.74634391  0.93609834  1
  O2-  O138  1  0.50355447  0.25308993  0.27421514  1
  O2-  O139  1  0.49672030  0.24599308  0.60132061  1
  O2-  O140  1  0.49988577  0.24923929  0.94649582  1
  O2-  O141  1  0.50064048  0.74330927  0.27290183  1
  O2-  O142  1  0.49612647  0.75366752  0.60500866  1
  O2-  O143  1  0.49668993  0.74726063  0.93583370  1
  O2-  O144  1  0.07449138  0.17821659  0.09051313  1
  O2-  O145  1  0.07115474  0.18016483  0.43038456  1
  O2-  O146  1  0.06763749  0.18156669  0.76772395  1
  O2-  O147  1  0.06761917  0.67983555  0.10022871  1
  O2-  O148  1  0.07435119  0.67753246  0.42189866  1
  O2-  O149  1  0.07303292  0.67743623  0.76345112  1
  O2-  O150  1  0.57060505  0.17938460  0.09399957  1
  O2-  O151  1  0.57079555  0.17551243  0.42060439  1
  O2-  O152  1  0.57322159  0.17930547  0.76626558  1
  O2-  O153  1  0.56866894  0.67707129  0.10032984  1
  O2-  O154  1  0.57223399  0.68111694  0.42220380  1
  O2-  O155  1  0.56908267  0.67733557  0.76406586  1
  O2-  O156  1  0.18048939  0.43048527  0.24412243  1
  O2-  O157  1  0.18153094  0.43040972  0.57412995  1
  O2-  O158  1  0.17966076  0.42333237  0.90153500  1
  O2-  O159  1  0.17724036  0.92693009  0.24380705  1
  O2-  O160  1  0.18078240  0.92929027  0.56979878  1
  O2-  O161  1  0.17734667  0.93301827  0.91254414  1
  O2-  O162  1  0.67858323  0.42783507  0.23866598  1
  O2-  O163  1  0.67739480  0.43160578  0.57774119  1
  O2-  O164  1  0.67962978  0.42541585  0.89879950  1
  O2-  O165  1  0.68103866  0.93265460  0.24236967  1
  O2-  O166  1  0.67855725  0.92838242  0.57646863  1
  O2-  O167  1  0.67088211  0.93181550  0.91239442  1
  O2-  O168  1  0.42802487  0.31724375  0.09379530  1
  O2-  O169  1  0.42575773  0.32133452  0.41962064  1
  O2-  O170  1  0.43064761  0.32336879  0.76657564  1
  O2-  O171  1  0.43112309  0.82560126  0.09699609  1
  O2-  O172  1  0.43305292  0.81868992  0.43464544  1
  O2-  O173  1  0.43021243  0.82127493  0.75577463  1
  O2-  O174  1  0.92716615  0.31540230  0.10229462  1
  O2-  O175  1  0.93175445  0.31996299  0.42123332  1
  O2-  O176  1  0.92608009  0.32183627  0.76396180  1
  O2-  O177  1  0.93201348  0.82320169  0.10009609  1
  O2-  O178  1  0.92685772  0.82439749  0.42178004  1
  O2-  O179  1  0.92962622  0.82069039  0.76390215  1
  O2-  O180  1  0.32140587  0.06850659  0.23388923  1
  O2-  O181  1  0.32096703  0.07028326  0.57065131  1
  O2-  O182  1  0.32431568  0.07367693  0.91201709  1
  O2-  O183  1  0.31860866  0.57244820  0.24377036  1
  O2-  O184  1  0.32206739  0.57010437  0.57304945  1
  O2-  O185  1  0.32283509  0.56609709  0.90031008  1
  O2-  O186  1  0.82237358  0.06913961  0.24404801  1
  O2-  O187  1  0.81857734  0.06875997  0.57344425  1
  O2-  O188  1  0.81766124  0.07222017  0.89954186  1
  O2-  O189  1  0.82121812  0.57252397  0.23494096  1
  O2-  O190  1  0.81861084  0.57086520  0.57025859  1
  O2-  O191  1  0.82133690  0.57135660  0.90851216  1
  O2-  O192  1  0.04279129  0.08161816  0.26349988  1
  O2-  O193  1  0.04164025  0.08244161  0.59885167  1
  O2-  O194  1  0.04845830  0.08472465  0.94058311  1
  O2-  O195  1  0.04351940  0.58433438  0.27126469  1
  O2-  O196  1  0.04516791  0.58186377  0.59571784  1
  O2-  O197  1  0.04686684  0.57734697  0.93470220  1
  O2-  O198  1  0.54180278  0.08881178  0.26674188  1
  O2-  O199  1  0.54545514  0.07695850  0.59956785  1
  O2-  O200  1  0.54680017  0.08799742  0.94086545  1
  O2-  O201  1  0.54812243  0.58160713  0.27513221  1
  O2-  O202  1  0.54015032  0.58520627  0.59314170  1
  O2-  O203  1  0.54001738  0.57711885  0.93372033  1
  O2-  O204  1  0.16819601  0.21118742  0.26369062  1
  O2-  O205  1  0.16775184  0.20911079  0.60083672  1
  O2-  O206  1  0.16974507  0.20140569  0.94026396  1
  O2-  O207  1  0.16117511  0.70609141  0.26775832  1
  O2-  O208  1  0.17243709  0.70727223  0.59704978  1
  O2-  O209  1  0.16711577  0.70751099  0.93466562  1
  O2-  O210  1  0.66592467  0.20445214  0.27035395  1
  O2-  O211  1  0.66632769  0.20494799  0.59360485  1
  O2-  O212  1  0.66315251  0.20850190  0.94200554  1
  O2-  O213  1  0.66482838  0.70625512  0.27071371  1
  O2-  O214  1  0.66555204  0.71369792  0.59645555  1
  O2-  O215  1  0.66693397  0.70486918  0.93199463  1
  O2-  O216  1  0.07732447  0.45321653  0.06996003  1
  O2-  O217  1  0.08826658  0.45495294  0.39650286  1
  O2-  O218  1  0.08739239  0.45793988  0.72610297  1
  O2-  O219  1  0.09022984  0.95996981  0.06827818  1
  O2-  O220  1  0.08282359  0.95212772  0.39427046  1
  O2-  O221  1  0.07868218  0.95858097  0.73573048  1
  O2-  O222  1  0.58313190  0.45591742  0.06879201  1
  O2-  O223  1  0.57633560  0.45131965  0.40389012  1
  O2-  O224  1  0.58360816  0.45730805  0.72679267  1
  O2-  O225  1  0.58513043  0.95983053  0.06715421  1
  O2-  O226  1  0.59020509  0.96223184  0.39595768  1
  O2-  O227  1  0.58748392  0.95404034  0.73122621  1
  O2-  O228  1  0.20948804  0.33075840  0.07125753  1
  O2-  O229  1  0.21162355  0.33817934  0.39530945  1
  O2-  O230  1  0.20677768  0.33948221  0.72840755  1
  O2-  O231  1  0.20550435  0.83805634  0.06466784  1
  O2-  O232  1  0.20156479  0.83222281  0.39468708  1
  O2-  O233  1  0.20674285  0.83004244  0.73654519  1
  O2-  O234  1  0.71264384  0.33468459  0.06945864  1
  O2-  O235  1  0.70315957  0.32735178  0.40452402  1
  O2-  O236  1  0.69851726  0.33162755  0.72454120  1
  O2-  O237  1  0.69629314  0.83254052  0.06313755  1
  O2-  O238  1  0.70509102  0.83810783  0.39443407  1
  O2-  O239  1  0.70843711  0.83737710  0.72999649  1
  O2-  O240  1  0.45438632  0.41526981  0.26870354  1
  O2-  O241  1  0.45891521  0.41637753  0.59381574  1
  O2-  O242  1  0.45471709  0.41151409  0.94253603  1
  O2-  O243  1  0.46355627  0.91643930  0.26736969  1
  O2-  O244  1  0.45559116  0.91571421  0.60576029  1
  O2-  O245  1  0.46051046  0.92053743  0.92916449  1
  O2-  O246  1  0.95585303  0.41491055  0.27124147  1
  O2-  O247  1  0.95884546  0.41999265  0.59597066  1
  O2-  O248  1  0.95433758  0.41548268  0.93461466  1
  O2-  O249  1  0.95676096  0.91185411  0.26833340  1
  O2-  O250  1  0.95609691  0.91925414  0.59669468  1
  O2-  O251  1  0.96217314  0.92090498  0.93449265  1
  O2-  O252  1  0.33896664  0.29071238  0.26598042  1
  O2-  O253  1  0.33006118  0.29618448  0.59811103  1
  O2-  O254  1  0.33715849  0.29044363  0.94094076  1
  O2-  O255  1  0.33192704  0.79315148  0.26751687  1
  O2-  O256  1  0.33480678  0.79760564  0.60459364  1
  O2-  O257  1  0.32782836  0.80199400  0.93215540  1
  O2-  O258  1  0.83294114  0.29547025  0.27376715  1
  O2-  O259  1  0.82924019  0.29739817  0.59533907  1
  O2-  O260  1  0.83382709  0.28267350  0.93430784  1
  O2-  O261  1  0.83499650  0.79539832  0.26959666  1
  O2-  O262  1  0.83116395  0.79270974  0.59748837  1
  O2-  O263  1  0.82554922  0.80914093  0.93710340  1
  O2-  O264  1  0.41643354  0.04376682  0.06347078  1
  O2-  O265  1  0.41858145  0.04062872  0.40054943  1
  O2-  O266  1  0.42084563  0.04512479  0.73655260  1
  O2-  O267  1  0.41496709  0.53906871  0.07200303  1
  O2-  O268  1  0.41188987  0.54584179  0.39534842  1
  O2-  O269  1  0.41489507  0.53994426  0.72423777  1
  O2-  O270  1  0.91830303  0.04102210  0.06926737  1
  O2-  O271  1  0.91575875  0.04089992  0.39480751  1
  O2-  O272  1  0.91088737  0.04460590  0.72660806  1
  O2-  O273  1  0.91384267  0.54641328  0.06110921  1
  O2-  O274  1  0.91983889  0.54267359  0.40254731  1
  O2-  O275  1  0.91953978  0.54187432  0.73392160  1
  O2-  O276  1  0.29621145  0.16183445  0.06651275  1
  O2-  O277  1  0.29140513  0.16808741  0.39915039  1
  O2-  O278  1  0.29421402  0.17272131  0.73552051  1
  O2-  O279  1  0.29466834  0.67262277  0.06554334  1
  O2-  O280  1  0.29043679  0.66428568  0.39575067  1
  O2-  O281  1  0.30017891  0.66383723  0.72556803  1
  O2-  O282  1  0.78619635  0.16190988  0.07243556  1
  O2-  O283  1  0.79575133  0.16121216  0.39630668  1
  O2-  O284  1  0.79102430  0.16509545  0.72364829  1
  O2-  O285  1  0.79869208  0.66978211  0.05778737  1
  O2-  O286  1  0.79405988  0.67146212  0.40149072  1
  O2-  O287  1  0.78786731  0.66742837  0.73501806  1
