# generated using pymatgen
data_Ca2Al2SiO7
_symmetry_space_group_name_H-M   'P 1'
_cell_length_a   15.45601571
_cell_length_b   15.45591970
_cell_length_c   15.28228661
_cell_angle_alpha   89.99757960
_cell_angle_beta   90.01040336
_cell_angle_gamma   89.99906390
_symmetry_Int_Tables_number   1
_chemical_formula_structural   Ca2Al2SiO7
_chemical_formula_sum   'Ca48 Al48 Si24 O168'
_cell_volume   3650.73858693
_cell_formula_units_Z   24
loop_
 _symmetry_equiv_pos_site_id
 _symmetry_equiv_pos_as_xyz
  1  'x, y, z'
loop_
 _atom_type_symbol
 _atom_type_oxidation_number
  Ca2+  2.0
  Al0+  0.0
  Si0+  0.0
  O2-  -2.0
loop_
 _atom_site_type_symbol
 _atom_site_label
 _atom_site_symmetry_multiplicity
 _atom_site_fract_x
 _atom_site_fract_y
 _atom_site_fract_z
 _atom_site_occupancy
  Ca2+  Ca0  1  0.16440851  0.08342462  0.17269758  1
  Ca2+  Ca1  1  0.17334441  0.09448590  0.49946402  1
  Ca2+  Ca2  1  0.16275686  0.07725533  0.84432080  1
  Ca2+  Ca3  1  0.17109256  0.58556800  0.16934875  1
  Ca2+  Ca4  1  0.16140193  0.58188108  0.50704353  1
  Ca2+  Ca5  1  0.16971344  0.57959040  0.83592960  1
  Ca2+  Ca6  1  0.67085094  0.08635469  0.17157302  1
  Ca2+  Ca7  1  0.65660256  0.07512230  0.50365437  1
  Ca2+  Ca8  1  0.66774944  0.08578736  0.83769812  1
  Ca2+  Ca9  1  0.67389457  0.57371961  0.17138455  1
  Ca2+  Ca10  1  0.67416191  0.57130564  0.50318757  1
  Ca2+  Ca11  1  0.67066450  0.57010556  0.84546878  1
  Ca2+  Ca12  1  0.07597781  0.32125675  0.15965912  1
  Ca2+  Ca13  1  0.07632861  0.33676844  0.49634797  1
  Ca2+  Ca14  1  0.07032792  0.33881755  0.82865620  1
  Ca2+  Ca15  1  0.07794181  0.83231657  0.16495877  1
  Ca2+  Ca16  1  0.07498874  0.82083904  0.49071129  1
  Ca2+  Ca17  1  0.08312674  0.82838901  0.82917632  1
  Ca2+  Ca18  1  0.59195751  0.32730303  0.16101313  1
  Ca2+  Ca19  1  0.58820472  0.32592188  0.49805657  1
  Ca2+  Ca20  1  0.58841243  0.32588508  0.82629929  1
  Ca2+  Ca21  1  0.58687093  0.82798216  0.16275963  1
  Ca2+  Ca22  1  0.58804368  0.83744324  0.49416998  1
  Ca2+  Ca23  1  0.58962311  0.82526070  0.83067568  1
  Ca2+  Ca24  1  0.33563705  0.42218649  0.16740394  1
  Ca2+  Ca25  1  0.32541143  0.41365959  0.50832236  1
  Ca2+  Ca26  1  0.32810851  0.41465853  0.83523604  1
  Ca2+  Ca27  1  0.32504287  0.92314371  0.17048840  1
  Ca2+  Ca28  1  0.33506120  0.92720674  0.50100122  1
  Ca2+  Ca29  1  0.32445448  0.91857579  0.84030049  1
  Ca2+  Ca30  1  0.82768412  0.42053812  0.16728781  1
  Ca2+  Ca31  1  0.82680410  0.41372201  0.50358525  1
  Ca2+  Ca32  1  0.82736522  0.41297134  0.84041165  1
  Ca2+  Ca33  1  0.82985874  0.92149859  0.17262471  1
  Ca2+  Ca34  1  0.82588426  0.91504748  0.50024348  1
  Ca2+  Ca35  1  0.82979560  0.92631435  0.83847814  1
  Ca2+  Ca36  1  0.42707025  0.16314486  0.16537841  1
  Ca2+  Ca37  1  0.42391221  0.17179021  0.49533498  1
  Ca2+  Ca38  1  0.42847022  0.17408553  0.82703304  1
  Ca2+  Ca39  1  0.42390712  0.66545042  0.15609388  1
  Ca2+  Ca40  1  0.41954975  0.67018501  0.49674458  1
  Ca2+  Ca41  1  0.42081811  0.66127419  0.83623596  1
  Ca2+  Ca42  1  0.92031356  0.16920246  0.15475124  1
  Ca2+  Ca43  1  0.92110126  0.17410154  0.49647573  1
  Ca2+  Ca44  1  0.91422440  0.17644063  0.83590471  1
  Ca2+  Ca45  1  0.90981585  0.66773229  0.16727475  1
  Ca2+  Ca46  1  0.92363126  0.66594119  0.49031942  1
  Ca2+  Ca47  1  0.91978258  0.66305841  0.82919319  1
  Al0+  Al48  1  -0.00126788  -0.00213099  0.00387898  1
  Al0+  Al49  1  -0.00021581  -0.00263078  0.33013907  1
  Al0+  Al50  1  -0.00001243  -0.00015089  0.66552108  1
  Al0+  Al51  1  0.00021494  0.50067317  0.00128930  1
  Al0+  Al52  1  0.00163307  0.50070912  0.32941690  1
  Al0+  Al53  1  0.00146578  0.49967523  0.66224008  1
  Al0+  Al54  1  0.49688993  -0.00120026  -0.00536562  1
  Al0+  Al55  1  0.49806095  0.00207971  0.33578293  1
  Al0+  Al56  1  0.49986937  -0.00180541  0.67098012  1
  Al0+  Al57  1  0.49870347  0.49995589  0.00312983  1
  Al0+  Al58  1  0.49885639  0.49971619  0.33923958  1
  Al0+  Al59  1  0.50015371  0.50088560  0.66554579  1
  Al0+  Al60  1  0.25141338  0.24766004  -0.00224388  1
  Al0+  Al61  1  0.25110198  0.25164118  0.33220390  1
  Al0+  Al62  1  0.25180398  0.25128975  0.67187584  1
  Al0+  Al63  1  0.24918801  0.75113484  0.00814190  1
  Al0+  Al64  1  0.24984817  0.75141008  0.33109598  1
  Al0+  Al65  1  0.25130552  0.75107709  0.66191537  1
  Al0+  Al66  1  0.75093862  0.24806819  0.00017124  1
  Al0+  Al67  1  0.75008141  0.24929949  0.33382060  1
  Al0+  Al68  1  0.75213138  0.24840871  0.66013543  1
  Al0+  Al69  1  0.74996988  0.74929278  -0.00395036  1
  Al0+  Al70  1  0.75030751  0.74952482  0.33763678  1
  Al0+  Al71  1  0.75046352  0.75164346  0.67043685  1
  Al0+  Al72  1  0.67843312  0.92908444  0.68305749  1
  Al0+  Al73  1  0.17865190  0.42967498  0.68021799  1
  Al0+  Al74  1  0.17812168  0.92986892  0.01485375  1
  Al0+  Al75  1  0.57137666  0.67897515  0.98725019  1
  Al0+  Al76  1  0.67811502  0.42654729  0.35080655  1
  Al0+  Al77  1  0.81806847  0.06940057  0.01307677  1
  Al0+  Al78  1  0.82206240  0.57010358  0.34957922  1
  Al0+  Al79  1  0.93013215  0.32045254  0.65154480  1
  Al0+  Al80  1  0.67956444  0.93140916  0.34447184  1
  Al0+  Al81  1  0.07189501  0.18076962  0.32147031  1
  Al0+  Al82  1  0.57094844  0.17813312  0.65014920  1
  Al0+  Al83  1  0.07062454  0.68063987  0.65468587  1
  Al0+  Al84  1  0.07216920  0.67733893  0.31434218  1
  Al0+  Al85  1  0.67894140  0.42692974  0.01420396  1
  Al0+  Al86  1  0.07184754  0.17607971  0.98480690  1
  Al0+  Al87  1  0.31919640  0.56938676  0.01308689  1
  Al0+  Al88  1  0.93058090  0.32189068  0.98537405  1
  Al0+  Al89  1  0.82299550  0.57314823  0.01434370  1
  Al0+  Al90  1  0.42785538  0.32301401  0.65153407  1
  Al0+  Al91  1  0.67975245  0.42831844  0.68072053  1
  Al0+  Al92  1  0.57002855  0.17935264  0.31889009  1
  Al0+  Al93  1  0.57087550  0.17876454  0.98660207  1
  Al0+  Al94  1  0.31869727  0.07136862  0.34711765  1
  Al0+  Al95  1  0.92629056  0.81931303  0.31686779  1
  Si0+  Si96  1  0.92725888  0.82394631  0.65031526  1
  Si0+  Si97  1  0.07320895  0.68054235  0.98515615  1
  Si0+  Si98  1  0.57282812  0.67943157  0.65124046  1
  Si0+  Si99  1  0.42754348  0.32372873  0.98359307  1
  Si0+  Si100  1  0.67562686  0.92739931  0.01492269  1
  Si0+  Si101  1  0.18147672  0.43056978  0.34631259  1
  Si0+  Si102  1  0.42783210  0.32342547  0.31591494  1
  Si0+  Si103  1  0.56889440  0.67842238  0.32080533  1
  Si0+  Si104  1  0.42593245  0.82018833  0.98330073  1
  Si0+  Si105  1  0.17680642  0.92728179  0.35275592  1
  Si0+  Si106  1  0.92822410  0.82062521  0.98335312  1
  Si0+  Si107  1  0.32091915  0.07107945  0.68388455  1
  Si0+  Si108  1  0.32216848  0.57542648  0.68243230  1
  Si0+  Si109  1  0.92728823  0.32180020  0.31521517  1
  Si0+  Si110  1  0.17733880  0.42591036  0.01720415  1
  Si0+  Si111  1  0.32151297  0.57391244  0.34965192  1
  Si0+  Si112  1  0.42937651  0.82038407  0.65107294  1
  Si0+  Si113  1  0.17994860  0.92883215  0.67911107  1
  Si0+  Si114  1  0.82441856  0.07150201  0.68282130  1
  Si0+  Si115  1  0.42929898  0.82274127  0.31823122  1
  Si0+  Si116  1  0.07339382  0.17581155  0.65182271  1
  Si0+  Si117  1  0.82243069  0.57130997  0.68264676  1
  Si0+  Si118  1  0.32303955  0.07232266  0.01647966  1
  Si0+  Si119  1  0.82507956  0.07238079  0.35048057  1
  O2-  O120  1  0.24923667  0.00875374  0.05995906  1
  O2-  O121  1  0.24187291  -0.00044939  0.39709656  1
  O2-  O122  1  0.24554240  0.00325716  0.72413607  1
  O2-  O123  1  0.24668372  0.49388440  0.06195877  1
  O2-  O124  1  0.24824522  0.50531180  0.39034690  1
  O2-  O125  1  0.25544793  0.50396071  0.72490918  1
  O2-  O126  1  0.74009104  -0.00175348  0.06035248  1
  O2-  O127  1  0.75352366  0.00580088  0.39370955  1
  O2-  O128  1  0.75298388  0.00472551  0.72657523  1
  O2-  O129  1  0.75031917  0.50087755  0.06225117  1
  O2-  O130  1  0.75291550  0.49613595  0.40053284  1
  O2-  O131  1  0.75327308  0.50410180  0.72765184  1
  O2-  O132  1  -0.00741439  0.24866196  0.27302628  1
  O2-  O133  1  0.00694379  0.24597201  0.60731117  1
  O2-  O134  1  0.00509014  0.25208887  0.93422029  1
  O2-  O135  1  -0.00120602  0.74825540  0.26526465  1
  O2-  O136  1  -0.00567115  0.75321979  0.60784513  1
  O2-  O137  1  -0.00188217  0.74715905  0.94233446  1
  O2-  O138  1  0.50034610  0.25903378  0.27219281  1
  O2-  O139  1  0.50115029  0.25300400  0.60059384  1
  O2-  O140  1  0.49798477  0.25607180  0.94101020  1
  O2-  O141  1  0.49808713  0.74944916  0.27698583  1
  O2-  O142  1  0.50261428  0.75177830  0.60853973  1
  O2-  O143  1  0.49709983  0.75436287  0.93866618  1
  O2-  O144  1  0.06969365  0.17707635  0.09855962  1
  O2-  O145  1  0.07318074  0.18696953  0.43501207  1
  O2-  O146  1  0.07090009  0.17133076  0.75687347  1
  O2-  O147  1  0.07631364  0.68354065  0.08956005  1
  O2-  O148  1  0.07422010  0.67949091  0.42831660  1
  O2-  O149  1  0.07267543  0.68367141  0.76822382  1
  O2-  O150  1  0.56826618  0.17630152  0.09975313  1
  O2-  O151  1  0.56531766  0.17606197  0.43158209  1
  O2-  O152  1  0.56909753  0.17796489  0.76393287  1
  O2-  O153  1  0.56934905  0.68182895  0.10071310  1
  O2-  O154  1  0.56519656  0.67986296  0.42635921  1
  O2-  O155  1  0.57084946  0.68003863  0.75623890  1
  O2-  O156  1  0.18563992  0.42983448  0.24137383  1
  O2-  O157  1  0.17895077  0.43162632  0.56661624  1
  O2-  O158  1  0.17759089  0.42870412  0.91149142  1
  O2-  O159  1  0.18012336  0.92578468  0.24731119  1
  O2-  O160  1  0.18311716  0.92776758  0.57447612  1
  O2-  O161  1  0.18104328  0.92735007  0.90069551  1
  O2-  O162  1  0.67564988  0.42920752  0.23763805  1
  O2-  O163  1  0.68112090  0.43076808  0.56784117  1
  O2-  O164  1  0.67952876  0.42750105  0.90021264  1
  O2-  O165  1  0.67845200  0.93147077  0.23146331  1
  O2-  O166  1  0.67856634  0.92828801  0.56985173  1
  O2-  O167  1  0.67896230  0.92714653  0.90922223  1
  O2-  O168  1  0.42518452  0.32312822  0.08925595  1
  O2-  O169  1  0.42358386  0.32196100  0.42123384  1
  O2-  O170  1  0.42588705  0.31960003  0.76505775  1
  O2-  O171  1  0.42596286  0.81996063  0.08899829  1
  O2-  O172  1  0.42892326  0.82177170  0.42389693  1
  O2-  O173  1  0.42489932  0.81885352  0.75581529  1
  O2-  O174  1  0.93176102  0.31992383  0.09900396  1
  O2-  O175  1  0.92990697  0.32244566  0.42123836  1
  O2-  O176  1  0.92989682  0.32133135  0.76415998  1
  O2-  O177  1  0.92762333  0.82155964  0.08789054  1
  O2-  O178  1  0.92832612  0.81852437  0.43107303  1
  O2-  O179  1  0.92976453  0.82620607  0.75615700  1
  O2-  O180  1  0.31908751  0.06748100  0.23433223  1
  O2-  O181  1  0.32099360  0.06950737  0.57855994  1
  O2-  O182  1  0.32450942  0.06844594  0.91068101  1
  O2-  O183  1  0.32411663  0.57320515  0.24471576  1
  O2-  O184  1  0.31995977  0.57958582  0.57666363  1
  O2-  O185  1  0.31636815  0.57091129  0.89995201  1
  O2-  O186  1  0.82476312  0.07148524  0.24490694  1
  O2-  O187  1  0.82969002  0.06815599  0.57747311  1
  O2-  O188  1  0.81853120  0.06773536  0.89971912  1
  O2-  O189  1  0.81760093  0.57024133  0.23634411  1
  O2-  O190  1  0.82071441  0.57225598  0.57721754  1
  O2-  O191  1  0.82204029  0.57418923  0.90033937  1
  O2-  O192  1  0.05028989  0.08016768  0.27243721  1
  O2-  O193  1  0.04797136  0.08278003  0.60283428  1
  O2-  O194  1  0.04021956  0.07748014  0.93374896  1
  O2-  O195  1  0.04901061  0.57799602  0.26145953  1
  O2-  O196  1  0.04216805  0.58504891  0.59874519  1
  O2-  O197  1  0.05028786  0.58681660  0.93953946  1
  O2-  O198  1  0.53290834  0.08437851  0.26512884  1
  O2-  O199  1  0.53708542  0.07873005  0.60137474  1
  O2-  O200  1  0.53853944  0.08232924  0.93145896  1
  O2-  O201  1  0.53866787  0.58697655  0.27440562  1
  O2-  O202  1  0.54366966  0.58924970  0.60196354  1
  O2-  O203  1  0.53665589  0.58330047  0.93341512  1
  O2-  O204  1  0.16684016  0.21489293  0.26583204  1
  O2-  O205  1  0.16867875  0.20060095  0.60991802  1
  O2-  O206  1  0.17367265  0.19627676  0.93495957  1
  O2-  O207  1  0.17153696  0.70830549  0.26333480  1
  O2-  O208  1  0.16638269  0.71282550  0.59880377  1
  O2-  O209  1  0.16349087  0.71407423  0.93770166  1
  O2-  O210  1  0.66946308  0.20427634  0.26778172  1
  O2-  O211  1  0.67039640  0.20029353  0.59749793  1
  O2-  O212  1  0.66768247  0.20663376  0.93266141  1
  O2-  O213  1  0.66056418  0.70668758  0.27555319  1
  O2-  O214  1  0.66499692  0.70828865  0.60519905  1
  O2-  O215  1  0.66619244  0.70983146  0.92927442  1
  O2-  O216  1  0.08518973  0.45296577  0.06418082  1
  O2-  O217  1  0.08825669  0.45471543  0.39230812  1
  O2-  O218  1  0.08331695  0.46402384  0.73450905  1
  O2-  O219  1  0.08162976  0.95580904  0.06993730  1
  O2-  O220  1  0.08139613  0.94740044  0.39662848  1
  O2-  O221  1  0.08620196  0.95142356  0.72570761  1
  O2-  O222  1  0.58003933  0.45398433  0.06634143  1
  O2-  O223  1  0.57985527  0.45755304  0.40427963  1
  O2-  O224  1  0.58162956  0.45886981  0.73216221  1
  O2-  O225  1  0.57862062  0.94657353  0.05627247  1
  O2-  O226  1  0.58290428  0.96125034  0.40011988  1
  O2-  O227  1  0.58065877  0.95480388  0.73771313  1
  O2-  O228  1  0.20347459  0.33137841  0.06129211  1
  O2-  O229  1  0.21278686  0.34108171  0.39591137  1
  O2-  O230  1  0.20755979  0.33364564  0.73682160  1
  O2-  O231  1  0.21376924  0.83716844  0.07275337  1
  O2-  O232  1  0.20860600  0.83498926  0.39897969  1
  O2-  O233  1  0.21311792  0.83873889  0.72759876  1
  O2-  O234  1  0.70933727  0.32988230  0.06744164  1
  O2-  O235  1  0.70581083  0.32716122  0.40262509  1
  O2-  O236  1  0.71138066  0.32969129  0.72962936  1
  O2-  O237  1  0.70459380  0.83453015  0.05978964  1
  O2-  O238  1  0.70808409  0.83503705  0.40086154  1
  O2-  O239  1  0.70996355  0.83265330  0.73826306  1
  O2-  O240  1  0.44923679  0.41983156  0.27311949  1
  O2-  O241  1  0.44875776  0.42423436  0.60024693  1
  O2-  O242  1  0.44857168  0.41834510  0.93828013  1
  O2-  O243  1  0.45861917  0.91307616  0.27023288  1
  O2-  O244  1  0.45614423  0.91266820  0.60443339  1
  O2-  O245  1  0.44658113  0.91388121  0.93509720  1
  O2-  O246  1  0.95742487  0.41347890  0.26902924  1
  O2-  O247  1  0.96267958  0.41557037  0.59560880  1
  O2-  O248  1  0.95793255  0.42134635  0.93228746  1
  O2-  O249  1  0.95450808  0.91785447  0.26372574  1
  O2-  O250  1  0.95504875  0.91596217  0.60207951  1
  O2-  O251  1  0.96008849  0.91053853  0.93481544  1
  O2-  O252  1  0.33659496  0.29434335  0.26696158  1
  O2-  O253  1  0.32906235  0.29152607  0.59930181  1
  O2-  O254  1  0.33462140  0.29646286  0.93605935  1
  O2-  O255  1  0.33696580  0.79721862  0.27105835  1
  O2-  O256  1  0.33989278  0.79130784  0.59892197  1
  O2-  O257  1  0.33311112  0.79003865  0.93741351  1
  O2-  O258  1  0.83260687  0.29943500  0.27124467  1
  O2-  O259  1  0.83679566  0.28716878  0.59344178  1
  O2-  O260  1  0.83379250  0.28848497  0.93254815  1
  O2-  O261  1  0.82734142  0.79097040  0.26451820  1
  O2-  O262  1  0.83238343  0.79991002  0.60634379  1
  O2-  O263  1  0.83690007  0.79537145  0.93337175  1
  O2-  O264  1  0.41417272  0.03926570  0.06392338  1
  O2-  O265  1  0.41212548  0.03558012  0.40415703  1
  O2-  O266  1  0.40953489  0.03670142  0.73285537  1
  O2-  O267  1  0.41496806  0.54090112  0.07007642  1
  O2-  O268  1  0.41142835  0.54568205  0.40055020  1
  O2-  O269  1  0.41691879  0.55326698  0.72695143  1
  O2-  O270  1  0.91275153  0.03525006  0.06804096  1
  O2-  O271  1  0.91777555  0.04396137  0.39764814  1
  O2-  O272  1  0.91674993  0.04247457  0.73142497  1
  O2-  O273  1  0.92225904  0.54819900  0.06722892  1
  O2-  O274  1  0.92374409  0.54530925  0.39818801  1
  O2-  O275  1  0.91684365  0.54587270  0.72621158  1
  O2-  O276  1  0.30485844  0.16782692  0.06126034  1
  O2-  O277  1  0.28911803  0.16871349  0.40134181  1
  O2-  O278  1  0.29804556  0.16313049  0.73212117  1
  O2-  O279  1  0.28868395  0.66470200  0.06999560  1
  O2-  O280  1  0.29677550  0.66750505  0.39588410  1
  O2-  O281  1  0.29357782  0.66820927  0.72952098  1
  O2-  O282  1  0.79068480  0.16517456  0.06897233  1
  O2-  O283  1  0.80281292  0.16692390  0.39523900  1
  O2-  O284  1  0.79943147  0.16554030  0.72677130  1
  O2-  O285  1  0.79301686  0.67210241  0.06556425  1
  O2-  O286  1  0.79156271  0.66723076  0.40421157  1
  O2-  O287  1  0.79963960  0.66628264  0.72789534  1
