# generated using pymatgen
data_Ca2Al2SiO7
_symmetry_space_group_name_H-M   'P 1'
_cell_length_a   15.46103837
_cell_length_b   15.46083734
_cell_length_c   15.28649423
_cell_angle_alpha   89.99179847
_cell_angle_beta   89.99654322
_cell_angle_gamma   89.98162962
_symmetry_Int_Tables_number   1
_chemical_formula_structural   Ca2Al2SiO7
_chemical_formula_sum   'Ca48 Al48 Si24 O168'
_cell_volume   3654.09251135
_cell_formula_units_Z   24
loop_
 _symmetry_equiv_pos_site_id
 _symmetry_equiv_pos_as_xyz
  1  'x, y, z'
loop_
 _atom_type_symbol
 _atom_type_oxidation_number
  Ca2+  2.0
  Al0+  0.0
  Si0+  0.0
  O2-  -2.0
loop_
 _atom_site_type_symbol
 _atom_site_label
 _atom_site_symmetry_multiplicity
 _atom_site_fract_x
 _atom_site_fract_y
 _atom_site_fract_z
 _atom_site_occupancy
  Ca2+  Ca0  1  0.17758619  0.08781887  0.16685636  1
  Ca2+  Ca1  1  0.17241590  0.08761415  0.50128747  1
  Ca2+  Ca2  1  0.16894944  0.08700129  0.84282447  1
  Ca2+  Ca3  1  0.17054890  0.58110209  0.17082384  1
  Ca2+  Ca4  1  0.16579411  0.58438480  0.50097870  1
  Ca2+  Ca5  1  0.17481246  0.57350733  0.84788494  1
  Ca2+  Ca6  1  0.66492150  0.07949327  0.17892600  1
  Ca2+  Ca7  1  0.67064220  0.07366224  0.50273913  1
  Ca2+  Ca8  1  0.67006521  0.07875049  0.83726118  1
  Ca2+  Ca9  1  0.66888670  0.58883867  0.17331626  1
  Ca2+  Ca10  1  0.66868324  0.59099315  0.50072136  1
  Ca2+  Ca11  1  0.66164754  0.58830540  0.83726553  1
  Ca2+  Ca12  1  0.07954594  0.33005668  0.16274511  1
  Ca2+  Ca13  1  0.07573326  0.32615943  0.49452431  1
  Ca2+  Ca14  1  0.09383343  0.32196022  0.83518078  1
  Ca2+  Ca15  1  0.07702985  0.82924043  0.16358959  1
  Ca2+  Ca16  1  0.07462111  0.83014586  0.49560029  1
  Ca2+  Ca17  1  0.06913469  0.84144958  0.83067633  1
  Ca2+  Ca18  1  0.57475359  0.32014373  0.16319242  1
  Ca2+  Ca19  1  0.57792981  0.32426095  0.48819259  1
  Ca2+  Ca20  1  0.57785006  0.32879006  0.83649279  1
  Ca2+  Ca21  1  0.57849171  0.83002642  0.16487694  1
  Ca2+  Ca22  1  0.58768804  0.83076812  0.49361044  1
  Ca2+  Ca23  1  0.58029437  0.82582773  0.83179660  1
  Ca2+  Ca24  1  0.33461130  0.41371028  0.16582680  1
  Ca2+  Ca25  1  0.33661547  0.41650784  0.50102677  1
  Ca2+  Ca26  1  0.33064873  0.42092215  0.84886545  1
  Ca2+  Ca27  1  0.34494223  0.92423180  0.17124283  1
  Ca2+  Ca28  1  0.33819504  0.92020514  0.49622720  1
  Ca2+  Ca29  1  0.33240465  0.92147823  0.84368522  1
  Ca2+  Ca30  1  0.83238172  0.42152856  0.17764944  1
  Ca2+  Ca31  1  0.83690600  0.42092540  0.49626408  1
  Ca2+  Ca32  1  0.82934910  0.42034278  0.83827177  1
  Ca2+  Ca33  1  0.82618965  0.92195912  0.17572845  1
  Ca2+  Ca34  1  0.82268250  0.92147012  0.50626841  1
  Ca2+  Ca35  1  0.83141444  0.91421170  0.83379921  1
  Ca2+  Ca36  1  0.42268201  0.16541129  0.16129073  1
  Ca2+  Ca37  1  0.42235374  0.17010610  0.48619978  1
  Ca2+  Ca38  1  0.41640841  0.16664484  0.83869218  1
  Ca2+  Ca39  1  0.42481581  0.67620766  0.15891511  1
  Ca2+  Ca40  1  0.43061003  0.67535321  0.48894834  1
  Ca2+  Ca41  1  0.42351639  0.66375919  0.83269956  1
  Ca2+  Ca42  1  0.91594004  0.17060055  0.16248999  1
  Ca2+  Ca43  1  0.91559949  0.16407497  0.49485676  1
  Ca2+  Ca44  1  0.92967577  0.16090518  0.82634044  1
  Ca2+  Ca45  1  0.91898138  0.66857694  0.16538985  1
  Ca2+  Ca46  1  0.91753126  0.67205039  0.49202720  1
  Ca2+  Ca47  1  0.91422229  0.68106496  0.83086241  1
  Al0+  Al48  1  -0.00070264  0.00099897  -0.00503276  1
  Al0+  Al49  1  0.00254732  -0.00051601  0.33606700  1
  Al0+  Al50  1  0.00185899  0.00051888  0.65862824  1
  Al0+  Al51  1  -0.00105194  0.50030762  0.00272837  1
  Al0+  Al52  1  -0.00010227  0.49867618  0.33139000  1
  Al0+  Al53  1  0.00048060  0.49818406  0.67117751  1
  Al0+  Al54  1  0.50147861  -0.00230060  -0.00480257  1
  Al0+  Al55  1  0.49982777  -0.00018944  0.33815387  1
  Al0+  Al56  1  0.50011244  0.00029126  0.67215381  1
  Al0+  Al57  1  0.50097178  0.49841938  -0.00103346  1
  Al0+  Al58  1  0.49932590  0.49992214  0.32786143  1
  Al0+  Al59  1  0.50055607  0.50109931  0.66282626  1
  Al0+  Al60  1  0.24908435  0.24932230  0.00224998  1
  Al0+  Al61  1  0.24750536  0.25102394  0.33673104  1
  Al0+  Al62  1  0.24909431  0.25104341  0.66233042  1
  Al0+  Al63  1  0.24866092  0.74953729  0.00087991  1
  Al0+  Al64  1  0.24914231  0.74910518  0.32833284  1
  Al0+  Al65  1  0.25109512  0.75093675  0.66893590  1
  Al0+  Al66  1  0.75040992  0.25081668  -0.00437159  1
  Al0+  Al67  1  0.75081945  0.25194577  0.33011338  1
  Al0+  Al68  1  0.75037135  0.25163449  0.67167810  1
  Al0+  Al69  1  0.75006901  0.75112089  -0.00598533  1
  Al0+  Al70  1  0.75173020  0.75033568  0.33804685  1
  Al0+  Al71  1  0.75015343  0.75068354  0.66353024  1
  Al0+  Al72  1  0.06855828  0.18167178  0.98858367  1
  Al0+  Al73  1  0.32111984  0.06765847  0.01318674  1
  Al0+  Al74  1  0.56875815  0.67974906  0.65061417  1
  Al0+  Al75  1  0.42524988  0.32185305  0.31826337  1
  Al0+  Al76  1  0.17833548  0.42812087  0.01807224  1
  Al0+  Al77  1  0.92960623  0.31909786  0.32054517  1
  Al0+  Al78  1  0.42902310  0.31836585  0.98538273  1
  Al0+  Al79  1  0.57076680  0.17825668  0.32142947  1
  Al0+  Al80  1  0.67896160  0.92947903  0.34769862  1
  Al0+  Al81  1  0.57052263  0.67908296  0.98502827  1
  Al0+  Al82  1  0.93003377  0.82006588  0.65016045  1
  Al0+  Al83  1  0.57438115  0.67981732  0.31819443  1
  Al0+  Al84  1  0.07024801  0.67776979  0.32048525  1
  Al0+  Al85  1  0.93035947  0.82044240  0.98782955  1
  Al0+  Al86  1  0.31896767  0.07085077  0.34684845  1
  Al0+  Al87  1  0.82134405  0.56994784  0.34667680  1
  Al0+  Al88  1  0.42862668  0.82169054  0.31922934  1
  Al0+  Al89  1  0.57383973  0.17606069  0.98312872  1
  Al0+  Al90  1  0.32336602  0.57231804  0.01759068  1
  Al0+  Al91  1  0.67895016  0.92754998  0.68616486  1
  Al0+  Al92  1  0.42635080  0.82147573  0.98392435  1
  Al0+  Al93  1  0.07119905  0.18031508  0.65060688  1
  Al0+  Al94  1  0.82272271  0.07171097  0.68339213  1
  Al0+  Al95  1  0.82347080  0.07446460  0.34626560  1
  Si0+  Si96  1  0.82183354  0.57043474  0.68232281  1
  Si0+  Si97  1  0.68127442  0.92888297  0.01449519  1
  Si0+  Si98  1  0.17957571  0.42896298  0.68180538  1
  Si0+  Si99  1  0.17399249  0.92805537  0.01601004  1
  Si0+  Si100  1  0.43013293  0.32018068  0.65212228  1
  Si0+  Si101  1  0.07227507  0.17620505  0.31615767  1
  Si0+  Si102  1  0.42568216  0.82420599  0.64973221  1
  Si0+  Si103  1  0.67975470  0.42675412  0.01579087  1
  Si0+  Si104  1  0.07295326  0.67594225  0.65337788  1
  Si0+  Si105  1  0.17832685  0.43027203  0.35128805  1
  Si0+  Si106  1  0.31969850  0.07306651  0.68198627  1
  Si0+  Si107  1  0.92600717  0.32398365  0.65068264  1
  Si0+  Si108  1  0.92685519  0.32502461  0.98177461  1
  Si0+  Si109  1  0.92907577  0.82281684  0.31750049  1
  Si0+  Si110  1  0.32151476  0.57025175  0.67990661  1
  Si0+  Si111  1  0.07153728  0.67597987  0.98305173  1
  Si0+  Si112  1  0.57196855  0.17869131  0.65255096  1
  Si0+  Si113  1  0.32144681  0.57185223  0.34923169  1
  Si0+  Si114  1  0.17993312  0.92851457  0.68096365  1
  Si0+  Si115  1  0.17745160  0.92461288  0.35090539  1
  Si0+  Si116  1  0.82219364  0.07154076  0.01333926  1
  Si0+  Si117  1  0.67646083  0.42907773  0.34922316  1
  Si0+  Si118  1  0.81862074  0.57233446  0.01393794  1
  Si0+  Si119  1  0.67690121  0.42988586  0.68207747  1
  O2-  O120  1  0.24918120  -0.01053952  0.05967654  1
  O2-  O121  1  0.24547767  -0.00523958  0.39454877  1
  O2-  O122  1  0.25083230  -0.00044063  0.72323334  1
  O2-  O123  1  0.24955518  0.50129116  0.06751206  1
  O2-  O124  1  0.25249155  0.49872485  0.39355308  1
  O2-  O125  1  0.24793653  0.50248962  0.72286999  1
  O2-  O126  1  0.74770133  0.00489966  0.05566733  1
  O2-  O127  1  0.75149041  0.00261098  0.39608100  1
  O2-  O128  1  0.75119397  0.00038618  0.73574796  1
  O2-  O129  1  0.75011106  0.49938697  0.05637711  1
  O2-  O130  1  0.74291130  0.49964104  0.39508885  1
  O2-  O131  1  0.74924782  0.50052100  0.72401536  1
  O2-  O132  1  -0.00181517  0.23939235  0.27341307  1
  O2-  O133  1  -0.00845403  0.25176439  0.60765651  1
  O2-  O134  1  -0.00397845  0.25699562  0.93819450  1
  O2-  O135  1  -0.00268224  0.75370297  0.27355735  1
  O2-  O136  1  0.00426526  0.74266562  0.60700301  1
  O2-  O137  1  0.00652835  0.74764966  0.93861221  1
  O2-  O138  1  0.49569962  0.24720368  0.27151738  1
  O2-  O139  1  0.49979555  0.24847705  0.61003024  1
  O2-  O140  1  0.49992906  0.24666063  0.93286853  1
  O2-  O141  1  0.50125289  0.75049421  0.26971206  1
  O2-  O142  1  0.49657758  0.75763244  0.60641641  1
  O2-  O143  1  0.49438608  0.74589508  0.93355436  1
  O2-  O144  1  0.06457399  0.18052647  0.10124616  1
  O2-  O145  1  0.07459811  0.18042842  0.42201164  1
  O2-  O146  1  0.07557284  0.18359387  0.76365474  1
  O2-  O147  1  0.06793053  0.67442595  0.08849638  1
  O2-  O148  1  0.06913718  0.67876134  0.43435296  1
  O2-  O149  1  0.07209550  0.67557605  0.75868183  1
  O2-  O150  1  0.57657320  0.17756697  0.09609797  1
  O2-  O151  1  0.56967771  0.18102377  0.43599927  1
  O2-  O152  1  0.57075992  0.18081288  0.75743511  1
  O2-  O153  1  0.57616536  0.68323791  0.09765138  1
  O2-  O154  1  0.57175830  0.67991755  0.43218486  1
  O2-  O155  1  0.56460360  0.67500242  0.76319303  1
  O2-  O156  1  0.17589292  0.43095319  0.24690399  1
  O2-  O157  1  0.17898431  0.42909374  0.57671337  1
  O2-  O158  1  0.17938909  0.42981503  0.90328880  1
  O2-  O159  1  0.17312982  0.92445622  0.24577254  1
  O2-  O160  1  0.18204817  0.92560580  0.57613622  1
  O2-  O161  1  0.17067647  0.93296986  0.90990470  1
  O2-  O162  1  0.67969800  0.42844421  0.24379110  1
  O2-  O163  1  0.67537617  0.42879000  0.57739591  1
  O2-  O164  1  0.68244117  0.42614791  0.90990596  1
  O2-  O165  1  0.68136951  0.92862359  0.23352453  1
  O2-  O166  1  0.67848631  0.92913937  0.57298117  1
  O2-  O167  1  0.68441616  0.92704413  0.90944346  1
  O2-  O168  1  0.43096119  0.31609891  0.09810910  1
  O2-  O169  1  0.42756867  0.32092486  0.43334625  1
  O2-  O170  1  0.42922101  0.32114554  0.75678320  1
  O2-  O171  1  0.43210511  0.82409636  0.09678901  1
  O2-  O172  1  0.42673745  0.81820369  0.43344367  1
  O2-  O173  1  0.42152813  0.82160860  0.75486552  1
  O2-  O174  1  0.92495784  0.32473516  0.08715420  1
  O2-  O175  1  0.93410891  0.32266050  0.43384408  1
  O2-  O176  1  0.92752705  0.32862037  0.75604868  1
  O2-  O177  1  0.93018808  0.81862890  0.10070436  1
  O2-  O178  1  0.93121871  0.82117917  0.42314110  1
  O2-  O179  1  0.93179200  0.81853924  0.76361926  1
  O2-  O180  1  0.31730541  0.07166846  0.23411576  1
  O2-  O181  1  0.31883671  0.07473964  0.57697865  1
  O2-  O182  1  0.31649980  0.06842030  0.89921354  1
  O2-  O183  1  0.31920896  0.57247611  0.24497271  1
  O2-  O184  1  0.32074490  0.56839091  0.57473461  1
  O2-  O185  1  0.32084767  0.56887263  0.90246053  1
  O2-  O186  1  0.82420164  0.07119698  0.23198374  1
  O2-  O187  1  0.81934684  0.07237452  0.57023628  1
  O2-  O188  1  0.82419050  0.06935491  0.90838044  1
  O2-  O189  1  0.82267908  0.56810261  0.23337186  1
  O2-  O190  1  0.82514814  0.56792889  0.57754754  1
  O2-  O191  1  0.81848988  0.57128688  0.90826710  1
  O2-  O192  1  0.05566067  0.07983695  0.27335644  1
  O2-  O193  1  0.04759961  0.08344691  0.59510652  1
  O2-  O194  1  0.03773378  0.08661727  0.93099197  1
  O2-  O195  1  0.03743636  0.58329855  0.26526193  1
  O2-  O196  1  0.04874843  0.58095663  0.60865442  1
  O2-  O197  1  0.04208330  0.58354797  0.93579566  1
  O2-  O198  1  0.54408852  0.07971639  0.27052029  1
  O2-  O199  1  0.54407317  0.08594711  0.60778223  1
  O2-  O200  1  0.54651013  0.07867609  0.92896549  1
  O2-  O201  1  0.54834576  0.58065653  0.26727084  1
  O2-  O202  1  0.53681437  0.58356810  0.59520936  1
  O2-  O203  1  0.54813287  0.57849818  0.93330548  1
  O2-  O204  1  0.16277857  0.21002517  0.27016193  1
  O2-  O205  1  0.16548998  0.21699006  0.59434711  1
  O2-  O206  1  0.16463735  0.21180883  0.93307945  1
  O2-  O207  1  0.16562900  0.70630001  0.26449820  1
  O2-  O208  1  0.16709199  0.70202082  0.60793108  1
  O2-  O209  1  0.16655672  0.69610829  0.93870062  1
  O2-  O210  1  0.66769412  0.20803840  0.26750083  1
  O2-  O211  1  0.66388729  0.20912833  0.60759789  1
  O2-  O212  1  0.67068301  0.20914418  0.92798620  1
  O2-  O213  1  0.67415911  0.70664389  0.26801014  1
  O2-  O214  1  0.66746926  0.70586347  0.59997675  1
  O2-  O215  1  0.66674389  0.71173199  0.92870623  1
  O2-  O216  1  0.07811564  0.45573848  0.06876714  1
  O2-  O217  1  0.08867003  0.46269766  0.40053324  1
  O2-  O218  1  0.08731736  0.45239169  0.73110829  1
  O2-  O219  1  0.08315781  0.96089588  0.06392667  1
  O2-  O220  1  0.08487728  0.95042195  0.39991503  1
  O2-  O221  1  0.08800490  0.95786751  0.72651688  1
  O2-  O222  1  0.58760618  0.45142414  0.06177220  1
  O2-  O223  1  0.58143422  0.45125947  0.39480932  1
  O2-  O224  1  0.58567264  0.46025505  0.73000478  1
  O2-  O225  1  0.58795975  0.95260266  0.05921400  1
  O2-  O226  1  0.58168526  0.95594384  0.40407822  1
  O2-  O227  1  0.57934462  0.95519586  0.73833803  1
  O2-  O228  1  0.20550615  0.33003373  0.07058036  1
  O2-  O229  1  0.20302330  0.33839283  0.40089088  1
  O2-  O230  1  0.21179984  0.33805006  0.72855266  1
  O2-  O231  1  0.18925122  0.83087603  0.05755308  1
  O2-  O232  1  0.20391801  0.83122587  0.39797338  1
  O2-  O233  1  0.20518981  0.83661930  0.73115758  1
  O2-  O234  1  0.71010895  0.33562303  0.06319838  1
  O2-  O235  1  0.70592757  0.33710503  0.39691682  1
  O2-  O236  1  0.70396801  0.33935519  0.73271363  1
  O2-  O237  1  0.71518398  0.83874000  0.06126975  1
  O2-  O238  1  0.70991092  0.83267803  0.40301798  1
  O2-  O239  1  0.70987086  0.82818126  0.73653139  1
  O2-  O240  1  0.45271701  0.41929376  0.26528682  1
  O2-  O241  1  0.45875828  0.41134799  0.60376981  1
  O2-  O242  1  0.45929051  0.41611152  0.93134108  1
  O2-  O243  1  0.45616030  0.92069808  0.26957892  1
  O2-  O244  1  0.44918000  0.92003370  0.60718886  1
  O2-  O245  1  0.45830723  0.91702201  0.92764815  1
  O2-  O246  1  0.96545877  0.41293361  0.26484248  1
  O2-  O247  1  0.95723952  0.41634958  0.60390024  1
  O2-  O248  1  0.95086486  0.41954095  0.93622655  1
  O2-  O249  1  0.95611115  0.91610529  0.27161075  1
  O2-  O250  1  0.96370521  0.91420101  0.59475445  1
  O2-  O251  1  0.96097888  0.91553708  0.93056068  1
  O2-  O252  1  0.32464627  0.29746537  0.27013952  1
  O2-  O253  1  0.33821508  0.29412079  0.60392113  1
  O2-  O254  1  0.33023984  0.29085469  0.93252135  1
  O2-  O255  1  0.33037659  0.79511635  0.26624707  1
  O2-  O256  1  0.33238560  0.79685227  0.60305013  1
  O2-  O257  1  0.32423714  0.80035096  0.93390392  1
  O2-  O258  1  0.83249622  0.29704508  0.26421348  1
  O2-  O259  1  0.83041819  0.30374355  0.60659689  1
  O2-  O260  1  0.83423955  0.29986631  0.93400660  1
  O2-  O261  1  0.83606288  0.79625751  0.27277896  1
  O2-  O262  1  0.83446891  0.78823198  0.59664464  1
  O2-  O263  1  0.83720206  0.78594537  0.92972688  1
  O2-  O264  1  0.42003485  0.03951838  0.06383703  1
  O2-  O265  1  0.41435324  0.04153374  0.40426906  1
  O2-  O266  1  0.41206113  0.04903021  0.72968346  1
  O2-  O267  1  0.42236203  0.54296873  0.06771015  1
  O2-  O268  1  0.41400215  0.54417083  0.39632423  1
  O2-  O269  1  0.41214460  0.53836356  0.72706348  1
  O2-  O270  1  0.91255992  0.04029664  0.06111142  1
  O2-  O271  1  0.92321054  0.04778509  0.39860303  1
  O2-  O272  1  0.92405678  0.04230785  0.73072858  1
  O2-  O273  1  0.91125915  0.54731065  0.06083148  1
  O2-  O274  1  0.91629264  0.53389551  0.40204412  1
  O2-  O275  1  0.91276296  0.54162328  0.73253739  1
  O2-  O276  1  0.28681404  0.16267860  0.06668221  1
  O2-  O277  1  0.28552373  0.16660756  0.40361553  1
  O2-  O278  1  0.28835778  0.16482632  0.72801695  1
  O2-  O279  1  0.29547013  0.67191398  0.06855690  1
  O2-  O280  1  0.28988986  0.66247293  0.39747672  1
  O2-  O281  1  0.29778283  0.66332973  0.72714394  1
  O2-  O282  1  0.79941366  0.16650996  0.05684827  1
  O2-  O283  1  0.79857254  0.17446570  0.39787226  1
  O2-  O284  1  0.79785569  0.17213784  0.73588945  1
  O2-  O285  1  0.78936152  0.66380836  0.06056394  1
  O2-  O286  1  0.79570641  0.66656776  0.40278659  1
  O2-  O287  1  0.79423390  0.66241967  0.72844539  1
