# generated using pymatgen
data_Ca2Al2SiO7
_symmetry_space_group_name_H-M   'P 1'
_cell_length_a   15.45764585
_cell_length_b   15.45715768
_cell_length_c   15.28357586
_cell_angle_alpha   90.00908702
_cell_angle_beta   89.99647944
_cell_angle_gamma   89.99508507
_symmetry_Int_Tables_number   1
_chemical_formula_structural   Ca2Al2SiO7
_chemical_formula_sum   'Ca48 Al48 Si24 O168'
_cell_volume   3651.72411192
_cell_formula_units_Z   24
loop_
 _symmetry_equiv_pos_site_id
 _symmetry_equiv_pos_as_xyz
  1  'x, y, z'
loop_
 _atom_type_symbol
 _atom_type_oxidation_number
  Ca2+  2.0
  Al0+  0.0
  Si0+  0.0
  O2-  -2.0
loop_
 _atom_site_type_symbol
 _atom_site_label
 _atom_site_symmetry_multiplicity
 _atom_site_fract_x
 _atom_site_fract_y
 _atom_site_fract_z
 _atom_site_occupancy
  Ca2+  Ca0  1  0.16261266  0.07394441  0.17239558  1
  Ca2+  Ca1  1  0.17563136  0.07623946  0.50646866  1
  Ca2+  Ca2  1  0.16579626  0.07482577  0.83859434  1
  Ca2+  Ca3  1  0.17079452  0.58556821  0.17195612  1
  Ca2+  Ca4  1  0.17038621  0.58431028  0.50271751  1
  Ca2+  Ca5  1  0.16293312  0.58949391  0.83613406  1
  Ca2+  Ca6  1  0.67168528  0.07873821  0.17793537  1
  Ca2+  Ca7  1  0.66758813  0.08655651  0.49571310  1
  Ca2+  Ca8  1  0.67001041  0.08067662  0.83611969  1
  Ca2+  Ca9  1  0.67205308  0.58174927  0.16386745  1
  Ca2+  Ca10  1  0.67027684  0.57321947  0.50777250  1
  Ca2+  Ca11  1  0.67141848  0.57312998  0.84389444  1
  Ca2+  Ca12  1  0.07260131  0.32433180  0.15855929  1
  Ca2+  Ca13  1  0.07078394  0.33299108  0.49419057  1
  Ca2+  Ca14  1  0.07221748  0.33141952  0.82984848  1
  Ca2+  Ca15  1  0.08230088  0.83333768  0.15672625  1
  Ca2+  Ca16  1  0.08909167  0.83556667  0.50265346  1
  Ca2+  Ca17  1  0.08009630  0.82851708  0.82903435  1
  Ca2+  Ca18  1  0.58061461  0.33029243  0.16727459  1
  Ca2+  Ca19  1  0.57570052  0.32808050  0.49430267  1
  Ca2+  Ca20  1  0.58245377  0.33764087  0.82724330  1
  Ca2+  Ca21  1  0.58387937  0.82957541  0.16083092  1
  Ca2+  Ca22  1  0.57721862  0.83917572  0.49541050  1
  Ca2+  Ca23  1  0.58010148  0.82416597  0.82785784  1
  Ca2+  Ca24  1  0.33274138  0.42275471  0.17496451  1
  Ca2+  Ca25  1  0.34278486  0.41990600  0.50367664  1
  Ca2+  Ca26  1  0.33308029  0.41598257  0.83572365  1
  Ca2+  Ca27  1  0.31842092  0.92108493  0.17623178  1
  Ca2+  Ca28  1  0.32762084  0.92617969  0.50851288  1
  Ca2+  Ca29  1  0.32413709  0.91490919  0.83292610  1
  Ca2+  Ca30  1  0.83579587  0.41648517  0.16660134  1
  Ca2+  Ca31  1  0.82900145  0.40983424  0.50859826  1
  Ca2+  Ca32  1  0.82704015  0.41638961  0.84241467  1
  Ca2+  Ca33  1  0.83174176  0.92201466  0.17571256  1
  Ca2+  Ca34  1  0.83035847  0.92092348  0.50173743  1
  Ca2+  Ca35  1  0.84112500  0.91206347  0.83723363  1
  Ca2+  Ca36  1  0.41783924  0.16322021  0.16987449  1
  Ca2+  Ca37  1  0.41422297  0.17188438  0.49148559  1
  Ca2+  Ca38  1  0.41785062  0.17109278  0.82356864  1
  Ca2+  Ca39  1  0.42256374  0.66444407  0.16261219  1
  Ca2+  Ca40  1  0.41264135  0.67304872  0.49740942  1
  Ca2+  Ca41  1  0.42293515  0.67131609  0.82898800  1
  Ca2+  Ca42  1  0.91502837  0.17304545  0.16163689  1
  Ca2+  Ca43  1  0.91039214  0.17576528  0.49360704  1
  Ca2+  Ca44  1  0.92214687  0.17370493  0.83261954  1
  Ca2+  Ca45  1  0.92190020  0.67457399  0.15304651  1
  Ca2+  Ca46  1  0.92355845  0.67188376  0.50074234  1
  Ca2+  Ca47  1  0.92277124  0.67300898  0.83038663  1
  Al0+  Al48  1  0.00066324  0.00133760  -0.00209505  1
  Al0+  Al49  1  -0.00263499  -0.00007783  0.34366252  1
  Al0+  Al50  1  0.00035166  -0.00052358  0.66682039  1
  Al0+  Al51  1  -0.00010857  0.50054094  -0.00195364  1
  Al0+  Al52  1  0.00028994  0.50212673  0.32886949  1
  Al0+  Al53  1  0.00076786  0.50109782  0.65844134  1
  Al0+  Al54  1  0.49953368  0.00232872  -0.00076871  1
  Al0+  Al55  1  0.49827500  -0.00051315  0.33346280  1
  Al0+  Al56  1  0.50218205  -0.00068226  0.66842837  1
  Al0+  Al57  1  0.50104449  0.49956144  0.00064085  1
  Al0+  Al58  1  0.50049476  0.50095719  0.33426407  1
  Al0+  Al59  1  0.50144614  0.49858734  0.66821506  1
  Al0+  Al60  1  0.25144875  0.25033316  -0.00204948  1
  Al0+  Al61  1  0.24607112  0.25129367  0.33109872  1
  Al0+  Al62  1  0.25101832  0.25221958  0.66631041  1
  Al0+  Al63  1  0.25056545  0.75222869  0.00217220  1
  Al0+  Al64  1  0.25067733  0.74760527  0.33966073  1
  Al0+  Al65  1  0.25252076  0.74988724  0.66367315  1
  Al0+  Al66  1  0.74619073  0.24908763  0.00112661  1
  Al0+  Al67  1  0.74763257  0.25070708  0.32805388  1
  Al0+  Al68  1  0.74914851  0.24884070  0.66943946  1
  Al0+  Al69  1  0.74816765  0.74737709  -0.00486906  1
  Al0+  Al70  1  0.75036969  0.74870489  0.33815454  1
  Al0+  Al71  1  0.75279333  0.74874056  0.66269378  1
  Al0+  Al72  1  0.17715758  0.92745544  0.35068422  1
  Al0+  Al73  1  0.17983502  0.92858655  0.68548340  1
  Al0+  Al74  1  0.07303741  0.17861574  0.98486084  1
  Al0+  Al75  1  0.42927234  0.32073847  0.65393704  1
  Al0+  Al76  1  0.32228709  0.56783712  0.34780511  1
  Al0+  Al77  1  0.07256737  0.67947692  0.64889195  1
  Al0+  Al78  1  0.82231976  0.57106800  0.01473390  1
  Al0+  Al79  1  0.67775266  0.42724137  0.01912703  1
  Al0+  Al80  1  0.31965157  0.07321487  0.34757746  1
  Al0+  Al81  1  0.92802385  0.82214459  0.98793530  1
  Al0+  Al82  1  0.32303026  0.07362397  0.68335745  1
  Al0+  Al83  1  0.92677611  0.32060939  0.98460045  1
  Al0+  Al84  1  0.92777104  0.32198753  0.31796668  1
  Al0+  Al85  1  0.92829901  0.82336452  0.64775501  1
  Al0+  Al86  1  0.17974503  0.93078254  0.01389478  1
  Al0+  Al87  1  0.07411883  0.67903606  0.98713626  1
  Al0+  Al88  1  0.92859452  0.31873571  0.65364440  1
  Al0+  Al89  1  0.67822706  0.92623612  0.34748998  1
  Al0+  Al90  1  0.43186376  0.82054438  0.65294404  1
  Al0+  Al91  1  0.42641713  0.32303557  0.31703621  1
  Al0+  Al92  1  0.56988220  0.67809256  0.98654522  1
  Al0+  Al93  1  0.56841915  0.17775126  0.31695121  1
  Al0+  Al94  1  0.68053466  0.42897462  0.68011722  1
  Al0+  Al95  1  0.81914960  0.07339347  0.34834744  1
  Si0+  Si96  1  0.17561395  0.42941904  0.34875757  1
  Si0+  Si97  1  0.32365717  0.07454828  0.01750064  1
  Si0+  Si98  1  0.07183101  0.68125008  0.31708807  1
  Si0+  Si99  1  0.81963260  0.06965779  0.01310321  1
  Si0+  Si100  1  0.56984896  0.17754855  0.98346026  1
  Si0+  Si101  1  0.06966409  0.17609349  0.31861612  1
  Si0+  Si102  1  0.07266595  0.17857466  0.64939603  1
  Si0+  Si103  1  0.92805968  0.82055375  0.31999391  1
  Si0+  Si104  1  0.32070199  0.57061235  0.01314876  1
  Si0+  Si105  1  0.57263081  0.67895248  0.31909342  1
  Si0+  Si106  1  0.67686673  0.92821217  0.01166893  1
  Si0+  Si107  1  0.32170527  0.57011678  0.68304135  1
  Si0+  Si108  1  0.57219532  0.67699486  0.64902698  1
  Si0+  Si109  1  0.68013752  0.92636984  0.68294967  1
  Si0+  Si110  1  0.17721877  0.43022206  0.68085893  1
  Si0+  Si111  1  0.57254895  0.17683693  0.65088330  1
  Si0+  Si112  1  0.68036206  0.43072244  0.34838362  1
  Si0+  Si113  1  0.42998467  0.32162410  0.98507750  1
  Si0+  Si114  1  0.82327252  0.57157446  0.34943644  1
  Si0+  Si115  1  0.82028554  0.07088106  0.68335123  1
  Si0+  Si116  1  0.42890821  0.82364931  0.98499418  1
  Si0+  Si117  1  0.42816287  0.81954450  0.31830523  1
  Si0+  Si118  1  0.82410470  0.57190568  0.68283494  1
  Si0+  Si119  1  0.17877037  0.42742642  0.01370423  1
  O2-  O120  1  0.25357587  0.00694433  0.06008498  1
  O2-  O121  1  0.24887338  0.00095887  0.39818768  1
  O2-  O122  1  0.25031532  0.00318364  0.73470670  1
  O2-  O123  1  0.24674382  0.50243424  0.05512891  1
  O2-  O124  1  0.25031550  0.49065631  0.39464508  1
  O2-  O125  1  0.24891337  0.50059281  0.72450767  1
  O2-  O126  1  0.75177147  -0.00543123  0.05368670  1
  O2-  O127  1  0.74751879  0.00044043  0.39825315  1
  O2-  O128  1  0.75336933  -0.00491617  0.72547280  1
  O2-  O129  1  0.75333909  0.49682448  0.06750929  1
  O2-  O130  1  0.75505948  0.49769590  0.39136158  1
  O2-  O131  1  0.75599262  0.50270457  0.72642278  1
  O2-  O132  1  0.00070545  0.24456796  0.27378530  1
  O2-  O133  1  0.00238253  0.24509345  0.60402079  1
  O2-  O134  1  0.00156517  0.25139959  0.93491967  1
  O2-  O135  1  0.00269051  0.75436279  0.27629092  1
  O2-  O136  1  0.00283701  0.75356184  0.59827956  1
  O2-  O137  1  0.00018650  0.74964987  0.93885038  1
  O2-  O138  1  0.49454438  0.24799049  0.26581176  1
  O2-  O139  1  0.49967557  0.24180860  0.60867389  1
  O2-  O140  1  0.49943190  0.24940175  0.94271112  1
  O2-  O141  1  0.50286376  0.75156142  0.27648894  1
  O2-  O142  1  0.50779915  0.74814740  0.60315448  1
  O2-  O143  1  0.49750238  0.75499845  0.94042150  1
  O2-  O144  1  0.07140293  0.17910106  0.09870920  1
  O2-  O145  1  0.06979835  0.17947187  0.42416086  1
  O2-  O146  1  0.07099743  0.18139709  0.75507160  1
  O2-  O147  1  0.07652783  0.68208323  0.10127028  1
  O2-  O148  1  0.07062961  0.67819128  0.42174744  1
  O2-  O149  1  0.07102805  0.67809748  0.76219943  1
  O2-  O150  1  0.56925233  0.17325692  0.08787864  1
  O2-  O151  1  0.57090126  0.18225834  0.43052178  1
  O2-  O152  1  0.57435562  0.17781781  0.75698255  1
  O2-  O153  1  0.56758008  0.67971572  0.10016966  1
  O2-  O154  1  0.57211708  0.67758329  0.42410507  1
  O2-  O155  1  0.56934149  0.67736065  0.75476811  1
  O2-  O156  1  0.17399154  0.43487024  0.24300229  1
  O2-  O157  1  0.17707493  0.43111255  0.57578842  1
  O2-  O158  1  0.18238311  0.42523227  0.90842623  1
  O2-  O159  1  0.17717726  0.92605583  0.23647644  1
  O2-  O160  1  0.18336679  0.93034830  0.57212124  1
  O2-  O161  1  0.18238723  0.92852758  0.90148407  1
  O2-  O162  1  0.67858290  0.43383525  0.24365562  1
  O2-  O163  1  0.68086462  0.42974040  0.56649063  1
  O2-  O164  1  0.67574870  0.42885803  0.90545391  1
  O2-  O165  1  0.68278410  0.92228585  0.23325918  1
  O2-  O166  1  0.67864793  0.92767593  0.57824841  1
  O2-  O167  1  0.67325597  0.93225868  0.90641985  1
  O2-  O168  1  0.42937349  0.32289820  0.08973879  1
  O2-  O169  1  0.43248377  0.32563200  0.43035044  1
  O2-  O170  1  0.43220629  0.32313744  0.76761483  1
  O2-  O171  1  0.43037072  0.82324316  0.09082468  1
  O2-  O172  1  0.42888975  0.81708405  0.42335421  1
  O2-  O173  1  0.43404073  0.81657631  0.76644649  1
  O2-  O174  1  0.92845402  0.31718408  0.09834338  1
  O2-  O175  1  0.92859842  0.32250275  0.43147321  1
  O2-  O176  1  0.92879196  0.31767668  0.76624365  1
  O2-  O177  1  0.92848922  0.82324008  0.10226100  1
  O2-  O178  1  0.92587552  0.81632200  0.42451434  1
  O2-  O179  1  0.92566085  0.81979445  0.76108345  1
  O2-  O180  1  0.31808928  0.06862653  0.23351649  1
  O2-  O181  1  0.32217990  0.07362097  0.57004949  1
  O2-  O182  1  0.32707095  0.07446114  0.91231182  1
  O2-  O183  1  0.32053788  0.57001613  0.23408003  1
  O2-  O184  1  0.32371137  0.56823897  0.57800691  1
  O2-  O185  1  0.32277549  0.56859893  0.90796753  1
  O2-  O186  1  0.81985391  0.07034877  0.23417637  1
  O2-  O187  1  0.81601892  0.07467595  0.57872488  1
  O2-  O188  1  0.81655418  0.07126577  0.90766828  1
  O2-  O189  1  0.82193955  0.57466092  0.24471665  1
  O2-  O190  1  0.82146793  0.57098875  0.57645067  1
  O2-  O191  1  0.81906945  0.57133073  0.90128878  1
  O2-  O192  1  0.04295397  0.08135369  0.27517546  1
  O2-  O193  1  0.04916449  0.08416408  0.60579752  1
  O2-  O194  1  0.04180899  0.08255530  0.92999677  1
  O2-  O195  1  0.04278580  0.59049697  0.26819729  1
  O2-  O196  1  0.04282650  0.58260535  0.59201119  1
  O2-  O197  1  0.05077364  0.57954260  0.93493185  1
  O2-  O198  1  0.54362900  0.07764845  0.26356931  1
  O2-  O199  1  0.55363191  0.08152916  0.60657837  1
  O2-  O200  1  0.54211532  0.08653198  0.93294101  1
  O2-  O201  1  0.54182653  0.58892957  0.27043224  1
  O2-  O202  1  0.54227506  0.58479213  0.60301135  1
  O2-  O203  1  0.53553302  0.58303679  0.93165767  1
  O2-  O204  1  0.16213768  0.20095291  0.26982657  1
  O2-  O205  1  0.16530108  0.20739148  0.60384592  1
  O2-  O206  1  0.17197891  0.20613812  0.93220862  1
  O2-  O207  1  0.16557226  0.70617825  0.27188667  1
  O2-  O208  1  0.17247196  0.70408858  0.59725268  1
  O2-  O209  1  0.17272032  0.70760399  0.93405271  1
  O2-  O210  1  0.66516048  0.20895487  0.26185805  1
  O2-  O211  1  0.66397711  0.20751359  0.60396878  1
  O2-  O212  1  0.66111005  0.20446917  0.93501986  1
  O2-  O213  1  0.66525846  0.70557898  0.27213964  1
  O2-  O214  1  0.66749411  0.69745713  0.60491011  1
  O2-  O215  1  0.66446033  0.70659440  0.92880867  1
  O2-  O216  1  0.08614014  0.45073811  0.06064817  1
  O2-  O217  1  0.08486764  0.46327508  0.39681754  1
  O2-  O218  1  0.08543894  0.45947900  0.72771742  1
  O2-  O219  1  0.08236978  0.96133746  0.06733436  1
  O2-  O220  1  0.07896265  0.95235575  0.40448576  1
  O2-  O221  1  0.07886118  0.95432682  0.73485699  1
  O2-  O222  1  0.58019579  0.46089873  0.07157995  1
  O2-  O223  1  0.59045857  0.46305795  0.39690680  1
  O2-  O224  1  0.58481476  0.46192377  0.73540869  1
  O2-  O225  1  0.58672793  0.96000862  0.06105628  1
  O2-  O226  1  0.57879043  0.95228630  0.39827395  1
  O2-  O227  1  0.58997953  0.95544106  0.73305979  1
  O2-  O228  1  0.21092245  0.33758323  0.06304979  1
  O2-  O229  1  0.19090404  0.33310765  0.39173726  1
  O2-  O230  1  0.20472142  0.33914229  0.72943362  1
  O2-  O231  1  0.21273360  0.83506011  0.07008844  1
  O2-  O232  1  0.20844301  0.82985771  0.40266520  1
  O2-  O233  1  0.21340815  0.82955421  0.73483722  1
  O2-  O234  1  0.70140068  0.32681291  0.07014613  1
  O2-  O235  1  0.70485768  0.33770926  0.39359418  1
  O2-  O236  1  0.70867590  0.33198747  0.73496813  1
  O2-  O237  1  0.69788326  0.83405739  0.05609662  1
  O2-  O238  1  0.70731996  0.82916150  0.40386839  1
  O2-  O239  1  0.70575281  0.83256555  0.72826785  1
  O2-  O240  1  0.46000333  0.42109419  0.26468146  1
  O2-  O241  1  0.46406065  0.41635061  0.60006257  1
  O2-  O242  1  0.45866411  0.41265273  0.93680836  1
  O2-  O243  1  0.45171168  0.91160478  0.27035819  1
  O2-  O244  1  0.46312963  0.91741662  0.59985778  1
  O2-  O245  1  0.45483903  0.91695425  0.93850445  1
  O2-  O246  1  0.96089221  0.41844704  0.26437155  1
  O2-  O247  1  0.95766609  0.41494868  0.59830104  1
  O2-  O248  1  0.95339358  0.41965782  0.93340779  1
  O2-  O249  1  0.95005812  0.91582659  0.27737075  1
  O2-  O250  1  0.95222881  0.92389616  0.59742854  1
  O2-  O251  1  0.95483392  0.91997064  0.93418364  1
  O2-  O252  1  0.32475892  0.30236826  0.26662460  1
  O2-  O253  1  0.33075779  0.29846488  0.59996599  1
  O2-  O254  1  0.33807132  0.29623650  0.93662035  1
  O2-  O255  1  0.33772940  0.78574267  0.27134009  1
  O2-  O256  1  0.33781419  0.78704935  0.59729456  1
  O2-  O257  1  0.33663852  0.79554220  0.93898695  1
  O2-  O258  1  0.83120237  0.29388974  0.26396985  1
  O2-  O259  1  0.83180896  0.28575579  0.60072970  1
  O2-  O260  1  0.82787597  0.28927687  0.93433401  1
  O2-  O261  1  0.83704701  0.78873515  0.27271696  1
  O2-  O262  1  0.83016150  0.79251277  0.59377447  1
  O2-  O263  1  0.82959521  0.79580335  0.93389433  1
  O2-  O264  1  0.41726071  0.04706377  0.06393674  1
  O2-  O265  1  0.41888051  0.04655000  0.39852537  1
  O2-  O266  1  0.42278849  0.04480279  0.73502309  1
  O2-  O267  1  0.41060191  0.53913180  0.06219628  1
  O2-  O268  1  0.41946895  0.54126267  0.40334170  1
  O2-  O269  1  0.41257818  0.53991564  0.73149281  1
  O2-  O270  1  0.91221419  0.04652500  0.06023288  1
  O2-  O271  1  0.91540495  0.04711605  0.40560107  1
  O2-  O272  1  0.91360244  0.04764473  0.72934728  1
  O2-  O273  1  0.92250732  0.54722289  0.06770226  1
  O2-  O274  1  0.91643001  0.54622505  0.39507439  1
  O2-  O275  1  0.91891424  0.54702273  0.72516142  1
  O2-  O276  1  0.30111232  0.16948935  0.06252369  1
  O2-  O277  1  0.29282775  0.17346888  0.39806830  1
  O2-  O278  1  0.29712066  0.17430391  0.73425002  1
  O2-  O279  1  0.29769123  0.66329275  0.06143365  1
  O2-  O280  1  0.28914886  0.66214891  0.40402124  1
  O2-  O281  1  0.29612912  0.66222387  0.73001951  1
  O2-  O282  1  0.78670351  0.15901886  0.06174634  1
  O2-  O283  1  0.78737091  0.17183752  0.40027621  1
  O2-  O284  1  0.78684985  0.15944642  0.73417816  1
  O2-  O285  1  0.78831212  0.66906210  0.06795089  1
  O2-  O286  1  0.79212816  0.66063108  0.40005779  1
  O2-  O287  1  0.79832410  0.66600032  0.72751977  1
