# generated using pymatgen
data_Ca2Al2SiO7
_symmetry_space_group_name_H-M   'P 1'
_cell_length_a   15.45649490
_cell_length_b   15.45557900
_cell_length_c   15.28236795
_cell_angle_alpha   89.99878422
_cell_angle_beta   89.98757750
_cell_angle_gamma   90.00633718
_symmetry_Int_Tables_number   1
_chemical_formula_structural   Ca2Al2SiO7
_chemical_formula_sum   'Ca48 Al48 Si24 O168'
_cell_volume   3650.79067922
_cell_formula_units_Z   24
loop_
 _symmetry_equiv_pos_site_id
 _symmetry_equiv_pos_as_xyz
  1  'x, y, z'
loop_
 _atom_type_symbol
 _atom_type_oxidation_number
  Ca2+  2.0
  Al0+  0.0
  Si0+  0.0
  O2-  -2.0
loop_
 _atom_site_type_symbol
 _atom_site_label
 _atom_site_symmetry_multiplicity
 _atom_site_fract_x
 _atom_site_fract_y
 _atom_site_fract_z
 _atom_site_occupancy
  Ca2+  Ca0  1  0.16805107  0.08793531  0.16997878  1
  Ca2+  Ca1  1  0.17396956  0.08542368  0.49954765  1
  Ca2+  Ca2  1  0.16522657  0.08297902  0.83904055  1
  Ca2+  Ca3  1  0.17507582  0.57447547  0.17097121  1
  Ca2+  Ca4  1  0.17417501  0.58026197  0.50231803  1
  Ca2+  Ca5  1  0.17989342  0.58408463  0.84215458  1
  Ca2+  Ca6  1  0.66776733  0.07861583  0.16982805  1
  Ca2+  Ca7  1  0.68232187  0.08359113  0.50400814  1
  Ca2+  Ca8  1  0.67039899  0.07567041  0.84099406  1
  Ca2+  Ca9  1  0.66918640  0.57490928  0.16330126  1
  Ca2+  Ca10  1  0.66767295  0.57750789  0.50366708  1
  Ca2+  Ca11  1  0.67051046  0.58610336  0.84141039  1
  Ca2+  Ca12  1  0.07767834  0.33566395  0.15934726  1
  Ca2+  Ca13  1  0.07652165  0.33590731  0.49042045  1
  Ca2+  Ca14  1  0.08297201  0.33554104  0.83881300  1
  Ca2+  Ca15  1  0.07122458  0.83322830  0.16246694  1
  Ca2+  Ca16  1  0.07390306  0.82948177  0.49548461  1
  Ca2+  Ca17  1  0.07073933  0.83068769  0.82961199  1
  Ca2+  Ca18  1  0.58318185  0.33408634  0.16205596  1
  Ca2+  Ca19  1  0.57823341  0.33633243  0.48959427  1
  Ca2+  Ca20  1  0.59187814  0.33069981  0.83737511  1
  Ca2+  Ca21  1  0.58466309  0.82587509  0.15580783  1
  Ca2+  Ca22  1  0.58133000  0.82366875  0.50150553  1
  Ca2+  Ca23  1  0.58399363  0.82076152  0.82932573  1
  Ca2+  Ca24  1  0.32596437  0.42154091  0.17429273  1
  Ca2+  Ca25  1  0.33252613  0.42409697  0.49872310  1
  Ca2+  Ca26  1  0.32957365  0.42855755  0.84234197  1
  Ca2+  Ca27  1  0.33147832  0.92591920  0.17332872  1
  Ca2+  Ca28  1  0.33587834  0.91917006  0.50379328  1
  Ca2+  Ca29  1  0.33601672  0.91348696  0.83612128  1
  Ca2+  Ca30  1  0.82636625  0.40952801  0.17043774  1
  Ca2+  Ca31  1  0.82754149  0.41694644  0.50427974  1
  Ca2+  Ca32  1  0.83048466  0.43102986  0.84470434  1
  Ca2+  Ca33  1  0.83128419  0.91782655  0.16931430  1
  Ca2+  Ca34  1  0.84353280  0.92563488  0.50362560  1
  Ca2+  Ca35  1  0.83297893  0.91744270  0.84002325  1
  Ca2+  Ca36  1  0.41769873  0.17411187  0.16157409  1
  Ca2+  Ca37  1  0.41919485  0.17319973  0.48931828  1
  Ca2+  Ca38  1  0.42687286  0.16710681  0.83277136  1
  Ca2+  Ca39  1  0.42041780  0.65925901  0.16098541  1
  Ca2+  Ca40  1  0.41660765  0.66128869  0.49902858  1
  Ca2+  Ca41  1  0.42587644  0.66221633  0.82650509  1
  Ca2+  Ca42  1  0.91703049  0.17813637  0.16046993  1
  Ca2+  Ca43  1  0.91514006  0.16833121  0.49049648  1
  Ca2+  Ca44  1  0.91721203  0.17301401  0.83398364  1
  Ca2+  Ca45  1  0.90859485  0.67656576  0.15895587  1
  Ca2+  Ca46  1  0.90604948  0.67746886  0.49737163  1
  Ca2+  Ca47  1  0.90266658  0.67596230  0.82928226  1
  Al0+  Al48  1  0.00053855  0.00070504  -0.00696538  1
  Al0+  Al49  1  -0.00002399  -0.00161238  0.33219584  1
  Al0+  Al50  1  0.00219163  0.00179907  0.66688738  1
  Al0+  Al51  1  0.00219681  0.50385555  0.00235212  1
  Al0+  Al52  1  0.00011211  0.50199302  0.33281986  1
  Al0+  Al53  1  -0.00127267  0.49890448  0.67043760  1
  Al0+  Al54  1  0.50029908  0.00099533  0.00057056  1
  Al0+  Al55  1  0.50081406  -0.00259039  0.33907423  1
  Al0+  Al56  1  0.50113333  0.00036326  0.66211453  1
  Al0+  Al57  1  0.50204906  0.50055681  0.00138971  1
  Al0+  Al58  1  0.50088801  0.49848518  0.33559128  1
  Al0+  Al59  1  0.49851208  0.49710356  0.66701511  1
  Al0+  Al60  1  0.24990489  0.25077174  -0.00324673  1
  Al0+  Al61  1  0.25084139  0.25039586  0.33804280  1
  Al0+  Al62  1  0.25017208  0.24819457  0.66743996  1
  Al0+  Al63  1  0.24792789  0.75355095  0.00646154  1
  Al0+  Al64  1  0.25024417  0.75056776  0.33566114  1
  Al0+  Al65  1  0.24889338  0.75063035  0.66699544  1
  Al0+  Al66  1  0.75087678  0.25000538  -0.00658813  1
  Al0+  Al67  1  0.75018247  0.24797562  0.33810159  1
  Al0+  Al68  1  0.75165427  0.24777129  0.67102605  1
  Al0+  Al69  1  0.74664497  0.75177486  0.00010903  1
  Al0+  Al70  1  0.74733729  0.74967537  0.32857745  1
  Al0+  Al71  1  0.74750869  0.75062416  0.65767267  1
  Al0+  Al72  1  0.32185951  0.07111660  0.34659311  1
  Al0+  Al73  1  0.32191703  0.57111678  0.34989756  1
  Al0+  Al74  1  0.68163241  0.42657303  0.01486465  1
  Al0+  Al75  1  0.92780151  0.32170700  0.32197571  1
  Al0+  Al76  1  0.82140909  0.57423876  0.01486629  1
  Al0+  Al77  1  0.82394578  0.07059589  0.68333263  1
  Al0+  Al78  1  0.07211191  0.18023835  0.98451326  1
  Al0+  Al79  1  0.17611145  0.42853722  0.34962964  1
  Al0+  Al80  1  0.68161910  0.42854359  0.34700145  1
  Al0+  Al81  1  0.67857142  0.93034677  0.01230489  1
  Al0+  Al82  1  0.92843303  0.81892623  0.98551611  1
  Al0+  Al83  1  0.17946983  0.42790832  0.01558733  1
  Al0+  Al84  1  0.31966971  0.57047617  0.68160746  1
  Al0+  Al85  1  0.81987089  0.06785116  0.34416373  1
  Al0+  Al86  1  0.57139301  0.17745017  0.98714291  1
  Al0+  Al87  1  0.32248376  0.57322015  0.01568617  1
  Al0+  Al88  1  0.92818608  0.32529088  0.98382899  1
  Al0+  Al89  1  0.42710457  0.82096487  0.65100973  1
  Al0+  Al90  1  0.57010867  0.67581095  0.64899139  1
  Al0+  Al91  1  0.81868018  0.57172785  0.67799378  1
  Al0+  Al92  1  0.56782609  0.67891968  0.98749436  1
  Al0+  Al93  1  0.92926320  0.82106617  0.65192089  1
  Al0+  Al94  1  0.42961507  0.32030523  0.31957885  1
  Al0+  Al95  1  0.92894937  0.82040325  0.31773860  1
  Si0+  Si96  1  0.07438693  0.67879587  0.31570589  1
  Si0+  Si97  1  0.82148222  0.57449899  0.34869555  1
  Si0+  Si98  1  0.42799492  0.82236035  0.31762432  1
  Si0+  Si99  1  0.92937485  0.32062863  0.65160902  1
  Si0+  Si100  1  0.56881837  0.67857536  0.31588404  1
  Si0+  Si101  1  0.17646669  0.93110063  0.01515069  1
  Si0+  Si102  1  0.42825214  0.31789575  0.65167639  1
  Si0+  Si103  1  0.17707461  0.42567363  0.68464170  1
  Si0+  Si104  1  0.32142542  0.07072907  0.01298675  1
  Si0+  Si105  1  0.17996116  0.93029482  0.68194377  1
  Si0+  Si106  1  0.67704049  0.92410484  0.35250959  1
  Si0+  Si107  1  0.42907934  0.32171543  0.98271915  1
  Si0+  Si108  1  0.57279141  0.17878530  0.65008451  1
  Si0+  Si109  1  0.32269590  0.07126271  0.68284925  1
  Si0+  Si110  1  0.07459657  0.68000480  0.98402257  1
  Si0+  Si111  1  0.57236893  0.17625764  0.31852975  1
  Si0+  Si112  1  0.67806102  0.92993980  0.68198750  1
  Si0+  Si113  1  0.17811554  0.92857000  0.35091689  1
  Si0+  Si114  1  0.07222869  0.17950153  0.64908259  1
  Si0+  Si115  1  0.07208741  0.67660167  0.65089261  1
  Si0+  Si116  1  0.82352103  0.07110068  0.01550634  1
  Si0+  Si117  1  0.07221846  0.17832928  0.31901314  1
  Si0+  Si118  1  0.42570455  0.82361270  0.98680241  1
  Si0+  Si119  1  0.67702513  0.42653446  0.68350755  1
  O2-  O120  1  0.24832022  0.00219102  0.05569657  1
  O2-  O121  1  0.24792987  -0.00365298  0.39528554  1
  O2-  O122  1  0.25509734  -0.00263461  0.72490944  1
  O2-  O123  1  0.25194294  0.49961485  0.06467301  1
  O2-  O124  1  0.24798089  0.50074051  0.39967294  1
  O2-  O125  1  0.24357497  0.49688647  0.72758873  1
  O2-  O126  1  0.75285527  0.00487829  0.05995466  1
  O2-  O127  1  0.74763756  -0.00796071  0.39452964  1
  O2-  O128  1  0.75006663  -0.00569943  0.72765629  1
  O2-  O129  1  0.75744298  0.49475537  0.06495150  1
  O2-  O130  1  0.75875106  0.50075621  0.39366451  1
  O2-  O131  1  0.74315444  0.49837766  0.72520415  1
  O2-  O132  1  0.00544553  0.24903612  0.27637897  1
  O2-  O133  1  0.00126214  0.25066162  0.60811615  1
  O2-  O134  1  0.00154647  0.25332777  0.93389228  1
  O2-  O135  1  0.00164183  0.74372187  0.27172000  1
  O2-  O136  1  -0.00024533  0.74152129  0.60579520  1
  O2-  O137  1  0.00011682  0.74157135  0.93814898  1
  O2-  O138  1  0.50190383  0.24252210  0.27383420  1
  O2-  O139  1  0.50265467  0.25050675  0.60836449  1
  O2-  O140  1  0.49973898  0.25452580  0.93824102  1
  O2-  O141  1  0.49677909  0.75014891  0.27510599  1
  O2-  O142  1  0.49489301  0.74587727  0.59949814  1
  O2-  O143  1  0.48876731  0.75055948  0.94263326  1
  O2-  O144  1  0.07187308  0.17730141  0.09803167  1
  O2-  O145  1  0.07030871  0.17640503  0.42521039  1
  O2-  O146  1  0.07501523  0.17896054  0.75363144  1
  O2-  O147  1  0.07848355  0.68677814  0.08927863  1
  O2-  O148  1  0.07668378  0.68221051  0.42158679  1
  O2-  O149  1  0.07517327  0.68085743  0.75620323  1
  O2-  O150  1  0.56600118  0.17365074  0.09992676  1
  O2-  O151  1  0.57156703  0.17818148  0.42470427  1
  O2-  O152  1  0.57063245  0.17723682  0.75518059  1
  O2-  O153  1  0.56800815  0.68098949  0.10084953  1
  O2-  O154  1  0.56996232  0.67975757  0.42099193  1
  O2-  O155  1  0.57054846  0.67778794  0.76239702  1
  O2-  O156  1  0.17804985  0.42802837  0.23671044  1
  O2-  O157  1  0.17743971  0.42343974  0.57923825  1
  O2-  O158  1  0.18440475  0.42832977  0.90133859  1
  O2-  O159  1  0.17859541  0.92972451  0.24518890  1
  O2-  O160  1  0.17864476  0.93431783  0.57688289  1
  O2-  O161  1  0.17745851  0.93019591  0.90983415  1
  O2-  O162  1  0.68044611  0.42794465  0.23470745  1
  O2-  O163  1  0.67845352  0.42373327  0.57756741  1
  O2-  O164  1  0.68082777  0.42892011  0.90095145  1
  O2-  O165  1  0.67463985  0.92451650  0.24690817  1
  O2-  O166  1  0.67707230  0.93426926  0.57627232  1
  O2-  O167  1  0.67856245  0.93075172  0.89914594  1
  O2-  O168  1  0.42698087  0.31819865  0.08818958  1
  O2-  O169  1  0.43237329  0.31893908  0.43349825  1
  O2-  O170  1  0.42612924  0.31443213  0.75657405  1
  O2-  O171  1  0.42787371  0.82738324  0.09256233  1
  O2-  O172  1  0.42937457  0.82394848  0.42250628  1
  O2-  O173  1  0.42926970  0.82377636  0.76458949  1
  O2-  O174  1  0.92664190  0.31961500  0.09755629  1
  O2-  O175  1  0.92724107  0.31800992  0.43590168  1
  O2-  O176  1  0.93039813  0.32027730  0.75608026  1
  O2-  O177  1  0.93118664  0.82155297  0.09864916  1
  O2-  O178  1  0.93156036  0.82107957  0.43117476  1
  O2-  O179  1  0.93052470  0.82183150  0.76485117  1
  O2-  O180  1  0.32142407  0.06926889  0.23325914  1
  O2-  O181  1  0.32060355  0.07350284  0.57785396  1
  O2-  O182  1  0.32298781  0.06785319  0.90752681  1
  O2-  O183  1  0.32142099  0.57084123  0.23686686  1
  O2-  O184  1  0.31808973  0.56775657  0.56880215  1
  O2-  O185  1  0.32119740  0.57369120  0.90162160  1
  O2-  O186  1  0.81787818  0.06769437  0.23142751  1
  O2-  O187  1  0.82325535  0.07198408  0.56982552  1
  O2-  O188  1  0.82313134  0.06783203  0.90960805  1
  O2-  O189  1  0.81721948  0.57813739  0.24371120  1
  O2-  O190  1  0.81909530  0.56775103  0.56453165  1
  O2-  O191  1  0.81514836  0.57663179  0.90098545  1
  O2-  O192  1  0.04716101  0.08468975  0.27282877  1
  O2-  O193  1  0.04512390  0.08799359  0.60101820  1
  O2-  O194  1  0.04353087  0.08283971  0.92824989  1
  O2-  O195  1  0.05342257  0.58395730  0.27144998  1
  O2-  O196  1  0.05081845  0.58060415  0.60775519  1
  O2-  O197  1  0.06025517  0.58388866  0.94046596  1
  O2-  O198  1  0.54909914  0.08021006  0.27624859  1
  O2-  O199  1  0.54409840  0.08847710  0.60073126  1
  O2-  O200  1  0.53485202  0.08344641  0.92967251  1
  O2-  O201  1  0.54057274  0.58675265  0.27020155  1
  O2-  O202  1  0.54308822  0.57548363  0.59815630  1
  O2-  O203  1  0.54210190  0.58183570  0.93185454  1
  O2-  O204  1  0.16727355  0.20047351  0.27531940  1
  O2-  O205  1  0.16516249  0.20620522  0.60172220  1
  O2-  O206  1  0.17125365  0.20525109  0.92872225  1
  O2-  O207  1  0.16639525  0.70967762  0.26864737  1
  O2-  O208  1  0.16305442  0.70756207  0.60215720  1
  O2-  O209  1  0.16540346  0.71497779  0.93582679  1
  O2-  O210  1  0.66501204  0.20334376  0.27298787  1
  O2-  O211  1  0.66604223  0.20563144  0.60468225  1
  O2-  O212  1  0.66734925  0.20365619  0.92982103  1
  O2-  O213  1  0.65941784  0.70795038  0.26735140  1
  O2-  O214  1  0.66531365  0.70813909  0.59102880  1
  O2-  O215  1  0.66138330  0.71628758  0.93223421  1
  O2-  O216  1  0.08087341  0.45469042  0.06759361  1
  O2-  O217  1  0.07748011  0.45787561  0.40372988  1
  O2-  O218  1  0.08259086  0.44768049  0.72986997  1
  O2-  O219  1  0.08560677  0.96121249  0.06280257  1
  O2-  O220  1  0.08545521  0.95558198  0.39806916  1
  O2-  O221  1  0.09115678  0.96386414  0.73147328  1
  O2-  O222  1  0.58356102  0.45662768  0.06700091  1
  O2-  O223  1  0.58666346  0.46225410  0.40254907  1
  O2-  O224  1  0.58176061  0.44619553  0.72793860  1
  O2-  O225  1  0.58244361  0.96167463  0.06818976  1
  O2-  O226  1  0.58444117  0.94936849  0.40075640  1
  O2-  O227  1  0.58559582  0.96022166  0.72831525  1
  O2-  O228  1  0.20714251  0.32801364  0.06627883  1
  O2-  O229  1  0.20412004  0.33030989  0.40370011  1
  O2-  O230  1  0.20654758  0.33239967  0.73012868  1
  O2-  O231  1  0.20296746  0.84158429  0.06718520  1
  O2-  O232  1  0.20360267  0.83574476  0.39815426  1
  O2-  O233  1  0.20274804  0.83780440  0.72995402  1
  O2-  O234  1  0.70464115  0.32525516  0.06513530  1
  O2-  O235  1  0.70882243  0.33198892  0.40371420  1
  O2-  O236  1  0.70527031  0.33370265  0.72963695  1
  O2-  O237  1  0.70931176  0.83593750  0.06897517  1
  O2-  O238  1  0.70250507  0.83019358  0.39741704  1
  O2-  O239  1  0.69959392  0.83378133  0.72281970  1
  O2-  O240  1  0.46245164  0.41598237  0.26627982  1
  O2-  O241  1  0.45311354  0.41015644  0.60462947  1
  O2-  O242  1  0.45482619  0.41518008  0.93724734  1
  O2-  O243  1  0.45706193  0.91454928  0.27068106  1
  O2-  O244  1  0.45759619  0.91962364  0.59699276  1
  O2-  O245  1  0.45428275  0.91546876  0.93870965  1
  O2-  O246  1  0.95217232  0.42054368  0.26997500  1
  O2-  O247  1  0.95529485  0.41321573  0.60429596  1
  O2-  O248  1  0.95637211  0.42524280  0.93277890  1
  O2-  O249  1  0.96282204  0.91602161  0.26331703  1
  O2-  O250  1  0.96732243  0.91687190  0.59968332  1
  O2-  O251  1  0.96310076  0.91381239  0.93038490  1
  O2-  O252  1  0.33243739  0.28862035  0.26763953  1
  O2-  O253  1  0.33770854  0.28575482  0.60353304  1
  O2-  O254  1  0.33763811  0.29294811  0.93396390  1
  O2-  O255  1  0.33400944  0.79979496  0.27192978  1
  O2-  O256  1  0.32615075  0.79908032  0.59967222  1
  O2-  O257  1  0.32923162  0.80504318  0.94357587  1
  O2-  O258  1  0.83257563  0.28515073  0.26893144  1
  O2-  O259  1  0.83693792  0.29072960  0.60588718  1
  O2-  O260  1  0.83183628  0.29500799  0.92745957  1
  O2-  O261  1  0.83063634  0.79260901  0.26536962  1
  O2-  O262  1  0.83247063  0.79588885  0.59570229  1
  O2-  O263  1  0.83099339  0.79119440  0.93241383  1
  O2-  O264  1  0.41082146  0.04103545  0.06324890  1
  O2-  O265  1  0.41775848  0.04030303  0.40307370  1
  O2-  O266  1  0.41629016  0.04602395  0.72806636  1
  O2-  O267  1  0.42085331  0.54484033  0.06667194  1
  O2-  O268  1  0.41896264  0.53924001  0.40326009  1
  O2-  O269  1  0.41606045  0.53664881  0.73434237  1
  O2-  O270  1  0.91690167  0.04310006  0.06001584  1
  O2-  O271  1  0.91726012  0.03825217  0.39909322  1
  O2-  O272  1  0.92173826  0.04252960  0.73539051  1
  O2-  O273  1  0.92439499  0.56037201  0.06237634  1
  O2-  O274  1  0.91785858  0.55831470  0.39170150  1
  O2-  O275  1  0.91569230  0.54304382  0.73280898  1
  O2-  O276  1  0.29534214  0.16324995  0.05867609  1
  O2-  O277  1  0.29105386  0.16547386  0.40472594  1
  O2-  O278  1  0.29133190  0.16130011  0.73180205  1
  O2-  O279  1  0.29407766  0.67225647  0.06843583  1
  O2-  O280  1  0.29545864  0.67135523  0.40137715  1
  O2-  O281  1  0.29096111  0.66875752  0.73350451  1
  O2-  O282  1  0.79941825  0.16605448  0.05742151  1
  O2-  O283  1  0.78789354  0.16182606  0.40329527  1
  O2-  O284  1  0.79092625  0.16604655  0.73804535  1
  O2-  O285  1  0.78395822  0.66903702  0.06917397  1
  O2-  O286  1  0.78799162  0.66593890  0.39596104  1
  O2-  O287  1  0.78876095  0.67066244  0.72747534  1
