# generated using pymatgen
data_Ca2Al2SiO7
_symmetry_space_group_name_H-M   'P 1'
_cell_length_a   15.45964936
_cell_length_b   15.46125052
_cell_length_c   15.28540637
_cell_angle_alpha   90.00694936
_cell_angle_beta   89.99115863
_cell_angle_gamma   89.98154833
_symmetry_Int_Tables_number   1
_chemical_formula_structural   Ca2Al2SiO7
_chemical_formula_sum   'Ca48 Al48 Si24 O168'
_cell_volume   3653.60181932
_cell_formula_units_Z   24
loop_
 _symmetry_equiv_pos_site_id
 _symmetry_equiv_pos_as_xyz
  1  'x, y, z'
loop_
 _atom_type_symbol
 _atom_type_oxidation_number
  Ca2+  2.0
  Al0+  0.0
  Si0+  0.0
  O2-  -2.0
loop_
 _atom_site_type_symbol
 _atom_site_label
 _atom_site_symmetry_multiplicity
 _atom_site_fract_x
 _atom_site_fract_y
 _atom_site_fract_z
 _atom_site_occupancy
  Ca2+  Ca0  1  0.17172611  0.07968698  0.16641903  1
  Ca2+  Ca1  1  0.16677196  0.07940652  0.50412788  1
  Ca2+  Ca2  1  0.17399177  0.07548655  0.84439756  1
  Ca2+  Ca3  1  0.16971170  0.57435868  0.17621305  1
  Ca2+  Ca4  1  0.17091027  0.58821118  0.49864130  1
  Ca2+  Ca5  1  0.17098953  0.58211460  0.83433720  1
  Ca2+  Ca6  1  0.66152066  0.08704983  0.17113018  1
  Ca2+  Ca7  1  0.67057451  0.08324302  0.50490541  1
  Ca2+  Ca8  1  0.67058015  0.08696283  0.83528752  1
  Ca2+  Ca9  1  0.67101670  0.57739528  0.17473148  1
  Ca2+  Ca10  1  0.67162557  0.58416168  0.50334935  1
  Ca2+  Ca11  1  0.66636056  0.56749262  0.83669980  1
  Ca2+  Ca12  1  0.07363634  0.35023386  0.16361420  1
  Ca2+  Ca13  1  0.07222718  0.34052145  0.49444974  1
  Ca2+  Ca14  1  0.07301173  0.34016921  0.83131119  1
  Ca2+  Ca15  1  0.08464467  0.82787984  0.16685717  1
  Ca2+  Ca16  1  0.07444872  0.82027524  0.49668860  1
  Ca2+  Ca17  1  0.08531675  0.82843241  0.82355117  1
  Ca2+  Ca18  1  0.58041309  0.32424350  0.15629288  1
  Ca2+  Ca19  1  0.58181546  0.33370124  0.49941636  1
  Ca2+  Ca20  1  0.57675464  0.33547391  0.83123522  1
  Ca2+  Ca21  1  0.58058364  0.82338476  0.17006292  1
  Ca2+  Ca22  1  0.57225821  0.82739721  0.49066986  1
  Ca2+  Ca23  1  0.57449101  0.83024153  0.82799114  1
  Ca2+  Ca24  1  0.32223722  0.41481759  0.17392564  1
  Ca2+  Ca25  1  0.33267828  0.42928282  0.50693143  1
  Ca2+  Ca26  1  0.33167809  0.41776830  0.83970418  1
  Ca2+  Ca27  1  0.33451826  0.91978097  0.16843342  1
  Ca2+  Ca28  1  0.33715298  0.91144855  0.50443630  1
  Ca2+  Ca29  1  0.32987008  0.92122933  0.84210782  1
  Ca2+  Ca30  1  0.83062124  0.41543277  0.17277846  1
  Ca2+  Ca31  1  0.83124591  0.41831930  0.50301807  1
  Ca2+  Ca32  1  0.82351772  0.40566043  0.83628543  1
  Ca2+  Ca33  1  0.83243879  0.91753658  0.17527678  1
  Ca2+  Ca34  1  0.84057634  0.92072783  0.50732173  1
  Ca2+  Ca35  1  0.84092537  0.92439465  0.83398489  1
  Ca2+  Ca36  1  0.42554313  0.16961928  0.15705994  1
  Ca2+  Ca37  1  0.42318588  0.17562573  0.49438116  1
  Ca2+  Ca38  1  0.41355426  0.17835822  0.83338677  1
  Ca2+  Ca39  1  0.41325139  0.66438298  0.17137728  1
  Ca2+  Ca40  1  0.41574858  0.67070212  0.49340147  1
  Ca2+  Ca41  1  0.41310272  0.67043260  0.82278197  1
  Ca2+  Ca42  1  0.91932221  0.18085011  0.16278512  1
  Ca2+  Ca43  1  0.91046368  0.17729365  0.49863253  1
  Ca2+  Ca44  1  0.91504711  0.17532592  0.82862585  1
  Ca2+  Ca45  1  0.91953284  0.66319597  0.16975727  1
  Ca2+  Ca46  1  0.92445609  0.66749799  0.48941195  1
  Ca2+  Ca47  1  0.92795942  0.67373676  0.82274110  1
  Al0+  Al48  1  -0.00044884  0.00086382  0.00597907  1
  Al0+  Al49  1  0.00010193  0.00187331  0.33168042  1
  Al0+  Al50  1  0.00122690  0.00048924  0.66971173  1
  Al0+  Al51  1  0.00064714  0.50403246  -0.00449835  1
  Al0+  Al52  1  -0.00274184  0.50073754  0.33325647  1
  Al0+  Al53  1  0.00113683  0.49945456  0.65930612  1
  Al0+  Al54  1  0.50280219  -0.00162790  -0.00067863  1
  Al0+  Al55  1  0.50032102  0.00009110  0.32777980  1
  Al0+  Al56  1  0.50079226  0.00073208  0.66533528  1
  Al0+  Al57  1  0.50279701  0.49968636  0.00227918  1
  Al0+  Al58  1  0.49823889  0.49863427  0.33313645  1
  Al0+  Al59  1  0.49968002  0.49989171  0.67138920  1
  Al0+  Al60  1  0.24952292  0.24948816  0.00579942  1
  Al0+  Al61  1  0.24783907  0.24697992  0.34023042  1
  Al0+  Al62  1  0.25045139  0.25079572  0.66265559  1
  Al0+  Al63  1  0.24937850  0.74987326  0.00383574  1
  Al0+  Al64  1  0.24794650  0.75110183  0.32854022  1
  Al0+  Al65  1  0.25026940  0.74954868  0.66308390  1
  Al0+  Al66  1  0.75026834  0.24920642  -0.00245500  1
  Al0+  Al67  1  0.75068517  0.24890263  0.32659663  1
  Al0+  Al68  1  0.75077735  0.24803938  0.67112287  1
  Al0+  Al69  1  0.75080074  0.75140123  -0.00308500  1
  Al0+  Al70  1  0.74736488  0.75035018  0.33153964  1
  Al0+  Al71  1  0.74948447  0.75124769  0.66790712  1
  Al0+  Al72  1  0.43052556  0.82159356  0.65526592  1
  Al0+  Al73  1  0.82095819  0.06866319  0.68089804  1
  Al0+  Al74  1  0.92784632  0.31886482  0.65261933  1
  Al0+  Al75  1  0.32309765  0.07070483  0.01533990  1
  Al0+  Al76  1  0.42748584  0.82089505  0.31604731  1
  Al0+  Al77  1  0.42703476  0.32208726  0.98647462  1
  Al0+  Al78  1  0.31897075  0.57101905  0.68063851  1
  Al0+  Al79  1  0.81764217  0.57140936  0.34637973  1
  Al0+  Al80  1  0.68062848  0.42796448  0.01527571  1
  Al0+  Al81  1  0.56977400  0.18147728  0.32110704  1
  Al0+  Al82  1  0.17677300  0.42750580  0.35080982  1
  Al0+  Al83  1  0.42801993  0.32292926  0.65228500  1
  Al0+  Al84  1  0.17794135  0.92717043  0.01680430  1
  Al0+  Al85  1  0.92778264  0.82308574  0.31790947  1
  Al0+  Al86  1  0.07121708  0.67840303  0.65035418  1
  Al0+  Al87  1  0.92816885  0.82321035  0.65376265  1
  Al0+  Al88  1  0.06935511  0.67896716  0.31497812  1
  Al0+  Al89  1  0.93137101  0.32238864  0.98540945  1
  Al0+  Al90  1  0.17817089  0.43061296  0.01127415  1
  Al0+  Al91  1  0.68098234  0.43001451  0.67982325  1
  Al0+  Al92  1  0.57080196  0.67557314  0.31896135  1
  Al0+  Al93  1  0.57153355  0.17690559  0.98158629  1
  Al0+  Al94  1  0.32107094  0.57107376  0.34904448  1
  Al0+  Al95  1  0.93132709  0.32004764  0.31942450  1
  Si0+  Si96  1  0.67821449  0.42470128  0.34850980  1
  Si0+  Si97  1  0.32336578  0.06872091  0.35080410  1
  Si0+  Si98  1  0.82515494  0.57384630  0.68284110  1
  Si0+  Si99  1  0.57392342  0.67879682  0.98372253  1
  Si0+  Si100  1  0.32341679  0.07349621  0.68067126  1
  Si0+  Si101  1  0.18208045  0.93089409  0.67960030  1
  Si0+  Si102  1  0.07319202  0.17755770  0.65154282  1
  Si0+  Si103  1  0.17719838  0.42599850  0.68354720  1
  Si0+  Si104  1  0.68023892  0.92694395  0.01621929  1
  Si0+  Si105  1  0.42500936  0.32153769  0.31848138  1
  Si0+  Si106  1  0.57151035  0.17927697  0.65041356  1
  Si0+  Si107  1  0.57195063  0.67658069  0.65285338  1
  Si0+  Si108  1  0.07172259  0.68152509  0.98354645  1
  Si0+  Si109  1  0.42943988  0.81780404  0.98532103  1
  Si0+  Si110  1  0.67805777  0.92990856  0.34807430  1
  Si0+  Si111  1  0.32369110  0.57254902  0.01615201  1
  Si0+  Si112  1  0.92838467  0.82320943  0.98493058  1
  Si0+  Si113  1  0.07410855  0.17630067  0.31607487  1
  Si0+  Si114  1  0.67525143  0.92719791  0.68395250  1
  Si0+  Si115  1  0.82100395  0.57433646  0.01444530  1
  Si0+  Si116  1  0.07133861  0.17558088  0.98444894  1
  Si0+  Si117  1  0.82031099  0.07072321  0.01761506  1
  Si0+  Si118  1  0.17793117  0.93027399  0.35049456  1
  Si0+  Si119  1  0.82056538  0.07116506  0.34750939  1
  O2-  O120  1  0.25092788  -0.00128507  0.06609699  1
  O2-  O121  1  0.25169988  -0.00155199  0.39375326  1
  O2-  O122  1  0.25295699  0.00173078  0.72248851  1
  O2-  O123  1  0.25876448  0.49924022  0.05745598  1
  O2-  O124  1  0.25096087  0.49763879  0.40025496  1
  O2-  O125  1  0.24585812  0.49486265  0.72756180  1
  O2-  O126  1  0.74893780  -0.00016921  0.05922649  1
  O2-  O127  1  0.75255595  -0.00256635  0.39021249  1
  O2-  O128  1  0.74862110  -0.00876451  0.72827541  1
  O2-  O129  1  0.75566140  0.50312652  0.05949951  1
  O2-  O130  1  0.74133254  0.49810609  0.39316028  1
  O2-  O131  1  0.75720658  0.50440685  0.72720280  1
  O2-  O132  1  0.01130271  0.25063262  0.27285871  1
  O2-  O133  1  0.00557282  0.24678898  0.60685073  1
  O2-  O134  1  0.00749472  0.24815012  0.93928527  1
  O2-  O135  1  -0.00269183  0.75129795  0.26446518  1
  O2-  O136  1  -0.00845990  0.74441200  0.60357929  1
  O2-  O137  1  0.00267931  0.75577939  0.94301879  1
  O2-  O138  1  0.49576025  0.25564993  0.27387162  1
  O2-  O139  1  0.50276234  0.24756441  0.60635308  1
  O2-  O140  1  0.49874554  0.24976591  0.93451911  1
  O2-  O141  1  0.49563746  0.74421062  0.26762402  1
  O2-  O142  1  0.50701316  0.74897907  0.60944218  1
  O2-  O143  1  0.49740385  0.74454454  0.94189897  1
  O2-  O144  1  0.06609769  0.17062025  0.08963473  1
  O2-  O145  1  0.07089803  0.17076606  0.42169845  1
  O2-  O146  1  0.07386228  0.17617648  0.75709984  1
  O2-  O147  1  0.07085601  0.67971239  0.08794053  1
  O2-  O148  1  0.06883296  0.68180665  0.42827272  1
  O2-  O149  1  0.07325152  0.68248619  0.76492452  1
  O2-  O150  1  0.57103204  0.17790886  0.09534544  1
  O2-  O151  1  0.57006345  0.18094475  0.43449887  1
  O2-  O152  1  0.57022685  0.17783428  0.75560327  1
  O2-  O153  1  0.57773576  0.68206872  0.08819553  1
  O2-  O154  1  0.57309713  0.68074346  0.43268017  1
  O2-  O155  1  0.56953070  0.67758252  0.75906193  1
  O2-  O156  1  0.17863790  0.42902192  0.23672580  1
  O2-  O157  1  0.17844011  0.42374358  0.57852671  1
  O2-  O158  1  0.17545438  0.43567739  0.89806971  1
  O2-  O159  1  0.17672609  0.93381661  0.24563775  1
  O2-  O160  1  0.18215150  0.93353645  0.57453821  1
  O2-  O161  1  0.17986261  0.92669926  0.90233798  1
  O2-  O162  1  0.68227968  0.42283587  0.24294676  1
  O2-  O163  1  0.68149340  0.43036757  0.56659500  1
  O2-  O164  1  0.68069865  0.42957304  0.90185463  1
  O2-  O165  1  0.67801825  0.93217692  0.24263734  1
  O2-  O166  1  0.67067569  0.93080109  0.57870047  1
  O2-  O167  1  0.68211911  0.92400090  0.91114134  1
  O2-  O168  1  0.42868283  0.32082982  0.10008361  1
  O2-  O169  1  0.42689932  0.31916412  0.42442161  1
  O2-  O170  1  0.42596559  0.32069353  0.76506636  1
  O2-  O171  1  0.43095506  0.81760716  0.08988970  1
  O2-  O172  1  0.43157327  0.82411187  0.42975167  1
  O2-  O173  1  0.43027228  0.82151065  0.76905017  1
  O2-  O174  1  0.93169559  0.32146685  0.09842908  1
  O2-  O175  1  0.92704612  0.31535001  0.43246952  1
  O2-  O176  1  0.92849546  0.31665303  0.76589697  1
  O2-  O177  1  0.92470551  0.82149803  0.08940825  1
  O2-  O178  1  0.93100839  0.82542927  0.43118745  1
  O2-  O179  1  0.93457733  0.82476204  0.76800068  1
  O2-  O180  1  0.32332857  0.06844647  0.24606396  1
  O2-  O181  1  0.32313949  0.07268310  0.57544130  1
  O2-  O182  1  0.32110644  0.06736888  0.90091511  1
  O2-  O183  1  0.31988541  0.56805273  0.23501353  1
  O2-  O184  1  0.31919865  0.57282663  0.56835387  1
  O2-  O185  1  0.32087851  0.57751351  0.91036603  1
  O2-  O186  1  0.81907707  0.07124252  0.24237245  1
  O2-  O187  1  0.81828977  0.06958337  0.56753376  1
  O2-  O188  1  0.82230410  0.06818468  0.91239798  1
  O2-  O189  1  0.81731227  0.56894246  0.23289259  1
  O2-  O190  1  0.82247473  0.57446823  0.57744310  1
  O2-  O191  1  0.81822167  0.57786762  0.90881767  1
  O2-  O192  1  0.04248645  0.08632873  0.26654436  1
  O2-  O193  1  0.04633180  0.08445686  0.60515562  1
  O2-  O194  1  0.04102546  0.08322694  0.93654944  1
  O2-  O195  1  0.03806735  0.58140601  0.26279089  1
  O2-  O196  1  0.05085844  0.57893550  0.59765075  1
  O2-  O197  1  0.04105723  0.59283683  0.93190858  1
  O2-  O198  1  0.53958488  0.08575553  0.26557652  1
  O2-  O199  1  0.54633808  0.08578488  0.60356147  1
  O2-  O200  1  0.54749290  0.07611141  0.93042494  1
  O2-  O201  1  0.54708115  0.57583570  0.26587632  1
  O2-  O202  1  0.54421885  0.58478513  0.60646423  1
  O2-  O203  1  0.55098512  0.58514847  0.93861181  1
  O2-  O204  1  0.17069010  0.19404383  0.27351164  1
  O2-  O205  1  0.16654319  0.19980235  0.60327299  1
  O2-  O206  1  0.16748768  0.19512522  0.94249543  1
  O2-  O207  1  0.16655387  0.70875067  0.26126920  1
  O2-  O208  1  0.16569645  0.71547336  0.59638811  1
  O2-  O209  1  0.16451616  0.70862416  0.93682467  1
  O2-  O210  1  0.66551629  0.20905096  0.26409490  1
  O2-  O211  1  0.66517727  0.20520595  0.60554293  1
  O2-  O212  1  0.67032751  0.20523117  0.93014938  1
  O2-  O213  1  0.66588255  0.71006855  0.26265066  1
  O2-  O214  1  0.66740209  0.69797133  0.60909699  1
  O2-  O215  1  0.66246626  0.71305718  0.93323967  1
  O2-  O216  1  0.08334483  0.46903788  0.06497167  1
  O2-  O217  1  0.07830884  0.45814318  0.40124730  1
  O2-  O218  1  0.08250903  0.45265547  0.72752254  1
  O2-  O219  1  0.07989198  0.95592005  0.07043737  1
  O2-  O220  1  0.08743905  0.96301157  0.39832804  1
  O2-  O221  1  0.09137086  0.95835844  0.72952368  1
  O2-  O222  1  0.58435990  0.45850775  0.06996766  1
  O2-  O223  1  0.58182377  0.44320061  0.39100321  1
  O2-  O224  1  0.58572731  0.46189407  0.73655176  1
  O2-  O225  1  0.58798860  0.95170334  0.06350974  1
  O2-  O226  1  0.58758289  0.96255840  0.39566027  1
  O2-  O227  1  0.58397285  0.95850398  0.73346270  1
  O2-  O228  1  0.19867556  0.33197648  0.06558127  1
  O2-  O229  1  0.19771748  0.32602413  0.40232237  1
  O2-  O230  1  0.20250291  0.33174765  0.72926890  1
  O2-  O231  1  0.20719392  0.82968754  0.07053176  1
  O2-  O232  1  0.20337192  0.83744085  0.39567489  1
  O2-  O233  1  0.21082704  0.83964821  0.72690908  1
  O2-  O234  1  0.71186929  0.33078952  0.06736843  1
  O2-  O235  1  0.71060477  0.33295932  0.39510190  1
  O2-  O236  1  0.71157666  0.33375627  0.73467272  1
  O2-  O237  1  0.71144866  0.83627086  0.06442594  1
  O2-  O238  1  0.70034597  0.83721994  0.39505343  1
  O2-  O239  1  0.69401404  0.83174287  0.73002984  1
  O2-  O240  1  0.44489155  0.41596986  0.27349282  1
  O2-  O241  1  0.46180123  0.41892810  0.59992612  1
  O2-  O242  1  0.45643492  0.42154066  0.93472509  1
  O2-  O243  1  0.46272990  0.91654562  0.26170161  1
  O2-  O244  1  0.45893786  0.91863883  0.60045774  1
  O2-  O245  1  0.46042116  0.90855424  0.93778596  1
  O2-  O246  1  0.95667823  0.41719293  0.26528425  1
  O2-  O247  1  0.95430091  0.41600083  0.59854579  1
  O2-  O248  1  0.96017130  0.41948965  0.93074494  1
  O2-  O249  1  0.95685499  0.92202704  0.26525045  1
  O2-  O250  1  0.96242492  0.91988616  0.60099950  1
  O2-  O251  1  0.95357448  0.91720993  0.94067403  1
  O2-  O252  1  0.33118186  0.29180617  0.27567863  1
  O2-  O253  1  0.33254514  0.29160346  0.59657262  1
  O2-  O254  1  0.32730743  0.29369575  0.93463427  1
  O2-  O255  1  0.32815044  0.79918282  0.26349989  1
  O2-  O256  1  0.33544220  0.79098418  0.60018573  1
  O2-  O257  1  0.33593935  0.79276275  0.93928231  1
  O2-  O258  1  0.83784678  0.28338547  0.26293376  1
  O2-  O259  1  0.83268185  0.28284252  0.59941762  1
  O2-  O260  1  0.83627070  0.28653199  0.93245055  1
  O2-  O261  1  0.82784356  0.79845449  0.26714546  1
  O2-  O262  1  0.82471819  0.80763309  0.60691451  1
  O2-  O263  1  0.83800689  0.79413530  0.93474341  1
  O2-  O264  1  0.42167274  0.03910369  0.06669358  1
  O2-  O265  1  0.41522612  0.03954433  0.39762957  1
  O2-  O266  1  0.41512784  0.04604730  0.72801976  1
  O2-  O267  1  0.41941917  0.55386379  0.05980446  1
  O2-  O268  1  0.42130853  0.54604707  0.40158560  1
  O2-  O269  1  0.41562057  0.54289880  0.73604009  1
  O2-  O270  1  0.91114690  0.04338898  0.06688974  1
  O2-  O271  1  0.91352472  0.04717809  0.39470410  1
  O2-  O272  1  0.91799652  0.03999337  0.73719109  1
  O2-  O273  1  0.91618633  0.55159451  0.05743537  1
  O2-  O274  1  0.91292484  0.53937596  0.40087770  1
  O2-  O275  1  0.92015924  0.54893705  0.72643835  1
  O2-  O276  1  0.29573618  0.16787012  0.07074066  1
  O2-  O277  1  0.29609187  0.15979146  0.40045054  1
  O2-  O278  1  0.29381031  0.16482805  0.72793631  1
  O2-  O279  1  0.29348261  0.66380198  0.06418683  1
  O2-  O280  1  0.29199466  0.67195554  0.39743154  1
  O2-  O281  1  0.28639016  0.66787087  0.73512332  1
  O2-  O282  1  0.79222865  0.16238436  0.06415082  1
  O2-  O283  1  0.78807534  0.16170259  0.39491067  1
  O2-  O284  1  0.78764664  0.16267530  0.73812416  1
  O2-  O285  1  0.79258360  0.66714705  0.06128152  1
  O2-  O286  1  0.78833883  0.66891939  0.40044844  1
  O2-  O287  1  0.80116541  0.66836497  0.72957140  1
