# generated using pymatgen
data_Ca2Al2SiO7
_symmetry_space_group_name_H-M   'P 1'
_cell_length_a   15.45921872
_cell_length_b   15.46089237
_cell_length_c   15.28563785
_cell_angle_alpha   89.99691524
_cell_angle_beta   90.01148243
_cell_angle_gamma   90.00830971
_symmetry_Int_Tables_number   1
_chemical_formula_structural   Ca2Al2SiO7
_chemical_formula_sum   'Ca48 Al48 Si24 O168'
_cell_volume   3653.47088334
_cell_formula_units_Z   24
loop_
 _symmetry_equiv_pos_site_id
 _symmetry_equiv_pos_as_xyz
  1  'x, y, z'
loop_
 _atom_type_symbol
 _atom_type_oxidation_number
  Ca2+  2.0
  Al0+  0.0
  Si0+  0.0
  O2-  -2.0
loop_
 _atom_site_type_symbol
 _atom_site_label
 _atom_site_symmetry_multiplicity
 _atom_site_fract_x
 _atom_site_fract_y
 _atom_site_fract_z
 _atom_site_occupancy
  Ca2+  Ca0  1  0.16606438  0.07563518  0.16783350  1
  Ca2+  Ca1  1  0.17423761  0.07773374  0.51083525  1
  Ca2+  Ca2  1  0.17207902  0.07012113  0.83287618  1
  Ca2+  Ca3  1  0.17794602  0.58643073  0.17549590  1
  Ca2+  Ca4  1  0.16485451  0.57704398  0.49782977  1
  Ca2+  Ca5  1  0.17315904  0.58271166  0.84034291  1
  Ca2+  Ca6  1  0.66498590  0.08196123  0.17908298  1
  Ca2+  Ca7  1  0.66676887  0.07346595  0.49922906  1
  Ca2+  Ca8  1  0.66081045  0.07535076  0.83539067  1
  Ca2+  Ca9  1  0.66788204  0.57902887  0.17946690  1
  Ca2+  Ca10  1  0.67437149  0.59286314  0.50199067  1
  Ca2+  Ca11  1  0.67097198  0.59589711  0.83456434  1
  Ca2+  Ca12  1  0.07761586  0.34203191  0.17014388  1
  Ca2+  Ca13  1  0.08135960  0.33906863  0.49162150  1
  Ca2+  Ca14  1  0.08584822  0.33432310  0.82572935  1
  Ca2+  Ca15  1  0.08554289  0.82090414  0.16072056  1
  Ca2+  Ca16  1  0.07692342  0.83257365  0.49498083  1
  Ca2+  Ca17  1  0.08289049  0.83262577  0.82777202  1
  Ca2+  Ca18  1  0.58608736  0.32543088  0.16147899  1
  Ca2+  Ca19  1  0.58859037  0.32526283  0.48997582  1
  Ca2+  Ca20  1  0.57522419  0.32871599  0.83453760  1
  Ca2+  Ca21  1  0.58669520  0.82232930  0.16686213  1
  Ca2+  Ca22  1  0.58369534  0.82944000  0.49829076  1
  Ca2+  Ca23  1  0.57935219  0.82491060  0.82141157  1
  Ca2+  Ca24  1  0.33363009  0.42613602  0.17192440  1
  Ca2+  Ca25  1  0.32470191  0.42253796  0.50227878  1
  Ca2+  Ca26  1  0.33175080  0.42088229  0.83947441  1
  Ca2+  Ca27  1  0.32681820  0.91161467  0.16790790  1
  Ca2+  Ca28  1  0.33076260  0.92028682  0.51093723  1
  Ca2+  Ca29  1  0.32792203  0.91086787  0.83333800  1
  Ca2+  Ca30  1  0.82671728  0.42127397  0.18011115  1
  Ca2+  Ca31  1  0.83103111  0.42690545  0.49653467  1
  Ca2+  Ca32  1  0.83070546  0.42557769  0.83290442  1
  Ca2+  Ca33  1  0.82397666  0.92599436  0.17704858  1
  Ca2+  Ca34  1  0.82168651  0.90965264  0.50309226  1
  Ca2+  Ca35  1  0.82828476  0.90885830  0.83134185  1
  Ca2+  Ca36  1  0.42824785  0.17627170  0.16075683  1
  Ca2+  Ca37  1  0.41898117  0.16564554  0.49379012  1
  Ca2+  Ca38  1  0.41371828  0.16823245  0.83125937  1
  Ca2+  Ca39  1  0.42582763  0.65622317  0.16231913  1
  Ca2+  Ca40  1  0.42356023  0.67063722  0.49536327  1
  Ca2+  Ca41  1  0.42623655  0.66775155  0.82890860  1
  Ca2+  Ca42  1  0.90816727  0.17444698  0.16846276  1
  Ca2+  Ca43  1  0.91467605  0.17394312  0.48984381  1
  Ca2+  Ca44  1  0.91994146  0.16895195  0.82889015  1
  Ca2+  Ca45  1  0.92984762  0.65642139  0.16744672  1
  Ca2+  Ca46  1  0.91763336  0.66528855  0.49584275  1
  Ca2+  Ca47  1  0.92301701  0.67090700  0.82460284  1
  Al0+  Al48  1  -0.00121037  0.00109174  0.00483744  1
  Al0+  Al49  1  -0.00045368  0.00168824  0.33458563  1
  Al0+  Al50  1  0.00038868  0.00109837  0.66467879  1
  Al0+  Al51  1  -0.00012269  0.50040817  -0.00599342  1
  Al0+  Al52  1  -0.00041553  0.49992057  0.33101123  1
  Al0+  Al53  1  -0.00194088  0.49958503  0.67518124  1
  Al0+  Al54  1  0.49930940  -0.00045028  -0.00076085  1
  Al0+  Al55  1  0.49841517  0.00003403  0.33067116  1
  Al0+  Al56  1  0.50128468  0.00052149  0.67201339  1
  Al0+  Al57  1  0.50131623  0.49828999  -0.00590692  1
  Al0+  Al58  1  0.49822333  0.50012793  0.33935889  1
  Al0+  Al59  1  0.50089439  0.49652646  0.66165759  1
  Al0+  Al60  1  0.24755176  0.24898832  -0.00185877  1
  Al0+  Al61  1  0.24895383  0.24903142  0.33309219  1
  Al0+  Al62  1  0.24976467  0.24972518  0.67352120  1
  Al0+  Al63  1  0.25009668  0.74767170  0.00432089  1
  Al0+  Al64  1  0.24936443  0.75080021  0.33480774  1
  Al0+  Al65  1  0.25112085  0.74732221  0.66549454  1
  Al0+  Al66  1  0.75040730  0.25030240  -0.00770619  1
  Al0+  Al67  1  0.75123008  0.25008115  0.33241038  1
  Al0+  Al68  1  0.75016713  0.25207123  0.66762402  1
  Al0+  Al69  1  0.75255483  0.75161078  0.00071597  1
  Al0+  Al70  1  0.74883864  0.75194062  0.33412247  1
  Al0+  Al71  1  0.75366420  0.75042834  0.66874543  1
  Al0+  Al72  1  0.68152101  0.93011793  0.68175881  1
  Al0+  Al73  1  0.93193217  0.82187312  0.65251132  1
  Al0+  Al74  1  0.17964992  0.43141083  0.68126720  1
  Al0+  Al75  1  0.81817805  0.57037856  0.68186386  1
  Al0+  Al76  1  0.32201621  0.56812387  0.01255661  1
  Al0+  Al77  1  0.32260409  0.07043157  0.68234045  1
  Al0+  Al78  1  0.06962099  0.68080032  0.32062798  1
  Al0+  Al79  1  0.67688882  0.42787278  0.34641741  1
  Al0+  Al80  1  0.32288139  0.57427968  0.35065412  1
  Al0+  Al81  1  0.17917996  0.92905543  0.01519804  1
  Al0+  Al82  1  0.17970738  0.42936450  0.34591386  1
  Al0+  Al83  1  0.67685725  0.92928695  0.34831834  1
  Al0+  Al84  1  0.57232871  0.67837913  0.65033105  1
  Al0+  Al85  1  0.93073088  0.32001240  0.32032610  1
  Al0+  Al86  1  0.56944631  0.18012199  0.32169949  1
  Al0+  Al87  1  0.82171672  0.07233422  0.34836283  1
  Al0+  Al88  1  0.42772343  0.32058344  0.98502934  1
  Al0+  Al89  1  0.07195932  0.67910974  0.98530339  1
  Al0+  Al90  1  0.57207537  0.17702496  0.98285763  1
  Al0+  Al91  1  0.42813015  0.82209019  0.65238747  1
  Al0+  Al92  1  0.82081604  0.57201805  0.34635405  1
  Al0+  Al93  1  0.57043359  0.67886855  0.32021563  1
  Al0+  Al94  1  0.17748772  0.92592404  0.67989249  1
  Al0+  Al95  1  0.57313715  0.67949038  0.98747181  1
  Si0+  Si96  1  0.93036277  0.82404959  0.98442379  1
  Si0+  Si97  1  0.67832439  0.92867848  0.01518029  1
  Si0+  Si98  1  0.06949481  0.17669467  0.98394261  1
  Si0+  Si99  1  0.07439269  0.17612209  0.31549875  1
  Si0+  Si100  1  0.17797052  0.92858209  0.34816150  1
  Si0+  Si101  1  0.92939817  0.32117213  0.98202068  1
  Si0+  Si102  1  0.42455423  0.32205726  0.31864521  1
  Si0+  Si103  1  0.68183126  0.42906106  0.01259569  1
  Si0+  Si104  1  0.92701747  0.82478290  0.31536953  1
  Si0+  Si105  1  0.42647671  0.31874225  0.65002604  1
  Si0+  Si106  1  0.81961038  0.07280066  0.01410863  1
  Si0+  Si107  1  0.42762908  0.82116236  0.98510723  1
  Si0+  Si108  1  0.32213349  0.07337112  0.01917646  1
  Si0+  Si109  1  0.82194670  0.07554961  0.68385248  1
  Si0+  Si110  1  0.31923880  0.06990241  0.34540508  1
  Si0+  Si111  1  0.82206320  0.57195210  0.01515894  1
  Si0+  Si112  1  0.42708346  0.82252333  0.31563268  1
  Si0+  Si113  1  0.07101499  0.18093510  0.65222426  1
  Si0+  Si114  1  0.92921258  0.32206560  0.65132223  1
  Si0+  Si115  1  0.07216718  0.67512208  0.65075839  1
  Si0+  Si116  1  0.67662758  0.42485525  0.68545016  1
  Si0+  Si117  1  0.57173262  0.17966067  0.65117557  1
  Si0+  Si118  1  0.32526584  0.57080304  0.68403899  1
  Si0+  Si119  1  0.17551827  0.42619178  0.01695645  1
  O2-  O120  1  0.25545301  0.00233943  0.06329791  1
  O2-  O121  1  0.24759193  0.00084580  0.38897142  1
  O2-  O122  1  0.25401621  -0.00646172  0.73012545  1
  O2-  O123  1  0.24634663  0.49310547  0.05887504  1
  O2-  O124  1  0.25102093  0.50029328  0.39779660  1
  O2-  O125  1  0.25368679  0.50530177  0.72911855  1
  O2-  O126  1  0.74494508  0.00522269  0.05547540  1
  O2-  O127  1  0.75246788  -0.00176499  0.39787099  1
  O2-  O128  1  0.75550520  0.00593804  0.72978429  1
  O2-  O129  1  0.74944444  0.50251202  0.05622836  1
  O2-  O130  1  0.74347097  0.50524191  0.39596101  1
  O2-  O131  1  0.73936225  0.49952857  0.72916124  1
  O2-  O132  1  0.00472914  0.24443045  0.27197702  1
  O2-  O133  1  -0.00026616  0.25082231  0.60935743  1
  O2-  O134  1  0.00312297  0.25215866  0.94096256  1
  O2-  O135  1  -0.00532323  0.75498520  0.27141880  1
  O2-  O136  1  0.00967302  0.74968472  0.60707854  1
  O2-  O137  1  -0.00158753  0.75522457  0.93978581  1
  O2-  O138  1  0.49906365  0.25902996  0.27516307  1
  O2-  O139  1  0.49944647  0.24925839  0.60859197  1
  O2-  O140  1  0.49580079  0.24491441  0.93355098  1
  O2-  O141  1  0.49385626  0.75150858  0.27206859  1
  O2-  O142  1  0.49880353  0.74958961  0.60152101  1
  O2-  O143  1  0.49957472  0.75566834  0.94177327  1
  O2-  O144  1  0.06721795  0.17433889  0.08871498  1
  O2-  O145  1  0.07695814  0.17573614  0.42099488  1
  O2-  O146  1  0.06868855  0.18161458  0.75781989  1
  O2-  O147  1  0.06986575  0.67781818  0.09842313  1
  O2-  O148  1  0.06893700  0.68284905  0.43366423  1
  O2-  O149  1  0.06915420  0.67420616  0.75668743  1
  O2-  O150  1  0.57532970  0.18009207  0.09637873  1
  O2-  O151  1  0.56573831  0.17822987  0.43504082  1
  O2-  O152  1  0.57317994  0.18250272  0.75617206  1
  O2-  O153  1  0.57469691  0.67916641  0.10049656  1
  O2-  O154  1  0.57128808  0.68264256  0.43255583  1
  O2-  O155  1  0.57072872  0.68078980  0.76465056  1
  O2-  O156  1  0.18110357  0.42941380  0.23217159  1
  O2-  O157  1  0.17895225  0.43034771  0.56858581  1
  O2-  O158  1  0.17446643  0.42729846  0.91113321  1
  O2-  O159  1  0.17866064  0.92871320  0.24275792  1
  O2-  O160  1  0.17561733  0.93234826  0.56614378  1
  O2-  O161  1  0.17792332  0.93103474  0.90257125  1
  O2-  O162  1  0.68007568  0.42678777  0.23188340  1
  O2-  O163  1  0.68087814  0.41718363  0.58088371  1
  O2-  O164  1  0.68560636  0.42740521  0.90749594  1
  O2-  O165  1  0.67734738  0.93124078  0.23385230  1
  O2-  O166  1  0.68117817  0.93188903  0.56932086  1
  O2-  O167  1  0.68126669  0.92695177  0.91031679  1
  O2-  O168  1  0.43096890  0.32060008  0.09860664  1
  O2-  O169  1  0.41975734  0.31528343  0.42420175  1
  O2-  O170  1  0.42660476  0.31824005  0.75506160  1
  O2-  O171  1  0.42841942  0.82179633  0.09085679  1
  O2-  O172  1  0.42661799  0.82598208  0.42080105  1
  O2-  O173  1  0.42962400  0.82004407  0.76645139  1
  O2-  O174  1  0.92699927  0.32120615  0.08668440  1
  O2-  O175  1  0.93299405  0.31975631  0.43354359  1
  O2-  O176  1  0.92991907  0.31975975  0.75712424  1
  O2-  O177  1  0.93005514  0.82548627  0.08982274  1
  O2-  O178  1  0.93022763  0.82653450  0.42084071  1
  O2-  O179  1  0.93194878  0.81992123  0.76621015  1
  O2-  O180  1  0.31776339  0.06889390  0.24033561  1
  O2-  O181  1  0.31896007  0.07366582  0.56813324  1
  O2-  O182  1  0.31973846  0.07363322  0.91403461  1
  O2-  O183  1  0.32235099  0.57299109  0.23654083  1
  O2-  O184  1  0.32544682  0.56819897  0.57893468  1
  O2-  O185  1  0.32041968  0.56742251  0.89933723  1
  O2-  O186  1  0.81973513  0.07170683  0.23381021  1
  O2-  O187  1  0.81954281  0.08016817  0.57919988  1
  O2-  O188  1  0.82264714  0.07237447  0.90906564  1
  O2-  O189  1  0.82190841  0.56792692  0.23200899  1
  O2-  O190  1  0.82147009  0.56735377  0.56944317  1
  O2-  O191  1  0.82197344  0.57096229  0.91007584  1
  O2-  O192  1  0.04887842  0.08244367  0.26860156  1
  O2-  O193  1  0.04540682  0.08944919  0.60375180  1
  O2-  O194  1  0.03517041  0.08736378  0.93541158  1
  O2-  O195  1  0.03931168  0.58495430  0.26482957  1
  O2-  O196  1  0.03717048  0.58349756  0.60637419  1
  O2-  O197  1  0.04025476  0.58340656  0.92944359  1
  O2-  O198  1  0.53483091  0.08569190  0.26496837  1
  O2-  O199  1  0.54624668  0.08683623  0.60627560  1
  O2-  O200  1  0.54617552  0.07692023  0.93207207  1
  O2-  O201  1  0.54187478  0.57963678  0.26869820  1
  O2-  O202  1  0.54948477  0.57711824  0.60052644  1
  O2-  O203  1  0.54476785  0.58343671  0.93199064  1
  O2-  O204  1  0.16687986  0.20198664  0.26656787  1
  O2-  O205  1  0.16314417  0.20973631  0.60645316  1
  O2-  O206  1  0.16225886  0.19979419  0.93656410  1
  O2-  O207  1  0.16605839  0.71372050  0.26642774  1
  O2-  O208  1  0.16847316  0.69090914  0.60774793  1
  O2-  O209  1  0.16916776  0.70918484  0.93302214  1
  O2-  O210  1  0.66666397  0.20770955  0.26770597  1
  O2-  O211  1  0.66358705  0.21009893  0.60487466  1
  O2-  O212  1  0.66875436  0.20864772  0.92718151  1
  O2-  O213  1  0.66720767  0.71053237  0.26511798  1
  O2-  O214  1  0.67129194  0.70968552  0.60199027  1
  O2-  O215  1  0.67052194  0.71165953  0.93477308  1
  O2-  O216  1  0.08093573  0.45374014  0.06025232  1
  O2-  O217  1  0.08181302  0.45887276  0.39842178  1
  O2-  O218  1  0.08324366  0.45847259  0.73778893  1
  O2-  O219  1  0.08361741  0.96366040  0.07010054  1
  O2-  O220  1  0.08585245  0.95540226  0.39453518  1
  O2-  O221  1  0.08101779  0.96138283  0.73403271  1
  O2-  O222  1  0.58849090  0.45233642  0.05717065  1
  O2-  O223  1  0.57667982  0.44462236  0.39873806  1
  O2-  O224  1  0.57993191  0.44359249  0.72761458  1
  O2-  O225  1  0.58434275  0.95051180  0.06073318  1
  O2-  O226  1  0.57895483  0.96133951  0.39977891  1
  O2-  O227  1  0.58610890  0.96069993  0.73799133  1
  O2-  O228  1  0.19517604  0.33020036  0.06057325  1
  O2-  O229  1  0.20476753  0.32920075  0.39825224  1
  O2-  O230  1  0.20978072  0.33507226  0.73658537  1
  O2-  O231  1  0.20998038  0.83306062  0.07024982  1
  O2-  O232  1  0.20578323  0.83838886  0.39676159  1
  O2-  O233  1  0.20062185  0.82527272  0.73104408  1
  O2-  O234  1  0.71365165  0.33725583  0.05846899  1
  O2-  O235  1  0.71216474  0.33244441  0.40042733  1
  O2-  O236  1  0.71010383  0.33501962  0.73618892  1
  O2-  O237  1  0.71214419  0.83938022  0.06463026  1
  O2-  O238  1  0.70480656  0.83171213  0.40157800  1
  O2-  O239  1  0.71591459  0.83537835  0.73714784  1
  O2-  O240  1  0.44367898  0.41832738  0.27728010  1
  O2-  O241  1  0.45121364  0.41062330  0.60201288  1
  O2-  O242  1  0.46145169  0.41504659  0.92709512  1
  O2-  O243  1  0.45370947  0.91474699  0.26646615  1
  O2-  O244  1  0.45644438  0.92236466  0.60258448  1
  O2-  O245  1  0.44792919  0.91643606  0.94028603  1
  O2-  O246  1  0.96231443  0.41453685  0.26235270  1
  O2-  O247  1  0.95837719  0.41408995  0.60684439  1
  O2-  O248  1  0.95549189  0.41265869  0.93280684  1
  O2-  O249  1  0.95409025  0.91863629  0.26925017  1
  O2-  O250  1  0.95755690  0.92000685  0.59806734  1
  O2-  O251  1  0.95519355  0.91805390  0.93847735  1
  O2-  O252  1  0.33442861  0.29008386  0.26833561  1
  O2-  O253  1  0.33482042  0.28805382  0.60398990  1
  O2-  O254  1  0.32703414  0.29550078  0.93338904  1
  O2-  O255  1  0.33242082  0.79884892  0.27053179  1
  O2-  O256  1  0.32852332  0.79663929  0.59909032  1
  O2-  O257  1  0.33503413  0.79235053  0.93971377  1
  O2-  O258  1  0.83567597  0.28800617  0.26307840  1
  O2-  O259  1  0.83699878  0.29447630  0.60533958  1
  O2-  O260  1  0.84028630  0.29030206  0.93089228  1
  O2-  O261  1  0.83251515  0.80249218  0.27045511  1
  O2-  O262  1  0.83690309  0.78758154  0.59909133  1
  O2-  O263  1  0.83704014  0.79714676  0.93818522  1
  O2-  O264  1  0.41736572  0.05014461  0.06352793  1
  O2-  O265  1  0.41005878  0.04149902  0.39347487  1
  O2-  O266  1  0.42157542  0.04941389  0.73637510  1
  O2-  O267  1  0.41951582  0.53554801  0.06479399  1
  O2-  O268  1  0.41958950  0.54715127  0.40593014  1
  O2-  O269  1  0.41826750  0.54046993  0.72929460  1
  O2-  O270  1  0.90952851  0.04398178  0.06433642  1
  O2-  O271  1  0.92255889  0.05035605  0.39965498  1
  O2-  O272  1  0.91696235  0.05148888  0.72789570  1
  O2-  O273  1  0.91382841  0.53966574  0.06007123  1
  O2-  O274  1  0.91680099  0.53783424  0.39962708  1
  O2-  O275  1  0.91156350  0.53460169  0.74035867  1
  O2-  O276  1  0.29249807  0.16611577  0.06518751  1
  O2-  O277  1  0.29298969  0.16145774  0.39384888  1
  O2-  O278  1  0.28724521  0.16540501  0.73858881  1
  O2-  O279  1  0.29254995  0.66381995  0.06842997  1
  O2-  O280  1  0.29169838  0.67195921  0.40309844  1
  O2-  O281  1  0.30293266  0.66547825  0.72889519  1
  O2-  O282  1  0.79446641  0.16685982  0.05877531  1
  O2-  O283  1  0.79300870  0.16964594  0.40127277  1
  O2-  O284  1  0.79573741  0.16868872  0.73240975  1
  O2-  O285  1  0.79943682  0.66526880  0.06135867  1
  O2-  O286  1  0.79862783  0.67212741  0.39726278  1
  O2-  O287  1  0.79214612  0.66690744  0.73836549  1
