# generated using pymatgen
data_Ca2Al2SiO7
_symmetry_space_group_name_H-M   'P 1'
_cell_length_a   15.45511092
_cell_length_b   15.45524311
_cell_length_c   15.28174073
_cell_angle_alpha   90.00648035
_cell_angle_beta   90.01040001
_cell_angle_gamma   89.98708043
_symmetry_Int_Tables_number   1
_chemical_formula_structural   Ca2Al2SiO7
_chemical_formula_sum   'Ca48 Al48 Si24 O168'
_cell_volume   3650.23456404
_cell_formula_units_Z   24
loop_
 _symmetry_equiv_pos_site_id
 _symmetry_equiv_pos_as_xyz
  1  'x, y, z'
loop_
 _atom_type_symbol
 _atom_type_oxidation_number
  Ca2+  2.0
  Al0+  0.0
  Si0+  0.0
  O2-  -2.0
loop_
 _atom_site_type_symbol
 _atom_site_label
 _atom_site_symmetry_multiplicity
 _atom_site_fract_x
 _atom_site_fract_y
 _atom_site_fract_z
 _atom_site_occupancy
  Ca2+  Ca0  1  0.15971830  0.08048903  0.17030292  1
  Ca2+  Ca1  1  0.17244626  0.08795441  0.50612705  1
  Ca2+  Ca2  1  0.16568757  0.08370220  0.83688555  1
  Ca2+  Ca3  1  0.16419592  0.57697446  0.17356127  1
  Ca2+  Ca4  1  0.17095099  0.57285893  0.51106647  1
  Ca2+  Ca5  1  0.16597125  0.58702054  0.83429126  1
  Ca2+  Ca6  1  0.67650333  0.07849190  0.18103715  1
  Ca2+  Ca7  1  0.66357988  0.07599390  0.50574729  1
  Ca2+  Ca8  1  0.66539759  0.07864728  0.83330805  1
  Ca2+  Ca9  1  0.66323971  0.58095465  0.16985127  1
  Ca2+  Ca10  1  0.66369817  0.57986045  0.50582756  1
  Ca2+  Ca11  1  0.66653413  0.57012695  0.83701513  1
  Ca2+  Ca12  1  0.08926187  0.32185180  0.16527553  1
  Ca2+  Ca13  1  0.09408077  0.32664846  0.49619976  1
  Ca2+  Ca14  1  0.08792862  0.32484571  0.82659580  1
  Ca2+  Ca15  1  0.07219165  0.83435113  0.15570802  1
  Ca2+  Ca16  1  0.07297242  0.83019684  0.49707165  1
  Ca2+  Ca17  1  0.07680302  0.82890021  0.82821528  1
  Ca2+  Ca18  1  0.57398596  0.33424722  0.16143920  1
  Ca2+  Ca19  1  0.57974537  0.32369059  0.49360191  1
  Ca2+  Ca20  1  0.58147184  0.33217231  0.82728957  1
  Ca2+  Ca21  1  0.58305226  0.83321482  0.17172595  1
  Ca2+  Ca22  1  0.58057764  0.83291542  0.48899097  1
  Ca2+  Ca23  1  0.58394853  0.83361796  0.82548468  1
  Ca2+  Ca24  1  0.33155720  0.41122016  0.17328557  1
  Ca2+  Ca25  1  0.32697932  0.41677150  0.50530762  1
  Ca2+  Ca26  1  0.33040385  0.42035820  0.83267618  1
  Ca2+  Ca27  1  0.32524918  0.91466102  0.17119735  1
  Ca2+  Ca28  1  0.33707328  0.92272223  0.50733624  1
  Ca2+  Ca29  1  0.32637561  0.92765701  0.83730556  1
  Ca2+  Ca30  1  0.82820739  0.41821329  0.17011757  1
  Ca2+  Ca31  1  0.82578402  0.41818042  0.50760624  1
  Ca2+  Ca32  1  0.82059515  0.40934111  0.83642149  1
  Ca2+  Ca33  1  0.83464744  0.91896880  0.17777727  1
  Ca2+  Ca34  1  0.82724322  0.91521190  0.49957800  1
  Ca2+  Ca35  1  0.83448356  0.91055535  0.83282956  1
  Ca2+  Ca36  1  0.42133454  0.17784108  0.16694713  1
  Ca2+  Ca37  1  0.42738776  0.16559058  0.49440008  1
  Ca2+  Ca38  1  0.41836196  0.17280066  0.82557430  1
  Ca2+  Ca39  1  0.42079756  0.67012566  0.17009353  1
  Ca2+  Ca40  1  0.42038127  0.67025710  0.49377357  1
  Ca2+  Ca41  1  0.41366905  0.66762244  0.82847018  1
  Ca2+  Ca42  1  0.92580324  0.15908758  0.16655826  1
  Ca2+  Ca43  1  0.92832473  0.16187756  0.49533775  1
  Ca2+  Ca44  1  0.92980304  0.16415380  0.82902988  1
  Ca2+  Ca45  1  0.92079808  0.67873896  0.15992570  1
  Ca2+  Ca46  1  0.91620561  0.67647711  0.49809770  1
  Ca2+  Ca47  1  0.92685966  0.67516449  0.82683804  1
  Al0+  Al48  1  -0.00030998  0.00010925  -0.00540511  1
  Al0+  Al49  1  0.00013217  -0.00032116  0.33183967  1
  Al0+  Al50  1  -0.00137344  0.00068238  0.65761083  1
  Al0+  Al51  1  -0.00117770  0.49997586  -0.00184758  1
  Al0+  Al52  1  -0.00068662  0.49818175  0.33987385  1
  Al0+  Al53  1  -0.00039349  0.49992052  0.66823318  1
  Al0+  Al54  1  0.50007635  0.00080701  0.00296655  1
  Al0+  Al55  1  0.49913256  -0.00028628  0.32592681  1
  Al0+  Al56  1  0.50034981  0.00084018  0.67410867  1
  Al0+  Al57  1  0.49829114  0.49975841  0.00063068  1
  Al0+  Al58  1  0.49886678  0.50132273  0.32714750  1
  Al0+  Al59  1  0.49871996  0.50039327  0.67438764  1
  Al0+  Al60  1  0.25344446  0.25173081  -0.00779381  1
  Al0+  Al61  1  0.24996165  0.24844719  0.32923992  1
  Al0+  Al62  1  0.25170302  0.25176245  0.67116715  1
  Al0+  Al63  1  0.25086060  0.75118540  0.00278782  1
  Al0+  Al64  1  0.25006105  0.74853342  0.33172198  1
  Al0+  Al65  1  0.24912285  0.75053920  0.66582321  1
  Al0+  Al66  1  0.74861770  0.24815868  0.00707941  1
  Al0+  Al67  1  0.75384988  0.24995747  0.33546369  1
  Al0+  Al68  1  0.75065221  0.24728226  0.66785046  1
  Al0+  Al69  1  0.74889206  0.74880817  -0.00373487  1
  Al0+  Al70  1  0.75037682  0.74952303  0.32845493  1
  Al0+  Al71  1  0.74909301  0.74987334  0.66830684  1
  Al0+  Al72  1  0.18050327  0.42792488  0.34576287  1
  Al0+  Al73  1  0.43011342  0.31968380  0.32045265  1
  Al0+  Al74  1  0.93150271  0.81920598  0.31889600  1
  Al0+  Al75  1  0.92685274  0.82044038  0.64782474  1
  Al0+  Al76  1  0.42602248  0.82323500  0.31834901  1
  Al0+  Al77  1  0.07275419  0.18179920  0.65191797  1
  Al0+  Al78  1  0.07310793  0.67728111  0.98597477  1
  Al0+  Al79  1  0.67975341  0.92898351  0.68055566  1
  Al0+  Al80  1  0.32017676  0.57329704  0.68206511  1
  Al0+  Al81  1  0.17762234  0.42897549  0.68410962  1
  Al0+  Al82  1  0.17958408  0.93172804  0.01257156  1
  Al0+  Al83  1  0.67983933  0.42727631  0.67888034  1
  Al0+  Al84  1  0.57525162  0.17774820  0.31822886  1
  Al0+  Al85  1  0.82400404  0.07219294  0.35067961  1
  Al0+  Al86  1  0.07003121  0.18088022  0.98572041  1
  Al0+  Al87  1  0.67814927  0.42886322  0.01630356  1
  Al0+  Al88  1  0.67862140  0.92954329  0.34741832  1
  Al0+  Al89  1  0.07009076  0.18090943  0.31985049  1
  Al0+  Al90  1  0.92753723  0.82170094  0.98302517  1
  Al0+  Al91  1  0.32156251  0.07102211  0.67955141  1
  Al0+  Al92  1  0.57181221  0.67882059  0.31877802  1
  Al0+  Al93  1  0.57112539  0.17803716  0.65462269  1
  Al0+  Al94  1  0.43111245  0.32178575  0.98226873  1
  Al0+  Al95  1  0.07316741  0.67735814  0.64908911  1
  Si0+  Si96  1  0.82104157  0.57197167  0.01685617  1
  Si0+  Si97  1  0.31924463  0.06959842  0.34562667  1
  Si0+  Si98  1  0.82052682  0.06869621  0.01436918  1
  Si0+  Si99  1  0.92519976  0.32220334  0.98513006  1
  Si0+  Si100  1  0.17602210  0.92958632  0.68060802  1
  Si0+  Si101  1  0.57327790  0.17747250  0.98321278  1
  Si0+  Si102  1  0.92643098  0.32181531  0.65127469  1
  Si0+  Si103  1  0.32264177  0.57280372  0.34944136  1
  Si0+  Si104  1  0.32271323  0.07448605  0.01893136  1
  Si0+  Si105  1  0.56908918  0.67967763  0.98294445  1
  Si0+  Si106  1  0.82381896  0.07100814  0.68452868  1
  Si0+  Si107  1  0.56918660  0.67794136  0.65530047  1
  Si0+  Si108  1  0.67694667  0.42972550  0.34759994  1
  Si0+  Si109  1  0.67727439  0.92660474  0.01594596  1
  Si0+  Si110  1  0.17880960  0.42826184  0.01470897  1
  Si0+  Si111  1  0.92740927  0.32591054  0.31737639  1
  Si0+  Si112  1  0.82039861  0.57089752  0.34822936  1
  Si0+  Si113  1  0.42993217  0.82198924  0.65566949  1
  Si0+  Si114  1  0.17824348  0.92706948  0.34800975  1
  Si0+  Si115  1  0.07147688  0.67515503  0.31836648  1
  Si0+  Si116  1  0.82128010  0.57285433  0.68431379  1
  Si0+  Si117  1  0.42928208  0.82266364  0.98397863  1
  Si0+  Si118  1  0.32052294  0.57216717  0.01815862  1
  Si0+  Si119  1  0.43048071  0.32359239  0.65028157  1
  O2-  O120  1  0.25237617  0.00723576  0.06274761  1
  O2-  O121  1  0.25331945  -0.00581807  0.38926182  1
  O2-  O122  1  0.24283133  -0.00006624  0.72549591  1
  O2-  O123  1  0.24611713  0.50294294  0.05764463  1
  O2-  O124  1  0.25346889  0.50432987  0.39221861  1
  O2-  O125  1  0.24561292  0.50511065  0.73421139  1
  O2-  O126  1  0.74997382  -0.00353553  0.05588731  1
  O2-  O127  1  0.74640820  0.00475603  0.39893933  1
  O2-  O128  1  0.75591618  0.00137387  0.72904031  1
  O2-  O129  1  0.75408687  0.50236172  0.06310270  1
  O2-  O130  1  0.74833269  0.50024279  0.39014008  1
  O2-  O131  1  0.75623925  0.49976444  0.72757616  1
  O2-  O132  1  -0.00541535  0.25530080  0.27370466  1
  O2-  O133  1  -0.00023635  0.25878345  0.60615645  1
  O2-  O134  1  -0.00313969  0.25761376  0.93982752  1
  O2-  O135  1  0.00755493  0.74642615  0.27174555  1
  O2-  O136  1  -0.00001808  0.74830601  0.59943293  1
  O2-  O137  1  0.00115583  0.74952637  0.93654915  1
  O2-  O138  1  0.50677185  0.25340756  0.26856685  1
  O2-  O139  1  0.49870729  0.25418786  0.60707492  1
  O2-  O140  1  0.50562090  0.24609718  0.93751515  1
  O2-  O141  1  0.50020269  0.75221079  0.26938986  1
  O2-  O142  1  0.49891292  0.74930234  0.61349224  1
  O2-  O143  1  0.50143937  0.75363140  0.94014248  1
  O2-  O144  1  0.06862062  0.18057255  0.09890021  1
  O2-  O145  1  0.07322270  0.18240816  0.43263429  1
  O2-  O146  1  0.07005355  0.18066465  0.76528402  1
  O2-  O147  1  0.07072268  0.67654610  0.09999667  1
  O2-  O148  1  0.06903681  0.67583060  0.42352912  1
  O2-  O149  1  0.07279359  0.68150361  0.76272692  1
  O2-  O150  1  0.57265393  0.17815443  0.08849837  1
  O2-  O151  1  0.57125093  0.17758478  0.43212310  1
  O2-  O152  1  0.56912906  0.17872553  0.76802707  1
  O2-  O153  1  0.56847665  0.67989733  0.08777762  1
  O2-  O154  1  0.56995407  0.67609730  0.43279303  1
  O2-  O155  1  0.56835249  0.67889543  0.76079086  1
  O2-  O156  1  0.18108546  0.42895816  0.23187912  1
  O2-  O157  1  0.18321726  0.42663640  0.57041042  1
  O2-  O158  1  0.18067516  0.42755681  0.91019578  1
  O2-  O159  1  0.17742037  0.92886311  0.24265161  1
  O2-  O160  1  0.17943533  0.92945411  0.57466242  1
  O2-  O161  1  0.18254088  0.93335910  0.89944955  1
  O2-  O162  1  0.67830009  0.43179156  0.24234840  1
  O2-  O163  1  0.67930352  0.43047939  0.56549070  1
  O2-  O164  1  0.67956080  0.42939851  0.90302886  1
  O2-  O165  1  0.68276390  0.92896889  0.23317811  1
  O2-  O166  1  0.67569594  0.92836984  0.56831509  1
  O2-  O167  1  0.67463562  0.92787741  0.91078394  1
  O2-  O168  1  0.43081413  0.32124813  0.09534292  1
  O2-  O169  1  0.43031155  0.31836564  0.43393578  1
  O2-  O170  1  0.43299654  0.32369241  0.75611321  1
  O2-  O171  1  0.42973576  0.82141771  0.08869228  1
  O2-  O172  1  0.42508638  0.82203362  0.43244669  1
  O2-  O173  1  0.43203751  0.82183946  0.76121726  1
  O2-  O174  1  0.92508962  0.32180815  0.09072220  1
  O2-  O175  1  0.92726099  0.32980224  0.42267410  1
  O2-  O176  1  0.92357474  0.31710184  0.75716253  1
  O2-  O177  1  0.92745783  0.82124574  0.09686975  1
  O2-  O178  1  0.93058853  0.81711126  0.43145060  1
  O2-  O179  1  0.92774109  0.81864168  0.76143478  1
  O2-  O180  1  0.31523025  0.07081077  0.24047892  1
  O2-  O181  1  0.32376642  0.06804994  0.56605281  1
  O2-  O182  1  0.32469324  0.07161634  0.91322133  1
  O2-  O183  1  0.32135265  0.57370961  0.24347570  1
  O2-  O184  1  0.32443165  0.57100290  0.56866166  1
  O2-  O185  1  0.32285768  0.57286086  0.91334980  1
  O2-  O186  1  0.82623281  0.06766538  0.23620670  1
  O2-  O187  1  0.82324404  0.07249437  0.57959492  1
  O2-  O188  1  0.81888257  0.07091689  0.90927248  1
  O2-  O189  1  0.82229026  0.56866670  0.24301846  1
  O2-  O190  1  0.81694738  0.57365562  0.57828775  1
  O2-  O191  1  0.81780424  0.57175753  0.91156166  1
  O2-  O192  1  0.03906702  0.08444333  0.26561923  1
  O2-  O193  1  0.04237697  0.08601761  0.59662032  1
  O2-  O194  1  0.03689322  0.08638637  0.92986923  1
  O2-  O195  1  0.04209764  0.58195145  0.27341923  1
  O2-  O196  1  0.04635084  0.57681746  0.59949555  1
  O2-  O197  1  0.04522522  0.57847199  0.93271357  1
  O2-  O198  1  0.54453562  0.08190497  0.26245979  1
  O2-  O199  1  0.53612900  0.08184174  0.60253553  1
  O2-  O200  1  0.54731723  0.08267765  0.93883706  1
  O2-  O201  1  0.54089087  0.58313770  0.26097148  1
  O2-  O202  1  0.54068916  0.58630871  0.60807181  1
  O2-  O203  1  0.53747340  0.58889209  0.93628964  1
  O2-  O204  1  0.16464360  0.21215239  0.26238511  1
  O2-  O205  1  0.17110083  0.21153732  0.60063301  1
  O2-  O206  1  0.16721805  0.20928995  0.93254526  1
  O2-  O207  1  0.16700573  0.69483787  0.27435920  1
  O2-  O208  1  0.17190864  0.70607707  0.59613670  1
  O2-  O209  1  0.17268154  0.70586835  0.93565961  1
  O2-  O210  1  0.67618484  0.20224574  0.26889512  1
  O2-  O211  1  0.66888342  0.20500012  0.60199605  1
  O2-  O212  1  0.66780326  0.20235932  0.93892879  1
  O2-  O213  1  0.66899549  0.70494200  0.26225613  1
  O2-  O214  1  0.66128293  0.70324412  0.60848382  1
  O2-  O215  1  0.66145140  0.70364190  0.93508937  1
  O2-  O216  1  0.08442906  0.45047377  0.06045033  1
  O2-  O217  1  0.08351901  0.45470786  0.40122856  1
  O2-  O218  1  0.07615981  0.44955489  0.73487712  1
  O2-  O219  1  0.08182792  0.96236000  0.06515840  1
  O2-  O220  1  0.08881237  0.95897614  0.39629239  1
  O2-  O221  1  0.08157011  0.95511033  0.72421248  1
  O2-  O222  1  0.58238770  0.46447912  0.06890515  1
  O2-  O223  1  0.58485505  0.45873346  0.39333724  1
  O2-  O224  1  0.58582446  0.46100202  0.73594383  1
  O2-  O225  1  0.58549109  0.95429259  0.06391491  1
  O2-  O226  1  0.57628007  0.95268687  0.39526492  1
  O2-  O227  1  0.58571204  0.96179700  0.73944366  1
  O2-  O228  1  0.21235639  0.33717518  0.06086437  1
  O2-  O229  1  0.21453181  0.33173505  0.39861062  1
  O2-  O230  1  0.21131104  0.33314336  0.73929462  1
  O2-  O231  1  0.21169299  0.83577977  0.06826337  1
  O2-  O232  1  0.20184069  0.83333246  0.39367152  1
  O2-  O233  1  0.20335935  0.83701382  0.72713936  1
  O2-  O234  1  0.70697021  0.33209530  0.07120468  1
  O2-  O235  1  0.70447245  0.33786755  0.39452238  1
  O2-  O236  1  0.71034873  0.33092547  0.73461343  1
  O2-  O237  1  0.70196944  0.83264835  0.06032736  1
  O2-  O238  1  0.70845860  0.82974225  0.39746301  1
  O2-  O239  1  0.70757805  0.83158960  0.73608239  1
  O2-  O240  1  0.45251393  0.41890841  0.26610898  1
  O2-  O241  1  0.45731811  0.41744599  0.60584974  1
  O2-  O242  1  0.46229524  0.41890676  0.92980370  1
  O2-  O243  1  0.45066153  0.91993555  0.26081525  1
  O2-  O244  1  0.46072589  0.91271204  0.60885716  1
  O2-  O245  1  0.45593697  0.91584450  0.93810788  1
  O2-  O246  1  0.95419647  0.41865151  0.26947613  1
  O2-  O247  1  0.94351305  0.41839552  0.60862021  1
  O2-  O248  1  0.94466312  0.41703012  0.93946352  1
  O2-  O249  1  0.96304738  0.91527427  0.26498689  1
  O2-  O250  1  0.95355075  0.91870397  0.59466972  1
  O2-  O251  1  0.95560072  0.91911527  0.92902457  1
  O2-  O252  1  0.33513477  0.28516712  0.26379798  1
  O2-  O253  1  0.33629350  0.29830034  0.60728789  1
  O2-  O254  1  0.33604061  0.29173513  0.92569146  1
  O2-  O255  1  0.32867249  0.79148127  0.26289697  1
  O2-  O256  1  0.33763232  0.79880006  0.60785152  1
  O2-  O257  1  0.33818320  0.79315616  0.93696776  1
  O2-  O258  1  0.83348671  0.30300869  0.27074001  1
  O2-  O259  1  0.83474287  0.29264439  0.60304976  1
  O2-  O260  1  0.83204477  0.29174548  0.94025120  1
  O2-  O261  1  0.83627373  0.78717256  0.26383248  1
  O2-  O262  1  0.82787266  0.78845813  0.59715869  1
  O2-  O263  1  0.82871209  0.79226045  0.93072642  1
  O2-  O264  1  0.41586524  0.04676279  0.06539439  1
  O2-  O265  1  0.41302250  0.04556606  0.39062360  1
  O2-  O266  1  0.41366847  0.03582026  0.73970607  1
  O2-  O267  1  0.41109939  0.54066422  0.06575838  1
  O2-  O268  1  0.41707343  0.54771941  0.39391306  1
  O2-  O269  1  0.41665129  0.54292368  0.73955819  1
  O2-  O270  1  0.91272441  0.04108082  0.06074601  1
  O2-  O271  1  0.92094619  0.03802253  0.40341563  1
  O2-  O272  1  0.91803889  0.04423884  0.72957186  1
  O2-  O273  1  0.91524487  0.54780579  0.06317885  1
  O2-  O274  1  0.91034729  0.54276847  0.39925816  1
  O2-  O275  1  0.91610707  0.55214608  0.72882727  1
  O2-  O276  1  0.29832210  0.16985109  0.06110555  1
  O2-  O277  1  0.28708215  0.15908312  0.39430116  1
  O2-  O278  1  0.29490990  0.16762487  0.73460067  1
  O2-  O279  1  0.29672289  0.66465040  0.06642078  1
  O2-  O280  1  0.29899826  0.66685755  0.39593891  1
  O2-  O281  1  0.29570211  0.67354894  0.73511720  1
  O2-  O282  1  0.79369873  0.15935035  0.06498348  1
  O2-  O283  1  0.80611310  0.17423123  0.40090164  1
  O2-  O284  1  0.79771023  0.16357676  0.73281616  1
  O2-  O285  1  0.79166644  0.66506179  0.06302329  1
  O2-  O286  1  0.79128085  0.66210354  0.39524758  1
  O2-  O287  1  0.79027814  0.66346255  0.73291329  1
