# generated using pymatgen
data_Ca2Al2SiO7
_symmetry_space_group_name_H-M   'P 1'
_cell_length_a   15.45811846
_cell_length_b   15.45679409
_cell_length_c   15.28341853
_cell_angle_alpha   90.00184654
_cell_angle_beta   90.01114571
_cell_angle_gamma   89.98991052
_symmetry_Int_Tables_number   1
_chemical_formula_structural   Ca2Al2SiO7
_chemical_formula_sum   'Ca48 Al48 Si24 O168'
_cell_volume   3651.71220954
_cell_formula_units_Z   24
loop_
 _symmetry_equiv_pos_site_id
 _symmetry_equiv_pos_as_xyz
  1  'x, y, z'
loop_
 _atom_type_symbol
 _atom_type_oxidation_number
  Ca2+  2.0
  Al0+  0.0
  Si0+  0.0
  O2-  -2.0
loop_
 _atom_site_type_symbol
 _atom_site_label
 _atom_site_symmetry_multiplicity
 _atom_site_fract_x
 _atom_site_fract_y
 _atom_site_fract_z
 _atom_site_occupancy
  Ca2+  Ca0  1  0.15829151  0.07160816  0.16974448  1
  Ca2+  Ca1  1  0.16252914  0.07890620  0.50376222  1
  Ca2+  Ca2  1  0.15814227  0.08189523  0.84182328  1
  Ca2+  Ca3  1  0.15627675  0.57047126  0.16761114  1
  Ca2+  Ca4  1  0.16345238  0.57821010  0.50264776  1
  Ca2+  Ca5  1  0.16158697  0.57989684  0.84246514  1
  Ca2+  Ca6  1  0.67754872  0.09751123  0.16954102  1
  Ca2+  Ca7  1  0.67008337  0.08191368  0.50180501  1
  Ca2+  Ca8  1  0.67211593  0.07917040  0.84156493  1
  Ca2+  Ca9  1  0.66617998  0.58218348  0.16498024  1
  Ca2+  Ca10  1  0.67282018  0.58581517  0.50827076  1
  Ca2+  Ca11  1  0.68076105  0.57810461  0.84400833  1
  Ca2+  Ca12  1  0.07490124  0.33319576  0.15775069  1
  Ca2+  Ca13  1  0.07251127  0.33115006  0.49693186  1
  Ca2+  Ca14  1  0.07386391  0.32956179  0.82910957  1
  Ca2+  Ca15  1  0.08829020  0.83004762  0.15820272  1
  Ca2+  Ca16  1  0.08083526  0.82984802  0.49856330  1
  Ca2+  Ca17  1  0.07723737  0.82437576  0.82897207  1
  Ca2+  Ca18  1  0.58818494  0.32547272  0.15920785  1
  Ca2+  Ca19  1  0.57661841  0.33160708  0.49361693  1
  Ca2+  Ca20  1  0.58398587  0.33227817  0.83478497  1
  Ca2+  Ca21  1  0.57957986  0.82435565  0.16337608  1
  Ca2+  Ca22  1  0.58119346  0.83089013  0.49108580  1
  Ca2+  Ca23  1  0.59142989  0.82847537  0.83041004  1
  Ca2+  Ca24  1  0.31780849  0.41349343  0.17014301  1
  Ca2+  Ca25  1  0.32772307  0.41148008  0.50449154  1
  Ca2+  Ca26  1  0.32690314  0.41449501  0.83893613  1
  Ca2+  Ca27  1  0.32305401  0.91121232  0.17107870  1
  Ca2+  Ca28  1  0.33079139  0.91319366  0.49927683  1
  Ca2+  Ca29  1  0.32349278  0.92103411  0.84107319  1
  Ca2+  Ca30  1  0.83568794  0.41759186  0.16579557  1
  Ca2+  Ca31  1  0.83736880  0.41949133  0.50474831  1
  Ca2+  Ca32  1  0.83880268  0.42237081  0.84102427  1
  Ca2+  Ca33  1  0.83683075  0.93514261  0.17111105  1
  Ca2+  Ca34  1  0.82874211  0.92103909  0.50787458  1
  Ca2+  Ca35  1  0.83449891  0.92034877  0.83592828  1
  Ca2+  Ca36  1  0.43091854  0.16168179  0.16282888  1
  Ca2+  Ca37  1  0.42356714  0.17021564  0.49692306  1
  Ca2+  Ca38  1  0.42161908  0.17322879  0.82996089  1
  Ca2+  Ca39  1  0.42493117  0.66818852  0.16472558  1
  Ca2+  Ca40  1  0.42624799  0.67371584  0.48838212  1
  Ca2+  Ca41  1  0.42527160  0.66335895  0.83390429  1
  Ca2+  Ca42  1  0.91463502  0.17601708  0.15740658  1
  Ca2+  Ca43  1  0.91395383  0.17649783  0.49478665  1
  Ca2+  Ca44  1  0.92212317  0.17422683  0.83313505  1
  Ca2+  Ca45  1  0.92038972  0.66977364  0.15721356  1
  Ca2+  Ca46  1  0.91513724  0.67049101  0.50437974  1
  Ca2+  Ca47  1  0.92372433  0.66172752  0.82734611  1
  Al0+  Al48  1  -0.00108774  0.00013811  0.00550744  1
  Al0+  Al49  1  -0.00052266  0.00082059  0.34528896  1
  Al0+  Al50  1  -0.00056838  -0.00179223  0.66164306  1
  Al0+  Al51  1  0.00002998  0.50179622  0.00125036  1
  Al0+  Al52  1  -0.00117403  0.50001064  0.33617996  1
  Al0+  Al53  1  0.00146487  0.49863014  0.66263712  1
  Al0+  Al54  1  0.49883056  -0.00031126  -0.00460906  1
  Al0+  Al55  1  0.49907601  -0.00069070  0.32426222  1
  Al0+  Al56  1  0.49910988  -0.00113857  0.67242783  1
  Al0+  Al57  1  0.50078277  0.50161970  -0.00028798  1
  Al0+  Al58  1  0.49913584  0.49949619  0.32929901  1
  Al0+  Al59  1  0.49867228  0.49925019  0.66264341  1
  Al0+  Al60  1  0.25163717  0.24859026  0.00392229  1
  Al0+  Al61  1  0.24848813  0.24793927  0.33932108  1
  Al0+  Al62  1  0.25201467  0.24902501  0.65942285  1
  Al0+  Al63  1  0.25083809  0.75051564  -0.00073543  1
  Al0+  Al64  1  0.25020545  0.74876808  0.33510225  1
  Al0+  Al65  1  0.25170688  0.74897539  0.66493615  1
  Al0+  Al66  1  0.74889454  0.25092075  -0.00413997  1
  Al0+  Al67  1  0.75060515  0.25360415  0.33304993  1
  Al0+  Al68  1  0.74940904  0.24861838  0.66455885  1
  Al0+  Al69  1  0.74875130  0.75097637  0.00075819  1
  Al0+  Al70  1  0.75203959  0.75087333  0.32834376  1
  Al0+  Al71  1  0.75169523  0.74889616  0.67167638  1
  Al0+  Al72  1  0.57453076  0.67743313  0.31781545  1
  Al0+  Al73  1  0.81879963  0.06995371  0.01191785  1
  Al0+  Al74  1  0.92763399  0.32062348  0.65060219  1
  Al0+  Al75  1  0.81908539  0.07435849  0.34911736  1
  Al0+  Al76  1  0.57011832  0.18148385  0.32064539  1
  Al0+  Al77  1  0.07053293  0.68018798  0.98850926  1
  Al0+  Al78  1  0.42725791  0.82082346  0.31700502  1
  Al0+  Al79  1  0.17987606  0.92748035  0.35031141  1
  Al0+  Al80  1  0.67865480  0.42953792  0.01497867  1
  Al0+  Al81  1  0.07349673  0.67814031  0.65023746  1
  Al0+  Al82  1  0.92744387  0.81984822  0.65174564  1
  Al0+  Al83  1  0.07192142  0.17765134  0.65060434  1
  Al0+  Al84  1  0.17745061  0.42813434  0.35000609  1
  Al0+  Al85  1  0.07217430  0.17695963  0.98915710  1
  Al0+  Al86  1  0.67861381  0.92965007  0.67969852  1
  Al0+  Al87  1  0.82253910  0.57241115  0.01664379  1
  Al0+  Al88  1  0.57167150  0.17891947  0.98419115  1
  Al0+  Al89  1  0.92946609  0.32197299  0.98488372  1
  Al0+  Al90  1  0.17938901  0.42831948  0.01132020  1
  Al0+  Al91  1  0.57163130  0.67934806  0.98337377  1
  Al0+  Al92  1  0.93091190  0.32162148  0.31743053  1
  Al0+  Al93  1  0.17957799  0.93014766  0.01180187  1
  Al0+  Al94  1  0.82130010  0.56757186  0.68008634  1
  Al0+  Al95  1  0.43066687  0.32115810  0.65298076  1
  Si0+  Si96  1  0.42776922  0.82120476  0.98001109  1
  Si0+  Si97  1  0.67480166  0.92772849  0.01839183  1
  Si0+  Si98  1  0.18198968  0.42911018  0.68094242  1
  Si0+  Si99  1  0.57075216  0.17538639  0.65100283  1
  Si0+  Si100  1  0.32274617  0.57268006  0.01686915  1
  Si0+  Si101  1  0.67457103  0.42686173  0.68122760  1
  Si0+  Si102  1  0.42728359  0.32255883  0.98544860  1
  Si0+  Si103  1  0.67801527  0.43061527  0.34844279  1
  Si0+  Si104  1  0.67891803  0.92759092  0.34639947  1
  Si0+  Si105  1  0.32414624  0.07250842  0.01740064  1
  Si0+  Si106  1  0.17882685  0.92799419  0.68202385  1
  Si0+  Si107  1  0.32251614  0.56956484  0.35078328  1
  Si0+  Si108  1  0.32312299  0.57211170  0.68147888  1
  Si0+  Si109  1  0.82035452  0.57342324  0.34926164  1
  Si0+  Si110  1  0.42453166  0.32193085  0.31553202  1
  Si0+  Si111  1  0.92969838  0.82373504  0.31851238  1
  Si0+  Si112  1  0.32483783  0.07066611  0.35094755  1
  Si0+  Si113  1  0.32042175  0.07113413  0.68219066  1
  Si0+  Si114  1  0.82298330  0.07306922  0.68402946  1
  Si0+  Si115  1  0.07174293  0.17616801  0.31744068  1
  Si0+  Si116  1  0.57043008  0.68021758  0.65353463  1
  Si0+  Si117  1  0.92756820  0.82389393  0.98607667  1
  Si0+  Si118  1  0.06945719  0.68038931  0.31905339  1
  Si0+  Si119  1  0.42916010  0.82206084  0.65273377  1
  O2-  O120  1  0.25249555  0.00614009  0.06003535  1
  O2-  O121  1  0.25503738  0.00299838  0.39597781  1
  O2-  O122  1  0.24559244  0.00352895  0.72393896  1
  O2-  O123  1  0.25333623  0.50409093  0.05966060  1
  O2-  O124  1  0.25616583  0.49955174  0.39684165  1
  O2-  O125  1  0.25048263  0.50291649  0.72369000  1
  O2-  O126  1  0.74216670  -0.00225570  0.06180218  1
  O2-  O127  1  0.74424163  -0.00215714  0.39318321  1
  O2-  O128  1  0.75290963  0.00455482  0.72655552  1
  O2-  O129  1  0.75035398  0.50077464  0.06716783  1
  O2-  O130  1  0.74441512  0.50636555  0.39001106  1
  O2-  O131  1  0.74820064  0.49012285  0.72456112  1
  O2-  O132  1  0.00588328  0.24645739  0.27259445  1
  O2-  O133  1  -0.00307621  0.24601612  0.60008816  1
  O2-  O134  1  0.00428486  0.25125825  0.93736119  1
  O2-  O135  1  0.00225705  0.75451080  0.27623290  1
  O2-  O136  1  0.00164867  0.75044887  0.60017967  1
  O2-  O137  1  -0.00701282  0.75183865  0.94232354  1
  O2-  O138  1  0.49351203  0.25381335  0.27215718  1
  O2-  O139  1  0.50802528  0.24927488  0.60633175  1
  O2-  O140  1  0.49626127  0.25442549  0.94030246  1
  O2-  O141  1  0.50102559  0.74927883  0.26967732  1
  O2-  O142  1  0.50109116  0.75224106  0.61024752  1
  O2-  O143  1  0.49913515  0.75575477  0.93487517  1
  O2-  O144  1  0.06969381  0.17568072  0.10265256  1
  O2-  O145  1  0.06992973  0.17736050  0.42313916  1
  O2-  O146  1  0.07372759  0.18003135  0.76405299  1
  O2-  O147  1  0.07109325  0.68210450  0.10217654  1
  O2-  O148  1  0.06806612  0.68051937  0.42407497  1
  O2-  O149  1  0.07561928  0.67978123  0.76368883  1
  O2-  O150  1  0.57017306  0.17970688  0.09741606  1
  O2-  O151  1  0.56809072  0.18293146  0.43429994  1
  O2-  O152  1  0.56716095  0.17399632  0.75628154  1
  O2-  O153  1  0.56836381  0.68045812  0.09615485  1
  O2-  O154  1  0.57456440  0.67964929  0.43249262  1
  O2-  O155  1  0.56737522  0.67977427  0.75825255  1
  O2-  O156  1  0.17704216  0.43066248  0.23689934  1
  O2-  O157  1  0.18459530  0.43058021  0.57570150  1
  O2-  O158  1  0.18202588  0.42904207  0.89786152  1
  O2-  O159  1  0.17942438  0.92702003  0.23720457  1
  O2-  O160  1  0.18330875  0.92635146  0.57695335  1
  O2-  O161  1  0.18115652  0.92951515  0.89838911  1
  O2-  O162  1  0.67871914  0.42872975  0.24391139  1
  O2-  O163  1  0.67027743  0.43127290  0.57526884  1
  O2-  O164  1  0.67677949  0.43195622  0.90107938  1
  O2-  O165  1  0.68295630  0.92541911  0.24129043  1
  O2-  O166  1  0.67562514  0.93152474  0.56616186  1
  O2-  O167  1  0.67599831  0.92854625  0.91238139  1
  O2-  O168  1  0.42606743  0.32099828  0.09093178  1
  O2-  O169  1  0.42750678  0.32214205  0.42154956  1
  O2-  O170  1  0.42874175  0.31991895  0.76588358  1
  O2-  O171  1  0.42666617  0.81949339  0.08531931  1
  O2-  O172  1  0.42972203  0.81965184  0.43161267  1
  O2-  O173  1  0.42717259  0.82094778  0.75743968  1
  O2-  O174  1  0.93040706  0.32092803  0.09864960  1
  O2-  O175  1  0.93034995  0.32226143  0.43055918  1
  O2-  O176  1  0.93006750  0.32242191  0.76357581  1
  O2-  O177  1  0.93095451  0.82504564  0.09216801  1
  O2-  O178  1  0.92711221  0.82053451  0.42336408  1
  O2-  O179  1  0.92981233  0.82058393  0.76527554  1
  O2-  O180  1  0.32480891  0.07129232  0.24570351  1
  O2-  O181  1  0.32454225  0.06769797  0.57722851  1
  O2-  O182  1  0.32594335  0.07109327  0.91138967  1
  O2-  O183  1  0.32192726  0.56909754  0.24541667  1
  O2-  O184  1  0.32559030  0.57207084  0.57663992  1
  O2-  O185  1  0.32305185  0.57196792  0.91066509  1
  O2-  O186  1  0.81947918  0.07401140  0.23603589  1
  O2-  O187  1  0.81976117  0.07354946  0.57822219  1
  O2-  O188  1  0.81898747  0.06644715  0.89879720  1
  O2-  O189  1  0.82325872  0.57384172  0.24472973  1
  O2-  O190  1  0.81652134  0.56976874  0.56626630  1
  O2-  O191  1  0.82274748  0.57147926  0.90292397  1
  O2-  O192  1  0.04457262  0.08109569  0.27578263  1
  O2-  O193  1  0.04952685  0.07727626  0.59941171  1
  O2-  O194  1  0.04015613  0.07947336  0.93570126  1
  O2-  O195  1  0.03726323  0.58964035  0.27290358  1
  O2-  O196  1  0.04536543  0.58045059  0.59687739  1
  O2-  O197  1  0.04212490  0.58409513  0.93359149  1
  O2-  O198  1  0.54320861  0.08500780  0.26472569  1
  O2-  O199  1  0.53734605  0.08396614  0.60464763  1
  O2-  O200  1  0.54025668  0.08226256  0.93003654  1
  O2-  O201  1  0.54481648  0.57930235  0.26507904  1
  O2-  O202  1  0.54132333  0.58943572  0.60468499  1
  O2-  O203  1  0.53787022  0.58375085  0.92882902  1
  O2-  O204  1  0.16822942  0.19679214  0.27561874  1
  O2-  O205  1  0.16964843  0.20624658  0.59596032  1
  O2-  O206  1  0.17401240  0.19814390  0.93967629  1
  O2-  O207  1  0.16285470  0.70374121  0.27397827  1
  O2-  O208  1  0.17256102  0.70662812  0.59707345  1
  O2-  O209  1  0.16734872  0.71027733  0.93423692  1
  O2-  O210  1  0.66476206  0.21729170  0.26729547  1
  O2-  O211  1  0.66619715  0.19390306  0.60675682  1
  O2-  O212  1  0.66578154  0.20984374  0.92703181  1
  O2-  O213  1  0.67189365  0.70636338  0.26348831  1
  O2-  O214  1  0.66253576  0.70717553  0.60768740  1
  O2-  O215  1  0.66870982  0.71002086  0.92992716  1
  O2-  O216  1  0.08502166  0.46171558  0.06732922  1
  O2-  O217  1  0.08313227  0.46520580  0.40486024  1
  O2-  O218  1  0.08930141  0.45476521  0.72621944  1
  O2-  O219  1  0.08397802  0.95763982  0.06926972  1
  O2-  O220  1  0.08455654  0.95751781  0.40734284  1
  O2-  O221  1  0.08472009  0.95055763  0.72655384  1
  O2-  O222  1  0.57968047  0.45804393  0.06800698  1
  O2-  O223  1  0.58325838  0.45303433  0.39420562  1
  O2-  O224  1  0.58225941  0.45644810  0.72819895  1
  O2-  O225  1  0.57924639  0.95085137  0.06090673  1
  O2-  O226  1  0.58260462  0.95029934  0.38843451  1
  O2-  O227  1  0.58213477  0.95783329  0.73686173  1
  O2-  O228  1  0.21071875  0.33295081  0.06844183  1
  O2-  O229  1  0.20571776  0.33064964  0.40432320  1
  O2-  O230  1  0.21469262  0.33754238  0.72551995  1
  O2-  O231  1  0.21397019  0.83443707  0.06657219  1
  O2-  O232  1  0.21204437  0.83089754  0.40468967  1
  O2-  O233  1  0.21214698  0.83733404  0.72891309  1
  O2-  O234  1  0.70529343  0.33015507  0.06579026  1
  O2-  O235  1  0.70956239  0.34174457  0.39911894  1
  O2-  O236  1  0.69302711  0.32988298  0.72296747  1
  O2-  O237  1  0.69939876  0.83414191  0.06378059  1
  O2-  O238  1  0.70700159  0.83456638  0.39384032  1
  O2-  O239  1  0.70973791  0.83383684  0.73510439  1
  O2-  O240  1  0.44740518  0.41596152  0.27030645  1
  O2-  O241  1  0.45775918  0.41777504  0.59549473  1
  O2-  O242  1  0.45115870  0.41634660  0.93909869  1
  O2-  O243  1  0.45131537  0.91840002  0.26143608  1
  O2-  O244  1  0.45605725  0.91436559  0.60594607  1
  O2-  O245  1  0.44924873  0.91585491  0.93422373  1
  O2-  O246  1  0.96224445  0.41924518  0.26588397  1
  O2-  O247  1  0.96009364  0.41690206  0.59576429  1
  O2-  O248  1  0.95877152  0.42047718  0.93378521  1
  O2-  O249  1  0.95735400  0.91736231  0.27539735  1
  O2-  O250  1  0.95241644  0.91810758  0.59730866  1
  O2-  O251  1  0.95757069  0.91505737  0.93854646  1
  O2-  O252  1  0.32988929  0.29537931  0.27262102  1
  O2-  O253  1  0.33757263  0.28712748  0.59462502  1
  O2-  O254  1  0.33480699  0.29488637  0.93771102  1
  O2-  O255  1  0.32952340  0.78838082  0.26475373  1
  O2-  O256  1  0.33883953  0.79307464  0.60330869  1
  O2-  O257  1  0.33579765  0.79222725  0.93217953  1
  O2-  O258  1  0.83350146  0.29229336  0.26580778  1
  O2-  O259  1  0.82686000  0.29642555  0.59830208  1
  O2-  O260  1  0.83219025  0.29326375  0.93126655  1
  O2-  O261  1  0.83960148  0.79593489  0.26842327  1
  O2-  O262  1  0.82968163  0.78774257  0.59803738  1
  O2-  O263  1  0.83204012  0.80431850  0.94233561  1
  O2-  O264  1  0.41660621  0.04206316  0.06367557  1
  O2-  O265  1  0.41843338  0.04272141  0.39710396  1
  O2-  O266  1  0.40957585  0.03989174  0.73331050  1
  O2-  O267  1  0.41563323  0.54707194  0.06347668  1
  O2-  O268  1  0.41769444  0.54655324  0.39652217  1
  O2-  O269  1  0.41408385  0.54137723  0.72991577  1
  O2-  O270  1  0.91298696  0.03803035  0.07027924  1
  O2-  O271  1  0.91385199  0.04337294  0.40591545  1
  O2-  O272  1  0.91688269  0.04526706  0.72785003  1
  O2-  O273  1  0.92055873  0.54548914  0.07077102  1
  O2-  O274  1  0.90985791  0.54150394  0.39858887  1
  O2-  O275  1  0.92013523  0.53948388  0.73108594  1
  O2-  O276  1  0.30554643  0.16653902  0.06470854  1
  O2-  O277  1  0.30145119  0.16445502  0.39870418  1
  O2-  O278  1  0.29642263  0.16494002  0.72730879  1
  O2-  O279  1  0.29834429  0.66652994  0.06211762  1
  O2-  O280  1  0.29525853  0.66244382  0.39787378  1
  O2-  O281  1  0.29895297  0.66489599  0.72932270  1
  O2-  O282  1  0.78743513  0.16683949  0.06423372  1
  O2-  O283  1  0.78486985  0.16992250  0.40353209  1
  O2-  O284  1  0.79776469  0.16696289  0.72978855  1
  O2-  O285  1  0.79400894  0.67207294  0.06800081  1
  O2-  O286  1  0.79530715  0.66691882  0.39582993  1
  O2-  O287  1  0.78960083  0.66286460  0.73536976  1
