# generated using pymatgen
data_Ca2Al2SiO7
_symmetry_space_group_name_H-M   'P 1'
_cell_length_a   15.45835451
_cell_length_b   15.45791875
_cell_length_c   15.28431342
_cell_angle_alpha   90.00196075
_cell_angle_beta   89.98639393
_cell_angle_gamma   89.99477093
_symmetry_Int_Tables_number   1
_chemical_formula_structural   Ca2Al2SiO7
_chemical_formula_sum   'Ca48 Al48 Si24 O168'
_cell_volume   3652.24752757
_cell_formula_units_Z   24
loop_
 _symmetry_equiv_pos_site_id
 _symmetry_equiv_pos_as_xyz
  1  'x, y, z'
loop_
 _atom_type_symbol
 _atom_type_oxidation_number
  Ca2+  2.0
  Al0+  0.0
  Si0+  0.0
  O2-  -2.0
loop_
 _atom_site_type_symbol
 _atom_site_label
 _atom_site_symmetry_multiplicity
 _atom_site_fract_x
 _atom_site_fract_y
 _atom_site_fract_z
 _atom_site_occupancy
  Ca2+  Ca0  1  0.17427134  0.08910470  0.16834382  1
  Ca2+  Ca1  1  0.17449294  0.08164051  0.50748576  1
  Ca2+  Ca2  1  0.17774927  0.08385576  0.83423883  1
  Ca2+  Ca3  1  0.16852630  0.57264020  0.17161185  1
  Ca2+  Ca4  1  0.15995858  0.58188168  0.50095749  1
  Ca2+  Ca5  1  0.17223764  0.58121293  0.83991992  1
  Ca2+  Ca6  1  0.66916602  0.08060969  0.17263417  1
  Ca2+  Ca7  1  0.67447669  0.08234927  0.50766379  1
  Ca2+  Ca8  1  0.66909211  0.07143925  0.83270542  1
  Ca2+  Ca9  1  0.67428823  0.57853663  0.17346369  1
  Ca2+  Ca10  1  0.67556312  0.58142846  0.51014916  1
  Ca2+  Ca11  1  0.66782871  0.58242780  0.82835900  1
  Ca2+  Ca12  1  0.08094889  0.34027358  0.16168338  1
  Ca2+  Ca13  1  0.07779478  0.33549649  0.49922211  1
  Ca2+  Ca14  1  0.07359063  0.33952872  0.83110258  1
  Ca2+  Ca15  1  0.07619415  0.82956112  0.16728299  1
  Ca2+  Ca16  1  0.07255590  0.82165777  0.49521611  1
  Ca2+  Ca17  1  0.07867691  0.82437780  0.82028845  1
  Ca2+  Ca18  1  0.57494685  0.32701960  0.16271061  1
  Ca2+  Ca19  1  0.57447989  0.33396441  0.49536261  1
  Ca2+  Ca20  1  0.57119805  0.33708343  0.82330429  1
  Ca2+  Ca21  1  0.58708281  0.83216681  0.16238523  1
  Ca2+  Ca22  1  0.58704704  0.83410207  0.50520538  1
  Ca2+  Ca23  1  0.58359558  0.83136035  0.82391407  1
  Ca2+  Ca24  1  0.32609632  0.41109706  0.16888983  1
  Ca2+  Ca25  1  0.32885881  0.40831739  0.50372992  1
  Ca2+  Ca26  1  0.33040855  0.42020669  0.84317037  1
  Ca2+  Ca27  1  0.33273562  0.92393854  0.16812512  1
  Ca2+  Ca28  1  0.33599097  0.92223707  0.51135421  1
  Ca2+  Ca29  1  0.34528080  0.92960172  0.83491006  1
  Ca2+  Ca30  1  0.83664262  0.42077458  0.17438899  1
  Ca2+  Ca31  1  0.82941639  0.42614360  0.51129950  1
  Ca2+  Ca32  1  0.83285351  0.41652424  0.83095625  1
  Ca2+  Ca33  1  0.82942610  0.92040079  0.17579617  1
  Ca2+  Ca34  1  0.83627284  0.92458687  0.50951830  1
  Ca2+  Ca35  1  0.82347129  0.90964758  0.83258064  1
  Ca2+  Ca36  1  0.41791847  0.17499641  0.16281402  1
  Ca2+  Ca37  1  0.42357301  0.17341511  0.49549272  1
  Ca2+  Ca38  1  0.40969146  0.17531368  0.82757703  1
  Ca2+  Ca39  1  0.41597849  0.66563977  0.16079500  1
  Ca2+  Ca40  1  0.42468925  0.67026366  0.50243857  1
  Ca2+  Ca41  1  0.42098894  0.67140866  0.82113801  1
  Ca2+  Ca42  1  0.91726086  0.17133122  0.16121414  1
  Ca2+  Ca43  1  0.90609131  0.16974473  0.49809028  1
  Ca2+  Ca44  1  0.91344845  0.17661805  0.82658709  1
  Ca2+  Ca45  1  0.91958679  0.66399873  0.16934602  1
  Ca2+  Ca46  1  0.91695515  0.67038731  0.49629708  1
  Ca2+  Ca47  1  0.92336336  0.66931114  0.81895901  1
  Al0+  Al48  1  -0.00073470  0.00000603  -0.00255291  1
  Al0+  Al49  1  -0.00000852  -0.00010898  0.33256589  1
  Al0+  Al50  1  0.00367436  0.00124560  0.66972251  1
  Al0+  Al51  1  0.00058084  0.50095443  -0.00127528  1
  Al0+  Al52  1  0.00184708  0.50048445  0.33797017  1
  Al0+  Al53  1  -0.00017428  0.49730674  0.66328377  1
  Al0+  Al54  1  0.50158378  -0.00091364  0.01025894  1
  Al0+  Al55  1  0.50065279  0.00019463  0.32945984  1
  Al0+  Al56  1  0.50089256  0.00247888  0.67133833  1
  Al0+  Al57  1  0.50246632  0.50014157  0.00059091  1
  Al0+  Al58  1  0.49686322  0.50182915  0.32793729  1
  Al0+  Al59  1  0.49830903  0.50081100  0.66033455  1
  Al0+  Al60  1  0.24944070  0.24907526  0.00383656  1
  Al0+  Al61  1  0.24866788  0.25086121  0.33526858  1
  Al0+  Al62  1  0.24846263  0.25020022  0.66744644  1
  Al0+  Al63  1  0.25043782  0.75171872  0.00327510  1
  Al0+  Al64  1  0.24927393  0.74838777  0.32864982  1
  Al0+  Al65  1  0.24982451  0.74923129  0.65811472  1
  Al0+  Al66  1  0.74956260  0.24890948  -0.00494922  1
  Al0+  Al67  1  0.74751454  0.24861553  0.33153627  1
  Al0+  Al68  1  0.74850830  0.25075714  0.67141503  1
  Al0+  Al69  1  0.74966758  0.74966226  0.00497924  1
  Al0+  Al70  1  0.74899140  0.75062579  0.33261495  1
  Al0+  Al71  1  0.75128834  0.74974408  0.66678417  1
  Al0+  Al72  1  0.81979831  0.56980940  0.34711584  1
  Al0+  Al73  1  0.82130014  0.07111493  0.34585002  1
  Al0+  Al74  1  0.68162842  0.92860585  0.01655082  1
  Al0+  Al75  1  0.92860601  0.82290866  0.65308669  1
  Al0+  Al76  1  0.67556071  0.42942386  0.68079150  1
  Al0+  Al77  1  0.43019511  0.82429632  0.65349623  1
  Al0+  Al78  1  0.07059417  0.67687521  0.31424990  1
  Al0+  Al79  1  0.32404151  0.57287992  0.01366714  1
  Al0+  Al80  1  0.42680173  0.32137456  0.65340784  1
  Al0+  Al81  1  0.82520426  0.07301638  0.68381874  1
  Al0+  Al82  1  0.57183028  0.17830661  0.31739484  1
  Al0+  Al83  1  0.92779474  0.82197859  0.31687419  1
  Al0+  Al84  1  0.42973993  0.31971191  0.98521814  1
  Al0+  Al85  1  0.42667550  0.32134199  0.31626157  1
  Al0+  Al86  1  0.07183703  0.67621944  0.65117559  1
  Al0+  Al87  1  0.31977891  0.07037531  0.01601485  1
  Al0+  Al88  1  0.32112825  0.07134444  0.67893984  1
  Al0+  Al89  1  0.92733233  0.31820577  0.65183730  1
  Al0+  Al90  1  0.57192823  0.67887693  0.65171966  1
  Al0+  Al91  1  0.82250064  0.57014172  0.68217015  1
  Al0+  Al92  1  0.92915954  0.32193439  0.98669311  1
  Al0+  Al93  1  0.17879425  0.43088349  0.01429871  1
  Al0+  Al94  1  0.18118617  0.42925598  0.35023450  1
  Al0+  Al95  1  0.68082195  0.92906099  0.68086156  1
  Si0+  Si96  1  0.92766382  0.82071519  0.98534800  1
  Si0+  Si97  1  0.17481888  0.92735636  0.01750849  1
  Si0+  Si98  1  0.17941529  0.92752188  0.34778894  1
  Si0+  Si99  1  0.07129660  0.17810386  0.31925080  1
  Si0+  Si100  1  0.32054207  0.06934675  0.34880546  1
  Si0+  Si101  1  0.67552809  0.42796965  0.34739723  1
  Si0+  Si102  1  0.07282432  0.17923120  0.65045343  1
  Si0+  Si103  1  0.42807928  0.82178513  0.31644045  1
  Si0+  Si104  1  0.17947390  0.42873792  0.68228498  1
  Si0+  Si105  1  0.57125673  0.17872520  0.65241283  1
  Si0+  Si106  1  0.57077201  0.67997209  0.31641990  1
  Si0+  Si107  1  0.67858195  0.42673642  0.01507354  1
  Si0+  Si108  1  0.92933406  0.32017904  0.32106161  1
  Si0+  Si109  1  0.82033523  0.56951281  0.01492291  1
  Si0+  Si110  1  0.32027901  0.57187493  0.67855085  1
  Si0+  Si111  1  0.18044895  0.92577861  0.68209987  1
  Si0+  Si112  1  0.07075889  0.68087219  0.98553923  1
  Si0+  Si113  1  0.57270067  0.67924778  0.98606989  1
  Si0+  Si114  1  0.57142026  0.17553604  0.98110811  1
  Si0+  Si115  1  0.32333752  0.57453083  0.35240961  1
  Si0+  Si116  1  0.82250562  0.07303452  0.01661117  1
  Si0+  Si117  1  0.07238170  0.17605825  0.98285281  1
  Si0+  Si118  1  0.67675301  0.92800893  0.35106961  1
  Si0+  Si119  1  0.42969634  0.82126093  0.98758811  1
  O2-  O120  1  0.24261615  -0.00294605  0.06229656  1
  O2-  O121  1  0.25212450  -0.00374464  0.39135673  1
  O2-  O122  1  0.25139036  -0.00803959  0.72673560  1
  O2-  O123  1  0.25406450  0.49950438  0.06482883  1
  O2-  O124  1  0.25695830  0.50354086  0.39626709  1
  O2-  O125  1  0.24940396  0.50165108  0.72214957  1
  O2-  O126  1  0.75607161  0.00351661  0.06254487  1
  O2-  O127  1  0.74714247  -0.00411395  0.39226833  1
  O2-  O128  1  0.75628746  -0.00289988  0.73248711  1
  O2-  O129  1  0.75263637  0.49502841  0.05728463  1
  O2-  O130  1  0.74445341  0.49539288  0.39205574  1
  O2-  O131  1  0.74917084  0.49942705  0.73278457  1
  O2-  O132  1  -0.00198048  0.24729356  0.27793049  1
  O2-  O133  1  -0.00221068  0.23965783  0.60454725  1
  O2-  O134  1  0.00326594  0.24546938  0.94103668  1
  O2-  O135  1  -0.00256289  0.74836923  0.26454521  1
  O2-  O136  1  -0.00230660  0.74762034  0.60393095  1
  O2-  O137  1  0.00195755  0.75357285  0.94333585  1
  O2-  O138  1  0.50028788  0.25063267  0.26682658  1
  O2-  O139  1  0.50452228  0.24946931  0.60815535  1
  O2-  O140  1  0.50336861  0.24469336  0.93668029  1
  O2-  O141  1  0.49901029  0.75059883  0.27407052  1
  O2-  O142  1  0.50289539  0.75434840  0.60162286  1
  O2-  O143  1  0.49652067  0.74616888  0.94616464  1
  O2-  O144  1  0.07030096  0.17333502  0.08891759  1
  O2-  O145  1  0.07446762  0.17750922  0.42393834  1
  O2-  O146  1  0.07740193  0.18437827  0.75584011  1
  O2-  O147  1  0.06840225  0.67999792  0.09028596  1
  O2-  O148  1  0.07040242  0.67935398  0.42706532  1
  O2-  O149  1  0.07445334  0.67836521  0.76582923  1
  O2-  O150  1  0.57174877  0.17786347  0.08684324  1
  O2-  O151  1  0.57010149  0.17705966  0.43080679  1
  O2-  O152  1  0.56768198  0.17776699  0.75811711  1
  O2-  O153  1  0.57505296  0.68143620  0.09158729  1
  O2-  O154  1  0.57102512  0.67976320  0.42081582  1
  O2-  O155  1  0.56716186  0.67768089  0.76592325  1
  O2-  O156  1  0.18008865  0.42862966  0.23717891  1
  O2-  O157  1  0.18086169  0.42604849  0.57719915  1
  O2-  O158  1  0.17714502  0.43499806  0.90059798  1
  O2-  O159  1  0.18130745  0.93033770  0.24236338  1
  O2-  O160  1  0.18084674  0.92870924  0.57627979  1
  O2-  O161  1  0.17472543  0.92556918  0.91231745  1
  O2-  O162  1  0.67814554  0.42971240  0.24095396  1
  O2-  O163  1  0.67600961  0.43078456  0.56686132  1
  O2-  O164  1  0.67602736  0.42925888  0.91059114  1
  O2-  O165  1  0.67685457  0.92832615  0.24498189  1
  O2-  O166  1  0.67799213  0.93369440  0.56748103  1
  O2-  O167  1  0.68178351  0.92537816  0.90425352  1
  O2-  O168  1  0.43154954  0.31807870  0.09810587  1
  O2-  O169  1  0.42681812  0.31788962  0.42985945  1
  O2-  O170  1  0.42447140  0.32089288  0.76673445  1
  O2-  O171  1  0.43115054  0.82081332  0.09315357  1
  O2-  O172  1  0.42762004  0.82385746  0.42103249  1
  O2-  O173  1  0.42961875  0.82186694  0.76762294  1
  O2-  O174  1  0.92968803  0.32159808  0.10066840  1
  O2-  O175  1  0.92975605  0.31878691  0.42576666  1
  O2-  O176  1  0.93208088  0.32038149  0.76510052  1
  O2-  O177  1  0.92788090  0.81992972  0.09030341  1
  O2-  O178  1  0.93052520  0.82426082  0.42954528  1
  O2-  O179  1  0.93248537  0.82025615  0.76781590  1
  O2-  O180  1  0.31804919  0.06836316  0.24352244  1
  O2-  O181  1  0.31852456  0.07152935  0.56543410  1
  O2-  O182  1  0.31986537  0.06899923  0.90306705  1
  O2-  O183  1  0.32315551  0.57591566  0.24675961  1
  O2-  O184  1  0.32033358  0.57156577  0.57361265  1
  O2-  O185  1  0.32170779  0.57539128  0.89976842  1
  O2-  O186  1  0.82157746  0.07101745  0.23227217  1
  O2-  O187  1  0.82133606  0.07292049  0.56992421  1
  O2-  O188  1  0.82206129  0.07230623  0.91171160  1
  O2-  O189  1  0.81837418  0.56640367  0.23274387  1
  O2-  O190  1  0.82188078  0.56797506  0.56863345  1
  O2-  O191  1  0.81969516  0.57236407  0.91052101  1
  O2-  O192  1  0.04641096  0.08678135  0.26941113  1
  O2-  O193  1  0.05820738  0.08229916  0.60774700  1
  O2-  O194  1  0.04851810  0.08239985  0.93500184  1
  O2-  O195  1  0.04002587  0.57788501  0.26282740  1
  O2-  O196  1  0.04530059  0.57791855  0.59883675  1
  O2-  O197  1  0.04165610  0.59018762  0.93733280  1
  O2-  O198  1  0.54259138  0.08015973  0.26266804  1
  O2-  O199  1  0.54282848  0.08699688  0.60482465  1
  O2-  O200  1  0.54411380  0.08029361  0.94014726  1
  O2-  O201  1  0.54388133  0.58865062  0.26659180  1
  O2-  O202  1  0.53808595  0.58444672  0.59434591  1
  O2-  O203  1  0.55135994  0.58594028  0.93979043  1
  O2-  O204  1  0.16154345  0.20902575  0.27019197  1
  O2-  O205  1  0.16237666  0.21257378  0.60017340  1
  O2-  O206  1  0.16637015  0.20103092  0.93835986  1
  O2-  O207  1  0.16928564  0.70622500  0.26116641  1
  O2-  O208  1  0.16831829  0.70486188  0.59464105  1
  O2-  O209  1  0.16390991  0.70809420  0.93991656  1
  O2-  O210  1  0.66961855  0.20635648  0.26094700  1
  O2-  O211  1  0.66548028  0.20179771  0.60762788  1
  O2-  O212  1  0.66567824  0.19846115  0.93577097  1
  O2-  O213  1  0.66148147  0.70847858  0.26664515  1
  O2-  O214  1  0.67075056  0.70418123  0.59966061  1
  O2-  O215  1  0.66303718  0.71208174  0.93885762  1
  O2-  O216  1  0.08131067  0.46335840  0.06849359  1
  O2-  O217  1  0.08510818  0.46002851  0.40471621  1
  O2-  O218  1  0.08739081  0.45557029  0.72863405  1
  O2-  O219  1  0.08041382  0.95222387  0.06330386  1
  O2-  O220  1  0.08886155  0.95792354  0.39492520  1
  O2-  O221  1  0.08927440  0.95340715  0.73184642  1
  O2-  O222  1  0.58952117  0.45804831  0.06588419  1
  O2-  O223  1  0.58087592  0.45484041  0.38995576  1
  O2-  O224  1  0.57703032  0.46152405  0.73297266  1
  O2-  O225  1  0.58606485  0.95750556  0.07367960  1
  O2-  O226  1  0.58216627  0.95373831  0.39495806  1
  O2-  O227  1  0.58389568  0.96064378  0.73667179  1
  O2-  O228  1  0.20118789  0.33064077  0.06607023  1
  O2-  O229  1  0.21021157  0.33194259  0.40494719  1
  O2-  O230  1  0.20845895  0.33828181  0.73106156  1
  O2-  O231  1  0.20258654  0.83548537  0.06631766  1
  O2-  O232  1  0.20592514  0.83451833  0.39247573  1
  O2-  O233  1  0.20351124  0.83068879  0.72614753  1
  O2-  O234  1  0.70380603  0.33313364  0.06042674  1
  O2-  O235  1  0.69841541  0.33350363  0.39139396  1
  O2-  O236  1  0.70055852  0.33151216  0.73553999  1
  O2-  O237  1  0.71309695  0.83252895  0.07289580  1
  O2-  O238  1  0.69909458  0.83327638  0.39482675  1
  O2-  O239  1  0.70441244  0.82951457  0.73430260  1
  O2-  O240  1  0.45029085  0.42160512  0.26435858  1
  O2-  O241  1  0.45377138  0.41721678  0.59717332  1
  O2-  O242  1  0.46114242  0.41792636  0.93402199  1
  O2-  O243  1  0.45581991  0.91303556  0.26729694  1
  O2-  O244  1  0.45689358  0.92365920  0.60156544  1
  O2-  O245  1  0.46229308  0.91258513  0.94258739  1
  O2-  O246  1  0.96057148  0.41088232  0.27392677  1
  O2-  O247  1  0.96287090  0.41215329  0.59656647  1
  O2-  O248  1  0.96154416  0.41796505  0.93199526  1
  O2-  O249  1  0.96098788  0.91939221  0.26225760  1
  O2-  O250  1  0.96042706  0.92160132  0.60252859  1
  O2-  O251  1  0.94999328  0.91432905  0.93925361  1
  O2-  O252  1  0.32881138  0.28773054  0.26476808  1
  O2-  O253  1  0.33155256  0.28641338  0.59952298  1
  O2-  O254  1  0.33093728  0.28987372  0.93509083  1
  O2-  O255  1  0.33673793  0.79471853  0.26743830  1
  O2-  O256  1  0.33346558  0.79539717  0.59764858  1
  O2-  O257  1  0.33543579  0.80082973  0.94189050  1
  O2-  O258  1  0.83675590  0.29595851  0.27309208  1
  O2-  O259  1  0.82855449  0.29250974  0.60011298  1
  O2-  O260  1  0.83225831  0.29306206  0.93212957  1
  O2-  O261  1  0.82804859  0.79531619  0.26463781  1
  O2-  O262  1  0.82948461  0.80007573  0.60136148  1
  O2-  O263  1  0.83679155  0.78748658  0.93988302  1
  O2-  O264  1  0.41407240  0.03670188  0.07274737  1
  O2-  O265  1  0.41364557  0.04219737  0.39316715  1
  O2-  O266  1  0.41668519  0.04486077  0.73638382  1
  O2-  O267  1  0.42418484  0.54880637  0.06586140  1
  O2-  O268  1  0.41887007  0.55196909  0.39595659  1
  O2-  O269  1  0.41170719  0.54455011  0.72597960  1
  O2-  O270  1  0.91793934  0.04976864  0.06084072  1
  O2-  O271  1  0.91940690  0.04392107  0.39891088  1
  O2-  O272  1  0.92673358  0.05268083  0.73456112  1
  O2-  O273  1  0.91275368  0.54343769  0.06185106  1
  O2-  O274  1  0.91581125  0.53972846  0.40022714  1
  O2-  O275  1  0.92066286  0.53800160  0.73469827  1
  O2-  O276  1  0.28802781  0.16537822  0.07233310  1
  O2-  O277  1  0.28960019  0.16003113  0.39536333  1
  O2-  O278  1  0.28300315  0.16506750  0.73458989  1
  O2-  O279  1  0.29564708  0.67150455  0.06771341  1
  O2-  O280  1  0.29620761  0.66852057  0.39700632  1
  O2-  O281  1  0.29329495  0.66461071  0.72535649  1
  O2-  O282  1  0.79574941  0.16701733  0.06220341  1
  O2-  O283  1  0.78964627  0.16808842  0.39916833  1
  O2-  O284  1  0.79278075  0.16957675  0.73772161  1
  O2-  O285  1  0.78864801  0.65900034  0.06510981  1
  O2-  O286  1  0.78847109  0.66731892  0.39781618  1
  O2-  O287  1  0.79692282  0.66915772  0.73469760  1
