# generated using pymatgen
data_Ca2Al2SiO7
_symmetry_space_group_name_H-M   'P 1'
_cell_length_a   15.46034998
_cell_length_b   15.46120474
_cell_length_c   15.28678505
_cell_angle_alpha   90.00145992
_cell_angle_beta   90.00404251
_cell_angle_gamma   90.00231512
_symmetry_Int_Tables_number   1
_chemical_formula_structural   Ca2Al2SiO7
_chemical_formula_sum   'Ca48 Al48 Si24 O168'
_cell_volume   3654.08637998
_cell_formula_units_Z   24
loop_
 _symmetry_equiv_pos_site_id
 _symmetry_equiv_pos_as_xyz
  1  'x, y, z'
loop_
 _atom_type_symbol
 _atom_type_oxidation_number
  Ca2+  2.0
  Al0+  0.0
  Si0+  0.0
  O2-  -2.0
loop_
 _atom_site_type_symbol
 _atom_site_label
 _atom_site_symmetry_multiplicity
 _atom_site_fract_x
 _atom_site_fract_y
 _atom_site_fract_z
 _atom_site_occupancy
  Ca2+  Ca0  1  0.16510833  0.07601641  0.16706842  1
  Ca2+  Ca1  1  0.16509310  0.08007307  0.51102527  1
  Ca2+  Ca2  1  0.15548705  0.07202249  0.83252653  1
  Ca2+  Ca3  1  0.17839248  0.57919635  0.16989894  1
  Ca2+  Ca4  1  0.17519475  0.58259482  0.50951311  1
  Ca2+  Ca5  1  0.16652504  0.57250865  0.83860226  1
  Ca2+  Ca6  1  0.67298891  0.08226273  0.16801758  1
  Ca2+  Ca7  1  0.67139746  0.07561975  0.51662009  1
  Ca2+  Ca8  1  0.67752903  0.08745297  0.83327465  1
  Ca2+  Ca9  1  0.66899150  0.58687064  0.16773301  1
  Ca2+  Ca10  1  0.66914835  0.58519981  0.50577858  1
  Ca2+  Ca11  1  0.66618029  0.57554199  0.83777152  1
  Ca2+  Ca12  1  0.08346766  0.33450732  0.16061423  1
  Ca2+  Ca13  1  0.08129175  0.33377072  0.50517635  1
  Ca2+  Ca14  1  0.07904323  0.33163702  0.81946672  1
  Ca2+  Ca15  1  0.07873680  0.83238926  0.16270482  1
  Ca2+  Ca16  1  0.07403544  0.83343962  0.50330701  1
  Ca2+  Ca17  1  0.08153749  0.82878552  0.82242951  1
  Ca2+  Ca18  1  0.57851214  0.34190448  0.16341287  1
  Ca2+  Ca19  1  0.57592585  0.33687348  0.50383374  1
  Ca2+  Ca20  1  0.58150757  0.33576782  0.82090480  1
  Ca2+  Ca21  1  0.58233876  0.81834223  0.16080527  1
  Ca2+  Ca22  1  0.59350135  0.82196561  0.49916020  1
  Ca2+  Ca23  1  0.58791883  0.82149109  0.82602974  1
  Ca2+  Ca24  1  0.33548988  0.42578369  0.16921996  1
  Ca2+  Ca25  1  0.33416519  0.41655589  0.50481570  1
  Ca2+  Ca26  1  0.32389490  0.41707520  0.83569860  1
  Ca2+  Ca27  1  0.32595421  0.91267711  0.16750993  1
  Ca2+  Ca28  1  0.32596181  0.91801536  0.51028864  1
  Ca2+  Ca29  1  0.32032746  0.91384234  0.83579322  1
  Ca2+  Ca30  1  0.82705008  0.43230493  0.16830875  1
  Ca2+  Ca31  1  0.82913105  0.42255140  0.50930315  1
  Ca2+  Ca32  1  0.82398381  0.41792239  0.83855723  1
  Ca2+  Ca33  1  0.83624089  0.92005735  0.16966633  1
  Ca2+  Ca34  1  0.83398230  0.91809632  0.51091798  1
  Ca2+  Ca35  1  0.83570333  0.92572796  0.82899296  1
  Ca2+  Ca36  1  0.41768375  0.17461843  0.16385772  1
  Ca2+  Ca37  1  0.41892228  0.17857038  0.49966042  1
  Ca2+  Ca38  1  0.42565059  0.17540918  0.82094149  1
  Ca2+  Ca39  1  0.42447928  0.65404876  0.16272386  1
  Ca2+  Ca40  1  0.42923870  0.65988718  0.49678928  1
  Ca2+  Ca41  1  0.42595672  0.65846141  0.83079747  1
  Ca2+  Ca42  1  0.91598626  0.16808535  0.16039743  1
  Ca2+  Ca43  1  0.91530965  0.17105354  0.50745040  1
  Ca2+  Ca44  1  0.91672588  0.17078221  0.82248140  1
  Ca2+  Ca45  1  0.90770210  0.67029234  0.16300023  1
  Ca2+  Ca46  1  0.91629404  0.67706387  0.49581333  1
  Ca2+  Ca47  1  0.92277567  0.66890945  0.82274498  1
  Al0+  Al48  1  -0.00036042  0.00035517  0.00851903  1
  Al0+  Al49  1  -0.00040881  -0.00048675  0.32935202  1
  Al0+  Al50  1  0.00036583  0.00023984  0.66686084  1
  Al0+  Al51  1  -0.00197658  0.50062768  0.00737877  1
  Al0+  Al52  1  -0.00007106  0.49946602  0.33631475  1
  Al0+  Al53  1  0.00322312  0.50054450  0.66102171  1
  Al0+  Al54  1  0.49926754  -0.00001643  -0.00094613  1
  Al0+  Al55  1  0.49930709  -0.00010352  0.33222263  1
  Al0+  Al56  1  0.50012352  -0.00143697  0.66893600  1
  Al0+  Al57  1  0.49885460  0.49861347  -0.00010318  1
  Al0+  Al58  1  0.49890742  0.49826161  0.32918490  1
  Al0+  Al59  1  0.50176401  0.50135830  0.66227092  1
  Al0+  Al60  1  0.24940107  0.24690381  0.00129672  1
  Al0+  Al61  1  0.25053486  0.24815462  0.32723073  1
  Al0+  Al62  1  0.25047467  0.25137467  0.66305119  1
  Al0+  Al63  1  0.24868823  0.75053091  0.00861915  1
  Al0+  Al64  1  0.24909496  0.74893849  0.33927428  1
  Al0+  Al65  1  0.25264560  0.75034126  0.66804461  1
  Al0+  Al66  1  0.75006950  0.24964951  0.01023791  1
  Al0+  Al67  1  0.75164360  0.24950291  0.33269577  1
  Al0+  Al68  1  0.74976876  0.25100904  0.66467495  1
  Al0+  Al69  1  0.74845325  0.75260879  -0.00458596  1
  Al0+  Al70  1  0.75075972  0.75095510  0.32725971  1
  Al0+  Al71  1  0.75120494  0.75143256  0.66419257  1
  Al0+  Al72  1  0.07064780  0.17894687  0.65357307  1
  Al0+  Al73  1  0.18006935  0.92956760  0.67933766  1
  Al0+  Al74  1  0.56904061  0.68064947  0.31839502  1
  Al0+  Al75  1  0.93135177  0.81971857  0.31687334  1
  Al0+  Al76  1  0.81964924  0.06953212  0.01541688  1
  Al0+  Al77  1  0.92681519  0.32379428  0.65318264  1
  Al0+  Al78  1  0.67695851  0.92569610  0.68222910  1
  Al0+  Al79  1  0.43002425  0.31852026  0.31644885  1
  Al0+  Al80  1  0.57299068  0.17697486  0.65328585  1
  Al0+  Al81  1  0.57066735  0.68053073  0.65340855  1
  Al0+  Al82  1  0.67995898  0.43167050  0.67744109  1
  Al0+  Al83  1  0.93081624  0.82002236  0.65368966  1
  Al0+  Al84  1  0.17923403  0.92974797  0.01539548  1
  Al0+  Al85  1  0.81991496  0.57287443  0.34884639  1
  Al0+  Al86  1  0.82051000  0.07134862  0.68034083  1
  Al0+  Al87  1  0.42909963  0.32198015  0.65250512  1
  Al0+  Al88  1  0.31969999  0.56918983  0.01388096  1
  Al0+  Al89  1  0.82037687  0.57457122  0.01219137  1
  Al0+  Al90  1  0.17659698  0.42554185  0.01456500  1
  Al0+  Al91  1  0.17931282  0.42914217  0.67814782  1
  Al0+  Al92  1  0.32139594  0.56941636  0.34979101  1
  Al0+  Al93  1  0.56930514  0.67888049  0.98356896  1
  Al0+  Al94  1  0.67804143  0.42883746  0.01515359  1
  Al0+  Al95  1  0.07536187  0.67700611  0.65283555  1
  Si0+  Si96  1  0.32351817  0.57150765  0.68297450  1
  Si0+  Si97  1  0.07078499  0.67950801  0.98806360  1
  Si0+  Si98  1  0.57253521  0.17845575  0.98619235  1
  Si0+  Si99  1  0.42872361  0.31934144  0.98387296  1
  Si0+  Si100  1  0.17851256  0.42507963  0.35093754  1
  Si0+  Si101  1  0.32070739  0.07128567  0.34792682  1
  Si0+  Si102  1  0.32261172  0.07380731  0.68279584  1
  Si0+  Si103  1  0.92972260  0.82341180  0.98439347  1
  Si0+  Si104  1  0.06939940  0.17956482  0.31621887  1
  Si0+  Si105  1  0.07366337  0.67641704  0.31546346  1
  Si0+  Si106  1  0.42542665  0.82317744  0.98346119  1
  Si0+  Si107  1  0.42703866  0.82279240  0.65137555  1
  Si0+  Si108  1  0.67932500  0.93053764  0.34581642  1
  Si0+  Si109  1  0.67855000  0.42745582  0.35095620  1
  Si0+  Si110  1  0.82388918  0.57323931  0.68031784  1
  Si0+  Si111  1  0.82206141  0.07131385  0.34949772  1
  Si0+  Si112  1  0.32457425  0.07153279  0.01744756  1
  Si0+  Si113  1  0.42478427  0.82413687  0.31728098  1
  Si0+  Si114  1  0.07006793  0.17796196  0.98610428  1
  Si0+  Si115  1  0.17808671  0.93040458  0.34994685  1
  Si0+  Si116  1  0.92763101  0.32261488  0.31572929  1
  Si0+  Si117  1  0.67566860  0.92819901  0.01758575  1
  Si0+  Si118  1  0.57333070  0.17537541  0.31546988  1
  Si0+  Si119  1  0.92910141  0.32092435  0.98828601  1
  O2-  O120  1  0.25632475  0.00243033  0.06218429  1
  O2-  O121  1  0.25318957  -0.00235611  0.39069368  1
  O2-  O122  1  0.25383195  0.00509370  0.72712145  1
  O2-  O123  1  0.24859376  0.49659879  0.06525315  1
  O2-  O124  1  0.24470916  0.49599246  0.39466980  1
  O2-  O125  1  0.25138783  0.50574162  0.72554655  1
  O2-  O126  1  0.74474779  -0.00430912  0.06343770  1
  O2-  O127  1  0.74636289  0.00484407  0.38876526  1
  O2-  O128  1  0.74570363  0.00191873  0.73050792  1
  O2-  O129  1  0.74639043  0.50506196  0.06369798  1
  O2-  O130  1  0.74657313  0.49670316  0.39483163  1
  O2-  O131  1  0.75743463  0.50287616  0.72483599  1
  O2-  O132  1  -0.00003702  0.25198920  0.27365654  1
  O2-  O133  1  -0.00009259  0.25185631  0.60303521  1
  O2-  O134  1  0.00421028  0.25400336  0.94577660  1
  O2-  O135  1  0.00342894  0.74268981  0.26913810  1
  O2-  O136  1  0.00078786  0.74640068  0.60277172  1
  O2-  O137  1  -0.00282398  0.74786567  0.94508177  1
  O2-  O138  1  0.50759388  0.24593234  0.26958931  1
  O2-  O139  1  0.50040558  0.24819193  0.60332058  1
  O2-  O140  1  0.50171370  0.24925658  0.94398963  1
  O2-  O141  1  0.49125596  0.75388122  0.27268325  1
  O2-  O142  1  0.49897256  0.75833283  0.60659477  1
  O2-  O143  1  0.49327882  0.75433307  0.93914622  1
  O2-  O144  1  0.06813496  0.17649618  0.09191233  1
  O2-  O145  1  0.06992581  0.17733481  0.42059763  1
  O2-  O146  1  0.06900336  0.17877652  0.76757644  1
  O2-  O147  1  0.07141555  0.68234705  0.09331318  1
  O2-  O148  1  0.07460326  0.67970667  0.42050924  1
  O2-  O149  1  0.07437462  0.67793220  0.76734133  1
  O2-  O150  1  0.56990806  0.17691445  0.09163015  1
  O2-  O151  1  0.57140621  0.17153377  0.42013042  1
  O2-  O152  1  0.57153581  0.17981250  0.76756938  1
  O2-  O153  1  0.56859247  0.68115165  0.09699258  1
  O2-  O154  1  0.57022445  0.68282930  0.43127370  1
  O2-  O155  1  0.56816115  0.67801940  0.76637964  1
  O2-  O156  1  0.17940236  0.42446042  0.24512863  1
  O2-  O157  1  0.18257404  0.42871318  0.56505788  1
  O2-  O158  1  0.17642777  0.42486581  0.90131927  1
  O2-  O159  1  0.17795861  0.93275745  0.24454491  1
  O2-  O160  1  0.18196155  0.93163695  0.56579634  1
  O2-  O161  1  0.17761535  0.93099506  0.90278139  1
  O2-  O162  1  0.68084527  0.42693434  0.24519912  1
  O2-  O163  1  0.67847663  0.43514140  0.56425321  1
  O2-  O164  1  0.67977068  0.42609434  0.90171381  1
  O2-  O165  1  0.68020553  0.93284676  0.24040690  1
  O2-  O166  1  0.68019201  0.92564639  0.56776094  1
  O2-  O167  1  0.67498969  0.92962279  0.91278254  1
  O2-  O168  1  0.42851861  0.31718253  0.08930501  1
  O2-  O169  1  0.42803927  0.31584348  0.42877955  1
  O2-  O170  1  0.42935444  0.32142380  0.76652575  1
  O2-  O171  1  0.42770461  0.82591641  0.08923829  1
  O2-  O172  1  0.42566891  0.82866519  0.42233089  1
  O2-  O173  1  0.42321776  0.81999973  0.75683978  1
  O2-  O174  1  0.93044562  0.31748315  0.09388492  1
  O2-  O175  1  0.92582718  0.32118808  0.42022398  1
  O2-  O176  1  0.92750297  0.32333006  0.76735297  1
  O2-  O177  1  0.93184848  0.82444888  0.08995261  1
  O2-  O178  1  0.93343781  0.82361674  0.42911266  1
  O2-  O179  1  0.93310425  0.81981807  0.76774918  1
  O2-  O180  1  0.31862863  0.07101249  0.24258422  1
  O2-  O181  1  0.32139754  0.07162111  0.57663411  1
  O2-  O182  1  0.32612552  0.07251937  0.91252109  1
  O2-  O183  1  0.32026106  0.56786252  0.23674743  1
  O2-  O184  1  0.32408482  0.57052236  0.57712190  1
  O2-  O185  1  0.31814801  0.56799081  0.90048173  1
  O2-  O186  1  0.82262528  0.07061826  0.24399439  1
  O2-  O187  1  0.82105538  0.06863513  0.56623735  1
  O2-  O188  1  0.82128143  0.07119744  0.90336560  1
  O2-  O189  1  0.81739926  0.57238470  0.23568074  1
  O2-  O190  1  0.82038190  0.57360571  0.57444736  1
  O2-  O191  1  0.82394387  0.57135864  0.89898254  1
  O2-  O192  1  0.03877597  0.08902637  0.26677503  1
  O2-  O193  1  0.04156995  0.08205477  0.59833602  1
  O2-  O194  1  0.03669531  0.08696045  0.94098735  1
  O2-  O195  1  0.05182122  0.58048785  0.27231972  1
  O2-  O196  1  0.05328191  0.57926583  0.59713805  1
  O2-  O197  1  0.04494112  0.58589990  0.94313874  1
  O2-  O198  1  0.54493209  0.08290106  0.26657437  1
  O2-  O199  1  0.54557863  0.07727049  0.60161839  1
  O2-  O200  1  0.54545142  0.08636216  0.93896695  1
  O2-  O201  1  0.53992974  0.58337886  0.26515621  1
  O2-  O202  1  0.53738570  0.58699634  0.59579127  1
  O2-  O203  1  0.53771925  0.58144650  0.93155735  1
  O2-  O204  1  0.16136377  0.20433576  0.26677576  1
  O2-  O205  1  0.16866426  0.20525655  0.59879052  1
  O2-  O206  1  0.16476765  0.19661440  0.94095707  1
  O2-  O207  1  0.16699966  0.70621820  0.26991920  1
  O2-  O208  1  0.17292995  0.70888137  0.59994495  1
  O2-  O209  1  0.16230199  0.71013333  0.94226067  1
  O2-  O210  1  0.66889630  0.19885260  0.27109394  1
  O2-  O211  1  0.66973712  0.20423831  0.59809875  1
  O2-  O212  1  0.66599770  0.20597872  0.94317875  1
  O2-  O213  1  0.66343861  0.71560295  0.26258517  1
  O2-  O214  1  0.66717414  0.71014308  0.59887994  1
  O2-  O215  1  0.66568231  0.71093621  0.92973300  1
  O2-  O216  1  0.07961820  0.45397308  0.07030709  1
  O2-  O217  1  0.08305727  0.44604284  0.39460081  1
  O2-  O218  1  0.08161077  0.45702049  0.73201508  1
  O2-  O219  1  0.08614656  0.96520907  0.07375380  1
  O2-  O220  1  0.08758579  0.96466461  0.39517161  1
  O2-  O221  1  0.08472356  0.96065008  0.73455615  1
  O2-  O222  1  0.57909707  0.45503295  0.06700815  1
  O2-  O223  1  0.58348413  0.45138859  0.39275733  1
  O2-  O224  1  0.58426774  0.46490780  0.73206319  1
  O2-  O225  1  0.58203681  0.95426236  0.06448298  1
  O2-  O226  1  0.58530878  0.95309727  0.39171625  1
  O2-  O227  1  0.57627717  0.94635385  0.73393511  1
  O2-  O228  1  0.20293360  0.32558302  0.06668478  1
  O2-  O229  1  0.20728797  0.33078576  0.39360880  1
  O2-  O230  1  0.21020695  0.33247179  0.73237226  1
  O2-  O231  1  0.20828627  0.83513356  0.07419859  1
  O2-  O232  1  0.20096896  0.83755687  0.39636293  1
  O2-  O233  1  0.21267755  0.83388524  0.73482174  1
  O2-  O234  1  0.70776503  0.33303277  0.07315328  1
  O2-  O235  1  0.70500115  0.33272156  0.39481169  1
  O2-  O236  1  0.70599850  0.33385573  0.73031302  1
  O2-  O237  1  0.70260170  0.83503538  0.06325069  1
  O2-  O238  1  0.71103594  0.83992291  0.39141223  1
  O2-  O239  1  0.71076307  0.82947695  0.73644415  1
  O2-  O240  1  0.46008754  0.41445035  0.26111110  1
  O2-  O241  1  0.46120114  0.41777162  0.59701522  1
  O2-  O242  1  0.45416513  0.41102706  0.93704200  1
  O2-  O243  1  0.45045348  0.91754142  0.26875045  1
  O2-  O244  1  0.44604667  0.91825875  0.60644934  1
  O2-  O245  1  0.44928703  0.91752597  0.93729770  1
  O2-  O246  1  0.95521459  0.41490302  0.26884995  1
  O2-  O247  1  0.95617199  0.41985559  0.59637577  1
  O2-  O248  1  0.95118115  0.41499333  0.94370090  1
  O2-  O249  1  0.96519109  0.91586373  0.26124518  1
  O2-  O250  1  0.96202789  0.91679493  0.59949661  1
  O2-  O251  1  0.96382310  0.91444720  0.93999242  1
  O2-  O252  1  0.33494156  0.28353786  0.26029601  1
  O2-  O253  1  0.33258646  0.29301459  0.59668989  1
  O2-  O254  1  0.33660773  0.28879632  0.93808938  1
  O2-  O255  1  0.32940499  0.79992346  0.27364994  1
  O2-  O256  1  0.33571816  0.79496608  0.60169864  1
  O2-  O257  1  0.32985946  0.79833609  0.94110669  1
  O2-  O258  1  0.83673610  0.29219111  0.26704744  1
  O2-  O259  1  0.83095263  0.29396388  0.59631451  1
  O2-  O260  1  0.83738621  0.28832286  0.94407569  1
  O2-  O261  1  0.83471492  0.79224025  0.26106084  1
  O2-  O262  1  0.83307229  0.79422200  0.59839590  1
  O2-  O263  1  0.83589717  0.80365205  0.93887035  1
  O2-  O264  1  0.41782168  0.04689358  0.06587257  1
  O2-  O265  1  0.41424058  0.04761569  0.39376798  1
  O2-  O266  1  0.41573641  0.04907798  0.72990271  1
  O2-  O267  1  0.41670306  0.53762982  0.06758728  1
  O2-  O268  1  0.41838194  0.53621185  0.40116082  1
  O2-  O269  1  0.41539335  0.54107612  0.72875099  1
  O2-  O270  1  0.91425583  0.03765277  0.07346075  1
  O2-  O271  1  0.91332977  0.03915992  0.39418327  1
  O2-  O272  1  0.91755108  0.04030064  0.73437629  1
  O2-  O273  1  0.91624069  0.54555725  0.07086421  1
  O2-  O274  1  0.91833887  0.54419502  0.40023324  1
  O2-  O275  1  0.91944730  0.55095440  0.72276869  1
  O2-  O276  1  0.29606312  0.16348704  0.06580390  1
  O2-  O277  1  0.28853453  0.16173510  0.39459740  1
  O2-  O278  1  0.29790407  0.16737768  0.72801915  1
  O2-  O279  1  0.29376025  0.66717730  0.06944305  1
  O2-  O280  1  0.29411028  0.66747290  0.40344304  1
  O2-  O281  1  0.30297362  0.66621219  0.72815615  1
  O2-  O282  1  0.78878204  0.16383227  0.07466164  1
  O2-  O283  1  0.79974915  0.16538890  0.39443925  1
  O2-  O284  1  0.79428628  0.17042396  0.73279536  1
  O2-  O285  1  0.79331102  0.67454131  0.06346468  1
  O2-  O286  1  0.78835716  0.67082715  0.39950879  1
  O2-  O287  1  0.79781898  0.66609387  0.72631573  1
