# generated using pymatgen
data_Ca2Al2SiO7
_symmetry_space_group_name_H-M   'P 1'
_cell_length_a   15.45414702
_cell_length_b   15.45505479
_cell_length_c   15.28058222
_cell_angle_alpha   90.00815487
_cell_angle_beta   89.99761558
_cell_angle_gamma   89.99175951
_symmetry_Int_Tables_number   1
_chemical_formula_structural   Ca2Al2SiO7
_chemical_formula_sum   'Ca48 Al48 Si24 O168'
_cell_volume   3649.68582970
_cell_formula_units_Z   24
loop_
 _symmetry_equiv_pos_site_id
 _symmetry_equiv_pos_as_xyz
  1  'x, y, z'
loop_
 _atom_type_symbol
 _atom_type_oxidation_number
  Ca2+  2.0
  Al0+  0.0
  Si0+  0.0
  O2-  -2.0
loop_
 _atom_site_type_symbol
 _atom_site_label
 _atom_site_symmetry_multiplicity
 _atom_site_fract_x
 _atom_site_fract_y
 _atom_site_fract_z
 _atom_site_occupancy
  Ca2+  Ca0  1  0.17602048  0.09064378  0.17012066  1
  Ca2+  Ca1  1  0.16976747  0.09060292  0.50418241  1
  Ca2+  Ca2  1  0.16493018  0.07937803  0.83582154  1
  Ca2+  Ca3  1  0.17708314  0.58654843  0.17081653  1
  Ca2+  Ca4  1  0.17178965  0.57469634  0.50517489  1
  Ca2+  Ca5  1  0.16866366  0.57968616  0.83934504  1
  Ca2+  Ca6  1  0.67098489  0.08117115  0.17317489  1
  Ca2+  Ca7  1  0.66213921  0.07595863  0.50312947  1
  Ca2+  Ca8  1  0.67468773  0.07521428  0.83844466  1
  Ca2+  Ca9  1  0.66585317  0.57762311  0.17242122  1
  Ca2+  Ca10  1  0.66860657  0.56737499  0.50453478  1
  Ca2+  Ca11  1  0.66512227  0.57975125  0.83538959  1
  Ca2+  Ca12  1  0.07353134  0.33002875  0.16348037  1
  Ca2+  Ca13  1  0.07922912  0.32767424  0.49568795  1
  Ca2+  Ca14  1  0.07312218  0.32934727  0.82234451  1
  Ca2+  Ca15  1  0.07873478  0.82607174  0.15731872  1
  Ca2+  Ca16  1  0.07890720  0.84052726  0.50166043  1
  Ca2+  Ca17  1  0.07805334  0.83374114  0.82749303  1
  Ca2+  Ca18  1  0.57532046  0.33323978  0.16779218  1
  Ca2+  Ca19  1  0.58380939  0.32859341  0.48918328  1
  Ca2+  Ca20  1  0.57643075  0.33496698  0.83099535  1
  Ca2+  Ca21  1  0.58519701  0.82704037  0.16216946  1
  Ca2+  Ca22  1  0.57862918  0.84069375  0.49718780  1
  Ca2+  Ca23  1  0.57946460  0.82853946  0.82592732  1
  Ca2+  Ca24  1  0.34389995  0.42533431  0.17139432  1
  Ca2+  Ca25  1  0.33250235  0.41925035  0.50302524  1
  Ca2+  Ca26  1  0.32368952  0.41661557  0.84172229  1
  Ca2+  Ca27  1  0.33597388  0.93211193  0.17204347  1
  Ca2+  Ca28  1  0.32842741  0.92489318  0.50800284  1
  Ca2+  Ca29  1  0.32910985  0.91922104  0.83593983  1
  Ca2+  Ca30  1  0.83042052  0.41196014  0.17342881  1
  Ca2+  Ca31  1  0.82690922  0.40454700  0.50345697  1
  Ca2+  Ca32  1  0.82853389  0.40598879  0.83612967  1
  Ca2+  Ca33  1  0.83140480  0.92009852  0.16939075  1
  Ca2+  Ca34  1  0.82124107  0.91502964  0.50836830  1
  Ca2+  Ca35  1  0.83718211  0.91867347  0.83897251  1
  Ca2+  Ca36  1  0.41589547  0.17326295  0.16509345  1
  Ca2+  Ca37  1  0.42167212  0.17359884  0.48694307  1
  Ca2+  Ca38  1  0.41249112  0.16862912  0.83459174  1
  Ca2+  Ca39  1  0.42107152  0.66159544  0.15854101  1
  Ca2+  Ca40  1  0.41216959  0.67253440  0.49854000  1
  Ca2+  Ca41  1  0.41948436  0.66747208  0.83262430  1
  Ca2+  Ca42  1  0.91530518  0.17423903  0.16292549  1
  Ca2+  Ca43  1  0.92915434  0.17389640  0.49465256  1
  Ca2+  Ca44  1  0.91766232  0.17247738  0.82659356  1
  Ca2+  Ca45  1  0.92444705  0.67286296  0.15426912  1
  Ca2+  Ca46  1  0.91388603  0.67197783  0.50127069  1
  Ca2+  Ca47  1  0.92134460  0.67793519  0.83128479  1
  Al0+  Al48  1  -0.00141954  0.00074930  0.00404098  1
  Al0+  Al49  1  0.00008648  -0.00033459  0.32741036  1
  Al0+  Al50  1  0.00173199  0.00013821  0.66123122  1
  Al0+  Al51  1  -0.00217887  0.49937339  -0.00832095  1
  Al0+  Al52  1  0.00122928  0.50335403  0.33000150  1
  Al0+  Al53  1  -0.00007143  0.50147587  0.66629350  1
  Al0+  Al54  1  0.49976369  -0.00054601  0.00468106  1
  Al0+  Al55  1  0.49854476  0.00024486  0.33643422  1
  Al0+  Al56  1  0.50081516  -0.00073445  0.66903612  1
  Al0+  Al57  1  0.49842884  0.49870893  -0.00643642  1
  Al0+  Al58  1  0.50218591  0.50249588  0.34162790  1
  Al0+  Al59  1  0.50249409  0.50114214  0.67076200  1
  Al0+  Al60  1  0.24858972  0.25007580  0.00057914  1
  Al0+  Al61  1  0.24962235  0.25288558  0.32957719  1
  Al0+  Al62  1  0.25163810  0.25292037  0.66855480  1
  Al0+  Al63  1  0.25098624  0.74825453  0.00100917  1
  Al0+  Al64  1  0.25026686  0.75113922  0.33779515  1
  Al0+  Al65  1  0.25171010  0.75247982  0.66643815  1
  Al0+  Al66  1  0.74777322  0.24671153  0.00168459  1
  Al0+  Al67  1  0.75010343  0.24784238  0.33076031  1
  Al0+  Al68  1  0.74831349  0.24914550  0.66904064  1
  Al0+  Al69  1  0.74885071  0.74675010  -0.00816244  1
  Al0+  Al70  1  0.74922112  0.75002370  0.33784923  1
  Al0+  Al71  1  0.74912781  0.74703595  0.66597501  1
  Al0+  Al72  1  0.17890426  0.93041205  0.67994180  1
  Al0+  Al73  1  0.92890527  0.32211685  0.31778830  1
  Al0+  Al74  1  0.32242043  0.57212298  0.34876613  1
  Al0+  Al75  1  0.92966635  0.82223844  0.98552726  1
  Al0+  Al76  1  0.57046427  0.17541964  0.31795160  1
  Al0+  Al77  1  0.68232394  0.42853515  0.34502990  1
  Al0+  Al78  1  0.07336070  0.17963313  0.65246435  1
  Al0+  Al79  1  0.82075095  0.07058347  0.01445447  1
  Al0+  Al80  1  0.32002520  0.56871301  0.01283280  1
  Al0+  Al81  1  0.68039200  0.92858239  0.34683928  1
  Al0+  Al82  1  0.43033738  0.32468791  0.32031181  1
  Al0+  Al83  1  0.42914299  0.31962960  0.98558471  1
  Al0+  Al84  1  0.31857136  0.07347121  0.34756190  1
  Al0+  Al85  1  0.56973008  0.67785968  0.98660007  1
  Al0+  Al86  1  0.67803888  0.92743606  0.68179885  1
  Al0+  Al87  1  0.92679609  0.32230049  0.65123010  1
  Al0+  Al88  1  0.68043924  0.42713618  0.68296883  1
  Al0+  Al89  1  0.07237648  0.17746758  0.31505808  1
  Al0+  Al90  1  0.92888686  0.82062509  0.65141466  1
  Al0+  Al91  1  0.17922450  0.42908875  0.68017085  1
  Al0+  Al92  1  0.07442022  0.67851144  0.98399049  1
  Al0+  Al93  1  0.92646603  0.31905059  0.98510539  1
  Al0+  Al94  1  0.32063627  0.07142147  0.01443600  1
  Al0+  Al95  1  0.43010347  0.82108595  0.65283036  1
  Si0+  Si96  1  0.42895574  0.82443498  0.98518221  1
  Si0+  Si97  1  0.17747840  0.92801373  0.34937127  1
  Si0+  Si98  1  0.57063452  0.68093270  0.32102460  1
  Si0+  Si99  1  0.07263181  0.68097183  0.31945522  1
  Si0+  Si100  1  0.82378660  0.07139473  0.35129712  1
  Si0+  Si101  1  0.17752923  0.92733979  0.01704823  1
  Si0+  Si102  1  0.57166673  0.67651481  0.64644560  1
  Si0+  Si103  1  0.07377069  0.67860659  0.64812926  1
  Si0+  Si104  1  0.56967990  0.17908107  0.65411392  1
  Si0+  Si105  1  0.32174622  0.57280829  0.68468725  1
  Si0+  Si106  1  0.67853869  0.42919528  0.01489081  1
  Si0+  Si107  1  0.43010149  0.32245606  0.65299554  1
  Si0+  Si108  1  0.92651190  0.81917387  0.31875585  1
  Si0+  Si109  1  0.82033926  0.57084501  0.01312288  1
  Si0+  Si110  1  0.07228207  0.17871678  0.98297996  1
  Si0+  Si111  1  0.67870276  0.92484856  0.01581238  1
  Si0+  Si112  1  0.57107781  0.17563314  0.98251164  1
  Si0+  Si113  1  0.82445744  0.57316979  0.34918850  1
  Si0+  Si114  1  0.82245336  0.57232393  0.68533247  1
  Si0+  Si115  1  0.32303442  0.07339796  0.68337537  1
  Si0+  Si116  1  0.82150133  0.06931933  0.68114014  1
  Si0+  Si117  1  0.17606529  0.43063632  0.34872831  1
  Si0+  Si118  1  0.17446515  0.42823423  0.01732687  1
  Si0+  Si119  1  0.42747361  0.82070512  0.31853964  1
  O2-  O120  1  0.24624045  -0.00405514  0.06128852  1
  O2-  O121  1  0.24083495  0.00163185  0.39347927  1
  O2-  O122  1  0.25194947  0.00654461  0.72668495  1
  O2-  O123  1  0.24371495  0.49675607  0.06186822  1
  O2-  O124  1  0.24912086  0.49529775  0.39307611  1
  O2-  O125  1  0.25330683  0.50401590  0.72818941  1
  O2-  O126  1  0.74781797  -0.00718634  0.05993105  1
  O2-  O127  1  0.75395014  0.00356087  0.39528171  1
  O2-  O128  1  0.75666642  -0.00242927  0.72758013  1
  O2-  O129  1  0.75236886  0.49771431  0.05699987  1
  O2-  O130  1  0.76253451  0.49782429  0.39194924  1
  O2-  O131  1  0.75857565  0.49865370  0.72936860  1
  O2-  O132  1  -0.00104037  0.24900235  0.26648984  1
  O2-  O133  1  0.00225347  0.25316518  0.60326319  1
  O2-  O134  1  0.00239340  0.24581238  0.93879803  1
  O2-  O135  1  -0.00012312  0.75034908  0.27727553  1
  O2-  O136  1  0.00444639  0.74687329  0.60331496  1
  O2-  O137  1  0.00511845  0.75389887  0.93547276  1
  O2-  O138  1  0.49919403  0.24951610  0.26978664  1
  O2-  O139  1  0.50010066  0.25097897  0.61116838  1
  O2-  O140  1  0.50068786  0.24222590  0.93777283  1
  O2-  O141  1  0.49897471  0.75010282  0.27655608  1
  O2-  O142  1  0.50484107  0.74745827  0.60315173  1
  O2-  O143  1  0.49708368  0.75515266  0.94125673  1
  O2-  O144  1  0.07280889  0.18121614  0.08846961  1
  O2-  O145  1  0.07173385  0.17835569  0.42860008  1
  O2-  O146  1  0.07143396  0.17892750  0.76629885  1
  O2-  O147  1  0.07249439  0.67989739  0.09858640  1
  O2-  O148  1  0.07278731  0.68085036  0.42431448  1
  O2-  O149  1  0.07368210  0.67992467  0.75357271  1
  O2-  O150  1  0.57188750  0.17633978  0.08789757  1
  O2-  O151  1  0.56879571  0.17582786  0.43232252  1
  O2-  O152  1  0.56861911  0.17917196  0.75939111  1
  O2-  O153  1  0.57023729  0.67791704  0.10047591  1
  O2-  O154  1  0.57111016  0.68221409  0.42566251  1
  O2-  O155  1  0.56924189  0.67533695  0.75227859  1
  O2-  O156  1  0.17161190  0.43594781  0.24335205  1
  O2-  O157  1  0.18288704  0.43032357  0.56683438  1
  O2-  O158  1  0.17681209  0.42885450  0.91151418  1
  O2-  O159  1  0.18136416  0.92246908  0.24395455  1
  O2-  O160  1  0.18181759  0.92973879  0.56688877  1
  O2-  O161  1  0.17794332  0.92846985  0.91138954  1
  O2-  O162  1  0.67970538  0.43448590  0.23161486  1
  O2-  O163  1  0.67813659  0.42800897  0.56991514  1
  O2-  O164  1  0.67903065  0.43005503  0.90970847  1
  O2-  O165  1  0.68442589  0.92266995  0.23374434  1
  O2-  O166  1  0.67679970  0.93169131  0.56860676  1
  O2-  O167  1  0.67728548  0.92645230  0.91030631  1
  O2-  O168  1  0.43381388  0.32319213  0.09820733  1
  O2-  O169  1  0.43307629  0.32413332  0.43452654  1
  O2-  O170  1  0.43008396  0.32097283  0.75828164  1
  O2-  O171  1  0.43145096  0.82526228  0.09111290  1
  O2-  O172  1  0.42745476  0.82002512  0.42363480  1
  O2-  O173  1  0.43127697  0.81999441  0.76607966  1
  O2-  O174  1  0.92634419  0.31962686  0.09804638  1
  O2-  O175  1  0.93077479  0.32145855  0.43111607  1
  O2-  O176  1  0.92601189  0.31704329  0.76497678  1
  O2-  O177  1  0.92866632  0.81776225  0.09987811  1
  O2-  O178  1  0.92548517  0.81774042  0.42378028  1
  O2-  O179  1  0.93039444  0.81983000  0.76411785  1
  O2-  O180  1  0.32000186  0.06955686  0.23434924  1
  O2-  O181  1  0.32460408  0.07287952  0.57780071  1
  O2-  O182  1  0.32039526  0.06896966  0.90122227  1
  O2-  O183  1  0.32197241  0.57424991  0.23553128  1
  O2-  O184  1  0.32144708  0.57153965  0.57877014  1
  O2-  O185  1  0.32079461  0.56642879  0.89989741  1
  O2-  O186  1  0.82263736  0.06811315  0.24538677  1
  O2-  O187  1  0.81792303  0.06919999  0.57568217  1
  O2-  O188  1  0.81845370  0.07078899  0.90111029  1
  O2-  O189  1  0.82164539  0.57836830  0.24341978  1
  O2-  O190  1  0.81873955  0.57527838  0.57952290  1
  O2-  O191  1  0.81799507  0.57200283  0.90843552  1
  O2-  O192  1  0.04675306  0.07791826  0.26148752  1
  O2-  O193  1  0.04624867  0.08228779  0.59705588  1
  O2-  O194  1  0.04815994  0.08319373  0.94099859  1
  O2-  O195  1  0.04768698  0.59011733  0.26919809  1
  O2-  O196  1  0.04744256  0.58550996  0.60124162  1
  O2-  O197  1  0.04283582  0.58223663  0.92946667  1
  O2-  O198  1  0.54109433  0.07733966  0.26463895  1
  O2-  O199  1  0.54170425  0.08758486  0.60651877  1
  O2-  O200  1  0.54659159  0.08084271  0.93788942  1
  O2-  O201  1  0.54325721  0.58913053  0.27421636  1
  O2-  O202  1  0.54273010  0.58330379  0.60054787  1
  O2-  O203  1  0.53578924  0.58460374  0.92859368  1
  O2-  O204  1  0.16995688  0.20793687  0.26224505  1
  O2-  O205  1  0.17268132  0.20932016  0.60107710  1
  O2-  O206  1  0.16529982  0.20356486  0.93596022  1
  O2-  O207  1  0.16381918  0.71181674  0.27179675  1
  O2-  O208  1  0.16729178  0.70487710  0.60269575  1
  O2-  O209  1  0.17402961  0.70303825  0.93177676  1
  O2-  O210  1  0.66931471  0.20152027  0.26591495  1
  O2-  O211  1  0.66125382  0.20566656  0.60643525  1
  O2-  O212  1  0.66303897  0.20391020  0.93524230  1
  O2-  O213  1  0.66250234  0.70938382  0.27280327  1
  O2-  O214  1  0.66618054  0.69810451  0.60184196  1
  O2-  O215  1  0.66487201  0.70488613  0.92827562  1
  O2-  O216  1  0.07964127  0.45431199  0.06054890  1
  O2-  O217  1  0.08493623  0.46235282  0.39754114  1
  O2-  O218  1  0.08150495  0.45833061  0.73297794  1
  O2-  O219  1  0.08400984  0.95123050  0.06430247  1
  O2-  O220  1  0.08062872  0.94818347  0.39123128  1
  O2-  O221  1  0.08133326  0.95903881  0.73327592  1
  O2-  O222  1  0.58782577  0.46233462  0.06021927  1
  O2-  O223  1  0.58986608  0.46492990  0.40366005  1
  O2-  O224  1  0.58501875  0.46247097  0.73818730  1
  O2-  O225  1  0.58557090  0.95022688  0.06332536  1
  O2-  O226  1  0.58307475  0.95791168  0.40021813  1
  O2-  O227  1  0.58353018  0.96156973  0.73771441  1
  O2-  O228  1  0.19944255  0.33437534  0.06213221  1
  O2-  O229  1  0.19841837  0.33590717  0.39245799  1
  O2-  O230  1  0.21203873  0.33444434  0.73731155  1
  O2-  O231  1  0.20258792  0.83320060  0.06261517  1
  O2-  O232  1  0.20720675  0.83737529  0.39949362  1
  O2-  O233  1  0.21182523  0.83446862  0.73462728  1
  O2-  O234  1  0.70274027  0.33617272  0.06100711  1
  O2-  O235  1  0.70723509  0.32980447  0.39807404  1
  O2-  O236  1  0.70648074  0.32978167  0.73855513  1
  O2-  O237  1  0.70407154  0.82977099  0.05935378  1
  O2-  O238  1  0.71152816  0.83308088  0.40417598  1
  O2-  O239  1  0.70321731  0.82770965  0.73122876  1
  O2-  O240  1  0.46455175  0.42305137  0.26947911  1
  O2-  O241  1  0.45812220  0.41535137  0.60835180  1
  O2-  O242  1  0.46296343  0.41284660  0.92750407  1
  O2-  O243  1  0.45617792  0.91199582  0.27163290  1
  O2-  O244  1  0.46133830  0.91819059  0.59922202  1
  O2-  O245  1  0.45482851  0.91728444  0.93776951  1
  O2-  O246  1  0.95572178  0.42260317  0.26603700  1
  O2-  O247  1  0.94959804  0.42348140  0.60185071  1
  O2-  O248  1  0.95217408  0.41616709  0.93015771  1
  O2-  O249  1  0.95134135  0.91118727  0.27073995  1
  O2-  O250  1  0.95857342  0.91617275  0.59539942  1
  O2-  O251  1  0.95455276  0.92242909  0.93515644  1
  O2-  O252  1  0.33076817  0.30318575  0.26795165  1
  O2-  O253  1  0.33848286  0.29676674  0.60516826  1
  O2-  O254  1  0.33110130  0.29056347  0.93310248  1
  O2-  O255  1  0.33582121  0.79237272  0.27154305  1
  O2-  O256  1  0.33425317  0.79017116  0.59700141  1
  O2-  O257  1  0.33506185  0.79883531  0.94062703  1
  O2-  O258  1  0.83027604  0.29429638  0.26526117  1
  O2-  O259  1  0.82816046  0.29007668  0.60066597  1
  O2-  O260  1  0.82939443  0.28565561  0.93330179  1
  O2-  O261  1  0.83575663  0.78809803  0.27127015  1
  O2-  O262  1  0.83232123  0.78635924  0.59808427  1
  O2-  O263  1  0.83304658  0.79057301  0.93125284  1
  O2-  O264  1  0.41717514  0.04073071  0.07001884  1
  O2-  O265  1  0.41365077  0.03904493  0.40233254  1
  O2-  O266  1  0.41481237  0.04423507  0.73114260  1
  O2-  O267  1  0.41713151  0.53494353  0.06563176  1
  O2-  O268  1  0.41795912  0.54471202  0.40613227  1
  O2-  O269  1  0.41622805  0.54840868  0.72911098  1
  O2-  O270  1  0.91711576  0.04307594  0.07112883  1
  O2-  O271  1  0.91801367  0.04396143  0.39495961  1
  O2-  O272  1  0.91631418  0.04631905  0.72504513  1
  O2-  O273  1  0.91393516  0.54639032  0.05896879  1
  O2-  O274  1  0.92048632  0.55591870  0.39351022  1
  O2-  O275  1  0.91871476  0.55529094  0.72839205  1
  O2-  O276  1  0.28968165  0.16826730  0.06819668  1
  O2-  O277  1  0.29268437  0.17241857  0.39964340  1
  O2-  O278  1  0.30028878  0.16764927  0.72908997  1
  O2-  O279  1  0.29520695  0.66722387  0.06774403  1
  O2-  O280  1  0.28813621  0.66749437  0.40396941  1
  O2-  O281  1  0.29630445  0.66658583  0.72970775  1
  O2-  O282  1  0.78508835  0.16476699  0.07114363  1
  O2-  O283  1  0.79992337  0.16544558  0.39581272  1
  O2-  O284  1  0.79102397  0.16067518  0.72929775  1
  O2-  O285  1  0.78987707  0.66192866  0.06146876  1
  O2-  O286  1  0.79108015  0.66264811  0.39960836  1
  O2-  O287  1  0.79036898  0.66310944  0.73369345  1
