# generated using pymatgen
data_Ca2Al2SiO7
_symmetry_space_group_name_H-M   'P 1'
_cell_length_a   15.45600474
_cell_length_b   15.45588937
_cell_length_c   15.28196918
_cell_angle_alpha   90.00058553
_cell_angle_beta   89.99324686
_cell_angle_gamma   90.00141268
_symmetry_Int_Tables_number   1
_chemical_formula_structural   Ca2Al2SiO7
_chemical_formula_sum   'Ca48 Al48 Si24 O168'
_cell_volume   3650.65303909
_cell_formula_units_Z   24
loop_
 _symmetry_equiv_pos_site_id
 _symmetry_equiv_pos_as_xyz
  1  'x, y, z'
loop_
 _atom_type_symbol
 _atom_type_oxidation_number
  Ca2+  2.0
  Al0+  0.0
  Si0+  0.0
  O2-  -2.0
loop_
 _atom_site_type_symbol
 _atom_site_label
 _atom_site_symmetry_multiplicity
 _atom_site_fract_x
 _atom_site_fract_y
 _atom_site_fract_z
 _atom_site_occupancy
  Ca2+  Ca0  1  0.17072713  0.07594747  0.17663446  1
  Ca2+  Ca1  1  0.17580293  0.08084561  0.50255038  1
  Ca2+  Ca2  1  0.17440519  0.08643224  0.83570994  1
  Ca2+  Ca3  1  0.17022948  0.58753042  0.16872954  1
  Ca2+  Ca4  1  0.16958777  0.58867636  0.49716855  1
  Ca2+  Ca5  1  0.17208352  0.57902837  0.84524739  1
  Ca2+  Ca6  1  0.66856532  0.07470002  0.16362118  1
  Ca2+  Ca7  1  0.66275321  0.07844841  0.50183560  1
  Ca2+  Ca8  1  0.66808490  0.08161123  0.84334377  1
  Ca2+  Ca9  1  0.68088822  0.58538589  0.17164744  1
  Ca2+  Ca10  1  0.67152038  0.58692012  0.49824968  1
  Ca2+  Ca11  1  0.67369267  0.57253569  0.84523716  1
  Ca2+  Ca12  1  0.07355035  0.33857294  0.16140532  1
  Ca2+  Ca13  1  0.07395504  0.33402187  0.49529288  1
  Ca2+  Ca14  1  0.07281345  0.34105651  0.83383824  1
  Ca2+  Ca15  1  0.08264505  0.82452813  0.15918470  1
  Ca2+  Ca16  1  0.07928120  0.83182508  0.49337566  1
  Ca2+  Ca17  1  0.07060409  0.82914351  0.83217850  1
  Ca2+  Ca18  1  0.58541395  0.32744729  0.15712027  1
  Ca2+  Ca19  1  0.57843134  0.32634779  0.49917153  1
  Ca2+  Ca20  1  0.58620553  0.32231594  0.82935524  1
  Ca2+  Ca21  1  0.58869254  0.83261298  0.16599775  1
  Ca2+  Ca22  1  0.57828125  0.83145708  0.49369906  1
  Ca2+  Ca23  1  0.57973165  0.83403626  0.82989738  1
  Ca2+  Ca24  1  0.32705997  0.42737855  0.16850996  1
  Ca2+  Ca25  1  0.33701171  0.42132016  0.50464343  1
  Ca2+  Ca26  1  0.32783042  0.41808901  0.84286412  1
  Ca2+  Ca27  1  0.32527582  0.92255381  0.17724347  1
  Ca2+  Ca28  1  0.33088102  0.92291454  0.50344221  1
  Ca2+  Ca29  1  0.33829845  0.91994355  0.83298734  1
  Ca2+  Ca30  1  0.83521754  0.42174428  0.16684675  1
  Ca2+  Ca31  1  0.84219596  0.42163550  0.50051295  1
  Ca2+  Ca32  1  0.83154552  0.41732226  0.84511433  1
  Ca2+  Ca33  1  0.82662600  0.91430684  0.16806416  1
  Ca2+  Ca34  1  0.82634079  0.91050601  0.50418186  1
  Ca2+  Ca35  1  0.83002070  0.92000137  0.84566117  1
  Ca2+  Ca36  1  0.42113812  0.16395456  0.16063789  1
  Ca2+  Ca37  1  0.41408507  0.16447929  0.50068246  1
  Ca2+  Ca38  1  0.42867446  0.16992239  0.82331961  1
  Ca2+  Ca39  1  0.41951677  0.66051650  0.16441851  1
  Ca2+  Ca40  1  0.42052464  0.67130669  0.49042025  1
  Ca2+  Ca41  1  0.41604550  0.67055489  0.82942561  1
  Ca2+  Ca42  1  0.90991511  0.17595999  0.15932345  1
  Ca2+  Ca43  1  0.91234682  0.18120887  0.49535426  1
  Ca2+  Ca44  1  0.90880496  0.17792556  0.83242054  1
  Ca2+  Ca45  1  0.92530377  0.66447722  0.15853197  1
  Ca2+  Ca46  1  0.92187461  0.67023760  0.49047834  1
  Ca2+  Ca47  1  0.91471332  0.67307567  0.83534372  1
  Al0+  Al48  1  0.00116834  0.00127183  -0.00024017  1
  Al0+  Al49  1  -0.00145574  0.00287531  0.33864656  1
  Al0+  Al50  1  -0.00055582  -0.00091157  0.66306647  1
  Al0+  Al51  1  0.00169749  0.49942376  -0.00263794  1
  Al0+  Al52  1  -0.00066859  0.50153356  0.32987128  1
  Al0+  Al53  1  0.00150673  0.50109152  0.66391211  1
  Al0+  Al54  1  0.50098553  0.00003674  -0.00042032  1
  Al0+  Al55  1  0.50102056  0.00055133  0.33974911  1
  Al0+  Al56  1  0.49961474  -0.00219753  0.66333493  1
  Al0+  Al57  1  0.49889140  0.49931954  0.00532393  1
  Al0+  Al58  1  0.50041325  0.49958308  0.33296804  1
  Al0+  Al59  1  0.50233805  0.49826646  0.66554934  1
  Al0+  Al60  1  0.24949278  0.25134108  0.00538520  1
  Al0+  Al61  1  0.24920194  0.25102661  0.33632299  1
  Al0+  Al62  1  0.25011077  0.25029586  0.66896975  1
  Al0+  Al63  1  0.25113041  0.75103064  -0.00244472  1
  Al0+  Al64  1  0.24923123  0.75097813  0.33803440  1
  Al0+  Al65  1  0.24981304  0.75052386  0.66454681  1
  Al0+  Al66  1  0.74949326  0.24778834  -0.00074336  1
  Al0+  Al67  1  0.74692958  0.25041414  0.32905952  1
  Al0+  Al68  1  0.74976730  0.24960616  0.65647113  1
  Al0+  Al69  1  0.74814207  0.74922064  0.00182421  1
  Al0+  Al70  1  0.74879535  0.74929698  0.33908396  1
  Al0+  Al71  1  0.75157295  0.74928594  0.66578327  1
  Al0+  Al72  1  0.07131336  0.68236857  0.31900534  1
  Al0+  Al73  1  0.07281351  0.67865672  0.98312681  1
  Al0+  Al74  1  0.17618588  0.92805667  0.34903533  1
  Al0+  Al75  1  0.68189852  0.92927192  0.34950957  1
  Al0+  Al76  1  0.42900776  0.81902201  0.65210759  1
  Al0+  Al77  1  0.42733853  0.32159955  0.65263350  1
  Al0+  Al78  1  0.32124273  0.57414080  0.01454657  1
  Al0+  Al79  1  0.32054904  0.06970160  0.68332231  1
  Al0+  Al80  1  0.92894546  0.32041483  0.31693532  1
  Al0+  Al81  1  0.93047503  0.31899664  0.98653555  1
  Al0+  Al82  1  0.32211123  0.56990068  0.34887793  1
  Al0+  Al83  1  0.92698070  0.82201298  0.98717392  1
  Al0+  Al84  1  0.82123738  0.57117014  0.01374261  1
  Al0+  Al85  1  0.57095886  0.67899872  0.31871821  1
  Al0+  Al86  1  0.57103513  0.17777856  0.64908276  1
  Al0+  Al87  1  0.93013805  0.32130661  0.65240066  1
  Al0+  Al88  1  0.32130693  0.07243208  0.34914818  1
  Al0+  Al89  1  0.82149346  0.56857827  0.34805350  1
  Al0+  Al90  1  0.67723388  0.92808760  0.01373285  1
  Al0+  Al91  1  0.56896796  0.17911315  0.98706889  1
  Al0+  Al92  1  0.92815076  0.82139072  0.65191505  1
  Al0+  Al93  1  0.82321224  0.07092942  0.01322324  1
  Al0+  Al94  1  0.17814806  0.42837953  0.01585864  1
  Al0+  Al95  1  0.67886417  0.42612697  0.01401488  1
  Si0+  Si96  1  0.42952239  0.82149870  0.98629612  1
  Si0+  Si97  1  0.68020844  0.92834208  0.68199352  1
  Si0+  Si98  1  0.17921654  0.92972344  0.01229614  1
  Si0+  Si99  1  0.56855880  0.17789701  0.31575022  1
  Si0+  Si100  1  0.42652344  0.32260874  0.98554371  1
  Si0+  Si101  1  0.42721364  0.32168947  0.31690518  1
  Si0+  Si102  1  0.07318884  0.17723095  0.65027279  1
  Si0+  Si103  1  0.57070732  0.67684360  0.98603393  1
  Si0+  Si104  1  0.07129227  0.67894645  0.64881919  1
  Si0+  Si105  1  0.67741441  0.42599797  0.35185752  1
  Si0+  Si106  1  0.92632620  0.82420631  0.31795169  1
  Si0+  Si107  1  0.42952920  0.82258179  0.31688484  1
  Si0+  Si108  1  0.17756765  0.42964851  0.35184138  1
  Si0+  Si109  1  0.82056442  0.07552427  0.35155522  1
  Si0+  Si110  1  0.82222219  0.57017994  0.68168680  1
  Si0+  Si111  1  0.57279279  0.67658437  0.65118106  1
  Si0+  Si112  1  0.17645318  0.92667666  0.68628973  1
  Si0+  Si113  1  0.07273239  0.17842349  0.31742961  1
  Si0+  Si114  1  0.07563797  0.17644443  0.98394690  1
  Si0+  Si115  1  0.82081526  0.07224543  0.67945603  1
  Si0+  Si116  1  0.32152905  0.07046642  0.01313124  1
  Si0+  Si117  1  0.17843696  0.43011968  0.68105952  1
  Si0+  Si118  1  0.68031327  0.42755042  0.67999274  1
  Si0+  Si119  1  0.32256657  0.57147590  0.68032307  1
  O2-  O120  1  0.24776026  0.00291748  0.05487740  1
  O2-  O121  1  0.24832617  0.00074917  0.39808964  1
  O2-  O122  1  0.24508441  -0.00436199  0.73125182  1
  O2-  O123  1  0.24797229  0.50331523  0.06412011  1
  O2-  O124  1  0.24792904  0.49569409  0.39794601  1
  O2-  O125  1  0.25308669  0.49873467  0.72167642  1
  O2-  O126  1  0.75459741  -0.00485620  0.06246137  1
  O2-  O127  1  0.75789017  0.00230242  0.39743827  1
  O2-  O128  1  0.75144960  -0.00022117  0.72253841  1
  O2-  O129  1  0.74907725  0.49934515  0.06429904  1
  O2-  O130  1  0.74748682  0.49327429  0.39659493  1
  O2-  O131  1  0.75173316  0.49809828  0.72249617  1
  O2-  O132  1  0.00256462  0.24395370  0.27167015  1
  O2-  O133  1  0.00353731  0.24508400  0.60599068  1
  O2-  O134  1  0.00577755  0.24404617  0.93971539  1
  O2-  O135  1  -0.00125519  0.76001886  0.27381962  1
  O2-  O136  1  0.00352305  0.74827597  0.60480999  1
  O2-  O137  1  -0.00262953  0.74872567  0.93540072  1
  O2-  O138  1  0.49614789  0.24842008  0.27498223  1
  O2-  O139  1  0.49621995  0.24798708  0.60007024  1
  O2-  O140  1  0.49604431  0.25563946  0.94052006  1
  O2-  O141  1  0.49538447  0.75256916  0.27063598  1
  O2-  O142  1  0.50191724  0.74249375  0.60653626  1
  O2-  O143  1  0.49949795  0.74853084  0.94452035  1
  O2-  O144  1  0.07844183  0.17570832  0.08930928  1
  O2-  O145  1  0.07325945  0.18134603  0.42321856  1
  O2-  O146  1  0.07326551  0.17763900  0.75586764  1
  O2-  O147  1  0.07552532  0.68311939  0.09656725  1
  O2-  O148  1  0.06839796  0.68153768  0.43271561  1
  O2-  O149  1  0.07096073  0.67792118  0.75403472  1
  O2-  O150  1  0.56450712  0.17652001  0.10036000  1
  O2-  O151  1  0.56980046  0.17905385  0.42082517  1
  O2-  O152  1  0.57320537  0.17956159  0.76266941  1
  O2-  O153  1  0.57057183  0.67736545  0.09083078  1
  O2-  O154  1  0.56941769  0.68105080  0.43241916  1
  O2-  O155  1  0.57286915  0.67662827  0.75704672  1
  O2-  O156  1  0.17920189  0.42917289  0.24666413  1
  O2-  O157  1  0.17587144  0.43200538  0.57604991  1
  O2-  O158  1  0.18164278  0.42709385  0.90136466  1
  O2-  O159  1  0.17890860  0.92961309  0.23466208  1
  O2-  O160  1  0.17704743  0.92698029  0.58103097  1
  O2-  O161  1  0.18110504  0.93030913  0.90708738  1
  O2-  O162  1  0.67749121  0.42499230  0.24661964  1
  O2-  O163  1  0.67909144  0.42936083  0.57503600  1
  O2-  O164  1  0.67995661  0.42759334  0.89937427  1
  O2-  O165  1  0.68079924  0.93104340  0.23681881  1
  O2-  O166  1  0.68168879  0.92714147  0.57685703  1
  O2-  O167  1  0.67349107  0.93060521  0.89962927  1
  O2-  O168  1  0.42555636  0.31893963  0.09131183  1
  O2-  O169  1  0.42884283  0.32233956  0.42207972  1
  O2-  O170  1  0.42959702  0.32274231  0.76612688  1
  O2-  O171  1  0.42827372  0.82448704  0.09094926  1
  O2-  O172  1  0.43220916  0.82134005  0.42267534  1
  O2-  O173  1  0.43101681  0.81768771  0.76593974  1
  O2-  O174  1  0.93097366  0.31757639  0.09930712  1
  O2-  O175  1  0.93146064  0.31969551  0.43072975  1
  O2-  O176  1  0.92928979  0.32225811  0.76512519  1
  O2-  O177  1  0.93045413  0.82320866  0.10055765  1
  O2-  O178  1  0.92666219  0.82025754  0.42406921  1
  O2-  O179  1  0.92607749  0.82039173  0.76457316  1
  O2-  O180  1  0.32110955  0.07051567  0.23469180  1
  O2-  O181  1  0.31763555  0.06822077  0.57077841  1
  O2-  O182  1  0.32242124  0.06910904  0.90795691  1
  O2-  O183  1  0.32237579  0.56800452  0.23646119  1
  O2-  O184  1  0.32169716  0.57156739  0.57533599  1
  O2-  O185  1  0.32219346  0.57309182  0.89999376  1
  O2-  O186  1  0.81837821  0.07705226  0.24635465  1
  O2-  O187  1  0.81878077  0.07218592  0.57428570  1
  O2-  O188  1  0.82003706  0.07201499  0.89882575  1
  O2-  O189  1  0.82186229  0.56853011  0.23574049  1
  O2-  O190  1  0.82199493  0.57028706  0.57654459  1
  O2-  O191  1  0.81757810  0.57065457  0.89913254  1
  O2-  O192  1  0.04997275  0.08293006  0.27353749  1
  O2-  O193  1  0.04982728  0.08342145  0.60382809  1
  O2-  O194  1  0.05387792  0.08281574  0.93618468  1
  O2-  O195  1  0.03967432  0.58621555  0.26580500  1
  O2-  O196  1  0.04506282  0.58626957  0.60112862  1
  O2-  O197  1  0.04797024  0.57971821  0.93023643  1
  O2-  O198  1  0.54030696  0.08548394  0.27021385  1
  O2-  O199  1  0.54327397  0.07913163  0.59752637  1
  O2-  O200  1  0.53564617  0.08372035  0.93131669  1
  O2-  O201  1  0.54204739  0.58143747  0.26612579  1
  O2-  O202  1  0.55114756  0.58239601  0.60501084  1
  O2-  O203  1  0.54195148  0.58506644  0.93793220  1
  O2-  O204  1  0.16658149  0.20420329  0.27126190  1
  O2-  O205  1  0.16579589  0.20527814  0.60399024  1
  O2-  O206  1  0.16924272  0.20426296  0.93740103  1
  O2-  O207  1  0.16971150  0.71058220  0.26706323  1
  O2-  O208  1  0.16526564  0.70391689  0.60314731  1
  O2-  O209  1  0.17034268  0.71103494  0.92885749  1
  O2-  O210  1  0.65945816  0.20678009  0.26774659  1
  O2-  O211  1  0.66661451  0.20879886  0.59174787  1
  O2-  O212  1  0.66520859  0.20802225  0.93204526  1
  O2-  O213  1  0.66777205  0.71239569  0.26715941  1
  O2-  O214  1  0.66532232  0.70514830  0.60481330  1
  O2-  O215  1  0.66138247  0.70383390  0.93612516  1
  O2-  O216  1  0.07962611  0.45448448  0.06716390  1
  O2-  O217  1  0.08484237  0.45860758  0.39745988  1
  O2-  O218  1  0.08805702  0.46227949  0.72977448  1
  O2-  O219  1  0.08790185  0.95447800  0.06109847  1
  O2-  O220  1  0.07772405  0.95590343  0.40368484  1
  O2-  O221  1  0.08178634  0.95275753  0.73047638  1
  O2-  O222  1  0.57930687  0.44970089  0.06592948  1
  O2-  O223  1  0.58452265  0.45352140  0.39827792  1
  O2-  O224  1  0.58872845  0.45466778  0.72904376  1
  O2-  O225  1  0.58117843  0.96207334  0.06919125  1
  O2-  O226  1  0.58622442  0.96201122  0.40435295  1
  O2-  O227  1  0.58750408  0.95460236  0.72754661  1
  O2-  O228  1  0.20725748  0.33116889  0.07226223  1
  O2-  O229  1  0.20076292  0.33529025  0.39793739  1
  O2-  O230  1  0.20166831  0.33760766  0.72876224  1
  O2-  O231  1  0.21095710  0.83974716  0.05998119  1
  O2-  O232  1  0.20522744  0.83159755  0.40485330  1
  O2-  O233  1  0.20399729  0.83287268  0.73138329  1
  O2-  O234  1  0.70720809  0.32868364  0.06719444  1
  O2-  O235  1  0.70157742  0.33149083  0.39723262  1
  O2-  O236  1  0.70896802  0.33461068  0.72443318  1
  O2-  O237  1  0.69948807  0.82871944  0.06607922  1
  O2-  O238  1  0.71008832  0.83348953  0.40660364  1
  O2-  O239  1  0.70773787  0.83582776  0.72889546  1
  O2-  O240  1  0.45733682  0.41217025  0.26916923  1
  O2-  O241  1  0.45873537  0.41928164  0.59823961  1
  O2-  O242  1  0.44855933  0.41766963  0.94092163  1
  O2-  O243  1  0.45768522  0.91638571  0.27243089  1
  O2-  O244  1  0.46134268  0.91359279  0.59683635  1
  O2-  O245  1  0.46016863  0.91156203  0.93626955  1
  O2-  O246  1  0.96177325  0.41615489  0.26439160  1
  O2-  O247  1  0.96389730  0.41717066  0.59805592  1
  O2-  O248  1  0.96082778  0.41479528  0.93041841  1
  O2-  O249  1  0.94502783  0.92174927  0.27753265  1
  O2-  O250  1  0.95551977  0.91849770  0.59685047  1
  O2-  O251  1  0.95768888  0.92030547  0.93323387  1
  O2-  O252  1  0.33378944  0.29629170  0.27145272  1
  O2-  O253  1  0.32757270  0.29687177  0.60057941  1
  O2-  O254  1  0.33287341  0.29576812  0.93985973  1
  O2-  O255  1  0.33402608  0.80003088  0.27444882  1
  O2-  O256  1  0.33163099  0.79124326  0.59835860  1
  O2-  O257  1  0.33891516  0.79572048  0.93528862  1
  O2-  O258  1  0.83087612  0.29079605  0.26554617  1
  O2-  O259  1  0.83537176  0.29148904  0.59475016  1
  O2-  O260  1  0.83438823  0.28669571  0.93170522  1
  O2-  O261  1  0.83318659  0.79524477  0.27459510  1
  O2-  O262  1  0.83236616  0.78804813  0.59729266  1
  O2-  O263  1  0.82739118  0.79499051  0.93417685  1
  O2-  O264  1  0.41097982  0.03852621  0.06167314  1
  O2-  O265  1  0.41848099  0.04353811  0.40330286  1
  O2-  O266  1  0.41784564  0.03574022  0.73496131  1
  O2-  O267  1  0.41815299  0.54476327  0.06924816  1
  O2-  O268  1  0.41871873  0.53817690  0.40313765  1
  O2-  O269  1  0.41618303  0.54682785  0.72629016  1
  O2-  O270  1  0.92380797  0.05050994  0.06573112  1
  O2-  O271  1  0.91647503  0.05918472  0.39658284  1
  O2-  O272  1  0.91441868  0.04792943  0.72463971  1
  O2-  O273  1  0.92043909  0.54404841  0.06302776  1
  O2-  O274  1  0.91785203  0.53715024  0.40318133  1
  O2-  O275  1  0.91495346  0.54335318  0.72726856  1
  O2-  O276  1  0.29807747  0.16274481  0.06109363  1
  O2-  O277  1  0.29320523  0.17123225  0.40245669  1
  O2-  O278  1  0.29080859  0.16739058  0.73688670  1
  O2-  O279  1  0.29566637  0.67367484  0.06663503  1
  O2-  O280  1  0.29239170  0.66679299  0.40276742  1
  O2-  O281  1  0.29339701  0.66319639  0.72753210  1
  O2-  O282  1  0.78868531  0.16585736  0.06809677  1
  O2-  O283  1  0.78716992  0.16704318  0.39825954  1
  O2-  O284  1  0.79111688  0.16480498  0.72468515  1
  O2-  O285  1  0.79201963  0.66837492  0.06760305  1
  O2-  O286  1  0.78883020  0.66387920  0.40415285  1
  O2-  O287  1  0.79268528  0.66166411  0.72888919  1
