# generated using pymatgen
data_Ca2Al2SiO7
_symmetry_space_group_name_H-M   'P 1'
_cell_length_a   15.45519309
_cell_length_b   15.45520012
_cell_length_c   15.28132019
_cell_angle_alpha   89.98781059
_cell_angle_beta   90.00153586
_cell_angle_gamma   89.98223459
_symmetry_Int_Tables_number   1
_chemical_formula_structural   Ca2Al2SiO7
_chemical_formula_sum   'Ca48 Al48 Si24 O168'
_cell_volume   3650.14328612
_cell_formula_units_Z   24
loop_
 _symmetry_equiv_pos_site_id
 _symmetry_equiv_pos_as_xyz
  1  'x, y, z'
loop_
 _atom_type_symbol
 _atom_type_oxidation_number
  Ca2+  2.0
  Al0+  0.0
  Si0+  0.0
  O2-  -2.0
loop_
 _atom_site_type_symbol
 _atom_site_label
 _atom_site_symmetry_multiplicity
 _atom_site_fract_x
 _atom_site_fract_y
 _atom_site_fract_z
 _atom_site_occupancy
  Ca2+  Ca0  1  0.17963712  0.08814792  0.17418249  1
  Ca2+  Ca1  1  0.17519863  0.09083572  0.50555445  1
  Ca2+  Ca2  1  0.17568842  0.08593850  0.83814167  1
  Ca2+  Ca3  1  0.16507590  0.57451900  0.17302145  1
  Ca2+  Ca4  1  0.16421907  0.58518323  0.49942156  1
  Ca2+  Ca5  1  0.16134107  0.57873430  0.84215197  1
  Ca2+  Ca6  1  0.67278910  0.08753304  0.17033450  1
  Ca2+  Ca7  1  0.66342525  0.08560083  0.50589282  1
  Ca2+  Ca8  1  0.67015598  0.08588899  0.83838349  1
  Ca2+  Ca9  1  0.66889329  0.57955028  0.17162570  1
  Ca2+  Ca10  1  0.66502759  0.57681252  0.50476157  1
  Ca2+  Ca11  1  0.67286652  0.58984545  0.84073291  1
  Ca2+  Ca12  1  0.08789813  0.33325003  0.16153218  1
  Ca2+  Ca13  1  0.08392717  0.32653903  0.49784565  1
  Ca2+  Ca14  1  0.07278342  0.33310112  0.83026366  1
  Ca2+  Ca15  1  0.08268637  0.82087613  0.16582484  1
  Ca2+  Ca16  1  0.08171501  0.82435994  0.49214422  1
  Ca2+  Ca17  1  0.08780803  0.81965108  0.83041592  1
  Ca2+  Ca18  1  0.57680205  0.33343805  0.16449155  1
  Ca2+  Ca19  1  0.58515507  0.32207691  0.49284734  1
  Ca2+  Ca20  1  0.57416266  0.32852414  0.83023648  1
  Ca2+  Ca21  1  0.57516806  0.82527030  0.15719185  1
  Ca2+  Ca22  1  0.57726423  0.82980254  0.50103080  1
  Ca2+  Ca23  1  0.57611787  0.82646229  0.83176094  1
  Ca2+  Ca24  1  0.32390162  0.41888082  0.17354591  1
  Ca2+  Ca25  1  0.32638926  0.42227092  0.49799839  1
  Ca2+  Ca26  1  0.32375633  0.41382871  0.84323718  1
  Ca2+  Ca27  1  0.33750376  0.92447280  0.16882424  1
  Ca2+  Ca28  1  0.33666625  0.92654939  0.50633728  1
  Ca2+  Ca29  1  0.34340647  0.92448191  0.83583501  1
  Ca2+  Ca30  1  0.83130806  0.42006566  0.16716249  1
  Ca2+  Ca31  1  0.82892320  0.41016979  0.50169546  1
  Ca2+  Ca32  1  0.83502739  0.41704979  0.84223758  1
  Ca2+  Ca33  1  0.83601183  0.91961336  0.17029705  1
  Ca2+  Ca34  1  0.83470992  0.91441339  0.50223764  1
  Ca2+  Ca35  1  0.83113644  0.92583932  0.84274601  1
  Ca2+  Ca36  1  0.41718176  0.16803902  0.16207933  1
  Ca2+  Ca37  1  0.42374953  0.15918745  0.49513625  1
  Ca2+  Ca38  1  0.41328589  0.16898725  0.83003927  1
  Ca2+  Ca39  1  0.41924655  0.66702225  0.15609925  1
  Ca2+  Ca40  1  0.41370700  0.66990869  0.49673613  1
  Ca2+  Ca41  1  0.42517149  0.67712289  0.82673050  1
  Ca2+  Ca42  1  0.92403203  0.17284623  0.16031517  1
  Ca2+  Ca43  1  0.93011906  0.16968596  0.49528380  1
  Ca2+  Ca44  1  0.91753111  0.17736806  0.82694350  1
  Ca2+  Ca45  1  0.92473811  0.66261480  0.16214196  1
  Ca2+  Ca46  1  0.92837017  0.67171132  0.49355473  1
  Ca2+  Ca47  1  0.92713981  0.65737066  0.83247711  1
  Al0+  Al48  1  0.00200571  -0.00138111  0.00548333  1
  Al0+  Al49  1  0.00093978  0.00151337  0.32550022  1
  Al0+  Al50  1  0.00105722  0.00023666  0.66717610  1
  Al0+  Al51  1  -0.00166840  0.49779825  0.00192898  1
  Al0+  Al52  1  -0.00162731  0.49960131  0.33609232  1
  Al0+  Al53  1  -0.00229317  0.50029865  0.65729687  1
  Al0+  Al54  1  0.50169089  -0.00082562  0.00221389  1
  Al0+  Al55  1  0.50302980  -0.00036506  0.33168406  1
  Al0+  Al56  1  0.50040074  -0.00017094  0.66592734  1
  Al0+  Al57  1  0.50006793  0.49789689  -0.01021361  1
  Al0+  Al58  1  0.50028285  0.49907859  0.34280386  1
  Al0+  Al59  1  0.49941197  0.49939689  0.66617741  1
  Al0+  Al60  1  0.25085006  0.24892244  0.00419350  1
  Al0+  Al61  1  0.25161331  0.25179284  0.33970280  1
  Al0+  Al62  1  0.24901785  0.25211686  0.66971441  1
  Al0+  Al63  1  0.25000709  0.75141755  -0.00874371  1
  Al0+  Al64  1  0.24959726  0.75171573  0.33158131  1
  Al0+  Al65  1  0.25052225  0.75117261  0.65962606  1
  Al0+  Al66  1  0.75075174  0.25026850  0.00219149  1
  Al0+  Al67  1  0.75059727  0.24854228  0.33317303  1
  Al0+  Al68  1  0.74774207  0.25126826  0.66153063  1
  Al0+  Al69  1  0.75190560  0.75060782  0.00277497  1
  Al0+  Al70  1  0.74854133  0.75177990  0.33175000  1
  Al0+  Al71  1  0.74899454  0.74913258  0.66611949  1
  Al0+  Al72  1  0.06842817  0.67846557  0.98683176  1
  Al0+  Al73  1  0.43049378  0.82112000  0.64902085  1
  Al0+  Al74  1  0.82015698  0.57038145  0.01335366  1
  Al0+  Al75  1  0.57329709  0.67687827  0.98638203  1
  Al0+  Al76  1  0.07428270  0.18193961  0.31835686  1
  Al0+  Al77  1  0.82233123  0.07306517  0.01397872  1
  Al0+  Al78  1  0.42684295  0.31958932  0.98801536  1
  Al0+  Al79  1  0.17907134  0.43051439  0.01210532  1
  Al0+  Al80  1  0.92689411  0.82163006  0.31707888  1
  Al0+  Al81  1  0.57144789  0.17790827  0.31770169  1
  Al0+  Al82  1  0.92756360  0.32114718  0.64983155  1
  Al0+  Al83  1  0.57270820  0.67751456  0.64961287  1
  Al0+  Al84  1  0.32235291  0.06963373  0.34780373  1
  Al0+  Al85  1  0.56774349  0.18105330  0.65473326  1
  Al0+  Al86  1  0.42858121  0.82253705  0.98469586  1
  Al0+  Al87  1  0.32064313  0.07070078  0.68171489  1
  Al0+  Al88  1  0.07051005  0.67928094  0.65216345  1
  Al0+  Al89  1  0.32090054  0.06911311  0.01487501  1
  Al0+  Al90  1  0.67999052  0.42847366  0.34740757  1
  Al0+  Al91  1  0.92974014  0.31874180  0.98853852  1
  Al0+  Al92  1  0.32076377  0.57371664  0.34710969  1
  Al0+  Al93  1  0.07223068  0.17823662  0.65396354  1
  Al0+  Al94  1  0.17624506  0.42904469  0.35105245  1
  Al0+  Al95  1  0.07145327  0.67762343  0.31582153  1
  Si0+  Si96  1  0.82136744  0.07195837  0.67987763  1
  Si0+  Si97  1  0.57233755  0.17876361  0.98509110  1
  Si0+  Si98  1  0.81952659  0.56988386  0.68071396  1
  Si0+  Si99  1  0.07344949  0.17609525  0.98503266  1
  Si0+  Si100  1  0.67811616  0.42690119  0.68342148  1
  Si0+  Si101  1  0.67993511  0.92889211  0.01847981  1
  Si0+  Si102  1  0.92704638  0.82368380  0.65360824  1
  Si0+  Si103  1  0.67970358  0.92873336  0.34976234  1
  Si0+  Si104  1  0.92706324  0.32068614  0.31547823  1
  Si0+  Si105  1  0.92822814  0.82409054  0.98293526  1
  Si0+  Si106  1  0.42480643  0.32342220  0.64886979  1
  Si0+  Si107  1  0.82028732  0.57409415  0.35167930  1
  Si0+  Si108  1  0.32275747  0.57290257  0.01035896  1
  Si0+  Si109  1  0.82218683  0.07005254  0.34941710  1
  Si0+  Si110  1  0.17720130  0.92964978  0.34934282  1
  Si0+  Si111  1  0.17754537  0.43210295  0.68294915  1
  Si0+  Si112  1  0.43001331  0.32275447  0.31885006  1
  Si0+  Si113  1  0.67996756  0.92856454  0.68238527  1
  Si0+  Si114  1  0.17677493  0.92626030  0.68330628  1
  Si0+  Si115  1  0.56956781  0.67692457  0.31957116  1
  Si0+  Si116  1  0.17760803  0.92423500  0.01801661  1
  Si0+  Si117  1  0.43028412  0.82150604  0.31808851  1
  Si0+  Si118  1  0.67512681  0.42739049  0.01512538  1
  Si0+  Si119  1  0.32109648  0.57300542  0.68312979  1
  O2-  O120  1  0.24613136  -0.00590000  0.06105980  1
  O2-  O121  1  0.24503102  -0.00183713  0.39539543  1
  O2-  O122  1  0.24414268  -0.00335413  0.72750869  1
  O2-  O123  1  0.25485787  0.50531121  0.05684156  1
  O2-  O124  1  0.24512762  0.50588910  0.39890209  1
  O2-  O125  1  0.24882849  0.50309570  0.72581700  1
  O2-  O126  1  0.74915135  -0.00264744  0.06233281  1
  O2-  O127  1  0.75271743  -0.00230058  0.39257716  1
  O2-  O128  1  0.75242488  -0.00080940  0.72331952  1
  O2-  O129  1  0.74045499  0.49988475  0.05847931  1
  O2-  O130  1  0.75381252  0.50334262  0.39630979  1
  O2-  O131  1  0.74737003  0.50024244  0.72437498  1
  O2-  O132  1  0.00187218  0.25883684  0.27135647  1
  O2-  O133  1  -0.00048376  0.24832249  0.60225313  1
  O2-  O134  1  0.00090974  0.24094880  0.94128559  1
  O2-  O135  1  -0.00383119  0.74727368  0.26723707  1
  O2-  O136  1  -0.00197557  0.75789706  0.60936060  1
  O2-  O137  1  -0.00494301  0.75423445  0.93801301  1
  O2-  O138  1  0.49623192  0.25224668  0.27312994  1
  O2-  O139  1  0.49242872  0.25331044  0.60545759  1
  O2-  O140  1  0.50128183  0.24452639  0.94076757  1
  O2-  O141  1  0.49563767  0.74453224  0.27704151  1
  O2-  O142  1  0.49844770  0.74567111  0.59784382  1
  O2-  O143  1  0.49923614  0.74740818  0.93752232  1
  O2-  O144  1  0.07398884  0.17933691  0.09068485  1
  O2-  O145  1  0.07142809  0.18034534  0.43144909  1
  O2-  O146  1  0.07029896  0.17951017  0.76778416  1
  O2-  O147  1  0.06798664  0.67825313  0.09916591  1
  O2-  O148  1  0.06997511  0.68163619  0.42968999  1
  O2-  O149  1  0.06815821  0.67628409  0.76551517  1
  O2-  O150  1  0.57280650  0.18070506  0.09071354  1
  O2-  O151  1  0.57096560  0.17738053  0.43100804  1
  O2-  O152  1  0.57039381  0.18314137  0.76788994  1
  O2-  O153  1  0.57112503  0.67715592  0.10074317  1
  O2-  O154  1  0.57146950  0.67980473  0.42442852  1
  O2-  O155  1  0.57523827  0.68127621  0.76282336  1
  O2-  O156  1  0.17977452  0.42827069  0.23723277  1
  O2-  O157  1  0.17909077  0.43205128  0.57817677  1
  O2-  O158  1  0.17774782  0.43123469  0.89841004  1
  O2-  O159  1  0.18035475  0.92936109  0.24375388  1
  O2-  O160  1  0.17582467  0.92606639  0.57783543  1
  O2-  O161  1  0.17465179  0.92472482  0.91237450  1
  O2-  O162  1  0.67870760  0.43147469  0.23417535  1
  O2-  O163  1  0.68003682  0.42565099  0.57831507  1
  O2-  O164  1  0.67729585  0.42396968  0.90943069  1
  O2-  O165  1  0.67826564  0.92894924  0.24492869  1
  O2-  O166  1  0.68126422  0.92832046  0.57698960  1
  O2-  O167  1  0.68059285  0.93011343  0.91245009  1
  O2-  O168  1  0.42801638  0.32033962  0.10099985  1
  O2-  O169  1  0.43271663  0.32239144  0.42456746  1
  O2-  O170  1  0.42561621  0.32279677  0.75486423  1
  O2-  O171  1  0.43081193  0.82187248  0.09896189  1
  O2-  O172  1  0.43410328  0.82386306  0.42292951  1
  O2-  O173  1  0.43433103  0.82156192  0.76227038  1
  O2-  O174  1  0.92981386  0.31873510  0.10131311  1
  O2-  O175  1  0.92402250  0.31489395  0.42097148  1
  O2-  O176  1  0.92716726  0.32163386  0.76378640  1
  O2-  O177  1  0.92900717  0.82377217  0.08814654  1
  O2-  O178  1  0.92711598  0.82048929  0.43146955  1
  O2-  O179  1  0.92534850  0.82397555  0.75910528  1
  O2-  O180  1  0.32364713  0.06718442  0.23460463  1
  O2-  O181  1  0.32194700  0.06851124  0.56864031  1
  O2-  O182  1  0.31989423  0.06988470  0.90163610  1
  O2-  O183  1  0.32524009  0.57115405  0.23326871  1
  O2-  O184  1  0.32075382  0.57096315  0.57815042  1
  O2-  O185  1  0.32003800  0.57055888  0.90451378  1
  O2-  O186  1  0.81946264  0.07038857  0.24432977  1
  O2-  O187  1  0.82066412  0.06989903  0.57474265  1
  O2-  O188  1  0.81887838  0.07237303  0.90002947  1
  O2-  O189  1  0.81793851  0.57420567  0.24598994  1
  O2-  O190  1  0.81784680  0.57058771  0.57580331  1
  O2-  O191  1  0.82153605  0.56728006  0.89965329  1
  O2-  O192  1  0.04272401  0.08657212  0.26310869  1
  O2-  O193  1  0.04647791  0.07890228  0.60103527  1
  O2-  O194  1  0.05267039  0.08011504  0.94239450  1
  O2-  O195  1  0.04336674  0.57725985  0.26701860  1
  O2-  O196  1  0.03557714  0.58655985  0.59479086  1
  O2-  O197  1  0.03374209  0.58305601  0.93285927  1
  O2-  O198  1  0.54294173  0.08106831  0.26332042  1
  O2-  O199  1  0.54138945  0.08370672  0.60066880  1
  O2-  O200  1  0.55104102  0.08366362  0.94126327  1
  O2-  O201  1  0.54491429  0.58327620  0.27515913  1
  O2-  O202  1  0.54744414  0.57683785  0.60035475  1
  O2-  O203  1  0.55083861  0.57887463  0.93026698  1
  O2-  O204  1  0.17256680  0.21143872  0.26714828  1
  O2-  O205  1  0.16975789  0.21000932  0.60156682  1
  O2-  O206  1  0.16549544  0.20552116  0.93887251  1
  O2-  O207  1  0.16974848  0.70848339  0.26357468  1
  O2-  O208  1  0.16671826  0.70730067  0.59746943  1
  O2-  O209  1  0.16448135  0.70731205  0.93033289  1
  O2-  O210  1  0.66839471  0.20924968  0.26517631  1
  O2-  O211  1  0.66287560  0.21199656  0.59784447  1
  O2-  O212  1  0.66489918  0.20662065  0.93831969  1
  O2-  O213  1  0.66025134  0.70773100  0.27184451  1
  O2-  O214  1  0.67039246  0.70857424  0.59615104  1
  O2-  O215  1  0.67165842  0.70922927  0.93478337  1
  O2-  O216  1  0.08403700  0.46116512  0.06772498  1
  O2-  O217  1  0.07595498  0.45201787  0.40333939  1
  O2-  O218  1  0.08380284  0.46116305  0.72622634  1
  O2-  O219  1  0.08421922  0.94674332  0.06599298  1
  O2-  O220  1  0.08217941  0.95410790  0.39304320  1
  O2-  O221  1  0.08223767  0.94848000  0.73062085  1
  O2-  O222  1  0.57989644  0.45027290  0.05932061  1
  O2-  O223  1  0.58540431  0.45747102  0.40594679  1
  O2-  O224  1  0.58427015  0.45088700  0.72916658  1
  O2-  O225  1  0.58724063  0.95480675  0.06611951  1
  O2-  O226  1  0.58967692  0.95964958  0.39886116  1
  O2-  O227  1  0.58975656  0.95913011  0.73044281  1
  O2-  O228  1  0.21043880  0.33466257  0.06667150  1
  O2-  O229  1  0.21089269  0.33387186  0.40730619  1
  O2-  O230  1  0.20481638  0.34060355  0.73164035  1
  O2-  O231  1  0.20580339  0.83071981  0.06334063  1
  O2-  O232  1  0.20264397  0.83598332  0.39528584  1
  O2-  O233  1  0.20452512  0.83234438  0.72857125  1
  O2-  O234  1  0.70408447  0.33591282  0.06361932  1
  O2-  O235  1  0.71282373  0.33162192  0.40132471  1
  O2-  O236  1  0.70793935  0.33575824  0.73146939  1
  O2-  O237  1  0.70516328  0.83576794  0.06579186  1
  O2-  O238  1  0.70510650  0.83650620  0.39870424  1
  O2-  O239  1  0.70755920  0.83690413  0.73066150  1
  O2-  O240  1  0.45938100  0.41575964  0.27357880  1
  O2-  O241  1  0.45144666  0.41652649  0.60352003  1
  O2-  O242  1  0.45555785  0.41371688  0.92777831  1
  O2-  O243  1  0.46623304  0.90960437  0.26873584  1
  O2-  O244  1  0.46499167  0.91742506  0.59586197  1
  O2-  O245  1  0.46332073  0.91956710  0.93198317  1
  O2-  O246  1  0.94362247  0.41821428  0.27545871  1
  O2-  O247  1  0.95475713  0.41778877  0.59396323  1
  O2-  O248  1  0.96253372  0.41339455  0.93259905  1
  O2-  O249  1  0.95532768  0.91924230  0.26302721  1
  O2-  O250  1  0.94855329  0.91789779  0.60692020  1
  O2-  O251  1  0.95432982  0.91821888  0.93731038  1
  O2-  O252  1  0.33558790  0.29901188  0.27510329  1
  O2-  O253  1  0.33068459  0.30034562  0.60452190  1
  O2-  O254  1  0.33146154  0.28672021  0.93221509  1
  O2-  O255  1  0.33625718  0.80192558  0.27256239  1
  O2-  O256  1  0.33154856  0.79721150  0.59579398  1
  O2-  O257  1  0.33063097  0.79999238  0.92892225  1
  O2-  O258  1  0.83639606  0.28847800  0.26759109  1
  O2-  O259  1  0.82986915  0.29197782  0.59659885  1
  O2-  O260  1  0.83213979  0.29039063  0.93406772  1
  O2-  O261  1  0.82635720  0.79771292  0.26521304  1
  O2-  O262  1  0.83478592  0.79576725  0.60611500  1
  O2-  O263  1  0.83337248  0.80188363  0.93857808  1
  O2-  O264  1  0.41879662  0.04009215  0.06808473  1
  O2-  O265  1  0.41918974  0.03465077  0.39983650  1
  O2-  O266  1  0.41776648  0.03837308  0.73490573  1
  O2-  O267  1  0.41784089  0.54771648  0.05360214  1
  O2-  O268  1  0.41670721  0.54271085  0.40511984  1
  O2-  O269  1  0.41376873  0.54526560  0.72962665  1
  O2-  O270  1  0.91940125  0.04418025  0.06832751  1
  O2-  O271  1  0.91514064  0.04268230  0.39483162  1
  O2-  O272  1  0.91355964  0.04723778  0.72847775  1
  O2-  O273  1  0.91275012  0.53304390  0.07007902  1
  O2-  O274  1  0.91439833  0.55098164  0.39721827  1
  O2-  O275  1  0.91196638  0.53998052  0.72620624  1
  O2-  O276  1  0.28974257  0.16468470  0.07061358  1
  O2-  O277  1  0.29669407  0.16715596  0.40157457  1
  O2-  O278  1  0.29154008  0.16889924  0.73496817  1
  O2-  O279  1  0.29988252  0.66810537  0.05389092  1
  O2-  O280  1  0.29595969  0.67392246  0.39951971  1
  O2-  O281  1  0.29512669  0.66680246  0.72706320  1
  O2-  O282  1  0.78945839  0.16780559  0.07051155  1
  O2-  O283  1  0.79250088  0.16070573  0.39741251  1
  O2-  O284  1  0.78914211  0.16335110  0.72598107  1
  O2-  O285  1  0.79601937  0.66863054  0.06773711  1
  O2-  O286  1  0.79174034  0.66738360  0.39725172  1
  O2-  O287  1  0.79377080  0.66237556  0.72891440  1
