# generated using pymatgen
data_Ca2Al2SiO7
_symmetry_space_group_name_H-M   'P 1'
_cell_length_a   15.45622830
_cell_length_b   15.45607629
_cell_length_c   15.28235987
_cell_angle_alpha   90.00359268
_cell_angle_beta   90.00509996
_cell_angle_gamma   90.01088056
_symmetry_Int_Tables_number   1
_chemical_formula_structural   Ca2Al2SiO7
_chemical_formula_sum   'Ca48 Al48 Si24 O168'
_cell_volume   3650.84326480
_cell_formula_units_Z   24
loop_
 _symmetry_equiv_pos_site_id
 _symmetry_equiv_pos_as_xyz
  1  'x, y, z'
loop_
 _atom_type_symbol
 _atom_type_oxidation_number
  Ca2+  2.0
  Al0+  0.0
  Si0+  0.0
  O2-  -2.0
loop_
 _atom_site_type_symbol
 _atom_site_label
 _atom_site_symmetry_multiplicity
 _atom_site_fract_x
 _atom_site_fract_y
 _atom_site_fract_z
 _atom_site_occupancy
  Ca2+  Ca0  1  0.17746893  0.08131573  0.17829437  1
  Ca2+  Ca1  1  0.16945128  0.07759613  0.50349741  1
  Ca2+  Ca2  1  0.17688836  0.07819623  0.83606459  1
  Ca2+  Ca3  1  0.16298685  0.58581377  0.16955714  1
  Ca2+  Ca4  1  0.17041403  0.59012129  0.50677905  1
  Ca2+  Ca5  1  0.16921317  0.58969512  0.83433816  1
  Ca2+  Ca6  1  0.65952587  0.07446235  0.16832062  1
  Ca2+  Ca7  1  0.67040900  0.06906143  0.50706820  1
  Ca2+  Ca8  1  0.66660030  0.07699846  0.83763204  1
  Ca2+  Ca9  1  0.66877479  0.57186808  0.17619969  1
  Ca2+  Ca10  1  0.67203088  0.58134642  0.50160942  1
  Ca2+  Ca11  1  0.66355624  0.57810083  0.83798461  1
  Ca2+  Ca12  1  0.08480188  0.32493764  0.16652554  1
  Ca2+  Ca13  1  0.07699306  0.32635698  0.49533543  1
  Ca2+  Ca14  1  0.07394531  0.33037406  0.82517924  1
  Ca2+  Ca15  1  0.08302564  0.82701457  0.16632849  1
  Ca2+  Ca16  1  0.08465324  0.83088388  0.49039024  1
  Ca2+  Ca17  1  0.08885033  0.82492019  0.82661984  1
  Ca2+  Ca18  1  0.57620298  0.33198738  0.15903594  1
  Ca2+  Ca19  1  0.57613451  0.33039831  0.49060404  1
  Ca2+  Ca20  1  0.58375049  0.32779017  0.83369521  1
  Ca2+  Ca21  1  0.58006429  0.83989356  0.15903024  1
  Ca2+  Ca22  1  0.59147717  0.83040061  0.49765084  1
  Ca2+  Ca23  1  0.58023490  0.83804379  0.82955540  1
  Ca2+  Ca24  1  0.33762384  0.41467474  0.17127722  1
  Ca2+  Ca25  1  0.33215750  0.42074791  0.50380108  1
  Ca2+  Ca26  1  0.33845252  0.42419887  0.83609312  1
  Ca2+  Ca27  1  0.33485667  0.92888285  0.17265100  1
  Ca2+  Ca28  1  0.32128072  0.92682295  0.50563782  1
  Ca2+  Ca29  1  0.33412496  0.92363451  0.83659589  1
  Ca2+  Ca30  1  0.82081927  0.42171167  0.17378784  1
  Ca2+  Ca31  1  0.83327545  0.41879448  0.50109523  1
  Ca2+  Ca32  1  0.82902858  0.41640365  0.84027474  1
  Ca2+  Ca33  1  0.82238984  0.90997038  0.17362517  1
  Ca2+  Ca34  1  0.82842678  0.91550530  0.50410851  1
  Ca2+  Ca35  1  0.82265267  0.91781030  0.83365595  1
  Ca2+  Ca36  1  0.41672115  0.17367036  0.15810865  1
  Ca2+  Ca37  1  0.40890350  0.16948549  0.49308462  1
  Ca2+  Ca38  1  0.41748653  0.16335472  0.83554283  1
  Ca2+  Ca39  1  0.41829762  0.67887885  0.15973619  1
  Ca2+  Ca40  1  0.42184370  0.66456818  0.50038659  1
  Ca2+  Ca41  1  0.42192986  0.67365682  0.82546919  1
  Ca2+  Ca42  1  0.92636011  0.15897981  0.16680320  1
  Ca2+  Ca43  1  0.91752042  0.16611745  0.49738388  1
  Ca2+  Ca44  1  0.90943092  0.17314089  0.82400978  1
  Ca2+  Ca45  1  0.92152342  0.66742263  0.16941267  1
  Ca2+  Ca46  1  0.92669968  0.67310984  0.48926321  1
  Ca2+  Ca47  1  0.92857697  0.66643042  0.82708286  1
  Al0+  Al48  1  0.00006958  -0.00227392  -0.00276511  1
  Al0+  Al49  1  -0.00069622  -0.00153286  0.32585715  1
  Al0+  Al50  1  -0.00067130  0.00018583  0.67638965  1
  Al0+  Al51  1  0.00195662  0.49992951  -0.00294094  1
  Al0+  Al52  1  -0.00002147  0.49939716  0.33250871  1
  Al0+  Al53  1  -0.00083757  0.49946750  0.65765571  1
  Al0+  Al54  1  0.49950353  0.00173062  -0.00034234  1
  Al0+  Al55  1  0.50067710  0.00069884  0.34386371  1
  Al0+  Al56  1  0.49886176  0.00039028  0.67063804  1
  Al0+  Al57  1  0.49884562  0.50051652  0.00193822  1
  Al0+  Al58  1  0.49940532  0.49904744  0.33279202  1
  Al0+  Al59  1  0.49933728  0.50076893  0.66614793  1
  Al0+  Al60  1  0.24977803  0.25216021  -0.00241210  1
  Al0+  Al61  1  0.24990410  0.25310310  0.32926591  1
  Al0+  Al62  1  0.24834220  0.25082362  0.67064975  1
  Al0+  Al63  1  0.25070789  0.75024749  -0.00756202  1
  Al0+  Al64  1  0.25208468  0.75047920  0.33166468  1
  Al0+  Al65  1  0.25302267  0.74968769  0.66970645  1
  Al0+  Al66  1  0.75021354  0.25008924  0.00336039  1
  Al0+  Al67  1  0.74773803  0.24932006  0.33545401  1
  Al0+  Al68  1  0.74764101  0.25050886  0.66223687  1
  Al0+  Al69  1  0.75291915  0.74986844  0.00348270  1
  Al0+  Al70  1  0.75164539  0.74688949  0.33632231  1
  Al0+  Al71  1  0.75053783  0.74713907  0.66803107  1
  Al0+  Al72  1  0.06963735  0.17921414  0.32073127  1
  Al0+  Al73  1  0.06912938  0.67971776  0.98397960  1
  Al0+  Al74  1  0.42752364  0.32331550  0.98185920  1
  Al0+  Al75  1  0.43112655  0.82225367  0.98663918  1
  Al0+  Al76  1  0.17819299  0.92747548  0.68282665  1
  Al0+  Al77  1  0.32040988  0.07423216  0.68401778  1
  Al0+  Al78  1  0.92622946  0.32030681  0.65173385  1
  Al0+  Al79  1  0.31855708  0.07100433  0.01560697  1
  Al0+  Al80  1  0.92717402  0.82107630  0.31770169  1
  Al0+  Al81  1  0.67661647  0.42755659  0.35061243  1
  Al0+  Al82  1  0.57144425  0.67837896  0.65266119  1
  Al0+  Al83  1  0.07272329  0.68146323  0.65145121  1
  Al0+  Al84  1  0.57151806  0.17994216  0.98482942  1
  Al0+  Al85  1  0.67917995  0.92858077  0.34734367  1
  Al0+  Al86  1  0.17855723  0.92818525  0.34524029  1
  Al0+  Al87  1  0.67989648  0.92589719  0.68294943  1
  Al0+  Al88  1  0.82206268  0.56903961  0.35011961  1
  Al0+  Al89  1  0.67839223  0.42958739  0.01355444  1
  Al0+  Al90  1  0.42991135  0.32076860  0.32019324  1
  Al0+  Al91  1  0.32150270  0.56926813  0.68039403  1
  Al0+  Al92  1  0.81993029  0.07300466  0.68071177  1
  Al0+  Al93  1  0.32024971  0.07427326  0.34812032  1
  Al0+  Al94  1  0.07436157  0.67848282  0.31753772  1
  Al0+  Al95  1  0.68028618  0.93042856  0.01393762  1
  Si0+  Si96  1  0.17590240  0.42921322  0.68251721  1
  Si0+  Si97  1  0.57191934  0.17581539  0.31858447  1
  Si0+  Si98  1  0.07166704  0.17759637  0.65223047  1
  Si0+  Si99  1  0.82375401  0.07209388  0.34764507  1
  Si0+  Si100  1  0.42982237  0.82359419  0.64784977  1
  Si0+  Si101  1  0.82533123  0.57044932  0.01598305  1
  Si0+  Si102  1  0.43135387  0.82170442  0.32099715  1
  Si0+  Si103  1  0.42876103  0.32095595  0.65214022  1
  Si0+  Si104  1  0.82410626  0.07321488  0.01802690  1
  Si0+  Si105  1  0.92575589  0.32195092  0.31493730  1
  Si0+  Si106  1  0.17874656  0.42900827  0.34724417  1
  Si0+  Si107  1  0.32067938  0.57190620  0.34635880  1
  Si0+  Si108  1  0.67814353  0.42978458  0.68146978  1
  Si0+  Si109  1  0.93093634  0.31901896  0.98730286  1
  Si0+  Si110  1  0.82257388  0.56873278  0.68205032  1
  Si0+  Si111  1  0.17756356  0.92582674  0.01760384  1
  Si0+  Si112  1  0.32015200  0.57228551  0.01539147  1
  Si0+  Si113  1  0.57359363  0.67809700  0.98675550  1
  Si0+  Si114  1  0.07221123  0.17739152  0.98409191  1
  Si0+  Si115  1  0.92825161  0.82238721  0.65193508  1
  Si0+  Si116  1  0.92542760  0.82265954  0.98003477  1
  Si0+  Si117  1  0.17796919  0.43048669  0.01482713  1
  Si0+  Si118  1  0.57099534  0.67861441  0.31858825  1
  Si0+  Si119  1  0.56982695  0.17803402  0.65012546  1
  O2-  O120  1  0.24236209  -0.00232006  0.06219352  1
  O2-  O121  1  0.24652146  0.00324636  0.39604936  1
  O2-  O122  1  0.24990973  0.00007907  0.73264832  1
  O2-  O123  1  0.25059817  0.49982571  0.05767005  1
  O2-  O124  1  0.24609655  0.50408297  0.38793675  1
  O2-  O125  1  0.24381313  0.49784953  0.72807826  1
  O2-  O126  1  0.75658198  0.00332712  0.06163978  1
  O2-  O127  1  0.75546511  0.00296613  0.39147271  1
  O2-  O128  1  0.74975884  0.00042761  0.73217552  1
  O2-  O129  1  0.75073503  0.50745486  0.05886355  1
  O2-  O130  1  0.75120276  0.49615238  0.40134145  1
  O2-  O131  1  0.75088510  0.49858105  0.72506580  1
  O2-  O132  1  -0.00750676  0.25116913  0.27101520  1
  O2-  O133  1  -0.00008522  0.24326625  0.60772667  1
  O2-  O134  1  -0.00317040  0.24439335  0.94286575  1
  O2-  O135  1  0.00195200  0.75056903  0.26854441  1
  O2-  O136  1  0.00150850  0.75956682  0.60635395  1
  O2-  O137  1  -0.00390987  0.75544479  0.93678223  1
  O2-  O138  1  0.50435160  0.24572010  0.27475574  1
  O2-  O139  1  0.49452266  0.24569589  0.60936268  1
  O2-  O140  1  0.50016453  0.25204895  0.93228611  1
  O2-  O141  1  0.50446830  0.75351128  0.27639307  1
  O2-  O142  1  0.50129593  0.75681403  0.60422795  1
  O2-  O143  1  0.50904661  0.74951041  0.94133488  1
  O2-  O144  1  0.07263684  0.17978572  0.08935180  1
  O2-  O145  1  0.06899851  0.18228879  0.43379885  1
  O2-  O146  1  0.07248178  0.18296355  0.75809873  1
  O2-  O147  1  0.06788443  0.67766065  0.09659559  1
  O2-  O148  1  0.07564463  0.67996711  0.43089202  1
  O2-  O149  1  0.06890299  0.67872092  0.76484967  1
  O2-  O150  1  0.57016097  0.18061630  0.09852385  1
  O2-  O151  1  0.57101268  0.17681815  0.42440464  1
  O2-  O152  1  0.57324633  0.18106906  0.75501670  1
  O2-  O153  1  0.57002148  0.67740733  0.09259775  1
  O2-  O154  1  0.56826279  0.67701239  0.42374530  1
  O2-  O155  1  0.56851877  0.67451132  0.76586409  1
  O2-  O156  1  0.17999562  0.42720463  0.24176730  1
  O2-  O157  1  0.17849431  0.42725552  0.57684871  1
  O2-  O158  1  0.17411947  0.43193925  0.90990302  1
  O2-  O159  1  0.18368932  0.92777347  0.23148483  1
  O2-  O160  1  0.17814356  0.92885390  0.56918216  1
  O2-  O161  1  0.17889152  0.92681582  0.91202983  1
  O2-  O162  1  0.67616719  0.43065903  0.23684467  1
  O2-  O163  1  0.67713343  0.43129943  0.57682724  1
  O2-  O164  1  0.68176836  0.43042429  0.89971896  1
  O2-  O165  1  0.67614354  0.93036226  0.23410010  1
  O2-  O166  1  0.68291905  0.92608893  0.56931815  1
  O2-  O167  1  0.68206708  0.92978954  0.90135616  1
  O2-  O168  1  0.42777360  0.32336460  0.09538130  1
  O2-  O169  1  0.42920572  0.32234239  0.43386444  1
  O2-  O170  1  0.43232702  0.32415663  0.75682369  1
  O2-  O171  1  0.43066970  0.82025863  0.10055062  1
  O2-  O172  1  0.43051141  0.81782429  0.42571598  1
  O2-  O173  1  0.43078947  0.82144064  0.75377250  1
  O2-  O174  1  0.93426923  0.32024236  0.09210918  1
  O2-  O175  1  0.92831466  0.32189355  0.42055245  1
  O2-  O176  1  0.92744751  0.32164839  0.76576171  1
  O2-  O177  1  0.92351041  0.82272094  0.08518672  1
  O2-  O178  1  0.92681317  0.82011467  0.43147649  1
  O2-  O179  1  0.92643468  0.81674601  0.75766283  1
  O2-  O180  1  0.32175058  0.07328054  0.23435475  1
  O2-  O181  1  0.31689310  0.07686976  0.57057723  1
  O2-  O182  1  0.31638687  0.06972308  0.90279880  1
  O2-  O183  1  0.32223382  0.57181918  0.24098802  1
  O2-  O184  1  0.32280392  0.56563210  0.56690610  1
  O2-  O185  1  0.31975877  0.57133598  0.91033906  1
  O2-  O186  1  0.82217263  0.07296808  0.24196895  1
  O2-  O187  1  0.81816369  0.07309436  0.56706223  1
  O2-  O188  1  0.82363699  0.07519791  0.91261294  1
  O2-  O189  1  0.81954931  0.56714333  0.23590077  1
  O2-  O190  1  0.82219650  0.56764781  0.57754822  1
  O2-  O191  1  0.82783857  0.56682550  0.90996396  1
  O2-  O192  1  0.04228726  0.08407463  0.26188322  1
  O2-  O193  1  0.04847026  0.08218771  0.60983117  1
  O2-  O194  1  0.04961228  0.08362640  0.93834199  1
  O2-  O195  1  0.04593132  0.57867248  0.26599860  1
  O2-  O196  1  0.04124103  0.58515545  0.59743902  1
  O2-  O197  1  0.03813159  0.58272594  0.92913183  1
  O2-  O198  1  0.54506606  0.08166561  0.27424423  1
  O2-  O199  1  0.54549279  0.08448014  0.60474712  1
  O2-  O200  1  0.54167315  0.08282286  0.93101639  1
  O2-  O201  1  0.53783867  0.58895642  0.27003089  1
  O2-  O202  1  0.53530751  0.58365540  0.59690373  1
  O2-  O203  1  0.54398990  0.58619494  0.93964401  1
  O2-  O204  1  0.16312853  0.21664830  0.26418399  1
  O2-  O205  1  0.16365358  0.20805883  0.60516765  1
  O2-  O206  1  0.16060453  0.21132400  0.93500718  1
  O2-  O207  1  0.17325136  0.70575980  0.26334586  1
  O2-  O208  1  0.17251218  0.70650244  0.60153397  1
  O2-  O209  1  0.16611805  0.70828939  0.92964065  1
  O2-  O210  1  0.66644410  0.19827672  0.27257186  1
  O2-  O211  1  0.65871208  0.21002454  0.59984255  1
  O2-  O212  1  0.67129799  0.20899943  0.93308348  1
  O2-  O213  1  0.66442930  0.70037670  0.27309523  1
  O2-  O214  1  0.66996769  0.70427053  0.59954418  1
  O2-  O215  1  0.67015068  0.69674316  0.94383059  1
  O2-  O216  1  0.08753693  0.46028453  0.06448083  1
  O2-  O217  1  0.08552913  0.45059651  0.39403755  1
  O2-  O218  1  0.08129530  0.45493472  0.72671557  1
  O2-  O219  1  0.08103817  0.94703463  0.05974335  1
  O2-  O220  1  0.07765440  0.95265030  0.39385486  1
  O2-  O221  1  0.08017247  0.95207390  0.73895076  1
  O2-  O222  1  0.58140148  0.45935138  0.06756283  1
  O2-  O223  1  0.57906835  0.46027975  0.40310712  1
  O2-  O224  1  0.58775250  0.46017751  0.72962987  1
  O2-  O225  1  0.58401039  0.96237464  0.06758747  1
  O2-  O226  1  0.58531600  0.95896182  0.40675154  1
  O2-  O227  1  0.58060187  0.95393618  0.73284783  1
  O2-  O228  1  0.20405855  0.33824256  0.06212233  1
  O2-  O229  1  0.21099095  0.34028571  0.39735435  1
  O2-  O230  1  0.20011173  0.33643643  0.73069501  1
  O2-  O231  1  0.20616352  0.83188392  0.06062061  1
  O2-  O232  1  0.21118907  0.83104506  0.39865176  1
  O2-  O233  1  0.20996668  0.83027684  0.73631992  1
  O2-  O234  1  0.71181723  0.33461872  0.06888957  1
  O2-  O235  1  0.70085830  0.32744810  0.40208186  1
  O2-  O236  1  0.70491264  0.33725239  0.72711871  1
  O2-  O237  1  0.70829404  0.83189564  0.06755617  1
  O2-  O238  1  0.70812879  0.83102189  0.39925362  1
  O2-  O239  1  0.70840505  0.82729860  0.73620122  1
  O2-  O240  1  0.46039202  0.41742068  0.26476002  1
  O2-  O241  1  0.46051622  0.41077670  0.60315366  1
  O2-  O242  1  0.45602941  0.42328209  0.93136967  1
  O2-  O243  1  0.45853528  0.91512542  0.27652872  1
  O2-  O244  1  0.45152409  0.91870970  0.60341352  1
  O2-  O245  1  0.46091715  0.91765396  0.93160664  1
  O2-  O246  1  0.95470098  0.41398685  0.26805715  1
  O2-  O247  1  0.96002363  0.41392225  0.59422741  1
  O2-  O248  1  0.96262314  0.40878741  0.93751771  1
  O2-  O249  1  0.94954784  0.91915819  0.26131925  1
  O2-  O250  1  0.94690994  0.91977101  0.61141119  1
  O2-  O251  1  0.94858654  0.91726788  0.93413209  1
  O2-  O252  1  0.33336238  0.29447073  0.26412074  1
  O2-  O253  1  0.33388927  0.29810345  0.60778932  1
  O2-  O254  1  0.32788136  0.29782894  0.92961171  1
  O2-  O255  1  0.34208868  0.79116229  0.27027905  1
  O2-  O256  1  0.33767287  0.79285423  0.60256670  1
  O2-  O257  1  0.33708724  0.78840923  0.93003639  1
  O2-  O258  1  0.83037464  0.29900920  0.27124765  1
  O2-  O259  1  0.82988136  0.29221438  0.59578442  1
  O2-  O260  1  0.83784290  0.29542271  0.94054458  1
  O2-  O261  1  0.83005110  0.78619090  0.26373214  1
  O2-  O262  1  0.83656525  0.79122311  0.60537916  1
  O2-  O263  1  0.83275767  0.79409833  0.93296101  1
  O2-  O264  1  0.41531206  0.03987933  0.06800310  1
  O2-  O265  1  0.41680274  0.04565059  0.40380423  1
  O2-  O266  1  0.41939795  0.04703293  0.73549705  1
  O2-  O267  1  0.41201350  0.54720564  0.06409884  1
  O2-  O268  1  0.41053268  0.54016946  0.39495269  1
  O2-  O269  1  0.41616096  0.53447053  0.73622058  1
  O2-  O270  1  0.91937246  0.04735957  0.06155807  1
  O2-  O271  1  0.91792714  0.04820393  0.39240291  1
  O2-  O272  1  0.91841022  0.05150584  0.73665967  1
  O2-  O273  1  0.91603858  0.53712550  0.06320708  1
  O2-  O274  1  0.92143505  0.54133883  0.40190671  1
  O2-  O275  1  0.91433523  0.53814089  0.72844048  1
  O2-  O276  1  0.28806729  0.17005063  0.06567106  1
  O2-  O277  1  0.29055813  0.17354565  0.39847412  1
  O2-  O278  1  0.29135209  0.17235368  0.73831400  1
  O2-  O279  1  0.29019178  0.66407671  0.06171676  1
  O2-  O280  1  0.29675652  0.66371173  0.39502819  1
  O2-  O281  1  0.29575469  0.66606911  0.73522291  1
  O2-  O282  1  0.80090544  0.16666582  0.06532349  1
  O2-  O283  1  0.80001091  0.16611760  0.39392887  1
  O2-  O284  1  0.78817309  0.17185309  0.73264203  1
  O2-  O285  1  0.80686325  0.66593390  0.06014299  1
  O2-  O286  1  0.79214632  0.66566311  0.40462170  1
  O2-  O287  1  0.79595387  0.65974426  0.73106627  1
