# generated using pymatgen
data_Ca2Al2SiO7
_symmetry_space_group_name_H-M   'P 1'
_cell_length_a   15.45267191
_cell_length_b   15.45275847
_cell_length_c   15.28014015
_cell_angle_alpha   90.00693277
_cell_angle_beta   90.00183503
_cell_angle_gamma   90.00749483
_symmetry_Int_Tables_number   1
_chemical_formula_structural   Ca2Al2SiO7
_chemical_formula_sum   'Ca48 Al48 Si24 O168'
_cell_volume   3648.68969961
_cell_formula_units_Z   24
loop_
 _symmetry_equiv_pos_site_id
 _symmetry_equiv_pos_as_xyz
  1  'x, y, z'
loop_
 _atom_type_symbol
 _atom_type_oxidation_number
  Ca2+  2.0
  Al0+  0.0
  Si0+  0.0
  O2-  -2.0
loop_
 _atom_site_type_symbol
 _atom_site_label
 _atom_site_symmetry_multiplicity
 _atom_site_fract_x
 _atom_site_fract_y
 _atom_site_fract_z
 _atom_site_occupancy
  Ca2+  Ca0  1  0.17389968  0.07158563  0.16849622  1
  Ca2+  Ca1  1  0.16105474  0.07742403  0.50504144  1
  Ca2+  Ca2  1  0.17213340  0.07915154  0.84210587  1
  Ca2+  Ca3  1  0.17017889  0.58726917  0.16237428  1
  Ca2+  Ca4  1  0.16768007  0.57714693  0.50856747  1
  Ca2+  Ca5  1  0.16470478  0.57534274  0.83980270  1
  Ca2+  Ca6  1  0.66450569  0.07456279  0.16883576  1
  Ca2+  Ca7  1  0.66694688  0.08297559  0.50200886  1
  Ca2+  Ca8  1  0.67982985  0.08126716  0.83978528  1
  Ca2+  Ca9  1  0.67499804  0.57675142  0.17853936  1
  Ca2+  Ca10  1  0.66998608  0.57571882  0.50655507  1
  Ca2+  Ca11  1  0.65923159  0.58042579  0.83084330  1
  Ca2+  Ca12  1  0.07627143  0.33801305  0.16179438  1
  Ca2+  Ca13  1  0.07429895  0.33105850  0.49986481  1
  Ca2+  Ca14  1  0.08148080  0.32903624  0.82109853  1
  Ca2+  Ca15  1  0.08776896  0.83118793  0.15903826  1
  Ca2+  Ca16  1  0.08438245  0.82783930  0.49637367  1
  Ca2+  Ca17  1  0.09486815  0.82097947  0.83137028  1
  Ca2+  Ca18  1  0.59152089  0.32613691  0.16742356  1
  Ca2+  Ca19  1  0.58643436  0.33228544  0.49582177  1
  Ca2+  Ca20  1  0.57443033  0.33485389  0.82348739  1
  Ca2+  Ca21  1  0.57538310  0.84245659  0.16054835  1
  Ca2+  Ca22  1  0.57423143  0.83584496  0.49344251  1
  Ca2+  Ca23  1  0.57350398  0.83239930  0.82767443  1
  Ca2+  Ca24  1  0.32761559  0.42349145  0.16576586  1
  Ca2+  Ca25  1  0.32882824  0.41557176  0.51206676  1
  Ca2+  Ca26  1  0.32170680  0.41911888  0.84002301  1
  Ca2+  Ca27  1  0.32726223  0.90973513  0.16872241  1
  Ca2+  Ca28  1  0.33395157  0.91223362  0.49889627  1
  Ca2+  Ca29  1  0.33343655  0.91838665  0.84203604  1
  Ca2+  Ca30  1  0.83173876  0.42285709  0.17778767  1
  Ca2+  Ca31  1  0.82738862  0.41159913  0.50199908  1
  Ca2+  Ca32  1  0.82903303  0.41170161  0.83052291  1
  Ca2+  Ca33  1  0.82141499  0.91955190  0.17208788  1
  Ca2+  Ca34  1  0.82562081  0.92295245  0.50709290  1
  Ca2+  Ca35  1  0.83067787  0.92912724  0.84102409  1
  Ca2+  Ca36  1  0.42238239  0.16068856  0.16402314  1
  Ca2+  Ca37  1  0.42192595  0.17617068  0.49561437  1
  Ca2+  Ca38  1  0.41403102  0.17065696  0.82792382  1
  Ca2+  Ca39  1  0.41377306  0.67722850  0.15906585  1
  Ca2+  Ca40  1  0.42326880  0.67544693  0.49955176  1
  Ca2+  Ca41  1  0.41462502  0.67710379  0.82723564  1
  Ca2+  Ca42  1  0.91083130  0.17319946  0.16383850  1
  Ca2+  Ca43  1  0.91328936  0.17498424  0.50145176  1
  Ca2+  Ca44  1  0.92118319  0.16664336  0.82359177  1
  Ca2+  Ca45  1  0.92068145  0.66625235  0.16082296  1
  Ca2+  Ca46  1  0.92343017  0.65706274  0.49796578  1
  Ca2+  Ca47  1  0.92940843  0.66816395  0.82935708  1
  Al0+  Al48  1  -0.00071882  0.00279548  0.00856167  1
  Al0+  Al49  1  0.00157886  -0.00149440  0.33664907  1
  Al0+  Al50  1  0.00038274  -0.00167561  0.66854704  1
  Al0+  Al51  1  -0.00239373  0.49950443  -0.00241845  1
  Al0+  Al52  1  0.00208009  0.49913049  0.33124538  1
  Al0+  Al53  1  -0.00098579  0.49958867  0.66336334  1
  Al0+  Al54  1  0.50188094  0.00178119  -0.00193062  1
  Al0+  Al55  1  0.49889236  0.00205727  0.33010550  1
  Al0+  Al56  1  0.49860752  0.00027198  0.66340395  1
  Al0+  Al57  1  0.49909801  0.49926512  0.00553007  1
  Al0+  Al58  1  0.49921090  0.50122021  0.33595995  1
  Al0+  Al59  1  0.49975069  0.50199560  0.66318600  1
  Al0+  Al60  1  0.24863011  0.25014806  0.01038734  1
  Al0+  Al61  1  0.25013516  0.24957025  0.33137754  1
  Al0+  Al62  1  0.24937919  0.24827682  0.66105197  1
  Al0+  Al63  1  0.25089498  0.74819869  -0.00340629  1
  Al0+  Al64  1  0.25056994  0.74974493  0.33469107  1
  Al0+  Al65  1  0.25013023  0.75000361  0.65670753  1
  Al0+  Al66  1  0.74980483  0.25015033  0.00112826  1
  Al0+  Al67  1  0.75040487  0.25041572  0.32626582  1
  Al0+  Al68  1  0.75007338  0.24986441  0.67365796  1
  Al0+  Al69  1  0.75000279  0.74893629  0.00105206  1
  Al0+  Al70  1  0.75201153  0.75023264  0.34303123  1
  Al0+  Al71  1  0.74986022  0.74872529  0.66620780  1
  Al0+  Al72  1  0.67925473  0.42795396  0.34829591  1
  Al0+  Al73  1  0.32282773  0.07279749  0.01467441  1
  Al0+  Al74  1  0.67998812  0.92790053  0.01304413  1
  Al0+  Al75  1  0.56941568  0.18191074  0.31922363  1
  Al0+  Al76  1  0.43125523  0.82072175  0.98587998  1
  Al0+  Al77  1  0.67842740  0.43020136  0.68152467  1
  Al0+  Al78  1  0.43105725  0.81861193  0.31666464  1
  Al0+  Al79  1  0.42947932  0.82330547  0.64901686  1
  Al0+  Al80  1  0.32141076  0.57088291  0.01370087  1
  Al0+  Al81  1  0.07211514  0.17581734  0.65274121  1
  Al0+  Al82  1  0.57316787  0.67852533  0.65058404  1
  Al0+  Al83  1  0.93193018  0.31904927  0.31803023  1
  Al0+  Al84  1  0.18010310  0.92856497  0.34944720  1
  Al0+  Al85  1  0.67690154  0.93061524  0.34863615  1
  Al0+  Al86  1  0.06965774  0.67901836  0.65165566  1
  Al0+  Al87  1  0.92728407  0.31992727  0.65232475  1
  Al0+  Al88  1  0.17884349  0.42841383  0.67814631  1
  Al0+  Al89  1  0.18050780  0.92734571  0.01264065  1
  Al0+  Al90  1  0.82416637  0.57117840  0.34936076  1
  Al0+  Al91  1  0.82033180  0.06942354  0.67975466  1
  Al0+  Al92  1  0.17543843  0.42873950  0.01543963  1
  Al0+  Al93  1  0.06948111  0.68054367  0.98644870  1
  Al0+  Al94  1  0.82202547  0.07330935  0.01786393  1
  Al0+  Al95  1  0.42790025  0.32103092  0.65608020  1
  Si0+  Si96  1  0.82221686  0.07196621  0.35031907  1
  Si0+  Si97  1  0.57444391  0.67455086  0.98527079  1
  Si0+  Si98  1  0.32165531  0.07288246  0.35226157  1
  Si0+  Si99  1  0.92821701  0.32065607  0.98304968  1
  Si0+  Si100  1  0.82293513  0.57333357  0.68628370  1
  Si0+  Si101  1  0.07044104  0.67985370  0.31727072  1
  Si0+  Si102  1  0.57220048  0.17970027  0.65279956  1
  Si0+  Si103  1  0.18008185  0.92755791  0.68088700  1
  Si0+  Si104  1  0.92602705  0.82430797  0.98518828  1
  Si0+  Si105  1  0.92785805  0.82242114  0.65094113  1
  Si0+  Si106  1  0.32149992  0.07077674  0.67918661  1
  Si0+  Si107  1  0.57454986  0.67770625  0.31666964  1
  Si0+  Si108  1  0.31994077  0.57159520  0.34988641  1
  Si0+  Si109  1  0.32080736  0.57299896  0.68163016  1
  Si0+  Si110  1  0.42487542  0.32563692  0.31429658  1
  Si0+  Si111  1  0.18022272  0.42818525  0.34902002  1
  Si0+  Si112  1  0.67551042  0.92689110  0.68297266  1
  Si0+  Si113  1  0.57135122  0.18070008  0.98244585  1
  Si0+  Si114  1  0.42821990  0.32173845  0.98715589  1
  Si0+  Si115  1  0.67764937  0.42929135  0.01479907  1
  Si0+  Si116  1  0.07145290  0.17947160  0.98749622  1
  Si0+  Si117  1  0.82070606  0.56985003  0.01270578  1
  Si0+  Si118  1  0.92833612  0.82236126  0.31949345  1
  Si0+  Si119  1  0.07360403  0.17496443  0.31382362  1
  O2-  O120  1  0.25459826  -0.00330402  0.06394036  1
  O2-  O121  1  0.25136331  0.00616213  0.39713619  1
  O2-  O122  1  0.25104544  -0.00085784  0.72155906  1
  O2-  O123  1  0.24753754  0.50102688  0.06508426  1
  O2-  O124  1  0.25498618  0.49474293  0.39155357  1
  O2-  O125  1  0.25340823  0.50289709  0.72570177  1
  O2-  O126  1  0.75268383  -0.00204071  0.06544144  1
  O2-  O127  1  0.75347754  0.00365979  0.39508713  1
  O2-  O128  1  0.74606611  -0.00604643  0.72638778  1
  O2-  O129  1  0.74658241  0.50259288  0.05501792  1
  O2-  O130  1  0.74963180  0.50132506  0.39830122  1
  O2-  O131  1  0.75232973  0.50564540  0.72994605  1
  O2-  O132  1  0.00533718  0.24388940  0.26899244  1
  O2-  O133  1  0.00043814  0.24845123  0.60318014  1
  O2-  O134  1  0.00027129  0.24969227  0.94341831  1
  O2-  O135  1  -0.00192155  0.75013986  0.27639711  1
  O2-  O136  1  -0.00684982  0.75157069  0.60449145  1
  O2-  O137  1  -0.00133659  0.75986468  0.94025612  1
  O2-  O138  1  0.49608345  0.25871479  0.27126052  1
  O2-  O139  1  0.50487829  0.24942717  0.60847169  1
  O2-  O140  1  0.49790728  0.25039416  0.94240672  1
  O2-  O141  1  0.50881331  0.74719027  0.26926143  1
  O2-  O142  1  0.50547701  0.75449841  0.60072194  1
  O2-  O143  1  0.50683455  0.74500037  0.94208830  1
  O2-  O144  1  0.07022237  0.18133992  0.09252665  1
  O2-  O145  1  0.07362658  0.17609111  0.41927454  1
  O2-  O146  1  0.07327421  0.17561360  0.76689283  1
  O2-  O147  1  0.06558179  0.67951577  0.09994079  1
  O2-  O148  1  0.07074841  0.67975470  0.42243907  1
  O2-  O149  1  0.07093627  0.68025142  0.76481009  1
  O2-  O150  1  0.57337867  0.18256805  0.08753641  1
  O2-  O151  1  0.56759250  0.18285258  0.43269702  1
  O2-  O152  1  0.56970335  0.17964821  0.75867961  1
  O2-  O153  1  0.57566482  0.67211693  0.09074524  1
  O2-  O154  1  0.57059851  0.67770403  0.42186148  1
  O2-  O155  1  0.56977940  0.67963300  0.76482573  1
  O2-  O156  1  0.17913989  0.43066821  0.24398748  1
  O2-  O157  1  0.18095795  0.43020485  0.56453657  1
  O2-  O158  1  0.17616446  0.42701603  0.90175178  1
  O2-  O159  1  0.18150026  0.92651588  0.23663795  1
  O2-  O160  1  0.17946823  0.92796257  0.57566562  1
  O2-  O161  1  0.18162258  0.92921059  0.89859003  1
  O2-  O162  1  0.68233043  0.42980797  0.23379240  1
  O2-  O163  1  0.68020264  0.42832821  0.56907589  1
  O2-  O164  1  0.67625718  0.42800652  0.90977966  1
  O2-  O165  1  0.67823728  0.93143521  0.23567297  1
  O2-  O166  1  0.67552370  0.93016554  0.57720630  1
  O2-  O167  1  0.68165891  0.93059530  0.89925729  1
  O2-  O168  1  0.43200976  0.32287694  0.09214976  1
  O2-  O169  1  0.42170039  0.32338423  0.41992469  1
  O2-  O170  1  0.42705388  0.31818925  0.76974180  1
  O2-  O171  1  0.43115189  0.81891024  0.09905700  1
  O2-  O172  1  0.43033290  0.81633550  0.42943753  1
  O2-  O173  1  0.42785911  0.82400277  0.76277312  1
  O2-  O174  1  0.92752764  0.32221969  0.08829334  1
  O2-  O175  1  0.93229494  0.31833621  0.43059456  1
  O2-  O176  1  0.92839850  0.31786607  0.76647746  1
  O2-  O177  1  0.92324035  0.81920777  0.09093150  1
  O2-  O178  1  0.93114544  0.82438215  0.42447945  1
  O2-  O179  1  0.93037947  0.82252936  0.75665413  1
  O2-  O180  1  0.32057989  0.07206892  0.24679109  1
  O2-  O181  1  0.32274111  0.07081619  0.57429605  1
  O2-  O182  1  0.31938654  0.07599859  0.90052874  1
  O2-  O183  1  0.31718226  0.57296655  0.24482179  1
  O2-  O184  1  0.31794672  0.57177845  0.57547369  1
  O2-  O185  1  0.32221332  0.56811151  0.90025364  1
  O2-  O186  1  0.82199588  0.06965894  0.24480032  1
  O2-  O187  1  0.81770723  0.06890457  0.56647339  1
  O2-  O188  1  0.82107755  0.07501796  0.90406627  1
  O2-  O189  1  0.82469299  0.56979661  0.23473357  1
  O2-  O190  1  0.82378093  0.57259215  0.58106858  1
  O2-  O191  1  0.82271569  0.56849131  0.90792945  1
  O2-  O192  1  0.04816928  0.08025316  0.26981564  1
  O2-  O193  1  0.04232216  0.07756423  0.59973962  1
  O2-  O194  1  0.04489825  0.08652223  0.94113653  1
  O2-  O195  1  0.04457629  0.58799585  0.26927614  1
  O2-  O196  1  0.03962055  0.58308133  0.59621073  1
  O2-  O197  1  0.03361640  0.58509084  0.93211147  1
  O2-  O198  1  0.53588766  0.08720969  0.26288607  1
  O2-  O199  1  0.54583600  0.08708263  0.60547136  1
  O2-  O200  1  0.54661308  0.08927310  0.93350553  1
  O2-  O201  1  0.54774996  0.58344308  0.27124975  1
  O2-  O202  1  0.54179655  0.58228344  0.59514016  1
  O2-  O203  1  0.54674961  0.58061344  0.93978572  1
  O2-  O204  1  0.16790959  0.20053713  0.26881127  1
  O2-  O205  1  0.16878343  0.20261595  0.59585185  1
  O2-  O206  1  0.16441429  0.20727767  0.94193916  1
  O2-  O207  1  0.16169665  0.71031405  0.27070936  1
  O2-  O208  1  0.16383445  0.71090381  0.59400808  1
  O2-  O209  1  0.16620032  0.70678288  0.93072073  1
  O2-  O210  1  0.66496670  0.21053765  0.26124539  1
  O2-  O211  1  0.66557910  0.20514320  0.60790314  1
  O2-  O212  1  0.66250536  0.21243087  0.93515419  1
  O2-  O213  1  0.67147196  0.69976726  0.27587379  1
  O2-  O214  1  0.67437105  0.69904427  0.59989434  1
  O2-  O215  1  0.66866931  0.69716782  0.93824318  1
  O2-  O216  1  0.07700041  0.45945729  0.06742842  1
  O2-  O217  1  0.09011135  0.46044489  0.39608109  1
  O2-  O218  1  0.08171700  0.45893306  0.73090202  1
  O2-  O219  1  0.08275740  0.95520123  0.06756455  1
  O2-  O220  1  0.08258061  0.95632247  0.40410186  1
  O2-  O221  1  0.08830218  0.95231993  0.72907420  1
  O2-  O222  1  0.58646435  0.45272273  0.06492942  1
  O2-  O223  1  0.57824881  0.45156023  0.39855263  1
  O2-  O224  1  0.58072409  0.46165983  0.73487435  1
  O2-  O225  1  0.58335562  0.96137017  0.06562183  1
  O2-  O226  1  0.58100118  0.96544901  0.40121480  1
  O2-  O227  1  0.58186565  0.95470167  0.72806328  1
  O2-  O228  1  0.20398982  0.33306704  0.07296807  1
  O2-  O229  1  0.20349395  0.33403913  0.39383149  1
  O2-  O230  1  0.20978764  0.33056658  0.72989470  1
  O2-  O231  1  0.20680861  0.82842122  0.06468788  1
  O2-  O232  1  0.21317761  0.83243104  0.40341191  1
  O2-  O233  1  0.21027488  0.83507551  0.72548628  1
  O2-  O234  1  0.70939860  0.33885213  0.06211753  1
  O2-  O235  1  0.70999068  0.32896440  0.39804411  1
  O2-  O236  1  0.70880724  0.33478716  0.73906912  1
  O2-  O237  1  0.70410844  0.82815698  0.06654183  1
  O2-  O238  1  0.70622161  0.83450035  0.40379144  1
  O2-  O239  1  0.69844859  0.83203958  0.72707074  1
  O2-  O240  1  0.44747876  0.42110448  0.27060063  1
  O2-  O241  1  0.45430656  0.41776014  0.60148313  1
  O2-  O242  1  0.45740069  0.41319808  0.93954380  1
  O2-  O243  1  0.45695124  0.91757669  0.26585241  1
  O2-  O244  1  0.45515309  0.92240318  0.59500465  1
  O2-  O245  1  0.46100490  0.91817818  0.93187624  1
  O2-  O246  1  0.96556421  0.41537055  0.26294602  1
  O2-  O247  1  0.95345004  0.41815388  0.59925969  1
  O2-  O248  1  0.95413274  0.41226889  0.93486600  1
  O2-  O249  1  0.95698139  0.91366925  0.27116721  1
  O2-  O250  1  0.95655750  0.91404352  0.60292693  1
  O2-  O251  1  0.94735781  0.92110869  0.94430317  1
  O2-  O252  1  0.33196703  0.29785050  0.26701469  1
  O2-  O253  1  0.33517560  0.28734349  0.59672338  1
  O2-  O254  1  0.33429607  0.29437966  0.94377097  1
  O2-  O255  1  0.33422313  0.78274026  0.26528139  1
  O2-  O256  1  0.33351944  0.79129892  0.59332136  1
  O2-  O257  1  0.33535260  0.78925743  0.93089772  1
  O2-  O258  1  0.83589994  0.29057053  0.26120170  1
  O2-  O259  1  0.82904889  0.28780392  0.60113227  1
  O2-  O260  1  0.83584229  0.29198218  0.93672503  1
  O2-  O261  1  0.83550864  0.79496092  0.27353590  1
  O2-  O262  1  0.83256510  0.80162313  0.60668574  1
  O2-  O263  1  0.83461348  0.79429462  0.93637198  1
  O2-  O264  1  0.42338684  0.04971280  0.06388796  1
  O2-  O265  1  0.41458152  0.04592918  0.39780972  1
  O2-  O266  1  0.41360832  0.04465785  0.72801528  1
  O2-  O267  1  0.41792942  0.54122917  0.07138154  1
  O2-  O268  1  0.41378078  0.55039182  0.39602228  1
  O2-  O269  1  0.41528444  0.55109434  0.72582306  1
  O2-  O270  1  0.92032146  0.05141894  0.07279370  1
  O2-  O271  1  0.91592745  0.04677241  0.39597966  1
  O2-  O272  1  0.91689652  0.03772060  0.73487077  1
  O2-  O273  1  0.90983000  0.53800131  0.06271662  1
  O2-  O274  1  0.92258260  0.53917185  0.40038608  1
  O2-  O275  1  0.91602058  0.54504134  0.73205038  1
  O2-  O276  1  0.29290110  0.16780313  0.07349571  1
  O2-  O277  1  0.29830446  0.16846671  0.39630530  1
  O2-  O278  1  0.29330719  0.16218594  0.72689136  1
  O2-  O279  1  0.29105303  0.66795804  0.06754778  1
  O2-  O280  1  0.28546247  0.65989367  0.39922607  1
  O2-  O281  1  0.29201809  0.66707343  0.72489879  1
  O2-  O282  1  0.78809563  0.17066347  0.07032401  1
  O2-  O283  1  0.79442640  0.16597934  0.39282084  1
  O2-  O284  1  0.78927176  0.16390303  0.73754220  1
  O2-  O285  1  0.79804423  0.66251586  0.06104507  1
  O2-  O286  1  0.80259268  0.66996345  0.40417703  1
  O2-  O287  1  0.79993578  0.66791173  0.73270410  1
