# generated using pymatgen
data_Ca2Al2SiO7
_symmetry_space_group_name_H-M   'P 1'
_cell_length_a   15.46588472
_cell_length_b   15.46379795
_cell_length_c   15.28885046
_cell_angle_alpha   89.99665905
_cell_angle_beta   89.99377186
_cell_angle_gamma   89.97470039
_symmetry_Int_Tables_number   1
_chemical_formula_structural   Ca2Al2SiO7
_chemical_formula_sum   'Ca48 Al48 Si24 O168'
_cell_volume   3656.50122041
_cell_formula_units_Z   24
loop_
 _symmetry_equiv_pos_site_id
 _symmetry_equiv_pos_as_xyz
  1  'x, y, z'
loop_
 _atom_type_symbol
 _atom_type_oxidation_number
  Ca2+  2.0
  Al0+  0.0
  Si0+  0.0
  O2-  -2.0
loop_
 _atom_site_type_symbol
 _atom_site_label
 _atom_site_symmetry_multiplicity
 _atom_site_fract_x
 _atom_site_fract_y
 _atom_site_fract_z
 _atom_site_occupancy
  Ca2+  Ca0  1  0.17001300  0.08770022  0.17603036  1
  Ca2+  Ca1  1  0.17198006  0.08676618  0.49802320  1
  Ca2+  Ca2  1  0.16732534  0.08176356  0.84071836  1
  Ca2+  Ca3  1  0.16794615  0.57891342  0.17615819  1
  Ca2+  Ca4  1  0.16872917  0.58074642  0.50076747  1
  Ca2+  Ca5  1  0.17739549  0.58915238  0.83474607  1
  Ca2+  Ca6  1  0.65921700  0.07721215  0.17530670  1
  Ca2+  Ca7  1  0.65838681  0.07629803  0.49669049  1
  Ca2+  Ca8  1  0.66542950  0.08141869  0.84055125  1
  Ca2+  Ca9  1  0.67210899  0.58086358  0.17290535  1
  Ca2+  Ca10  1  0.67246176  0.58514528  0.49739133  1
  Ca2+  Ca11  1  0.67453437  0.58024690  0.84282731  1
  Ca2+  Ca12  1  0.08063366  0.32790720  0.16471379  1
  Ca2+  Ca13  1  0.08670043  0.33023746  0.48933399  1
  Ca2+  Ca14  1  0.08040713  0.33215811  0.83754279  1
  Ca2+  Ca15  1  0.07207075  0.82704505  0.16632583  1
  Ca2+  Ca16  1  0.07064337  0.82348769  0.49138407  1
  Ca2+  Ca17  1  0.07076643  0.83146431  0.82978503  1
  Ca2+  Ca18  1  0.59153932  0.32719003  0.16361429  1
  Ca2+  Ca19  1  0.57225726  0.33411147  0.48865123  1
  Ca2+  Ca20  1  0.58808164  0.33019869  0.83124621  1
  Ca2+  Ca21  1  0.58701277  0.82132846  0.16437040  1
  Ca2+  Ca22  1  0.58131997  0.82697946  0.49215279  1
  Ca2+  Ca23  1  0.57452400  0.82589877  0.83422904  1
  Ca2+  Ca24  1  0.32599086  0.41010500  0.17591221  1
  Ca2+  Ca25  1  0.33252645  0.41665830  0.50152561  1
  Ca2+  Ca26  1  0.33826947  0.41962427  0.83089584  1
  Ca2+  Ca27  1  0.33827272  0.92447876  0.17370154  1
  Ca2+  Ca28  1  0.33775077  0.92373075  0.50439634  1
  Ca2+  Ca29  1  0.33601333  0.91235629  0.84056594  1
  Ca2+  Ca30  1  0.82432262  0.42235462  0.17248319  1
  Ca2+  Ca31  1  0.83033069  0.43047668  0.50267845  1
  Ca2+  Ca32  1  0.83092325  0.42811904  0.84674330  1
  Ca2+  Ca33  1  0.83125723  0.91489301  0.17472284  1
  Ca2+  Ca34  1  0.82880331  0.90783705  0.49907703  1
  Ca2+  Ca35  1  0.83704841  0.91491651  0.83820959  1
  Ca2+  Ca36  1  0.42459173  0.17023419  0.17035303  1
  Ca2+  Ca37  1  0.41731188  0.17738657  0.48959223  1
  Ca2+  Ca38  1  0.42513064  0.17458248  0.83101639  1
  Ca2+  Ca39  1  0.43280545  0.66743695  0.16103995  1
  Ca2+  Ca40  1  0.41832685  0.66918511  0.49491283  1
  Ca2+  Ca41  1  0.42117826  0.67000076  0.82674422  1
  Ca2+  Ca42  1  0.92792724  0.17209082  0.15828464  1
  Ca2+  Ca43  1  0.92519342  0.17043450  0.49110844  1
  Ca2+  Ca44  1  0.91784993  0.17594541  0.83618017  1
  Ca2+  Ca45  1  0.90699900  0.67254943  0.16570614  1
  Ca2+  Ca46  1  0.91172136  0.67040044  0.49099909  1
  Ca2+  Ca47  1  0.90549124  0.67338735  0.83057766  1
  Al0+  Al48  1  0.00224976  -0.00184481  -0.00593492  1
  Al0+  Al49  1  0.00058044  -0.00045916  0.32787938  1
  Al0+  Al50  1  -0.00016005  -0.00119287  0.66312648  1
  Al0+  Al51  1  0.00306631  0.50183903  0.00041035  1
  Al0+  Al52  1  0.00183756  0.50009373  0.33936961  1
  Al0+  Al53  1  0.00027913  0.49874798  0.67307261  1
  Al0+  Al54  1  0.49946938  0.00263913  -0.00670154  1
  Al0+  Al55  1  0.49908055  0.00298544  0.34164612  1
  Al0+  Al56  1  0.50013959  -0.00114270  0.66706427  1
  Al0+  Al57  1  0.50061572  0.49930235  -0.00032766  1
  Al0+  Al58  1  0.49749580  0.50168357  0.32842927  1
  Al0+  Al59  1  0.49961384  0.49801440  0.66686822  1
  Al0+  Al60  1  0.25221308  0.24838299  -0.00453589  1
  Al0+  Al61  1  0.25027312  0.24986367  0.33485491  1
  Al0+  Al62  1  0.25185285  0.24829408  0.66704716  1
  Al0+  Al63  1  0.24741828  0.75215850  0.00114270  1
  Al0+  Al64  1  0.24638328  0.75221139  0.33014757  1
  Al0+  Al65  1  0.24879852  0.75067792  0.66676501  1
  Al0+  Al66  1  0.75251104  0.24932813  -0.00563887  1
  Al0+  Al67  1  0.74879291  0.24948665  0.33606206  1
  Al0+  Al68  1  0.75274072  0.24661138  0.66441674  1
  Al0+  Al69  1  0.74804321  0.75148362  -0.00566655  1
  Al0+  Al70  1  0.74679470  0.75195608  0.33431618  1
  Al0+  Al71  1  0.74776186  0.75086190  0.66824648  1
  Al0+  Al72  1  0.92721156  0.81875651  0.31788075  1
  Al0+  Al73  1  0.42858727  0.82079725  0.98798540  1
  Al0+  Al74  1  0.31912872  0.06948285  0.34803368  1
  Al0+  Al75  1  0.07172813  0.67593663  0.31861012  1
  Al0+  Al76  1  0.32037064  0.57096915  0.67913287  1
  Al0+  Al77  1  0.93016977  0.32314866  0.98636769  1
  Al0+  Al78  1  0.81922795  0.57082223  0.34809028  1
  Al0+  Al79  1  0.57191321  0.18037668  0.98632316  1
  Al0+  Al80  1  0.67541002  0.42646748  0.34902540  1
  Al0+  Al81  1  0.42859810  0.32217432  0.31780671  1
  Al0+  Al82  1  0.18028752  0.42973558  0.34579617  1
  Al0+  Al83  1  0.56883842  0.67978745  0.32093381  1
  Al0+  Al84  1  0.07331627  0.17876805  0.98415748  1
  Al0+  Al85  1  0.57093608  0.67666067  0.98307252  1
  Al0+  Al86  1  0.07036746  0.18018649  0.32131461  1
  Al0+  Al87  1  0.92795424  0.81935551  0.65133375  1
  Al0+  Al88  1  0.42717283  0.82065388  0.65180142  1
  Al0+  Al89  1  0.81995067  0.57107857  0.68189408  1
  Al0+  Al90  1  0.67874758  0.42633335  0.01464796  1
  Al0+  Al91  1  0.92915324  0.81869525  0.98593439  1
  Al0+  Al92  1  0.57177137  0.17932146  0.31986716  1
  Al0+  Al93  1  0.82134633  0.57414494  0.01633644  1
  Al0+  Al94  1  0.67950726  0.93074179  0.34637342  1
  Al0+  Al95  1  0.43079639  0.32020029  0.65216522  1
  Si0+  Si96  1  0.07199994  0.67648415  0.65128928  1
  Si0+  Si97  1  0.17735731  0.92948147  0.01671018  1
  Si0+  Si98  1  0.42673620  0.32211128  0.98274935  1
  Si0+  Si99  1  0.32115149  0.07030623  0.01498175  1
  Si0+  Si100  1  0.82537821  0.07233529  0.34866318  1
  Si0+  Si101  1  0.57424879  0.17699575  0.64898530  1
  Si0+  Si102  1  0.82368590  0.07018940  0.68270477  1
  Si0+  Si103  1  0.92671606  0.32328942  0.32000839  1
  Si0+  Si104  1  0.67822877  0.93281325  0.01311534  1
  Si0+  Si105  1  0.17870816  0.42458422  0.68587187  1
  Si0+  Si106  1  0.32111550  0.57345651  0.01488944  1
  Si0+  Si107  1  0.57020474  0.67813514  0.64947720  1
  Si0+  Si108  1  0.67930925  0.42542451  0.68204843  1
  Si0+  Si109  1  0.67833242  0.93033182  0.68460240  1
  Si0+  Si110  1  0.07071786  0.17926493  0.65151448  1
  Si0+  Si111  1  0.07396925  0.67732118  0.98186605  1
  Si0+  Si112  1  0.32153871  0.57586434  0.34738512  1
  Si0+  Si113  1  0.32132202  0.07054017  0.68510047  1
  Si0+  Si114  1  0.17858122  0.93068965  0.68224279  1
  Si0+  Si115  1  0.17549112  0.92736796  0.35143680  1
  Si0+  Si116  1  0.92981113  0.32189289  0.65121128  1
  Si0+  Si117  1  0.82389442  0.06972789  0.01323100  1
  Si0+  Si118  1  0.42659526  0.82448405  0.31992169  1
  Si0+  Si119  1  0.18259308  0.42784368  0.01418614  1
  O2-  O120  1  0.25034792  -0.00077094  0.05739193  1
  O2-  O121  1  0.24641767  -0.00679238  0.39674377  1
  O2-  O122  1  0.25186038  -0.00171268  0.72759226  1
  O2-  O123  1  0.25323208  0.49910737  0.05640335  1
  O2-  O124  1  0.25305382  0.50678123  0.39142371  1
  O2-  O125  1  0.24573568  0.49619947  0.72823157  1
  O2-  O126  1  0.75137385  0.00120484  0.05606851  1
  O2-  O127  1  0.75512900  0.00522267  0.39360857  1
  O2-  O128  1  0.75069578  0.00114281  0.72549354  1
  O2-  O129  1  0.74936579  0.50049035  0.06359159  1
  O2-  O130  1  0.74852546  0.49744535  0.39911754  1
  O2-  O131  1  0.74785010  0.49329720  0.72730888  1
  O2-  O132  1  -0.00772845  0.25119083  0.27598871  1
  O2-  O133  1  0.00322467  0.25315925  0.60891922  1
  O2-  O134  1  0.00199533  0.25102278  0.93420255  1
  O2-  O135  1  -0.00343235  0.74413524  0.26821963  1
  O2-  O136  1  -0.00228166  0.73914820  0.60755708  1
  O2-  O137  1  -0.00044956  0.74021256  0.93834425  1
  O2-  O138  1  0.50665816  0.25649829  0.26833684  1
  O2-  O139  1  0.50794655  0.24797838  0.60653844  1
  O2-  O140  1  0.50226141  0.25988257  0.93991040  1
  O2-  O141  1  0.49167529  0.75337404  0.27569568  1
  O2-  O142  1  0.49913690  0.74449550  0.60502793  1
  O2-  O143  1  0.49426077  0.74517422  0.93465927  1
  O2-  O144  1  0.07383980  0.17989544  0.09730816  1
  O2-  O145  1  0.06990752  0.18152714  0.43524898  1
  O2-  O146  1  0.06959840  0.17834684  0.75640880  1
  O2-  O147  1  0.07962391  0.67997067  0.08663651  1
  O2-  O148  1  0.07369158  0.67913302  0.43252280  1
  O2-  O149  1  0.07537219  0.68079630  0.75695468  1
  O2-  O150  1  0.56829015  0.17410795  0.09827770  1
  O2-  O151  1  0.56628442  0.17636989  0.43350147  1
  O2-  O152  1  0.57387221  0.17665783  0.75499503  1
  O2-  O153  1  0.57161410  0.67994867  0.09646812  1
  O2-  O154  1  0.56783782  0.68221167  0.43439639  1
  O2-  O155  1  0.56953933  0.68037631  0.75501673  1
  O2-  O156  1  0.18205288  0.42749517  0.23236260  1
  O2-  O157  1  0.17855058  0.42172063  0.58073949  1
  O2-  O158  1  0.18466231  0.42721710  0.90877682  1
  O2-  O159  1  0.17607188  0.92881198  0.24581677  1
  O2-  O160  1  0.17808132  0.93463255  0.57766608  1
  O2-  O161  1  0.17708941  0.93040629  0.91104228  1
  O2-  O162  1  0.67938783  0.42585126  0.23589435  1
  O2-  O163  1  0.68065705  0.42529229  0.57690671  1
  O2-  O164  1  0.68117741  0.42636768  0.90023676  1
  O2-  O165  1  0.67861792  0.93130158  0.23304060  1
  O2-  O166  1  0.67719778  0.93091501  0.57971489  1
  O2-  O167  1  0.67839614  0.93552995  0.90751673  1
  O2-  O168  1  0.41876531  0.31729523  0.08721491  1
  O2-  O169  1  0.42685348  0.31893280  0.43161577  1
  O2-  O170  1  0.43081593  0.31739495  0.76557153  1
  O2-  O171  1  0.43109063  0.82270832  0.10131851  1
  O2-  O172  1  0.42796871  0.82293548  0.42591176  1
  O2-  O173  1  0.42930230  0.82110027  0.76470431  1
  O2-  O174  1  0.93205902  0.31983831  0.09968551  1
  O2-  O175  1  0.93012992  0.32122659  0.42639777  1
  O2-  O176  1  0.92936982  0.31959201  0.75603378  1
  O2-  O177  1  0.93099852  0.82306319  0.09808030  1
  O2-  O178  1  0.92885395  0.81854479  0.43179422  1
  O2-  O179  1  0.93113363  0.82220349  0.76445366  1
  O2-  O180  1  0.31925459  0.06812952  0.23457161  1
  O2-  O181  1  0.31942014  0.07176365  0.58035451  1
  O2-  O182  1  0.32020257  0.06969205  0.90939502  1
  O2-  O183  1  0.31981642  0.57688456  0.24169782  1
  O2-  O184  1  0.31781687  0.57146835  0.56651130  1
  O2-  O185  1  0.31837660  0.57443915  0.90938190  1
  O2-  O186  1  0.82747717  0.07042032  0.24309752  1
  O2-  O187  1  0.82601188  0.07177782  0.57811469  1
  O2-  O188  1  0.82334030  0.06724852  0.90745173  1
  O2-  O189  1  0.81803032  0.57119550  0.23500610  1
  O2-  O190  1  0.81964150  0.57094890  0.56922535  1
  O2-  O191  1  0.81874177  0.57310325  0.90212800  1
  O2-  O192  1  0.04485460  0.08336090  0.26613974  1
  O2-  O193  1  0.04024065  0.08893989  0.60337891  1
  O2-  O194  1  0.04420956  0.08141564  0.92973354  1
  O2-  O195  1  0.05055894  0.57490311  0.26924546  1
  O2-  O196  1  0.05346300  0.57905444  0.61075834  1
  O2-  O197  1  0.05798901  0.58174057  0.93671629  1
  O2-  O198  1  0.53572405  0.08201207  0.26857032  1
  O2-  O199  1  0.54513936  0.08366888  0.60542470  1
  O2-  O200  1  0.53509095  0.08797770  0.92672841  1
  O2-  O201  1  0.53975497  0.58523030  0.26347296  1
  O2-  O202  1  0.54778238  0.58322896  0.60608395  1
  O2-  O203  1  0.54545810  0.57724116  0.93057885  1
  O2-  O204  1  0.16510162  0.21358235  0.26748517  1
  O2-  O205  1  0.16419019  0.20423142  0.60645443  1
  O2-  O206  1  0.17079735  0.20758456  0.92862350  1
  O2-  O207  1  0.16818889  0.70816249  0.26240211  1
  O2-  O208  1  0.16269030  0.70787845  0.60345118  1
  O2-  O209  1  0.16417129  0.71132896  0.93264056  1
  O2-  O210  1  0.67351404  0.19738893  0.26926828  1
  O2-  O211  1  0.66994415  0.19577078  0.60451869  1
  O2-  O212  1  0.66929639  0.20389723  0.92990995  1
  O2-  O213  1  0.66250825  0.71574575  0.26628443  1
  O2-  O214  1  0.66193091  0.70967446  0.60382436  1
  O2-  O215  1  0.66529342  0.71211654  0.92698283  1
  O2-  O216  1  0.09054738  0.45354422  0.06101490  1
  O2-  O217  1  0.08504777  0.45605574  0.40510897  1
  O2-  O218  1  0.08474810  0.44734214  0.73267896  1
  O2-  O219  1  0.08660774  0.96003579  0.06398337  1
  O2-  O220  1  0.08295332  0.95676258  0.39787779  1
  O2-  O221  1  0.08760604  0.96267655  0.73033198  1
  O2-  O222  1  0.57704200  0.44769506  0.06404593  1
  O2-  O223  1  0.57601415  0.45800115  0.39859641  1
  O2-  O224  1  0.58496411  0.44905135  0.72743361  1
  O2-  O225  1  0.58712279  0.96444645  0.05900405  1
  O2-  O226  1  0.58506976  0.96243837  0.40523914  1
  O2-  O227  1  0.58709518  0.95997187  0.73323833  1
  O2-  O228  1  0.21189171  0.33530761  0.05985434  1
  O2-  O229  1  0.21379530  0.33514887  0.40253146  1
  O2-  O230  1  0.20821311  0.33204690  0.73319890  1
  O2-  O231  1  0.20192126  0.83729391  0.06464799  1
  O2-  O232  1  0.19779938  0.83281271  0.39725999  1
  O2-  O233  1  0.20296791  0.83809965  0.72965294  1
  O2-  O234  1  0.70975241  0.32683290  0.06464402  1
  O2-  O235  1  0.69931804  0.32655591  0.40258753  1
  O2-  O236  1  0.70499714  0.32992572  0.72581429  1
  O2-  O237  1  0.70412208  0.83975270  0.05738908  1
  O2-  O238  1  0.70966790  0.83608304  0.40431554  1
  O2-  O239  1  0.70529454  0.83875980  0.73228006  1
  O2-  O240  1  0.44428562  0.42300569  0.26664421  1
  O2-  O241  1  0.45643574  0.41805593  0.59867830  1
  O2-  O242  1  0.44480036  0.41810255  0.93926177  1
  O2-  O243  1  0.45531918  0.91779574  0.27673796  1
  O2-  O244  1  0.45971504  0.91790315  0.59997078  1
  O2-  O245  1  0.45981845  0.91702988  0.93131843  1
  O2-  O246  1  0.95662504  0.41502327  0.27507550  1
  O2-  O247  1  0.95564856  0.41504202  0.60614115  1
  O2-  O248  1  0.96146359  0.42068149  0.93227646  1
  O2-  O249  1  0.95775702  0.91648441  0.26510166  1
  O2-  O250  1  0.96245855  0.91505307  0.59773993  1
  O2-  O251  1  0.96496800  0.91294368  0.92912858  1
  O2-  O252  1  0.33359205  0.28387205  0.26493329  1
  O2-  O253  1  0.33386609  0.28640505  0.60030455  1
  O2-  O254  1  0.33810033  0.28842618  0.93074070  1
  O2-  O255  1  0.33113520  0.80623391  0.27539640  1
  O2-  O256  1  0.32887248  0.79483702  0.59934095  1
  O2-  O257  1  0.32741573  0.79826890  0.93730428  1
  O2-  O258  1  0.83222552  0.30107070  0.27602901  1
  O2-  O259  1  0.83953826  0.29050167  0.60299844  1
  O2-  O260  1  0.83517019  0.29132023  0.92815317  1
  O2-  O261  1  0.82794574  0.79434678  0.26639651  1
  O2-  O262  1  0.82857525  0.79381573  0.60122910  1
  O2-  O263  1  0.83204052  0.79452009  0.92988214  1
  O2-  O264  1  0.41301861  0.04124638  0.06111023  1
  O2-  O265  1  0.41335429  0.04040187  0.40744290  1
  O2-  O266  1  0.41431014  0.04378081  0.73122077  1
  O2-  O267  1  0.41448092  0.54974015  0.05991321  1
  O2-  O268  1  0.41463124  0.55137319  0.39394281  1
  O2-  O269  1  0.41674324  0.53924616  0.73453991  1
  O2-  O270  1  0.91576740  0.03985597  0.05914045  1
  O2-  O271  1  0.91847732  0.04503617  0.39612600  1
  O2-  O272  1  0.91469841  0.03982866  0.73077130  1
  O2-  O273  1  0.92373023  0.55138609  0.06361387  1
  O2-  O274  1  0.91810813  0.54454707  0.40209714  1
  O2-  O275  1  0.91813241  0.54400295  0.73570214  1
  O2-  O276  1  0.29267130  0.16232359  0.06096789  1
  O2-  O277  1  0.28388493  0.16374477  0.40384341  1
  O2-  O278  1  0.29125691  0.16141141  0.73356974  1
  O2-  O279  1  0.28988412  0.66394019  0.06238435  1
  O2-  O280  1  0.29510282  0.66970008  0.39380099  1
  O2-  O281  1  0.28824589  0.66747313  0.73485205  1
  O2-  O282  1  0.80043065  0.16310733  0.05747914  1
  O2-  O283  1  0.80317510  0.16616055  0.39599370  1
  O2-  O284  1  0.79710223  0.16268262  0.73087346  1
  O2-  O285  1  0.79004081  0.67372966  0.06521526  1
  O2-  O286  1  0.78669592  0.66838775  0.40091807  1
  O2-  O287  1  0.78654328  0.66777001  0.73471981  1
