# generated using pymatgen
data_Ca2Al2SiO7
_symmetry_space_group_name_H-M   'P 1'
_cell_length_a   15.46394583
_cell_length_b   15.46284521
_cell_length_c   15.28724611
_cell_angle_alpha   90.00021023
_cell_angle_beta   89.99821208
_cell_angle_gamma   90.02599264
_symmetry_Int_Tables_number   1
_chemical_formula_structural   Ca2Al2SiO7
_chemical_formula_sum   'Ca48 Al48 Si24 O168'
_cell_volume   3655.43394663
_cell_formula_units_Z   24
loop_
 _symmetry_equiv_pos_site_id
 _symmetry_equiv_pos_as_xyz
  1  'x, y, z'
loop_
 _atom_type_symbol
 _atom_type_oxidation_number
  Ca2+  2.0
  Al0+  0.0
  Si0+  0.0
  O2-  -2.0
loop_
 _atom_site_type_symbol
 _atom_site_label
 _atom_site_symmetry_multiplicity
 _atom_site_fract_x
 _atom_site_fract_y
 _atom_site_fract_z
 _atom_site_occupancy
  Ca2+  Ca0  1  0.17255726  0.07435363  0.17808807  1
  Ca2+  Ca1  1  0.17956541  0.07714775  0.50046276  1
  Ca2+  Ca2  1  0.17578172  0.08636284  0.83364139  1
  Ca2+  Ca3  1  0.16206722  0.57648579  0.17014545  1
  Ca2+  Ca4  1  0.17019222  0.58770012  0.50580336  1
  Ca2+  Ca5  1  0.17294266  0.58293579  0.83308622  1
  Ca2+  Ca6  1  0.67833183  0.08132069  0.17452665  1
  Ca2+  Ca7  1  0.66916026  0.07680051  0.50681597  1
  Ca2+  Ca8  1  0.67005883  0.08267487  0.83069672  1
  Ca2+  Ca9  1  0.67299220  0.57884547  0.17093082  1
  Ca2+  Ca10  1  0.66001970  0.57075827  0.50263701  1
  Ca2+  Ca11  1  0.66446191  0.57217786  0.84289553  1
  Ca2+  Ca12  1  0.07472274  0.33219951  0.15689421  1
  Ca2+  Ca13  1  0.07966107  0.32977509  0.49462784  1
  Ca2+  Ca14  1  0.07566837  0.33985075  0.83380273  1
  Ca2+  Ca15  1  0.08512187  0.82855424  0.16807786  1
  Ca2+  Ca16  1  0.08723250  0.82275936  0.49216567  1
  Ca2+  Ca17  1  0.07782995  0.82629342  0.82346133  1
  Ca2+  Ca18  1  0.58243061  0.34037757  0.16626056  1
  Ca2+  Ca19  1  0.57936426  0.33163188  0.49835954  1
  Ca2+  Ca20  1  0.58570922  0.33011102  0.82279570  1
  Ca2+  Ca21  1  0.58277003  0.83430423  0.16447326  1
  Ca2+  Ca22  1  0.57644432  0.84390493  0.49603623  1
  Ca2+  Ca23  1  0.58413136  0.82592200  0.82572345  1
  Ca2+  Ca24  1  0.32779081  0.41423271  0.17183503  1
  Ca2+  Ca25  1  0.33979959  0.42190538  0.50778887  1
  Ca2+  Ca26  1  0.33314124  0.42124361  0.83428218  1
  Ca2+  Ca27  1  0.33014692  0.92119537  0.17951294  1
  Ca2+  Ca28  1  0.33971480  0.92251963  0.50465906  1
  Ca2+  Ca29  1  0.34210049  0.92112324  0.82756308  1
  Ca2+  Ca30  1  0.82367642  0.42222265  0.16973142  1
  Ca2+  Ca31  1  0.81977875  0.41910971  0.50033459  1
  Ca2+  Ca32  1  0.82138381  0.41832937  0.84147567  1
  Ca2+  Ca33  1  0.82920491  0.92723876  0.17680082  1
  Ca2+  Ca34  1  0.82261241  0.92475202  0.50473582  1
  Ca2+  Ca35  1  0.83023124  0.92647081  0.83500090  1
  Ca2+  Ca36  1  0.41570266  0.16999052  0.16785453  1
  Ca2+  Ca37  1  0.41631611  0.17297890  0.49584392  1
  Ca2+  Ca38  1  0.42506022  0.17470858  0.81855979  1
  Ca2+  Ca39  1  0.42654012  0.67441931  0.16420938  1
  Ca2+  Ca40  1  0.41251827  0.67911489  0.49624157  1
  Ca2+  Ca41  1  0.42132501  0.66955744  0.82597877  1
  Ca2+  Ca42  1  0.91070131  0.16971521  0.15872512  1
  Ca2+  Ca43  1  0.91168374  0.16191756  0.49694884  1
  Ca2+  Ca44  1  0.90794838  0.17019011  0.83078340  1
  Ca2+  Ca45  1  0.91657295  0.65764087  0.16423199  1
  Ca2+  Ca46  1  0.92816459  0.66000628  0.49249678  1
  Ca2+  Ca47  1  0.92246070  0.65884880  0.82854987  1
  Al0+  Al48  1  0.00254458  -0.00046750  0.00174930  1
  Al0+  Al49  1  0.00291964  -0.00275271  0.34050497  1
  Al0+  Al50  1  -0.00003074  0.00003699  0.66933584  1
  Al0+  Al51  1  0.00121687  0.49835337  0.00010035  1
  Al0+  Al52  1  0.00016723  0.49766238  0.33182553  1
  Al0+  Al53  1  0.00005114  0.49810953  0.66056562  1
  Al0+  Al54  1  0.49883867  0.00219086  -0.00042474  1
  Al0+  Al55  1  0.50075030  0.00371302  0.33188403  1
  Al0+  Al56  1  0.50138208  -0.00001627  0.66945233  1
  Al0+  Al57  1  0.49775223  0.50233275  0.00035783  1
  Al0+  Al58  1  0.49799529  0.50006164  0.33064024  1
  Al0+  Al59  1  0.49836548  0.50073620  0.67334331  1
  Al0+  Al60  1  0.24965254  0.24988456  0.00304187  1
  Al0+  Al61  1  0.24827308  0.24938244  0.33112442  1
  Al0+  Al62  1  0.24702226  0.24984971  0.66757748  1
  Al0+  Al63  1  0.25012251  0.75151472  -0.00143739  1
  Al0+  Al64  1  0.24969066  0.74754012  0.32344045  1
  Al0+  Al65  1  0.25012578  0.74846584  0.66516455  1
  Al0+  Al66  1  0.74891945  0.24996182  0.00300173  1
  Al0+  Al67  1  0.74928599  0.25239298  0.33901555  1
  Al0+  Al68  1  0.74979708  0.25112395  0.66785244  1
  Al0+  Al69  1  0.74995609  0.75015408  -0.00271056  1
  Al0+  Al70  1  0.75334745  0.75012455  0.34123113  1
  Al0+  Al71  1  0.75221397  0.74965804  0.66800565  1
  Al0+  Al72  1  0.31936293  0.57177139  0.67922966  1
  Al0+  Al73  1  0.82147130  0.57229722  0.01293625  1
  Al0+  Al74  1  0.82206075  0.07108059  0.68360092  1
  Al0+  Al75  1  0.67579293  0.43143805  0.35011065  1
  Al0+  Al76  1  0.57116457  0.68018590  0.98681412  1
  Al0+  Al77  1  0.43177123  0.81921497  0.65396573  1
  Al0+  Al78  1  0.42699386  0.32247964  0.65322100  1
  Al0+  Al79  1  0.18109424  0.42993416  0.01322256  1
  Al0+  Al80  1  0.06890018  0.67938770  0.65304436  1
  Al0+  Al81  1  0.67881554  0.43163164  0.68104429  1
  Al0+  Al82  1  0.67576771  0.42830837  0.01570025  1
  Al0+  Al83  1  0.82246696  0.07229657  0.34812720  1
  Al0+  Al84  1  0.67744200  0.92684134  0.68408449  1
  Al0+  Al85  1  0.82093484  0.06959864  0.01369447  1
  Al0+  Al86  1  0.32116529  0.07246313  0.34794402  1
  Al0+  Al87  1  0.42769762  0.32178106  0.31805251  1
  Al0+  Al88  1  0.67785618  0.92810775  0.34695723  1
  Al0+  Al89  1  0.32092785  0.07222335  0.68082924  1
  Al0+  Al90  1  0.92878616  0.31963773  0.98619320  1
  Al0+  Al91  1  0.43136696  0.82325301  0.31927939  1
  Al0+  Al92  1  0.57226076  0.17989235  0.65085787  1
  Al0+  Al93  1  0.82374615  0.57070917  0.34952408  1
  Al0+  Al94  1  0.18137392  0.92453717  0.34873461  1
  Al0+  Al95  1  0.07004928  0.67746008  0.31595384  1
  Si0+  Si96  1  0.67712835  0.92812522  0.01563794  1
  Si0+  Si97  1  0.42734038  0.82381285  0.98211528  1
  Si0+  Si98  1  0.17852225  0.42821037  0.34791388  1
  Si0+  Si99  1  0.82496850  0.57020425  0.68173233  1
  Si0+  Si100  1  0.57429477  0.67663772  0.65074694  1
  Si0+  Si101  1  0.92955216  0.31950298  0.65016436  1
  Si0+  Si102  1  0.56970334  0.17966887  0.98560530  1
  Si0+  Si103  1  0.17519501  0.42703298  0.68212538  1
  Si0+  Si104  1  0.92886670  0.31871458  0.31799350  1
  Si0+  Si105  1  0.31957649  0.56934815  0.34558773  1
  Si0+  Si106  1  0.57367817  0.67763685  0.31900737  1
  Si0+  Si107  1  0.07303304  0.17672913  0.98279066  1
  Si0+  Si108  1  0.07170772  0.17663558  0.65089876  1
  Si0+  Si109  1  0.17926190  0.92800910  0.01445705  1
  Si0+  Si110  1  0.92777156  0.82410436  0.64879003  1
  Si0+  Si111  1  0.57328146  0.18073150  0.31489559  1
  Si0+  Si112  1  0.93025355  0.82355468  0.98558948  1
  Si0+  Si113  1  0.32102421  0.57505519  0.01908254  1
  Si0+  Si114  1  0.32105422  0.07077086  0.01511398  1
  Si0+  Si115  1  0.07106668  0.67881236  0.98365542  1
  Si0+  Si116  1  0.17971513  0.92741756  0.68379804  1
  Si0+  Si117  1  0.07017197  0.17723602  0.31876724  1
  Si0+  Si118  1  0.42622950  0.32076254  0.98540848  1
  Si0+  Si119  1  0.92886760  0.82234825  0.31693558  1
  O2-  O120  1  0.25145877  -0.00199761  0.05592447  1
  O2-  O121  1  0.25628281  -0.00620847  0.39757373  1
  O2-  O122  1  0.24701178  -0.00311473  0.72960208  1
  O2-  O123  1  0.25390254  0.50468714  0.06305063  1
  O2-  O124  1  0.25048805  0.49737136  0.38969196  1
  O2-  O125  1  0.24690559  0.49350672  0.72447637  1
  O2-  O126  1  0.74715732  -0.00524471  0.06043620  1
  O2-  O127  1  0.74958966  0.00083186  0.39600336  1
  O2-  O128  1  0.75024248  -0.00113599  0.73317854  1
  O2-  O129  1  0.74772883  0.50207121  0.06265157  1
  O2-  O130  1  0.74606700  0.50555164  0.39958946  1
  O2-  O131  1  0.75093966  0.50894141  0.72719516  1
  O2-  O132  1  -0.00548522  0.24240967  0.27577420  1
  O2-  O133  1  -0.00102048  0.24608257  0.60903105  1
  O2-  O134  1  0.00234927  0.24313404  0.93821200  1
  O2-  O135  1  -0.00639791  0.75083497  0.26960181  1
  O2-  O136  1  -0.00603685  0.75264928  0.60522498  1
  O2-  O137  1  -0.00232447  0.74824539  0.94286283  1
  O2-  O138  1  0.50348652  0.24880425  0.26998174  1
  O2-  O139  1  0.49729280  0.24989866  0.60208606  1
  O2-  O140  1  0.50130479  0.25413630  0.94417227  1
  O2-  O141  1  0.51113834  0.75258066  0.27436294  1
  O2-  O142  1  0.50965831  0.74853604  0.60585442  1
  O2-  O143  1  0.49687868  0.75566122  0.93973232  1
  O2-  O144  1  0.07432136  0.17726862  0.08846332  1
  O2-  O145  1  0.07269274  0.18206397  0.42384896  1
  O2-  O146  1  0.07393807  0.17761805  0.75613840  1
  O2-  O147  1  0.07339423  0.68002839  0.08844971  1
  O2-  O148  1  0.07111656  0.67646814  0.42892085  1
  O2-  O149  1  0.06790801  0.67969750  0.76694746  1
  O2-  O150  1  0.56629851  0.17555042  0.09050081  1
  O2-  O151  1  0.57368258  0.18155703  0.41991106  1
  O2-  O152  1  0.57155859  0.18295337  0.76554438  1
  O2-  O153  1  0.56948210  0.68314016  0.10012129  1
  O2-  O154  1  0.56683018  0.67296285  0.42416598  1
  O2-  O155  1  0.57121992  0.67675872  0.75664128  1
  O2-  O156  1  0.17822513  0.42877107  0.24258665  1
  O2-  O157  1  0.17192475  0.42743301  0.57648320  1
  O2-  O158  1  0.18248813  0.43112803  0.90017448  1
  O2-  O159  1  0.18103051  0.92824055  0.23416388  1
  O2-  O160  1  0.18074709  0.92754591  0.57881491  1
  O2-  O161  1  0.17764608  0.92710037  0.90953347  1
  O2-  O162  1  0.67711644  0.43189290  0.23660694  1
  O2-  O163  1  0.67916175  0.43131349  0.56823296  1
  O2-  O164  1  0.67695498  0.42773153  0.90206706  1
  O2-  O165  1  0.68031311  0.92988709  0.23245667  1
  O2-  O166  1  0.67863836  0.92837373  0.57091417  1
  O2-  O167  1  0.67664641  0.92986926  0.91046507  1
  O2-  O168  1  0.42317319  0.31722092  0.09049393  1
  O2-  O169  1  0.42539351  0.32234930  0.43042049  1
  O2-  O170  1  0.42701967  0.32121962  0.76756657  1
  O2-  O171  1  0.42593784  0.82481691  0.08768877  1
  O2-  O172  1  0.42840652  0.82013697  0.43204596  1
  O2-  O173  1  0.43044778  0.81566111  0.76749096  1
  O2-  O174  1  0.93143684  0.31762344  0.09944330  1
  O2-  O175  1  0.93287353  0.32026235  0.42327369  1
  O2-  O176  1  0.93181843  0.32211441  0.75533994  1
  O2-  O177  1  0.93416976  0.82698483  0.09019584  1
  O2-  O178  1  0.93322499  0.82307684  0.42208431  1
  O2-  O179  1  0.93149216  0.82478432  0.75514487  1
  O2-  O180  1  0.31629537  0.07310653  0.23340991  1
  O2-  O181  1  0.31790256  0.07305748  0.56852855  1
  O2-  O182  1  0.32074937  0.07173068  0.91017220  1
  O2-  O183  1  0.31821036  0.56752584  0.24027100  1
  O2-  O184  1  0.31673326  0.57330383  0.56593170  1
  O2-  O185  1  0.31880449  0.57640975  0.91344480  1
  O2-  O186  1  0.82189248  0.07183941  0.23391285  1
  O2-  O187  1  0.82372056  0.06863942  0.57058878  1
  O2-  O188  1  0.82092825  0.06841411  0.90123091  1
  O2-  O189  1  0.82463979  0.56581101  0.23593224  1
  O2-  O190  1  0.82844488  0.56491635  0.57670176  1
  O2-  O191  1  0.82269839  0.56956490  0.89919957  1
  O2-  O192  1  0.04899312  0.08242738  0.27418518  1
  O2-  O193  1  0.04578816  0.08413863  0.60423708  1
  O2-  O194  1  0.05175718  0.08181095  0.93746091  1
  O2-  O195  1  0.03932976  0.57956408  0.26277164  1
  O2-  O196  1  0.04105289  0.58230461  0.59775740  1
  O2-  O197  1  0.04562199  0.58669229  0.93617882  1
  O2-  O198  1  0.54858684  0.08783645  0.26642306  1
  O2-  O199  1  0.54597928  0.08006024  0.60209135  1
  O2-  O200  1  0.53896849  0.08902201  0.93649635  1
  O2-  O201  1  0.54027657  0.58814586  0.26858514  1
  O2-  O202  1  0.54288652  0.58439491  0.60630263  1
  O2-  O203  1  0.53749243  0.58404936  0.93216446  1
  O2-  O204  1  0.15884982  0.20966781  0.26759393  1
  O2-  O205  1  0.16136440  0.20704003  0.60106336  1
  O2-  O206  1  0.16608379  0.20638962  0.93668363  1
  O2-  O207  1  0.16476937  0.70751951  0.25725045  1
  O2-  O208  1  0.16478847  0.71114197  0.59926018  1
  O2-  O209  1  0.16258868  0.70961947  0.93626742  1
  O2-  O210  1  0.66705229  0.20905553  0.26921379  1
  O2-  O211  1  0.67007324  0.21029390  0.59837486  1
  O2-  O212  1  0.66222870  0.20488459  0.93932811  1
  O2-  O213  1  0.67095281  0.69679977  0.27813898  1
  O2-  O214  1  0.67072070  0.69466833  0.60773250  1
  O2-  O215  1  0.66784183  0.70767264  0.93054673  1
  O2-  O216  1  0.08509083  0.46024191  0.06803095  1
  O2-  O217  1  0.08788477  0.45661298  0.39609189  1
  O2-  O218  1  0.08322692  0.45784651  0.72933184  1
  O2-  O219  1  0.08913092  0.95617455  0.06448609  1
  O2-  O220  1  0.08540966  0.95411733  0.40421617  1
  O2-  O221  1  0.08603672  0.95293479  0.73024707  1
  O2-  O222  1  0.57621849  0.45612404  0.06655292  1
  O2-  O223  1  0.57631875  0.45917273  0.40118643  1
  O2-  O224  1  0.58265555  0.45912325  0.73722851  1
  O2-  O225  1  0.58306199  0.95566580  0.06063204  1
  O2-  O226  1  0.57965500  0.95779824  0.39793754  1
  O2-  O227  1  0.58007914  0.95453040  0.73916598  1
  O2-  O228  1  0.21020559  0.33304371  0.06871487  1
  O2-  O229  1  0.20328596  0.33566555  0.39414821  1
  O2-  O230  1  0.19530970  0.33300460  0.72902068  1
  O2-  O231  1  0.20628639  0.83601325  0.06220087  1
  O2-  O232  1  0.20629089  0.82334160  0.39572229  1
  O2-  O233  1  0.20655852  0.83467597  0.73092677  1
  O2-  O234  1  0.70467223  0.33073565  0.06905881  1
  O2-  O235  1  0.70771366  0.33494978  0.40351384  1
  O2-  O236  1  0.71366106  0.33645763  0.73440261  1
  O2-  O237  1  0.70069315  0.83388822  0.05987344  1
  O2-  O238  1  0.70209377  0.83001414  0.40173380  1
  O2-  O239  1  0.70673988  0.82724990  0.73634564  1
  O2-  O240  1  0.45575112  0.41879864  0.26211480  1
  O2-  O241  1  0.45535862  0.42224598  0.60345256  1
  O2-  O242  1  0.44652792  0.41601858  0.94209951  1
  O2-  O243  1  0.45663133  0.92144523  0.26433914  1
  O2-  O244  1  0.45771107  0.91767087  0.60260755  1
  O2-  O245  1  0.45165849  0.91861661  0.93727624  1
  O2-  O246  1  0.96374493  0.40721346  0.26907154  1
  O2-  O247  1  0.96127688  0.40845577  0.59940384  1
  O2-  O248  1  0.96428446  0.41468332  0.93103080  1
  O2-  O249  1  0.95956549  0.91519953  0.27018489  1
  O2-  O250  1  0.95619573  0.91699624  0.60347827  1
  O2-  O251  1  0.96426177  0.91259328  0.93524214  1
  O2-  O252  1  0.33082426  0.28890004  0.26319995  1
  O2-  O253  1  0.32615750  0.29754003  0.60306086  1
  O2-  O254  1  0.33588245  0.28885211  0.93734607  1
  O2-  O255  1  0.33773810  0.78683126  0.26160999  1
  O2-  O256  1  0.33578290  0.78582008  0.60052319  1
  O2-  O257  1  0.33369508  0.79758820  0.93573321  1
  O2-  O258  1  0.83497059  0.29626648  0.27256144  1
  O2-  O259  1  0.83809852  0.29300877  0.60280591  1
  O2-  O260  1  0.83148770  0.28916396  0.93315833  1
  O2-  O261  1  0.83306663  0.80202973  0.27270251  1
  O2-  O262  1  0.83303345  0.80176799  0.60458590  1
  O2-  O263  1  0.83706823  0.80148956  0.93875082  1
  O2-  O264  1  0.41289621  0.04448658  0.06330715  1
  O2-  O265  1  0.42193482  0.05313574  0.39645237  1
  O2-  O266  1  0.41622440  0.04146250  0.73663678  1
  O2-  O267  1  0.41452968  0.55066815  0.06455020  1
  O2-  O268  1  0.41096671  0.54394675  0.39338776  1
  O2-  O269  1  0.41408381  0.54342730  0.73790086  1
  O2-  O270  1  0.91969222  0.04157450  0.06559782  1
  O2-  O271  1  0.92094810  0.04515083  0.40050643  1
  O2-  O272  1  0.92139962  0.04387512  0.73734205  1
  O2-  O273  1  0.92008606  0.54301281  0.06447532  1
  O2-  O274  1  0.92004924  0.53365825  0.40211507  1
  O2-  O275  1  0.91660911  0.53747809  0.72870630  1
  O2-  O276  1  0.29175624  0.16144237  0.06351476  1
  O2-  O277  1  0.28391008  0.16814581  0.40046164  1
  O2-  O278  1  0.28603813  0.16747251  0.73660509  1
  O2-  O279  1  0.29387519  0.66881217  0.06415127  1
  O2-  O280  1  0.28901413  0.66079484  0.39053531  1
  O2-  O281  1  0.28391773  0.66540213  0.73685517  1
  O2-  O282  1  0.78904821  0.16519844  0.06790705  1
  O2-  O283  1  0.79688859  0.17101218  0.40019704  1
  O2-  O284  1  0.79326815  0.16998782  0.73465840  1
  O2-  O285  1  0.79699343  0.67251798  0.06473901  1
  O2-  O286  1  0.80854361  0.67179103  0.40049144  1
  O2-  O287  1  0.81017212  0.66732519  0.72362351  1
