# generated using pymatgen
data_Ca2Al2SiO7
_symmetry_space_group_name_H-M   'P 1'
_cell_length_a   15.46124356
_cell_length_b   15.45917723
_cell_length_c   15.28465469
_cell_angle_alpha   89.99656286
_cell_angle_beta   90.01748440
_cell_angle_gamma   90.00199233
_symmetry_Int_Tables_number   1
_chemical_formula_structural   Ca2Al2SiO7
_chemical_formula_sum   'Ca48 Al48 Si24 O168'
_cell_volume   3653.30901239
_cell_formula_units_Z   24
loop_
 _symmetry_equiv_pos_site_id
 _symmetry_equiv_pos_as_xyz
  1  'x, y, z'
loop_
 _atom_type_symbol
 _atom_type_oxidation_number
  Ca2+  2.0
  Al0+  0.0
  Si0+  0.0
  O2-  -2.0
loop_
 _atom_site_type_symbol
 _atom_site_label
 _atom_site_symmetry_multiplicity
 _atom_site_fract_x
 _atom_site_fract_y
 _atom_site_fract_z
 _atom_site_occupancy
  Ca2+  Ca0  1  0.17781861  0.07705000  0.17829680  1
  Ca2+  Ca1  1  0.16191127  0.07758386  0.50467705  1
  Ca2+  Ca2  1  0.17072822  0.07477102  0.84084682  1
  Ca2+  Ca3  1  0.15892145  0.57573802  0.17145343  1
  Ca2+  Ca4  1  0.15660373  0.57700365  0.50004010  1
  Ca2+  Ca5  1  0.16321674  0.57981499  0.84047793  1
  Ca2+  Ca6  1  0.66096190  0.07980029  0.16480820  1
  Ca2+  Ca7  1  0.67328827  0.08242354  0.51087140  1
  Ca2+  Ca8  1  0.66311477  0.08155350  0.83793628  1
  Ca2+  Ca9  1  0.66952972  0.57914078  0.17586487  1
  Ca2+  Ca10  1  0.67250135  0.58608736  0.49994820  1
  Ca2+  Ca11  1  0.66861456  0.57326005  0.84114655  1
  Ca2+  Ca12  1  0.08431542  0.33507748  0.16771439  1
  Ca2+  Ca13  1  0.08250531  0.31894069  0.48933969  1
  Ca2+  Ca14  1  0.08568663  0.32629186  0.82857389  1
  Ca2+  Ca15  1  0.09731440  0.82382725  0.16249119  1
  Ca2+  Ca16  1  0.09245512  0.82615967  0.49520518  1
  Ca2+  Ca17  1  0.09521626  0.82534213  0.82869390  1
  Ca2+  Ca18  1  0.57624577  0.32913392  0.15983029  1
  Ca2+  Ca19  1  0.57156651  0.32909201  0.49617867  1
  Ca2+  Ca20  1  0.58043067  0.32259276  0.82697681  1
  Ca2+  Ca21  1  0.57928565  0.83059222  0.15840255  1
  Ca2+  Ca22  1  0.58562518  0.83099708  0.49343182  1
  Ca2+  Ca23  1  0.57861245  0.84521405  0.83330004  1
  Ca2+  Ca24  1  0.32194325  0.41255194  0.17389218  1
  Ca2+  Ca25  1  0.33300154  0.41102479  0.49897190  1
  Ca2+  Ca26  1  0.33020970  0.41685571  0.83778644  1
  Ca2+  Ca27  1  0.33036245  0.92513481  0.16762923  1
  Ca2+  Ca28  1  0.32294883  0.92304748  0.49994837  1
  Ca2+  Ca29  1  0.32646991  0.92116953  0.84357290  1
  Ca2+  Ca30  1  0.82930665  0.41902955  0.17407017  1
  Ca2+  Ca31  1  0.84443556  0.42218125  0.49760216  1
  Ca2+  Ca32  1  0.82706812  0.41633170  0.84132892  1
  Ca2+  Ca33  1  0.82668273  0.91374451  0.16754697  1
  Ca2+  Ca34  1  0.82714490  0.92336863  0.50960660  1
  Ca2+  Ca35  1  0.82286028  0.92378683  0.83262311  1
  Ca2+  Ca36  1  0.41448979  0.16482564  0.16291604  1
  Ca2+  Ca37  1  0.41621706  0.17245928  0.49657670  1
  Ca2+  Ca38  1  0.42485264  0.16507554  0.82976499  1
  Ca2+  Ca39  1  0.41981692  0.67385582  0.16305172  1
  Ca2+  Ca40  1  0.42549367  0.66946797  0.49267417  1
  Ca2+  Ca41  1  0.41330354  0.67707835  0.83211226  1
  Ca2+  Ca42  1  0.92446052  0.16927914  0.16842576  1
  Ca2+  Ca43  1  0.92528768  0.16499908  0.49518304  1
  Ca2+  Ca44  1  0.92104117  0.16513742  0.82553236  1
  Ca2+  Ca45  1  0.92508130  0.66333885  0.16628847  1
  Ca2+  Ca46  1  0.92449203  0.66924673  0.49144775  1
  Ca2+  Ca47  1  0.92856390  0.66976111  0.83035096  1
  Al0+  Al48  1  -0.00167116  -0.00196220  0.00294069  1
  Al0+  Al49  1  -0.00218729  -0.00179370  0.33171841  1
  Al0+  Al50  1  -0.00222324  -0.00256550  0.67270515  1
  Al0+  Al51  1  -0.00032188  0.50062058  -0.00242010  1
  Al0+  Al52  1  -0.00158077  0.50089013  0.33505329  1
  Al0+  Al53  1  0.00113267  0.50143367  0.66638035  1
  Al0+  Al54  1  0.50070600  0.00017825  -0.00007847  1
  Al0+  Al55  1  0.49824612  -0.00010123  0.33888758  1
  Al0+  Al56  1  0.49813253  0.00051369  0.66269583  1
  Al0+  Al57  1  0.50025801  0.49983786  0.00390338  1
  Al0+  Al58  1  0.49999676  0.49835741  0.32561586  1
  Al0+  Al59  1  0.49904264  0.50236859  0.66479762  1
  Al0+  Al60  1  0.24942733  0.25138424  0.00585514  1
  Al0+  Al61  1  0.25131473  0.24985313  0.33404874  1
  Al0+  Al62  1  0.24824777  0.25058229  0.66084125  1
  Al0+  Al63  1  0.25247808  0.74886543  -0.00581597  1
  Al0+  Al64  1  0.25246552  0.74981469  0.33248659  1
  Al0+  Al65  1  0.25220807  0.74793218  0.66370798  1
  Al0+  Al66  1  0.75010929  0.25098306  0.00160383  1
  Al0+  Al67  1  0.74852786  0.24928646  0.33071784  1
  Al0+  Al68  1  0.74987631  0.25274720  0.66522923  1
  Al0+  Al69  1  0.75287529  0.75063970  0.00106371  1
  Al0+  Al70  1  0.75092025  0.74705059  0.33289599  1
  Al0+  Al71  1  0.75113168  0.74984950  0.67314504  1
  Al0+  Al72  1  0.42863053  0.32312050  0.65220925  1
  Al0+  Al73  1  0.17796099  0.92632303  0.01470059  1
  Al0+  Al74  1  0.07147410  0.17612434  0.31711129  1
  Al0+  Al75  1  0.43218990  0.81970884  0.98603274  1
  Al0+  Al76  1  0.07147597  0.68112782  0.31944788  1
  Al0+  Al77  1  0.57012841  0.18091332  0.98699283  1
  Al0+  Al78  1  0.32148814  0.07224761  0.35192883  1
  Al0+  Al79  1  0.68001792  0.93057815  0.01444211  1
  Al0+  Al80  1  0.67851551  0.42807243  0.01409464  1
  Al0+  Al81  1  0.06842937  0.17668438  0.65597236  1
  Al0+  Al82  1  0.32090149  0.07114530  0.01375164  1
  Al0+  Al83  1  0.06926798  0.68073463  0.98559573  1
  Al0+  Al84  1  0.17869088  0.43076349  0.01270183  1
  Al0+  Al85  1  0.17877699  0.43104043  0.34870801  1
  Al0+  Al86  1  0.67619534  0.92909889  0.68144405  1
  Al0+  Al87  1  0.92880223  0.32116764  0.31816083  1
  Al0+  Al88  1  0.17757669  0.92754022  0.34871012  1
  Al0+  Al89  1  0.42902233  0.31965355  0.31682939  1
  Al0+  Al90  1  0.81946607  0.56934230  0.34791160  1
  Al0+  Al91  1  0.82061034  0.07421952  0.68129822  1
  Al0+  Al92  1  0.57272432  0.67974872  0.31979664  1
  Al0+  Al93  1  0.18027334  0.92713272  0.68095315  1
  Al0+  Al94  1  0.07191932  0.67986898  0.65102174  1
  Al0+  Al95  1  0.57187060  0.17783596  0.65035592  1
  Si0+  Si96  1  0.93027138  0.32018714  0.98509909  1
  Si0+  Si97  1  0.07202567  0.17810020  0.98671576  1
  Si0+  Si98  1  0.31955933  0.07421785  0.68320426  1
  Si0+  Si99  1  0.57187263  0.17602231  0.31623864  1
  Si0+  Si100  1  0.32434832  0.57158788  0.34962112  1
  Si0+  Si101  1  0.82001216  0.07214329  0.34729416  1
  Si0+  Si102  1  0.67632480  0.42657596  0.35143662  1
  Si0+  Si103  1  0.92596792  0.82172692  0.31634236  1
  Si0+  Si104  1  0.42907459  0.82106992  0.65003858  1
  Si0+  Si105  1  0.42994869  0.82281315  0.31637770  1
  Si0+  Si106  1  0.92471906  0.82449749  0.98002399  1
  Si0+  Si107  1  0.82313457  0.07426663  0.01940312  1
  Si0+  Si108  1  0.67988901  0.92842311  0.34651929  1
  Si0+  Si109  1  0.82169405  0.57065375  0.01628121  1
  Si0+  Si110  1  0.67688389  0.43207148  0.68022150  1
  Si0+  Si111  1  0.42558443  0.32361048  0.98381989  1
  Si0+  Si112  1  0.32304439  0.57283379  0.01654629  1
  Si0+  Si113  1  0.82287837  0.57039644  0.68384588  1
  Si0+  Si114  1  0.32299728  0.57049179  0.68132751  1
  Si0+  Si115  1  0.57239165  0.67963235  0.65374094  1
  Si0+  Si116  1  0.57488570  0.67648452  0.98294219  1
  Si0+  Si117  1  0.17900333  0.42937217  0.68088858  1
  Si0+  Si118  1  0.92739520  0.32405740  0.65194922  1
  Si0+  Si119  1  0.92643104  0.81946939  0.65067750  1
  O2-  O120  1  0.24507668  0.00281645  0.06352267  1
  O2-  O121  1  0.24417904  0.00414328  0.39975021  1
  O2-  O122  1  0.25182075  0.00481591  0.72767974  1
  O2-  O123  1  0.25491219  0.50369736  0.05960836  1
  O2-  O124  1  0.25387896  0.50597776  0.39591645  1
  O2-  O125  1  0.25146252  0.49937566  0.72246672  1
  O2-  O126  1  0.75517170  0.00393498  0.06270662  1
  O2-  O127  1  0.74872546  0.00085149  0.38889766  1
  O2-  O128  1  0.74307307  0.00693743  0.73026496  1
  O2-  O129  1  0.74848949  0.50715652  0.06038329  1
  O2-  O130  1  0.74639967  0.49349683  0.39692489  1
  O2-  O131  1  0.75192057  0.49856289  0.72426508  1
  O2-  O132  1  0.00196339  0.25126668  0.26683997  1
  O2-  O133  1  -0.00840014  0.25044798  0.61045972  1
  O2-  O134  1  0.00028431  0.24835613  0.94302525  1
  O2-  O135  1  0.00089024  0.75963550  0.27271868  1
  O2-  O136  1  -0.00135405  0.75579962  0.60482775  1
  O2-  O137  1  -0.00081369  0.76010206  0.93819926  1
  O2-  O138  1  0.50300532  0.24379569  0.27173355  1
  O2-  O139  1  0.49860549  0.24913814  0.60187235  1
  O2-  O140  1  0.49537628  0.25603743  0.94011260  1
  O2-  O141  1  0.49930857  0.75440311  0.27264633  1
  O2-  O142  1  0.50698838  0.75537714  0.61076374  1
  O2-  O143  1  0.50774875  0.74539168  0.93705795  1
  O2-  O144  1  0.07048961  0.17966203  0.09125809  1
  O2-  O145  1  0.06666571  0.17472993  0.43106076  1
  O2-  O146  1  0.07015714  0.18109024  0.76976401  1
  O2-  O147  1  0.06656127  0.67809801  0.09841461  1
  O2-  O148  1  0.06819169  0.68114739  0.43271582  1
  O2-  O149  1  0.07006383  0.67714789  0.76421651  1
  O2-  O150  1  0.57009215  0.18223853  0.10003782  1
  O2-  O151  1  0.57418880  0.17699188  0.42162390  1
  O2-  O152  1  0.57100374  0.17998807  0.76420161  1
  O2-  O153  1  0.57385379  0.67732798  0.08838155  1
  O2-  O154  1  0.57277578  0.68295843  0.43383902  1
  O2-  O155  1  0.56955593  0.67478815  0.75850933  1
  O2-  O156  1  0.17875334  0.43417427  0.23548251  1
  O2-  O157  1  0.17666916  0.43107224  0.57621650  1
  O2-  O158  1  0.17891474  0.43084477  0.89877757  1
  O2-  O159  1  0.18251887  0.92565365  0.23554935  1
  O2-  O160  1  0.18301372  0.92534122  0.56820211  1
  O2-  O161  1  0.18124444  0.92765468  0.90062421  1
  O2-  O162  1  0.67766508  0.42856720  0.24580390  1
  O2-  O163  1  0.67461466  0.43632899  0.57551212  1
  O2-  O164  1  0.68158355  0.42872483  0.90007233  1
  O2-  O165  1  0.68055891  0.92867068  0.24139108  1
  O2-  O166  1  0.68125106  0.92399953  0.56743725  1
  O2-  O167  1  0.68088018  0.93271985  0.90179545  1
  O2-  O168  1  0.42642397  0.32362575  0.08907775  1
  O2-  O169  1  0.43321386  0.32202736  0.42987882  1
  O2-  O170  1  0.43094648  0.32624863  0.76596033  1
  O2-  O171  1  0.43458976  0.81706378  0.09899385  1
  O2-  O172  1  0.43237130  0.82128365  0.42247717  1
  O2-  O173  1  0.42713497  0.81839977  0.75507831  1
  O2-  O174  1  0.93019323  0.32161860  0.08965186  1
  O2-  O175  1  0.92961556  0.31810347  0.43217079  1
  O2-  O176  1  0.92945676  0.32795511  0.75799525  1
  O2-  O177  1  0.91806210  0.82174980  0.08519903  1
  O2-  O178  1  0.91998567  0.81870383  0.42179992  1
  O2-  O179  1  0.92312529  0.81457878  0.75592717  1
  O2-  O180  1  0.32574281  0.06736434  0.23855216  1
  O2-  O181  1  0.31836569  0.07314835  0.57785804  1
  O2-  O182  1  0.32007098  0.07097173  0.89955822  1
  O2-  O183  1  0.32458010  0.57132981  0.24413849  1
  O2-  O184  1  0.32700173  0.57167206  0.57667595  1
  O2-  O185  1  0.32370975  0.57212446  0.91031791  1
  O2-  O186  1  0.81900097  0.07208319  0.24219924  1
  O2-  O187  1  0.82080555  0.07032683  0.56721794  1
  O2-  O188  1  0.82342629  0.07630115  0.91400273  1
  O2-  O189  1  0.81696145  0.56990333  0.23494398  1
  O2-  O190  1  0.82274841  0.57142227  0.57892600  1
  O2-  O191  1  0.82198995  0.56691738  0.91003474  1
  O2-  O192  1  0.03911449  0.07884428  0.26342028  1
  O2-  O193  1  0.03832837  0.07904505  0.60378251  1
  O2-  O194  1  0.04473907  0.08505371  0.94094762  1
  O2-  O195  1  0.03493745  0.58597516  0.26705395  1
  O2-  O196  1  0.03771231  0.58350461  0.59857802  1
  O2-  O197  1  0.03357106  0.58549817  0.92953295  1
  O2-  O198  1  0.54568211  0.08122569  0.27276568  1
  O2-  O199  1  0.54635443  0.07878190  0.59696947  1
  O2-  O200  1  0.53989144  0.08467180  0.93279216  1
  O2-  O201  1  0.54319526  0.58393027  0.26491700  1
  O2-  O202  1  0.53984775  0.59124178  0.60273704  1
  O2-  O203  1  0.54806685  0.58212283  0.93783979  1
  O2-  O204  1  0.17076677  0.20340850  0.26795215  1
  O2-  O205  1  0.16267634  0.20927524  0.59950599  1
  O2-  O206  1  0.16329220  0.20838159  0.93953704  1
  O2-  O207  1  0.17052915  0.70570628  0.26690766  1
  O2-  O208  1  0.16983697  0.70622563  0.59787793  1
  O2-  O209  1  0.16762262  0.70508932  0.93131138  1
  O2-  O210  1  0.66493597  0.20068438  0.26870537  1
  O2-  O211  1  0.67048237  0.20829889  0.59816686  1
  O2-  O212  1  0.66762820  0.21216375  0.93387714  1
  O2-  O213  1  0.66842246  0.70985738  0.26448763  1
  O2-  O214  1  0.66661563  0.70315497  0.60882477  1
  O2-  O215  1  0.67007627  0.69906983  0.93878010  1
  O2-  O216  1  0.08222884  0.46365482  0.06535840  1
  O2-  O217  1  0.08278507  0.46250106  0.40310100  1
  O2-  O218  1  0.08798819  0.45919215  0.72980039  1
  O2-  O219  1  0.07569176  0.94413085  0.06338013  1
  O2-  O220  1  0.07528132  0.94861853  0.39787904  1
  O2-  O221  1  0.08155794  0.95027181  0.73374041  1
  O2-  O222  1  0.58113587  0.45490379  0.06824361  1
  O2-  O223  1  0.58328645  0.45654139  0.39578635  1
  O2-  O224  1  0.58768425  0.46546331  0.72976223  1
  O2-  O225  1  0.58483508  0.96184885  0.06948689  1
  O2-  O226  1  0.58777659  0.95224297  0.39463179  1
  O2-  O227  1  0.57501833  0.95281506  0.73073692  1
  O2-  O228  1  0.20611426  0.33498434  0.06881793  1
  O2-  O229  1  0.20930764  0.33402999  0.40104988  1
  O2-  O230  1  0.20573322  0.33701486  0.72792716  1
  O2-  O231  1  0.21296276  0.82847758  0.06395664  1
  O2-  O232  1  0.21250386  0.83010254  0.40175261  1
  O2-  O233  1  0.21641653  0.83042799  0.73260500  1
  O2-  O234  1  0.71321933  0.33419390  0.06973051  1
  O2-  O235  1  0.69947031  0.33153635  0.39546292  1
  O2-  O236  1  0.70149360  0.33922337  0.72667175  1
  O2-  O237  1  0.70967907  0.83226469  0.06694178  1
  O2-  O238  1  0.70970514  0.83711749  0.39355372  1
  O2-  O239  1  0.70767707  0.83182110  0.73673872  1
  O2-  O240  1  0.45986809  0.41507337  0.26051466  1
  O2-  O241  1  0.45966768  0.42111615  0.59840827  1
  O2-  O242  1  0.45012526  0.41886494  0.93956508  1
  O2-  O243  1  0.45715526  0.91615458  0.27160361  1
  O2-  O244  1  0.45019404  0.91366514  0.60189756  1
  O2-  O245  1  0.46375499  0.91525790  0.93092677  1
  O2-  O246  1  0.95467147  0.42050141  0.26676596  1
  O2-  O247  1  0.95813828  0.41572148  0.60483942  1
  O2-  O248  1  0.95786195  0.41121758  0.93542897  1
  O2-  O249  1  0.94196497  0.91719769  0.27119648  1
  O2-  O250  1  0.94646982  0.91525569  0.60814252  1
  O2-  O251  1  0.94393287  0.92067503  0.93643854  1
  O2-  O252  1  0.33191799  0.29180914  0.26390481  1
  O2-  O253  1  0.32982259  0.29779799  0.59914150  1
  O2-  O254  1  0.33141180  0.29851318  0.93825718  1
  O2-  O255  1  0.33782494  0.79534605  0.26959708  1
  O2-  O256  1  0.34208026  0.78433468  0.59977297  1
  O2-  O257  1  0.33797677  0.78671846  0.92782467  1
  O2-  O258  1  0.82965074  0.29257797  0.26554033  1
  O2-  O259  1  0.83208052  0.30766342  0.60635482  1
  O2-  O260  1  0.83839968  0.29278268  0.93708366  1
  O2-  O261  1  0.83597870  0.78802168  0.26692707  1
  O2-  O262  1  0.83405230  0.78892558  0.60336507  1
  O2-  O263  1  0.83392185  0.79257004  0.93046055  1
  O2-  O264  1  0.41765691  0.03912732  0.06688705  1
  O2-  O265  1  0.41829880  0.03896522  0.40774888  1
  O2-  O266  1  0.41447168  0.04822280  0.72596083  1
  O2-  O267  1  0.41721735  0.55089157  0.06323693  1
  O2-  O268  1  0.41798051  0.54281056  0.39523718  1
  O2-  O269  1  0.41399006  0.54383136  0.73197855  1
  O2-  O270  1  0.91614483  0.04823619  0.06637223  1
  O2-  O271  1  0.91116917  0.04400464  0.39512294  1
  O2-  O272  1  0.91534861  0.04042091  0.73899804  1
  O2-  O273  1  0.91276956  0.53885218  0.06252231  1
  O2-  O274  1  0.91478007  0.53957468  0.40475182  1
  O2-  O275  1  0.91413379  0.54124437  0.73216208  1
  O2-  O276  1  0.29620548  0.16999424  0.06695875  1
  O2-  O277  1  0.29906309  0.17234351  0.40230532  1
  O2-  O278  1  0.29425479  0.16843556  0.72814466  1
  O2-  O279  1  0.29740878  0.66615186  0.06153621  1
  O2-  O280  1  0.30357286  0.66655618  0.39494247  1
  O2-  O281  1  0.29357711  0.66128869  0.72975629  1
  O2-  O282  1  0.79583481  0.16675334  0.06609844  1
  O2-  O283  1  0.79179273  0.16354662  0.39533509  1
  O2-  O284  1  0.80026449  0.17620706  0.73173417  1
  O2-  O285  1  0.80310294  0.66621562  0.06010840  1
  O2-  O286  1  0.78629182  0.66503707  0.40396351  1
  O2-  O287  1  0.79450331  0.66067124  0.73351219  1
