# generated using pymatgen
data_Ca2Al2SiO7
_symmetry_space_group_name_H-M   'P 1'
_cell_length_a   15.46533890
_cell_length_b   15.46516043
_cell_length_c   15.28924599
_cell_angle_alpha   90.01100469
_cell_angle_beta   89.99613287
_cell_angle_gamma   90.03392335
_symmetry_Int_Tables_number   1
_chemical_formula_structural   Ca2Al2SiO7
_chemical_formula_sum   'Ca48 Al48 Si24 O168'
_cell_volume   3656.78859573
_cell_formula_units_Z   24
loop_
 _symmetry_equiv_pos_site_id
 _symmetry_equiv_pos_as_xyz
  1  'x, y, z'
loop_
 _atom_type_symbol
 _atom_type_oxidation_number
  Ca2+  2.0
  Al0+  0.0
  Si0+  0.0
  O2-  -2.0
loop_
 _atom_site_type_symbol
 _atom_site_label
 _atom_site_symmetry_multiplicity
 _atom_site_fract_x
 _atom_site_fract_y
 _atom_site_fract_z
 _atom_site_occupancy
  Ca2+  Ca0  1  0.17194811  0.07809650  0.17316229  1
  Ca2+  Ca1  1  0.17912474  0.07812091  0.50601027  1
  Ca2+  Ca2  1  0.16987243  0.07396382  0.82984793  1
  Ca2+  Ca3  1  0.17418526  0.57863438  0.17039761  1
  Ca2+  Ca4  1  0.16744666  0.57192091  0.50238704  1
  Ca2+  Ca5  1  0.17309296  0.57715751  0.83548311  1
  Ca2+  Ca6  1  0.67331020  0.07635765  0.17907648  1
  Ca2+  Ca7  1  0.67160703  0.07069860  0.50471146  1
  Ca2+  Ca8  1  0.66990011  0.08297427  0.82963320  1
  Ca2+  Ca9  1  0.67211496  0.57792195  0.17394469  1
  Ca2+  Ca10  1  0.66988025  0.58389254  0.50401918  1
  Ca2+  Ca11  1  0.67131110  0.57555321  0.83378208  1
  Ca2+  Ca12  1  0.08330007  0.33459662  0.16706426  1
  Ca2+  Ca13  1  0.07761271  0.33994822  0.49642061  1
  Ca2+  Ca14  1  0.07566104  0.33541296  0.82013931  1
  Ca2+  Ca15  1  0.07546437  0.83791570  0.16303569  1
  Ca2+  Ca16  1  0.07789426  0.83504067  0.49505059  1
  Ca2+  Ca17  1  0.08660171  0.83439374  0.82758353  1
  Ca2+  Ca18  1  0.58411248  0.33959377  0.16722854  1
  Ca2+  Ca19  1  0.57433235  0.34016113  0.49466547  1
  Ca2+  Ca20  1  0.58004450  0.33959124  0.82313983  1
  Ca2+  Ca21  1  0.58439882  0.82921230  0.17149860  1
  Ca2+  Ca22  1  0.59132712  0.82600413  0.49189202  1
  Ca2+  Ca23  1  0.58608399  0.82378633  0.82220194  1
  Ca2+  Ca24  1  0.33208770  0.42076170  0.17451988  1
  Ca2+  Ca25  1  0.32467870  0.40513687  0.50434429  1
  Ca2+  Ca26  1  0.33274312  0.41880658  0.83249650  1
  Ca2+  Ca27  1  0.33068391  0.91919997  0.17594608  1
  Ca2+  Ca28  1  0.33837867  0.92569290  0.50559858  1
  Ca2+  Ca29  1  0.32390379  0.91717878  0.83525634  1
  Ca2+  Ca30  1  0.82194723  0.42654675  0.17496464  1
  Ca2+  Ca31  1  0.82128857  0.42591954  0.50843393  1
  Ca2+  Ca32  1  0.82574079  0.42284399  0.83551142  1
  Ca2+  Ca33  1  0.82890320  0.92051175  0.18014705  1
  Ca2+  Ca34  1  0.82791014  0.92109057  0.50136146  1
  Ca2+  Ca35  1  0.82781004  0.91911859  0.82847694  1
  Ca2+  Ca36  1  0.41417996  0.17127276  0.17011699  1
  Ca2+  Ca37  1  0.41031758  0.17226492  0.49484543  1
  Ca2+  Ca38  1  0.41769010  0.17350210  0.82333765  1
  Ca2+  Ca39  1  0.42140379  0.66638293  0.16655710  1
  Ca2+  Ca40  1  0.43298782  0.67349850  0.49145919  1
  Ca2+  Ca41  1  0.42332412  0.66294220  0.82482823  1
  Ca2+  Ca42  1  0.91564128  0.16587193  0.16401607  1
  Ca2+  Ca43  1  0.91037135  0.16865661  0.49803375  1
  Ca2+  Ca44  1  0.91702711  0.17398018  0.82109354  1
  Ca2+  Ca45  1  0.90909582  0.66811348  0.16806073  1
  Ca2+  Ca46  1  0.91109955  0.66923284  0.49216495  1
  Ca2+  Ca47  1  0.91381156  0.66208849  0.82749655  1
  Al0+  Al48  1  0.00001136  -0.00021714  0.00007818  1
  Al0+  Al49  1  0.00177257  0.00061731  0.33127350  1
  Al0+  Al50  1  0.00116057  -0.00004889  0.67261519  1
  Al0+  Al51  1  -0.00014515  0.50146175  0.00188894  1
  Al0+  Al52  1  0.00071681  0.49970885  0.33642195  1
  Al0+  Al53  1  0.00127801  0.49981199  0.66858310  1
  Al0+  Al54  1  0.49904116  0.00110964  -0.00238097  1
  Al0+  Al55  1  0.50018591  0.00102734  0.33605790  1
  Al0+  Al56  1  0.50025937  0.00064753  0.67653144  1
  Al0+  Al57  1  0.49891859  0.50047540  0.00525776  1
  Al0+  Al58  1  0.49859431  0.50132437  0.32637922  1
  Al0+  Al59  1  0.50000628  0.50082741  0.65870139  1
  Al0+  Al60  1  0.24972222  0.24752946  -0.00341816  1
  Al0+  Al61  1  0.24896019  0.24837819  0.33383936  1
  Al0+  Al62  1  0.24866801  0.24816272  0.67265332  1
  Al0+  Al63  1  0.24742543  0.75029643  0.00781250  1
  Al0+  Al64  1  0.24894614  0.74811817  0.32998145  1
  Al0+  Al65  1  0.25010392  0.74937952  0.66661756  1
  Al0+  Al66  1  0.74937717  0.24921764  0.00152463  1
  Al0+  Al67  1  0.74971700  0.25229568  0.33750515  1
  Al0+  Al68  1  0.74906440  0.25029798  0.66758193  1
  Al0+  Al69  1  0.74949787  0.75101947  0.00001953  1
  Al0+  Al70  1  0.75160132  0.75056254  0.32825936  1
  Al0+  Al71  1  0.75217579  0.75045926  0.66976367  1
  Al0+  Al72  1  0.67583897  0.43013461  0.67997628  1
  Al0+  Al73  1  0.17920888  0.42872403  0.68010125  1
  Al0+  Al74  1  0.82212827  0.57243021  0.01672533  1
  Al0+  Al75  1  0.57219929  0.68077545  0.65359157  1
  Al0+  Al76  1  0.67952616  0.92934601  0.34647861  1
  Al0+  Al77  1  0.92823482  0.32201968  0.65189765  1
  Al0+  Al78  1  0.67919042  0.92750713  0.68238745  1
  Al0+  Al79  1  0.17873025  0.93047539  0.01616639  1
  Al0+  Al80  1  0.42890320  0.31906738  0.65315939  1
  Al0+  Al81  1  0.67870628  0.42742945  0.01571916  1
  Al0+  Al82  1  0.82116138  0.07219369  0.68200579  1
  Al0+  Al83  1  0.67522009  0.42974748  0.35023931  1
  Al0+  Al84  1  0.18154996  0.42903861  0.34589927  1
  Al0+  Al85  1  0.42789223  0.82376994  0.31904264  1
  Al0+  Al86  1  0.32050482  0.06918171  0.34553883  1
  Al0+  Al87  1  0.82504914  0.07300269  0.34722360  1
  Al0+  Al88  1  0.57236307  0.67955905  0.31495491  1
  Al0+  Al89  1  0.93208735  0.82097263  0.32001210  1
  Al0+  Al90  1  0.82043773  0.57111834  0.34871658  1
  Al0+  Al91  1  0.42737173  0.31935409  0.31860064  1
  Al0+  Al92  1  0.17984230  0.92662281  0.67975965  1
  Al0+  Al93  1  0.82196480  0.57163751  0.68140697  1
  Al0+  Al94  1  0.32034721  0.57016774  0.01310415  1
  Al0+  Al95  1  0.32252138  0.07184661  0.68378491  1
  Si0+  Si96  1  0.07092390  0.17730013  0.98311155  1
  Si0+  Si97  1  0.17801648  0.92601509  0.34848194  1
  Si0+  Si98  1  0.42899078  0.32121479  0.98494911  1
  Si0+  Si99  1  0.56950092  0.68017682  0.98381926  1
  Si0+  Si100  1  0.42664487  0.82155089  0.98496443  1
  Si0+  Si101  1  0.07047001  0.17713558  0.64925946  1
  Si0+  Si102  1  0.67742185  0.92930161  0.01475689  1
  Si0+  Si103  1  0.32229847  0.57386308  0.35105061  1
  Si0+  Si104  1  0.07205383  0.67468270  0.31468087  1
  Si0+  Si105  1  0.92810973  0.32220283  0.31771611  1
  Si0+  Si106  1  0.57154534  0.17794381  0.98472644  1
  Si0+  Si107  1  0.07358534  0.67811496  0.65185754  1
  Si0+  Si108  1  0.07148114  0.67961388  0.98428743  1
  Si0+  Si109  1  0.32178609  0.57134805  0.67944083  1
  Si0+  Si110  1  0.07048065  0.18022180  0.31790190  1
  Si0+  Si111  1  0.57338152  0.17919505  0.31751685  1
  Si0+  Si112  1  0.57261662  0.17547384  0.64953782  1
  Si0+  Si113  1  0.93157012  0.82111282  0.65292966  1
  Si0+  Si114  1  0.17791700  0.42570690  0.01516848  1
  Si0+  Si115  1  0.32269007  0.07229190  0.01848776  1
  Si0+  Si116  1  0.42710877  0.82297151  0.65331678  1
  Si0+  Si117  1  0.92876770  0.82187676  0.98246214  1
  Si0+  Si118  1  0.93020413  0.32042035  0.98628072  1
  Si0+  Si119  1  0.81982843  0.06994618  0.01408414  1
  O2-  O120  1  0.25463495  0.00342917  0.06276661  1
  O2-  O121  1  0.25301145  -0.01245364  0.39132828  1
  O2-  O122  1  0.25339118  -0.00417744  0.73143336  1
  O2-  O123  1  0.24841446  0.49195225  0.05895865  1
  O2-  O124  1  0.25694432  0.50175673  0.39434685  1
  O2-  O125  1  0.25498407  0.50201107  0.72615206  1
  O2-  O126  1  0.74870942  0.00003041  0.05661267  1
  O2-  O127  1  0.75187724  0.00175868  0.39475646  1
  O2-  O128  1  0.74812243  0.00215231  0.73359305  1
  O2-  O129  1  0.75022959  0.50001421  0.06470295  1
  O2-  O130  1  0.74640285  0.50250734  0.39898382  1
  O2-  O131  1  0.75039278  0.49893965  0.73064126  1
  O2-  O132  1  -0.00360846  0.24808557  0.27450250  1
  O2-  O133  1  0.00184548  0.24540317  0.60451921  1
  O2-  O134  1  0.00312938  0.25181912  0.94229712  1
  O2-  O135  1  0.00581623  0.74608055  0.27069355  1
  O2-  O136  1  0.00179536  0.74894220  0.61137972  1
  O2-  O137  1  -0.00171228  0.74854746  0.94131418  1
  O2-  O138  1  0.50605666  0.24878623  0.27102642  1
  O2-  O139  1  0.50328769  0.24394072  0.60634714  1
  O2-  O140  1  0.50172894  0.25126573  0.94382020  1
  O2-  O141  1  0.49811810  0.75140279  0.26624158  1
  O2-  O142  1  0.49994375  0.75941959  0.60950861  1
  O2-  O143  1  0.49769385  0.75112110  0.94125902  1
  O2-  O144  1  0.07067311  0.17646919  0.08840077  1
  O2-  O145  1  0.07243980  0.18063720  0.42231367  1
  O2-  O146  1  0.06852683  0.17874515  0.75564872  1
  O2-  O147  1  0.07245018  0.68010781  0.08898248  1
  O2-  O148  1  0.07263970  0.67422508  0.42031460  1
  O2-  O149  1  0.07590336  0.67886926  0.75737771  1
  O2-  O150  1  0.57135732  0.17402706  0.08939538  1
  O2-  O151  1  0.57233328  0.17807646  0.42244650  1
  O2-  O152  1  0.57115325  0.17689920  0.75603003  1
  O2-  O153  1  0.56979384  0.68231200  0.08829398  1
  O2-  O154  1  0.57236345  0.68136824  0.42851703  1
  O2-  O155  1  0.56892168  0.67963763  0.76776703  1
  O2-  O156  1  0.18188329  0.42980220  0.23205279  1
  O2-  O157  1  0.17884886  0.43006348  0.56729527  1
  O2-  O158  1  0.17707351  0.42661306  0.90978311  1
  O2-  O159  1  0.17559951  0.93106980  0.24257730  1
  O2-  O160  1  0.17910733  0.92725760  0.56650938  1
  O2-  O161  1  0.17934157  0.93117107  0.90342419  1
  O2-  O162  1  0.68007579  0.42859060  0.23628258  1
  O2-  O163  1  0.67430429  0.43300162  0.56734808  1
  O2-  O164  1  0.67858354  0.42711294  0.90232681  1
  O2-  O165  1  0.68101116  0.93243603  0.23175337  1
  O2-  O166  1  0.68199480  0.92647296  0.56954845  1
  O2-  O167  1  0.67866829  0.92899036  0.90997151  1
  O2-  O168  1  0.42539717  0.31876443  0.08974623  1
  O2-  O169  1  0.42302434  0.31486333  0.43105781  1
  O2-  O170  1  0.42992185  0.31994975  0.76726750  1
  O2-  O171  1  0.42890328  0.82308258  0.08955370  1
  O2-  O172  1  0.42705132  0.82162231  0.43250373  1
  O2-  O173  1  0.42436677  0.81730915  0.75954996  1
  O2-  O174  1  0.93187614  0.31726284  0.09152832  1
  O2-  O175  1  0.93095836  0.32333097  0.42227816  1
  O2-  O176  1  0.93163537  0.32119328  0.76613878  1
  O2-  O177  1  0.93010696  0.82506251  0.08728900  1
  O2-  O178  1  0.93531539  0.82300505  0.43310838  1
  O2-  O179  1  0.93294299  0.82099945  0.75864689  1
  O2-  O180  1  0.31542692  0.07139984  0.23198238  1
  O2-  O181  1  0.31999607  0.07197430  0.57028391  1
  O2-  O182  1  0.32224635  0.07300047  0.91344203  1
  O2-  O183  1  0.31862603  0.57309123  0.24484701  1
  O2-  O184  1  0.31800867  0.57364629  0.57456867  1
  O2-  O185  1  0.31991734  0.56880174  0.89967318  1
  O2-  O186  1  0.82429846  0.07079078  0.23234042  1
  O2-  O187  1  0.82256515  0.06822317  0.56916189  1
  O2-  O188  1  0.81968624  0.07067001  0.90948699  1
  O2-  O189  1  0.82135545  0.56782354  0.23498232  1
  O2-  O190  1  0.82205897  0.57332164  0.56861563  1
  O2-  O191  1  0.82258256  0.57086059  0.90348296  1
  O2-  O192  1  0.04551937  0.08844246  0.26775009  1
  O2-  O193  1  0.04622328  0.08247825  0.60503571  1
  O2-  O194  1  0.03906651  0.08697729  0.93500321  1
  O2-  O195  1  0.04417948  0.58211130  0.26677504  1
  O2-  O196  1  0.04691316  0.58638392  0.60473920  1
  O2-  O197  1  0.04673345  0.58618521  0.93702082  1
  O2-  O198  1  0.54612666  0.08634568  0.26985851  1
  O2-  O199  1  0.54725452  0.08006166  0.60711152  1
  O2-  O200  1  0.54204675  0.08745475  0.93433141  1
  O2-  O201  1  0.54208225  0.58252908  0.25947654  1
  O2-  O202  1  0.53831766  0.58767928  0.59622803  1
  O2-  O203  1  0.54021949  0.58741734  0.93881745  1
  O2-  O204  1  0.15934146  0.21209341  0.26634331  1
  O2-  O205  1  0.16478112  0.20288585  0.60619858  1
  O2-  O206  1  0.16417068  0.20058340  0.93573058  1
  O2-  O207  1  0.16621379  0.69725741  0.26797838  1
  O2-  O208  1  0.16426899  0.70620329  0.60196557  1
  O2-  O209  1  0.16281032  0.71026132  0.93682382  1
  O2-  O210  1  0.66763090  0.20398353  0.27016784  1
  O2-  O211  1  0.66678517  0.19788537  0.60485890  1
  O2-  O212  1  0.66452826  0.20313349  0.93754477  1
  O2-  O213  1  0.66902580  0.71053716  0.25949179  1
  O2-  O214  1  0.66962477  0.71177927  0.60208400  1
  O2-  O215  1  0.66135162  0.70971871  0.93669547  1
  O2-  O216  1  0.08549274  0.45344066  0.06204651  1
  O2-  O217  1  0.08595215  0.46059998  0.40022042  1
  O2-  O218  1  0.08550557  0.46280494  0.73696675  1
  O2-  O219  1  0.08205452  0.96411729  0.06905960  1
  O2-  O220  1  0.08789923  0.95928645  0.39545960  1
  O2-  O221  1  0.08415901  0.95762537  0.73704227  1
  O2-  O222  1  0.58001997  0.45443626  0.06745860  1
  O2-  O223  1  0.57385160  0.45510714  0.39658330  1
  O2-  O224  1  0.57781962  0.46224090  0.73276564  1
  O2-  O225  1  0.58505220  0.95791451  0.06005518  1
  O2-  O226  1  0.58190571  0.95598541  0.39995747  1
  O2-  O227  1  0.58095936  0.95095456  0.73823798  1
  O2-  O228  1  0.20083410  0.33013912  0.05876338  1
  O2-  O229  1  0.20985621  0.33245894  0.39942082  1
  O2-  O230  1  0.20638647  0.33289403  0.73639753  1
  O2-  O231  1  0.20496880  0.83403082  0.07124160  1
  O2-  O232  1  0.19344616  0.82887413  0.38968013  1
  O2-  O233  1  0.20638891  0.82796452  0.73483421  1
  O2-  O234  1  0.70697624  0.32832785  0.06833049  1
  O2-  O235  1  0.70253996  0.33121035  0.40155838  1
  O2-  O236  1  0.70007036  0.33028975  0.73134059  1
  O2-  O237  1  0.70550614  0.83791541  0.06152004  1
  O2-  O238  1  0.71049266  0.83174121  0.39634237  1
  O2-  O239  1  0.71411150  0.83289835  0.73916889  1
  O2-  O240  1  0.45188903  0.41718129  0.26393075  1
  O2-  O241  1  0.45521277  0.41567212  0.59763319  1
  O2-  O242  1  0.45468099  0.41432358  0.93913937  1
  O2-  O243  1  0.45521399  0.92290946  0.26537071  1
  O2-  O244  1  0.44765617  0.91992917  0.61365365  1
  O2-  O245  1  0.45279265  0.91426796  0.93747303  1
  O2-  O246  1  0.96200361  0.41181221  0.26898590  1
  O2-  O247  1  0.96399114  0.41745652  0.59894489  1
  O2-  O248  1  0.95642177  0.41337435  0.94031142  1
  O2-  O249  1  0.96454898  0.91707584  0.26287198  1
  O2-  O250  1  0.96135394  0.91278148  0.60679521  1
  O2-  O251  1  0.95927748  0.91322078  0.93481419  1
  O2-  O252  1  0.33236777  0.28302322  0.26262218  1
  O2-  O253  1  0.33051160  0.28659087  0.60331611  1
  O2-  O254  1  0.33700164  0.29247365  0.93662223  1
  O2-  O255  1  0.32813156  0.79598904  0.26567627  1
  O2-  O256  1  0.33490615  0.79556150  0.60535775  1
  O2-  O257  1  0.33330690  0.79307183  0.94103310  1
  O2-  O258  1  0.83579346  0.29647667  0.26986293  1
  O2-  O259  1  0.83085467  0.29268761  0.59954252  1
  O2-  O260  1  0.83864489  0.28990986  0.93985301  1
  O2-  O261  1  0.83677377  0.79268844  0.26228717  1
  O2-  O262  1  0.83985799  0.79434241  0.60631541  1
  O2-  O263  1  0.83581888  0.79615781  0.93582010  1
  O2-  O264  1  0.41711610  0.04748978  0.06299004  1
  O2-  O265  1  0.41799918  0.04725858  0.39985604  1
  O2-  O266  1  0.42030986  0.04904297  0.74001621  1
  O2-  O267  1  0.41539173  0.54151367  0.06980903  1
  O2-  O268  1  0.41765746  0.55242381  0.39200425  1
  O2-  O269  1  0.41489140  0.54518322  0.72518571  1
  O2-  O270  1  0.91190508  0.04216273  0.06060784  1
  O2-  O271  1  0.92348287  0.04459222  0.39869935  1
  O2-  O272  1  0.91838716  0.04233904  0.73722424  1
  O2-  O273  1  0.92188665  0.54646625  0.06837041  1
  O2-  O274  1  0.91918743  0.54292017  0.39992134  1
  O2-  O275  1  0.92064703  0.54395109  0.73428718  1
  O2-  O276  1  0.29472020  0.16624175  0.06326084  1
  O2-  O277  1  0.28115838  0.16185331  0.39996707  1
  O2-  O278  1  0.28803523  0.16636463  0.74102150  1
  O2-  O279  1  0.28661447  0.66404903  0.06966761  1
  O2-  O280  1  0.29309666  0.66613362  0.39730298  1
  O2-  O281  1  0.29511539  0.66357743  0.72833031  1
  O2-  O282  1  0.79361644  0.16159226  0.06233867  1
  O2-  O283  1  0.80003305  0.17197327  0.39771201  1
  O2-  O284  1  0.79342896  0.17016622  0.73634753  1
  O2-  O285  1  0.79341426  0.67230316  0.06639279  1
  O2-  O286  1  0.79663757  0.67187318  0.39656237  1
  O2-  O287  1  0.79517969  0.66933420  0.73605529  1
