# generated using pymatgen
data_Ca2Al2SiO7
_symmetry_space_group_name_H-M   'P 1'
_cell_length_a   15.46079453
_cell_length_b   15.46160252
_cell_length_c   15.28604169
_cell_angle_alpha   90.00621333
_cell_angle_beta   90.01167876
_cell_angle_gamma   89.98608183
_symmetry_Int_Tables_number   1
_chemical_formula_structural   Ca2Al2SiO7
_chemical_formula_sum   'Ca48 Al48 Si24 O168'
_cell_volume   3654.10757358
_cell_formula_units_Z   24
loop_
 _symmetry_equiv_pos_site_id
 _symmetry_equiv_pos_as_xyz
  1  'x, y, z'
loop_
 _atom_type_symbol
 _atom_type_oxidation_number
  Ca2+  2.0
  Al0+  0.0
  Si0+  0.0
  O2-  -2.0
loop_
 _atom_site_type_symbol
 _atom_site_label
 _atom_site_symmetry_multiplicity
 _atom_site_fract_x
 _atom_site_fract_y
 _atom_site_fract_z
 _atom_site_occupancy
  Ca2+  Ca0  1  0.16553574  0.08453652  0.17363323  1
  Ca2+  Ca1  1  0.17410687  0.08161245  0.50039493  1
  Ca2+  Ca2  1  0.16338423  0.07191886  0.84269209  1
  Ca2+  Ca3  1  0.16278392  0.56964788  0.17305782  1
  Ca2+  Ca4  1  0.15768186  0.57939207  0.50137080  1
  Ca2+  Ca5  1  0.16853313  0.57902469  0.83903111  1
  Ca2+  Ca6  1  0.67064299  0.09189689  0.16905962  1
  Ca2+  Ca7  1  0.66437275  0.09028348  0.50194523  1
  Ca2+  Ca8  1  0.66948689  0.09062698  0.84098076  1
  Ca2+  Ca9  1  0.66983841  0.57131866  0.17830257  1
  Ca2+  Ca10  1  0.66632802  0.58289429  0.49573534  1
  Ca2+  Ca11  1  0.66850623  0.57394220  0.84342388  1
  Ca2+  Ca12  1  0.08595080  0.32535817  0.15945468  1
  Ca2+  Ca13  1  0.08496323  0.32863338  0.48829466  1
  Ca2+  Ca14  1  0.08346053  0.33111607  0.83724366  1
  Ca2+  Ca15  1  0.07333475  0.83250545  0.16165873  1
  Ca2+  Ca16  1  0.08341091  0.82287402  0.49344179  1
  Ca2+  Ca17  1  0.08404229  0.83363066  0.82916036  1
  Ca2+  Ca18  1  0.57796089  0.33223447  0.15863538  1
  Ca2+  Ca19  1  0.57306896  0.32683599  0.49145369  1
  Ca2+  Ca20  1  0.57899024  0.32725490  0.83106356  1
  Ca2+  Ca21  1  0.58591435  0.82531702  0.16745019  1
  Ca2+  Ca22  1  0.57586375  0.83143005  0.49292781  1
  Ca2+  Ca23  1  0.57462959  0.83291424  0.82786863  1
  Ca2+  Ca24  1  0.32502597  0.40338778  0.17071647  1
  Ca2+  Ca25  1  0.33259779  0.41143766  0.49746393  1
  Ca2+  Ca26  1  0.33343372  0.41352854  0.83904763  1
  Ca2+  Ca27  1  0.32594003  0.92740571  0.17188052  1
  Ca2+  Ca28  1  0.33241533  0.92284786  0.50703980  1
  Ca2+  Ca29  1  0.32289732  0.91323021  0.83806714  1
  Ca2+  Ca30  1  0.82233777  0.41217972  0.17341465  1
  Ca2+  Ca31  1  0.82791533  0.42140916  0.49764593  1
  Ca2+  Ca32  1  0.82840737  0.41474386  0.84523766  1
  Ca2+  Ca33  1  0.84124820  0.92038108  0.16842662  1
  Ca2+  Ca34  1  0.83385341  0.91435262  0.49928060  1
  Ca2+  Ca35  1  0.83320749  0.92431328  0.84407107  1
  Ca2+  Ca36  1  0.42368732  0.17430027  0.16482653  1
  Ca2+  Ca37  1  0.42096798  0.17388053  0.48966528  1
  Ca2+  Ca38  1  0.42518860  0.17726523  0.82871398  1
  Ca2+  Ca39  1  0.42384156  0.65970948  0.16776061  1
  Ca2+  Ca40  1  0.41887870  0.67463909  0.49605928  1
  Ca2+  Ca41  1  0.41532515  0.67210142  0.82810480  1
  Ca2+  Ca42  1  0.92681638  0.16931369  0.15686832  1
  Ca2+  Ca43  1  0.92625019  0.16794095  0.49365709  1
  Ca2+  Ca44  1  0.91704511  0.16863000  0.84204376  1
  Ca2+  Ca45  1  0.91345125  0.67342647  0.16805933  1
  Ca2+  Ca46  1  0.92468569  0.67004787  0.48804222  1
  Ca2+  Ca47  1  0.92457151  0.67263542  0.83031695  1
  Al0+  Al48  1  -0.00171220  -0.00181483  0.00004897  1
  Al0+  Al49  1  -0.00011039  -0.00060180  0.33014015  1
  Al0+  Al50  1  -0.00134744  0.00074778  0.67061861  1
  Al0+  Al51  1  0.00162836  0.50175731  0.00060389  1
  Al0+  Al52  1  -0.00159035  0.50044161  0.33807653  1
  Al0+  Al53  1  -0.00104052  0.50050800  0.66573831  1
  Al0+  Al54  1  0.49989697  -0.00226871  -0.00291061  1
  Al0+  Al55  1  0.49967974  0.00215323  0.33353442  1
  Al0+  Al56  1  0.50125311  0.00008788  0.66229158  1
  Al0+  Al57  1  0.50131455  0.50044031  -0.00092590  1
  Al0+  Al58  1  0.49667817  0.50075404  0.33205219  1
  Al0+  Al59  1  0.49959937  0.49892213  0.66514829  1
  Al0+  Al60  1  0.25196869  0.24852373  -0.00667281  1
  Al0+  Al61  1  0.25062558  0.24816434  0.33609793  1
  Al0+  Al62  1  0.24989976  0.24965460  0.66607814  1
  Al0+  Al63  1  0.25054795  0.75013616  0.00768078  1
  Al0+  Al64  1  0.24808665  0.74882275  0.32772874  1
  Al0+  Al65  1  0.24991011  0.74882279  0.66233537  1
  Al0+  Al66  1  0.75196509  0.24935153  0.00268978  1
  Al0+  Al67  1  0.74979083  0.24890882  0.34001906  1
  Al0+  Al68  1  0.75114119  0.25122351  0.66407794  1
  Al0+  Al69  1  0.75038927  0.75070219  -0.00627733  1
  Al0+  Al70  1  0.74856999  0.75131409  0.33100634  1
  Al0+  Al71  1  0.75167955  0.75053782  0.67047096  1
  Al0+  Al72  1  0.42912062  0.82005899  0.65407528  1
  Al0+  Al73  1  0.07259026  0.17763157  0.98424216  1
  Al0+  Al74  1  0.32072030  0.06934215  0.34708810  1
  Al0+  Al75  1  0.42912800  0.32262935  0.98327304  1
  Al0+  Al76  1  0.18079421  0.92895029  0.67893090  1
  Al0+  Al77  1  0.68074385  0.42953378  0.01311110  1
  Al0+  Al78  1  0.67555292  0.42709023  0.35088386  1
  Al0+  Al79  1  0.17824171  0.92883597  0.01583434  1
  Al0+  Al80  1  0.18007424  0.42953983  0.34686980  1
  Al0+  Al81  1  0.81845272  0.06921483  0.01479205  1
  Al0+  Al82  1  0.57288885  0.17825864  0.31680313  1
  Al0+  Al83  1  0.42697851  0.32185999  0.64872741  1
  Al0+  Al84  1  0.06969960  0.67910057  0.65370112  1
  Al0+  Al85  1  0.07196483  0.67538965  0.31536149  1
  Al0+  Al86  1  0.07061078  0.18038564  0.32201845  1
  Al0+  Al87  1  0.81883716  0.57298684  0.34885972  1
  Al0+  Al88  1  0.56863688  0.68047427  0.32083421  1
  Al0+  Al89  1  0.57234218  0.17792315  0.98554484  1
  Al0+  Al90  1  0.92989354  0.32312259  0.98777204  1
  Al0+  Al91  1  0.18050170  0.42828840  0.01168604  1
  Al0+  Al92  1  0.42898399  0.32118797  0.31705099  1
  Al0+  Al93  1  0.92891087  0.82060453  0.31841532  1
  Al0+  Al94  1  0.92932748  0.82004059  0.98370256  1
  Al0+  Al95  1  0.57297855  0.18024403  0.65048946  1
  Si0+  Si96  1  0.82319318  0.07035506  0.34978201  1
  Si0+  Si97  1  0.92733118  0.32197719  0.31982868  1
  Si0+  Si98  1  0.32350509  0.07233242  0.68478619  1
  Si0+  Si99  1  0.17681200  0.42792846  0.68197018  1
  Si0+  Si100  1  0.67886793  0.92985680  0.34807947  1
  Si0+  Si101  1  0.82261953  0.57175071  0.68406484  1
  Si0+  Si102  1  0.07434498  0.67902942  0.98335433  1
  Si0+  Si103  1  0.42647824  0.82436651  0.31550641  1
  Si0+  Si104  1  0.92769242  0.82357372  0.65067693  1
  Si0+  Si105  1  0.57094578  0.67912870  0.98426666  1
  Si0+  Si106  1  0.67834622  0.92773448  0.68161952  1
  Si0+  Si107  1  0.32135652  0.57521469  0.35149311  1
  Si0+  Si108  1  0.92986998  0.32182934  0.65117800  1
  Si0+  Si109  1  0.68035008  0.43087742  0.68232700  1
  Si0+  Si110  1  0.32088182  0.57009879  0.68004648  1
  Si0+  Si111  1  0.32303963  0.57270772  0.01699233  1
  Si0+  Si112  1  0.06973031  0.17777049  0.65255373  1
  Si0+  Si113  1  0.17650784  0.92736111  0.34979018  1
  Si0+  Si114  1  0.82257842  0.57470177  0.01546135  1
  Si0+  Si115  1  0.57410789  0.67811264  0.65195881  1
  Si0+  Si116  1  0.82028524  0.07191910  0.68249891  1
  Si0+  Si117  1  0.32350271  0.07071044  0.01464804  1
  Si0+  Si118  1  0.42793932  0.81973718  0.98644617  1
  Si0+  Si119  1  0.67555010  0.92554551  0.01654732  1
  O2-  O120  1  0.24986478  0.00741004  0.05978513  1
  O2-  O121  1  0.24863344  -0.00827685  0.39466238  1
  O2-  O122  1  0.25468890  0.00337114  0.72887501  1
  O2-  O123  1  0.25675663  0.50122760  0.05889751  1
  O2-  O124  1  0.25077716  0.50807029  0.39530789  1
  O2-  O125  1  0.25137926  0.49701824  0.72183985  1
  O2-  O126  1  0.74183317  -0.00431762  0.06107766  1
  O2-  O127  1  0.74914463  0.00160267  0.39111305  1
  O2-  O128  1  0.74740843  0.00111832  0.72283301  1
  O2-  O129  1  0.75783978  0.50250194  0.05859927  1
  O2-  O130  1  0.74747604  0.50060838  0.40052283  1
  O2-  O131  1  0.74929821  0.50350531  0.72630335  1
  O2-  O132  1  -0.00309782  0.25534507  0.27556790  1
  O2-  O133  1  0.00325206  0.25290556  0.60976910  1
  O2-  O134  1  0.00301551  0.25324042  0.93490604  1
  O2-  O135  1  0.00079457  0.74907405  0.26766740  1
  O2-  O136  1  -0.00429128  0.75481493  0.60743695  1
  O2-  O137  1  0.00609901  0.74735650  0.93743853  1
  O2-  O138  1  0.50671560  0.25530179  0.26781341  1
  O2-  O139  1  0.49705683  0.24739945  0.60060946  1
  O2-  O140  1  0.50180266  0.25053136  0.93474331  1
  O2-  O141  1  0.49215889  0.75253076  0.27165659  1
  O2-  O142  1  0.50769747  0.74886513  0.60817954  1
  O2-  O143  1  0.49919326  0.74948163  0.94272308  1
  O2-  O144  1  0.07151058  0.17842123  0.09766890  1
  O2-  O145  1  0.06825817  0.17978116  0.43619836  1
  O2-  O146  1  0.06781809  0.17665639  0.75713918  1
  O2-  O147  1  0.07404090  0.67928472  0.08818502  1
  O2-  O148  1  0.07079993  0.67846659  0.42963824  1
  O2-  O149  1  0.06837333  0.67786159  0.76691384  1
  O2-  O150  1  0.57045270  0.17744279  0.09841330  1
  O2-  O151  1  0.56974660  0.17692976  0.43044856  1
  O2-  O152  1  0.57583936  0.18340695  0.76385186  1
  O2-  O153  1  0.57149964  0.67967063  0.08901931  1
  O2-  O154  1  0.56772476  0.68562738  0.43437685  1
  O2-  O155  1  0.57303534  0.67873835  0.75798388  1
  O2-  O156  1  0.18159783  0.42768053  0.23401308  1
  O2-  O157  1  0.17348115  0.42866050  0.57716900  1
  O2-  O158  1  0.18059553  0.43313944  0.89775048  1
  O2-  O159  1  0.17636416  0.93062007  0.24434578  1
  O2-  O160  1  0.18136798  0.93076610  0.56609563  1
  O2-  O161  1  0.18197330  0.92562863  0.90206312  1
  O2-  O162  1  0.67814944  0.42764062  0.23731033  1
  O2-  O163  1  0.68196733  0.43260670  0.57781027  1
  O2-  O164  1  0.68062968  0.43327131  0.89897153  1
  O2-  O165  1  0.67845327  0.92815492  0.24327474  1
  O2-  O166  1  0.68071908  0.92276755  0.57674484  1
  O2-  O167  1  0.67604021  0.92363691  0.91053699  1
  O2-  O168  1  0.42927002  0.32287328  0.09609474  1
  O2-  O169  1  0.42823216  0.31810049  0.43071732  1
  O2-  O170  1  0.42900012  0.32356599  0.76210753  1
  O2-  O171  1  0.42938446  0.81934462  0.09116195  1
  O2-  O172  1  0.42894328  0.82422948  0.42151411  1
  O2-  O173  1  0.42940810  0.81633625  0.76765391  1
  O2-  O174  1  0.92950594  0.32102466  0.10091765  1
  O2-  O175  1  0.92899387  0.31850332  0.42656040  1
  O2-  O176  1  0.92835645  0.32264339  0.75597862  1
  O2-  O177  1  0.92734026  0.81773163  0.09608025  1
  O2-  O178  1  0.93018929  0.82198931  0.43276427  1
  O2-  O179  1  0.92685264  0.82283391  0.75613543  1
  O2-  O180  1  0.31967296  0.06770391  0.23404102  1
  O2-  O181  1  0.32120018  0.07133538  0.57917111  1
  O2-  O182  1  0.32514831  0.06477666  0.90890625  1
  O2-  O183  1  0.32224972  0.57647633  0.24612095  1
  O2-  O184  1  0.32142302  0.57213091  0.57555095  1
  O2-  O185  1  0.32154797  0.57766342  0.91085285  1
  O2-  O186  1  0.82526213  0.06963133  0.24529032  1
  O2-  O187  1  0.82335696  0.07072445  0.57733149  1
  O2-  O188  1  0.81747024  0.06739996  0.90079547  1
  O2-  O189  1  0.81584149  0.57337696  0.23538760  1
  O2-  O190  1  0.82303854  0.57225479  0.57959700  1
  O2-  O191  1  0.81877477  0.57571519  0.90895412  1
  O2-  O192  1  0.03973502  0.08465981  0.26827099  1
  O2-  O193  1  0.03625511  0.08786710  0.60447304  1
  O2-  O194  1  0.03783401  0.08096336  0.93140507  1
  O2-  O195  1  0.04115216  0.57674362  0.26550046  1
  O2-  O196  1  0.03710091  0.58298590  0.59962304  1
  O2-  O197  1  0.04896013  0.58596606  0.93587774  1
  O2-  O198  1  0.54259958  0.08022367  0.26463416  1
  O2-  O199  1  0.55309952  0.07843655  0.60137623  1
  O2-  O200  1  0.54540723  0.07787850  0.93266428  1
  O2-  O201  1  0.53881986  0.58468837  0.26566384  1
  O2-  O202  1  0.54632043  0.58579956  0.60607304  1
  O2-  O203  1  0.54284593  0.58878827  0.93434865  1
  O2-  O204  1  0.16644729  0.20988770  0.26884275  1
  O2-  O205  1  0.16312780  0.20148996  0.60696577  1
  O2-  O206  1  0.17068573  0.20123982  0.92885926  1
  O2-  O207  1  0.17132308  0.69924412  0.26274128  1
  O2-  O208  1  0.16570980  0.70735782  0.59855779  1
  O2-  O209  1  0.16900476  0.70566277  0.93911180  1
  O2-  O210  1  0.67580938  0.19955985  0.27148257  1
  O2-  O211  1  0.67111024  0.21082094  0.59720479  1
  O2-  O212  1  0.67129477  0.20623868  0.93444009  1
  O2-  O213  1  0.66253079  0.71465465  0.26497502  1
  O2-  O214  1  0.66912504  0.70226926  0.60837053  1
  O2-  O215  1  0.66119845  0.70711361  0.93366511  1
  O2-  O216  1  0.08415404  0.45963314  0.06610782  1
  O2-  O217  1  0.08252456  0.45624206  0.40251618  1
  O2-  O218  1  0.08584758  0.45892702  0.72992399  1
  O2-  O219  1  0.08056322  0.95603591  0.06722843  1
  O2-  O220  1  0.08418875  0.95629614  0.39679949  1
  O2-  O221  1  0.08324336  0.95946520  0.73306624  1
  O2-  O222  1  0.58499376  0.46431799  0.06577449  1
  O2-  O223  1  0.57705815  0.45894780  0.40179604  1
  O2-  O224  1  0.58759996  0.45769472  0.72906618  1
  O2-  O225  1  0.58045526  0.94594699  0.06166445  1
  O2-  O226  1  0.58712060  0.95657066  0.39665672  1
  O2-  O227  1  0.58505611  0.95177433  0.72836771  1
  O2-  O228  1  0.20891623  0.32931816  0.06195882  1
  O2-  O229  1  0.21304493  0.33452580  0.40327490  1
  O2-  O230  1  0.20167976  0.33487977  0.72851494  1
  O2-  O231  1  0.21223541  0.83436515  0.07195206  1
  O2-  O232  1  0.19892337  0.83106052  0.39178542  1
  O2-  O233  1  0.21233755  0.83149677  0.73209707  1
  O2-  O234  1  0.70999114  0.33370004  0.06715622  1
  O2-  O235  1  0.70700081  0.33019388  0.40680914  1
  O2-  O236  1  0.71232037  0.33951617  0.72818933  1
  O2-  O237  1  0.70404477  0.83173000  0.06096166  1
  O2-  O238  1  0.70762556  0.83952075  0.39802447  1
  O2-  O239  1  0.70649443  0.83672642  0.73244569  1
  O2-  O240  1  0.44613871  0.42289562  0.26773476  1
  O2-  O241  1  0.45621886  0.42094062  0.59746841  1
  O2-  O242  1  0.45725413  0.42234629  0.93084365  1
  O2-  O243  1  0.45727436  0.91549655  0.26906699  1
  O2-  O244  1  0.45780880  0.91624501  0.59907865  1
  O2-  O245  1  0.45490226  0.90987242  0.93558405  1
  O2-  O246  1  0.94776359  0.41689521  0.27715107  1
  O2-  O247  1  0.95560626  0.41387286  0.60367926  1
  O2-  O248  1  0.95497821  0.42272196  0.93347869  1
  O2-  O249  1  0.95827609  0.91808228  0.26466471  1
  O2-  O250  1  0.95165121  0.91808192  0.60594680  1
  O2-  O251  1  0.95882471  0.91619320  0.92934318  1
  O2-  O252  1  0.33286718  0.28405102  0.26618464  1
  O2-  O253  1  0.32623935  0.29637107  0.59867188  1
  O2-  O254  1  0.33234035  0.29396267  0.92724730  1
  O2-  O255  1  0.33195607  0.80285240  0.27059470  1
  O2-  O256  1  0.33588543  0.78601882  0.59696558  1
  O2-  O257  1  0.33648943  0.78930807  0.93937667  1
  O2-  O258  1  0.83373641  0.29447002  0.27672830  1
  O2-  O259  1  0.83992043  0.29148650  0.60221701  1
  O2-  O260  1  0.83346094  0.29050808  0.93246537  1
  O2-  O261  1  0.83009992  0.79507985  0.26581154  1
  O2-  O262  1  0.83304495  0.79800421  0.60614195  1
  O2-  O263  1  0.83287982  0.79001261  0.92683327  1
  O2-  O264  1  0.41465235  0.03808639  0.06224222  1
  O2-  O265  1  0.41722030  0.03891243  0.40273389  1
  O2-  O266  1  0.41838218  0.04668918  0.72808515  1
  O2-  O267  1  0.41816392  0.55014368  0.06063998  1
  O2-  O268  1  0.41415514  0.54972588  0.39925424  1
  O2-  O269  1  0.41362194  0.54544539  0.72909842  1
  O2-  O270  1  0.91400891  0.03556631  0.06817469  1
  O2-  O271  1  0.91328395  0.03826761  0.39958130  1
  O2-  O272  1  0.91050435  0.04278460  0.73246378  1
  O2-  O273  1  0.91840512  0.55647957  0.05809599  1
  O2-  O274  1  0.91646900  0.54455454  0.40418965  1
  O2-  O275  1  0.91311840  0.54063598  0.73261682  1
  O2-  O276  1  0.30352302  0.16649404  0.05657197  1
  O2-  O277  1  0.28574094  0.16252083  0.40483566  1
  O2-  O278  1  0.29722266  0.16630603  0.72979872  1
  O2-  O279  1  0.29784772  0.66446079  0.06683784  1
  O2-  O280  1  0.29819885  0.67076769  0.39650506  1
  O2-  O281  1  0.29083414  0.66070448  0.72932692  1
  O2-  O282  1  0.79239332  0.16569231  0.07016477  1
  O2-  O283  1  0.79925073  0.16156626  0.40082767  1
  O2-  O284  1  0.79334129  0.16466475  0.72878272  1
  O2-  O285  1  0.79136796  0.66721477  0.05999954  1
  O2-  O286  1  0.78778041  0.67132091  0.40245426  1
  O2-  O287  1  0.79816603  0.66497842  0.73195271  1
