# generated using pymatgen
data_Ca2Al2SiO7
_symmetry_space_group_name_H-M   'P 1'
_cell_length_a   15.45998415
_cell_length_b   15.46174839
_cell_length_c   15.28660959
_cell_angle_alpha   90.00454219
_cell_angle_beta   89.99302955
_cell_angle_gamma   89.99676827
_symmetry_Int_Tables_number   1
_chemical_formula_structural   Ca2Al2SiO7
_chemical_formula_sum   'Ca48 Al48 Si24 O168'
_cell_volume   3654.08642549
_cell_formula_units_Z   24
loop_
 _symmetry_equiv_pos_site_id
 _symmetry_equiv_pos_as_xyz
  1  'x, y, z'
loop_
 _atom_type_symbol
 _atom_type_oxidation_number
  Ca2+  2.0
  Al0+  0.0
  Si0+  0.0
  O2-  -2.0
loop_
 _atom_site_type_symbol
 _atom_site_label
 _atom_site_symmetry_multiplicity
 _atom_site_fract_x
 _atom_site_fract_y
 _atom_site_fract_z
 _atom_site_occupancy
  Ca2+  Ca0  1  0.17051114  0.08104517  0.17680150  1
  Ca2+  Ca1  1  0.16892721  0.08142208  0.50172083  1
  Ca2+  Ca2  1  0.16392618  0.07492400  0.83328575  1
  Ca2+  Ca3  1  0.16666831  0.58707802  0.17201682  1
  Ca2+  Ca4  1  0.16596212  0.57420550  0.50364565  1
  Ca2+  Ca5  1  0.17735091  0.58730390  0.83771407  1
  Ca2+  Ca6  1  0.67474502  0.07979009  0.17537266  1
  Ca2+  Ca7  1  0.67441597  0.07578862  0.50202420  1
  Ca2+  Ca8  1  0.66477295  0.07375923  0.83509376  1
  Ca2+  Ca9  1  0.67433124  0.58265476  0.17127323  1
  Ca2+  Ca10  1  0.66924114  0.58601152  0.49628000  1
  Ca2+  Ca11  1  0.67174363  0.57878397  0.84646937  1
  Ca2+  Ca12  1  0.07060128  0.33891616  0.16910516  1
  Ca2+  Ca13  1  0.08297511  0.33308489  0.48673043  1
  Ca2+  Ca14  1  0.07919679  0.33887681  0.83089519  1
  Ca2+  Ca15  1  0.07848452  0.81914522  0.16008745  1
  Ca2+  Ca16  1  0.08300718  0.82912376  0.49631941  1
  Ca2+  Ca17  1  0.07510927  0.82857174  0.83054434  1
  Ca2+  Ca18  1  0.59170175  0.33618521  0.16310051  1
  Ca2+  Ca19  1  0.57563850  0.33879789  0.49516656  1
  Ca2+  Ca20  1  0.57941861  0.33742609  0.82908220  1
  Ca2+  Ca21  1  0.57595937  0.82132787  0.16325489  1
  Ca2+  Ca22  1  0.57823076  0.82904951  0.49101053  1
  Ca2+  Ca23  1  0.58164933  0.82633483  0.83126006  1
  Ca2+  Ca24  1  0.32563725  0.42650318  0.17146340  1
  Ca2+  Ca25  1  0.32182915  0.42013695  0.50913470  1
  Ca2+  Ca26  1  0.33179365  0.42597354  0.83383159  1
  Ca2+  Ca27  1  0.34028262  0.91894603  0.17333050  1
  Ca2+  Ca28  1  0.33007408  0.91917284  0.50196222  1
  Ca2+  Ca29  1  0.32686421  0.90960130  0.83808354  1
  Ca2+  Ca30  1  0.82896397  0.42294978  0.17365366  1
  Ca2+  Ca31  1  0.83406314  0.42186656  0.49482046  1
  Ca2+  Ca32  1  0.82889324  0.42332623  0.84730320  1
  Ca2+  Ca33  1  0.83890794  0.92139646  0.17235438  1
  Ca2+  Ca34  1  0.83381743  0.92010303  0.50806702  1
  Ca2+  Ca35  1  0.83225402  0.90832414  0.83579913  1
  Ca2+  Ca36  1  0.41550635  0.16792862  0.16574256  1
  Ca2+  Ca37  1  0.41247625  0.17161856  0.49506772  1
  Ca2+  Ca38  1  0.41865353  0.17657029  0.82690746  1
  Ca2+  Ca39  1  0.42438334  0.67071410  0.15878299  1
  Ca2+  Ca40  1  0.42006274  0.67043336  0.49105148  1
  Ca2+  Ca41  1  0.41926096  0.65895322  0.83404986  1
  Ca2+  Ca42  1  0.91374453  0.17769962  0.16728760  1
  Ca2+  Ca43  1  0.92427094  0.17271127  0.48741329  1
  Ca2+  Ca44  1  0.91571864  0.17546632  0.83232651  1
  Ca2+  Ca45  1  0.92506661  0.65751652  0.16113683  1
  Ca2+  Ca46  1  0.92060401  0.67081940  0.49195653  1
  Ca2+  Ca47  1  0.91694554  0.67086781  0.83385607  1
  Al0+  Al48  1  0.00077800  -0.00006969  -0.00210860  1
  Al0+  Al49  1  0.00171063  0.00128580  0.33510188  1
  Al0+  Al50  1  0.00019402  0.00223027  0.66798085  1
  Al0+  Al51  1  0.00037480  0.49776135  -0.00771396  1
  Al0+  Al52  1  -0.00133215  0.50071802  0.33432768  1
  Al0+  Al53  1  -0.00050389  0.50063458  0.66978367  1
  Al0+  Al54  1  0.49982594  0.00038216  -0.00378917  1
  Al0+  Al55  1  0.49912609  0.00297317  0.33551021  1
  Al0+  Al56  1  0.50281889  -0.00047633  0.67050355  1
  Al0+  Al57  1  0.49673091  0.49846904  0.00452894  1
  Al0+  Al58  1  0.50029160  0.50039185  0.33198884  1
  Al0+  Al59  1  0.50059731  0.49922388  0.66347283  1
  Al0+  Al60  1  0.25040436  0.24781964  -0.00083748  1
  Al0+  Al61  1  0.25047394  0.24891684  0.33604020  1
  Al0+  Al62  1  0.25015934  0.25070852  0.66810574  1
  Al0+  Al63  1  0.24902218  0.75049554  -0.00115669  1
  Al0+  Al64  1  0.24896745  0.75260317  0.32646427  1
  Al0+  Al65  1  0.25102165  0.75032323  0.67306612  1
  Al0+  Al66  1  0.75017569  0.24718923  -0.00360935  1
  Al0+  Al67  1  0.74849542  0.24932868  0.34048906  1
  Al0+  Al68  1  0.75074127  0.24902873  0.66490560  1
  Al0+  Al69  1  0.74838584  0.74929750  -0.00062945  1
  Al0+  Al70  1  0.74812685  0.74983946  0.33328541  1
  Al0+  Al71  1  0.75051172  0.75124748  0.66571389  1
  Al0+  Al72  1  0.67820037  0.42660631  0.01316461  1
  Al0+  Al73  1  0.06914077  0.67926544  0.32200038  1
  Al0+  Al74  1  0.42915038  0.82308265  0.32001553  1
  Al0+  Al75  1  0.56935667  0.67644092  0.98392353  1
  Al0+  Al76  1  0.92860747  0.82279514  0.98618735  1
  Al0+  Al77  1  0.07365850  0.17782867  0.31841156  1
  Al0+  Al78  1  0.07157345  0.67650780  0.98272589  1
  Al0+  Al79  1  0.32164241  0.07094615  0.34726477  1
  Al0+  Al80  1  0.57185162  0.67674108  0.31704086  1
  Al0+  Al81  1  0.17690578  0.42739293  0.68307007  1
  Al0+  Al82  1  0.42998582  0.82234073  0.98245602  1
  Al0+  Al83  1  0.32265443  0.57071958  0.68038710  1
  Al0+  Al84  1  0.17882518  0.92991778  0.68079227  1
  Al0+  Al85  1  0.43047921  0.32032943  0.65217785  1
  Al0+  Al86  1  0.67707944  0.42838833  0.35074462  1
  Al0+  Al87  1  0.82194465  0.57195699  0.01459152  1
  Al0+  Al88  1  0.31823510  0.57158942  0.01628965  1
  Al0+  Al89  1  0.82295026  0.07026475  0.34709355  1
  Al0+  Al90  1  0.92977292  0.82046376  0.65187798  1
  Al0+  Al91  1  0.92734616  0.32034742  0.31949710  1
  Al0+  Al92  1  0.68036996  0.92833308  0.68120410  1
  Al0+  Al93  1  0.92897929  0.31889346  0.98558864  1
  Al0+  Al94  1  0.17986526  0.43137671  0.34435542  1
  Al0+  Al95  1  0.82144906  0.57279165  0.34949069  1
  Si0+  Si96  1  0.42701121  0.31943114  0.98611862  1
  Si0+  Si97  1  0.07356559  0.67870251  0.64976536  1
  Si0+  Si98  1  0.82101560  0.06967272  0.01402638  1
  Si0+  Si99  1  0.07028012  0.18029667  0.65211615  1
  Si0+  Si100  1  0.82214987  0.07277107  0.68566402  1
  Si0+  Si101  1  0.07383467  0.17745997  0.98180986  1
  Si0+  Si102  1  0.42825249  0.82213156  0.65221765  1
  Si0+  Si103  1  0.32144349  0.57481695  0.34782375  1
  Si0+  Si104  1  0.32178146  0.07078563  0.01425340  1
  Si0+  Si105  1  0.67826946  0.92942119  0.34846323  1
  Si0+  Si106  1  0.17823658  0.92695842  0.34906455  1
  Si0+  Si107  1  0.17858914  0.93033986  0.01595684  1
  Si0+  Si108  1  0.68005423  0.42860686  0.68038918  1
  Si0+  Si109  1  0.57002545  0.18041152  0.31948897  1
  Si0+  Si110  1  0.17821774  0.42472019  0.01681898  1
  Si0+  Si111  1  0.57163500  0.17857028  0.98452644  1
  Si0+  Si112  1  0.57285149  0.17599543  0.64815536  1
  Si0+  Si113  1  0.67709644  0.92919354  0.01569131  1
  Si0+  Si114  1  0.57123756  0.67928072  0.65117347  1
  Si0+  Si115  1  0.92678547  0.82348481  0.31968907  1
  Si0+  Si116  1  0.42779620  0.32128990  0.31781365  1
  Si0+  Si117  1  0.92804136  0.32278909  0.65080007  1
  Si0+  Si118  1  0.82022287  0.57143818  0.68165421  1
  Si0+  Si119  1  0.32305223  0.07196643  0.68480280  1
  O2-  O120  1  0.25275877  -0.00113011  0.05717278  1
  O2-  O121  1  0.24711014  -0.00390057  0.39289100  1
  O2-  O122  1  0.25643558  0.00180469  0.72945360  1
  O2-  O123  1  0.24067358  0.49870504  0.06133245  1
  O2-  O124  1  0.25355178  0.50620713  0.39278859  1
  O2-  O125  1  0.24838607  0.50074347  0.73098524  1
  O2-  O126  1  0.75341600  -0.00449631  0.05665741  1
  O2-  O127  1  0.75304013  -0.00900524  0.39366039  1
  O2-  O128  1  0.75471028  0.00296942  0.72989490  1
  O2-  O129  1  0.74894768  0.49948972  0.06270346  1
  O2-  O130  1  0.74780508  0.50202595  0.40029340  1
  O2-  O131  1  0.75254238  0.49675179  0.72311495  1
  O2-  O132  1  -0.00001780  0.24828949  0.26935434  1
  O2-  O133  1  0.00328257  0.25533931  0.61037209  1
  O2-  O134  1  0.00671222  0.24742409  0.93739998  1
  O2-  O135  1  -0.00793103  0.75218750  0.27579511  1
  O2-  O136  1  0.00534724  0.74753732  0.60469815  1
  O2-  O137  1  -0.00340494  0.74746532  0.93527152  1
  O2-  O138  1  0.50246889  0.25371182  0.27534503  1
  O2-  O139  1  0.50372430  0.24408465  0.60418732  1
  O2-  O140  1  0.50284165  0.25253662  0.94428226  1
  O2-  O141  1  0.49722139  0.74784463  0.27022256  1
  O2-  O142  1  0.49835779  0.74996662  0.61060261  1
  O2-  O143  1  0.49852355  0.74818796  0.93068217  1
  O2-  O144  1  0.07526189  0.17586298  0.08671701  1
  O2-  O145  1  0.07318797  0.17925492  0.43263366  1
  O2-  O146  1  0.06737243  0.17863845  0.75747125  1
  O2-  O147  1  0.07149425  0.67935226  0.09655007  1
  O2-  O148  1  0.07089297  0.68162753  0.43545658  1
  O2-  O149  1  0.07200190  0.67945918  0.75499023  1
  O2-  O150  1  0.57153581  0.17524932  0.08957348  1
  O2-  O151  1  0.56721717  0.17827585  0.42446450  1
  O2-  O152  1  0.57293622  0.17696282  0.75417616  1
  O2-  O153  1  0.56848592  0.67904427  0.09679492  1
  O2-  O154  1  0.57005828  0.68017941  0.43175803  1
  O2-  O155  1  0.57229229  0.67861175  0.75600664  1
  O2-  O156  1  0.18144566  0.43131795  0.23130907  1
  O2-  O157  1  0.17694191  0.42730037  0.56933186  1
  O2-  O158  1  0.18386388  0.42023897  0.91141640  1
  O2-  O159  1  0.17761028  0.92805155  0.24357167  1
  O2-  O160  1  0.18047266  0.93167529  0.56779343  1
  O2-  O161  1  0.17795474  0.93412990  0.91057222  1
  O2-  O162  1  0.67938659  0.42552078  0.23776303  1
  O2-  O163  1  0.67966028  0.42908153  0.57582637  1
  O2-  O164  1  0.68028314  0.42551648  0.89853696  1
  O2-  O165  1  0.67685631  0.93402100  0.24276653  1
  O2-  O166  1  0.68063122  0.93058282  0.56815863  1
  O2-  O167  1  0.67515612  0.93319925  0.91041895  1
  O2-  O168  1  0.42276241  0.31447482  0.09099437  1
  O2-  O169  1  0.42771645  0.31893139  0.42301752  1
  O2-  O170  1  0.43434487  0.31907287  0.76578714  1
  O2-  O171  1  0.43455638  0.82744689  0.09549015  1
  O2-  O172  1  0.43024138  0.82366235  0.43450107  1
  O2-  O173  1  0.43011009  0.82361856  0.75690386  1
  O2-  O174  1  0.92610436  0.31591233  0.09796502  1
  O2-  O175  1  0.93006779  0.31899031  0.43369834  1
  O2-  O176  1  0.92502305  0.31930912  0.75591070  1
  O2-  O177  1  0.93444822  0.83145212  0.09922343  1
  O2-  O178  1  0.92948485  0.82419311  0.42561906  1
  O2-  O179  1  0.92873120  0.81711130  0.76448583  1
  O2-  O180  1  0.32322897  0.07028935  0.23380626  1
  O2-  O181  1  0.32243264  0.07192648  0.57935734  1
  O2-  O182  1  0.32103890  0.07310968  0.90920372  1
  O2-  O183  1  0.31978754  0.57258892  0.24229976  1
  O2-  O184  1  0.32285543  0.57028930  0.56659604  1
  O2-  O185  1  0.32056585  0.56695944  0.90323911  1
  O2-  O186  1  0.81913007  0.07009612  0.23340297  1
  O2-  O187  1  0.82134309  0.07319672  0.58025727  1
  O2-  O188  1  0.81821173  0.07184107  0.90885022  1
  O2-  O189  1  0.82311930  0.57121716  0.23654402  1
  O2-  O190  1  0.82017611  0.57174267  0.57679562  1
  O2-  O191  1  0.81940813  0.56950209  0.89991251  1
  O2-  O192  1  0.04727783  0.07845249  0.26642341  1
  O2-  O193  1  0.03962096  0.09019770  0.60338659  1
  O2-  O194  1  0.04465141  0.08556965  0.93395675  1
  O2-  O195  1  0.04011504  0.58342260  0.26699307  1
  O2-  O196  1  0.04575558  0.58436263  0.60580867  1
  O2-  O197  1  0.04925102  0.57768823  0.92840822  1
  O2-  O198  1  0.53968788  0.09049542  0.26963603  1
  O2-  O199  1  0.54815890  0.08168420  0.60324792  1
  O2-  O200  1  0.53943386  0.08966506  0.93367715  1
  O2-  O201  1  0.54642638  0.57775969  0.26484394  1
  O2-  O202  1  0.54497712  0.58759605  0.60318639  1
  O2-  O203  1  0.53950885  0.57669331  0.93289341  1
  O2-  O204  1  0.17257706  0.20501697  0.26624311  1
  O2-  O205  1  0.16459306  0.20207895  0.60745335  1
  O2-  O206  1  0.16807090  0.20078266  0.93461757  1
  O2-  O207  1  0.16370874  0.71129019  0.26492213  1
  O2-  O208  1  0.16809849  0.70462318  0.60593645  1
  O2-  O209  1  0.16820159  0.71025695  0.92991042  1
  O2-  O210  1  0.66277581  0.20491382  0.27288154  1
  O2-  O211  1  0.66706182  0.20134914  0.60301280  1
  O2-  O212  1  0.66257861  0.20248602  0.93357512  1
  O2-  O213  1  0.66963862  0.70750139  0.26430166  1
  O2-  O214  1  0.66171031  0.71024264  0.60328900  1
  O2-  O215  1  0.66795018  0.70520206  0.93140201  1
  O2-  O216  1  0.08128650  0.44420219  0.05630149  1
  O2-  O217  1  0.08379277  0.45996808  0.39977280  1
  O2-  O218  1  0.07744293  0.45356738  0.73537355  1
  O2-  O219  1  0.08840271  0.96248447  0.06360859  1
  O2-  O220  1  0.08558838  0.95242695  0.39717945  1
  O2-  O221  1  0.08407196  0.96585718  0.73605718  1
  O2-  O222  1  0.57790003  0.44737570  0.06430042  1
  O2-  O223  1  0.57707157  0.45607097  0.40266243  1
  O2-  O224  1  0.58860774  0.45744288  0.72725367  1
  O2-  O225  1  0.58786119  0.96540787  0.06281728  1
  O2-  O226  1  0.58839710  0.96372592  0.39707859  1
  O2-  O227  1  0.58487619  0.96041073  0.73800122  1
  O2-  O228  1  0.20970487  0.33258939  0.06341830  1
  O2-  O229  1  0.21204971  0.33530938  0.39870529  1
  O2-  O230  1  0.20582177  0.32897864  0.73619907  1
  O2-  O231  1  0.20277063  0.83780169  0.06196191  1
  O2-  O232  1  0.20515443  0.83420270  0.39644389  1
  O2-  O233  1  0.20737703  0.83411359  0.73662304  1
  O2-  O234  1  0.70636235  0.32624351  0.06304448  1
  O2-  O235  1  0.70341231  0.33032141  0.40613325  1
  O2-  O236  1  0.70422421  0.33439707  0.72578641  1
  O2-  O237  1  0.69869718  0.83605281  0.06141195  1
  O2-  O238  1  0.69563038  0.83398927  0.39285611  1
  O2-  O239  1  0.71153845  0.83231038  0.73586486  1
  O2-  O240  1  0.45105131  0.41407489  0.27119226  1
  O2-  O241  1  0.46316279  0.41521738  0.59605878  1
  O2-  O242  1  0.45126208  0.41164844  0.93931968  1
  O2-  O243  1  0.46066070  0.92150380  0.26819634  1
  O2-  O244  1  0.45755943  0.91474552  0.60651395  1
  O2-  O245  1  0.45941481  0.92078233  0.92810268  1
  O2-  O246  1  0.95718640  0.41790234  0.26714938  1
  O2-  O247  1  0.95114108  0.41682844  0.60617159  1
  O2-  O248  1  0.95677973  0.41380738  0.92746480  1
  O2-  O249  1  0.95431416  0.91652917  0.27405676  1
  O2-  O250  1  0.95848616  0.91981526  0.60188218  1
  O2-  O251  1  0.95995711  0.92009349  0.92997516  1
  O2-  O252  1  0.33888644  0.28779553  0.26936058  1
  O2-  O253  1  0.33282339  0.28958384  0.59990637  1
  O2-  O254  1  0.33870032  0.28506723  0.93517479  1
  O2-  O255  1  0.33010222  0.80173540  0.26615957  1
  O2-  O256  1  0.33543039  0.79631718  0.60611193  1
  O2-  O257  1  0.32929297  0.79788165  0.93409264  1
  O2-  O258  1  0.82857148  0.28816377  0.26983465  1
  O2-  O259  1  0.83722597  0.29164820  0.60307329  1
  O2-  O260  1  0.83452199  0.28254122  0.92862477  1
  O2-  O261  1  0.83119456  0.80479907  0.27598988  1
  O2-  O262  1  0.83303353  0.79004037  0.59762157  1
  O2-  O263  1  0.82792324  0.79974595  0.93586170  1
  O2-  O264  1  0.41487955  0.04518871  0.06076288  1
  O2-  O265  1  0.41767198  0.04257107  0.40444351  1
  O2-  O266  1  0.41809908  0.05010312  0.72958664  1
  O2-  O267  1  0.41262476  0.53659609  0.07167795  1
  O2-  O268  1  0.41547380  0.54980594  0.39232263  1
  O2-  O269  1  0.42053876  0.53744388  0.73324429  1
  O2-  O270  1  0.91441115  0.04595419  0.05986928  1
  O2-  O271  1  0.92043404  0.04440474  0.40212591  1
  O2-  O272  1  0.91592527  0.05011189  0.73168537  1
  O2-  O273  1  0.92204521  0.54109513  0.06206164  1
  O2-  O274  1  0.91806234  0.54194961  0.40511777  1
  O2-  O275  1  0.91256291  0.54691344  0.72914209  1
  O2-  O276  1  0.29326741  0.16193445  0.06299990  1
  O2-  O277  1  0.29086304  0.16609700  0.40394843  1
  O2-  O278  1  0.29507631  0.16455258  0.73175357  1
  O2-  O279  1  0.29075903  0.66999395  0.06823478  1
  O2-  O280  1  0.29654077  0.66962815  0.39143324  1
  O2-  O281  1  0.29834583  0.66911641  0.73521442  1
  O2-  O282  1  0.78795696  0.15914809  0.06212904  1
  O2-  O283  1  0.78700466  0.16278065  0.40491017  1
  O2-  O284  1  0.79305441  0.16607230  0.73205408  1
  O2-  O285  1  0.79632154  0.67147306  0.06647293  1
  O2-  O286  1  0.79315191  0.67211752  0.40286939  1
  O2-  O287  1  0.78877246  0.66188695  0.72840673  1
