# generated using pymatgen
data_Ca2Al2SiO7
_symmetry_space_group_name_H-M   'P 1'
_cell_length_a   15.46299730
_cell_length_b   15.46045559
_cell_length_c   15.28561410
_cell_angle_alpha   90.00247617
_cell_angle_beta   89.98244365
_cell_angle_gamma   89.99841057
_symmetry_Int_Tables_number   1
_chemical_formula_structural   Ca2Al2SiO7
_chemical_formula_sum   'Ca48 Al48 Si24 O168'
_cell_volume   3654.25489959
_cell_formula_units_Z   24
loop_
 _symmetry_equiv_pos_site_id
 _symmetry_equiv_pos_as_xyz
  1  'x, y, z'
loop_
 _atom_type_symbol
 _atom_type_oxidation_number
  Ca2+  2.0
  Al0+  0.0
  Si0+  0.0
  O2-  -2.0
loop_
 _atom_site_type_symbol
 _atom_site_label
 _atom_site_symmetry_multiplicity
 _atom_site_fract_x
 _atom_site_fract_y
 _atom_site_fract_z
 _atom_site_occupancy
  Ca2+  Ca0  1  0.15025287  0.07439725  0.16961669  1
  Ca2+  Ca1  1  0.16614172  0.08467805  0.50462449  1
  Ca2+  Ca2  1  0.16422624  0.08441115  0.83368966  1
  Ca2+  Ca3  1  0.17752248  0.58432144  0.17040014  1
  Ca2+  Ca4  1  0.17089886  0.57543373  0.50537847  1
  Ca2+  Ca5  1  0.17011275  0.57507443  0.83534911  1
  Ca2+  Ca6  1  0.67777077  0.07975918  0.17402183  1
  Ca2+  Ca7  1  0.67153441  0.08140187  0.50741643  1
  Ca2+  Ca8  1  0.65985083  0.07660558  0.83131199  1
  Ca2+  Ca9  1  0.67907166  0.57791740  0.17344251  1
  Ca2+  Ca10  1  0.67611545  0.57635574  0.49948246  1
  Ca2+  Ca11  1  0.67897559  0.58232682  0.83509132  1
  Ca2+  Ca12  1  0.07792427  0.31956307  0.15952581  1
  Ca2+  Ca13  1  0.08487076  0.32446566  0.50196662  1
  Ca2+  Ca14  1  0.08023799  0.32927730  0.82387457  1
  Ca2+  Ca15  1  0.07567036  0.83724237  0.16288895  1
  Ca2+  Ca16  1  0.07272830  0.83674272  0.49312538  1
  Ca2+  Ca17  1  0.07454756  0.83399477  0.83202123  1
  Ca2+  Ca18  1  0.58069843  0.34466669  0.17006726  1
  Ca2+  Ca19  1  0.57383347  0.33969284  0.49620944  1
  Ca2+  Ca20  1  0.57444106  0.32504772  0.82306310  1
  Ca2+  Ca21  1  0.58052002  0.82879231  0.16292323  1
  Ca2+  Ca22  1  0.57965468  0.83800339  0.50321644  1
  Ca2+  Ca23  1  0.57818840  0.83257283  0.81982381  1
  Ca2+  Ca24  1  0.33647639  0.42573016  0.17512419  1
  Ca2+  Ca25  1  0.33182735  0.41335319  0.50506195  1
  Ca2+  Ca26  1  0.32652739  0.41234628  0.83378737  1
  Ca2+  Ca27  1  0.31525483  0.91929432  0.17246149  1
  Ca2+  Ca28  1  0.32624106  0.92201352  0.50908014  1
  Ca2+  Ca29  1  0.32894115  0.92296934  0.83599998  1
  Ca2+  Ca30  1  0.83397160  0.42412721  0.17459069  1
  Ca2+  Ca31  1  0.84206469  0.42760077  0.50796513  1
  Ca2+  Ca32  1  0.84538999  0.42471566  0.83696894  1
  Ca2+  Ca33  1  0.84258365  0.92097531  0.17406107  1
  Ca2+  Ca34  1  0.83541811  0.92091794  0.50470177  1
  Ca2+  Ca35  1  0.83280789  0.91221483  0.83305133  1
  Ca2+  Ca36  1  0.41891331  0.17405605  0.16740373  1
  Ca2+  Ca37  1  0.41854073  0.17407747  0.50199924  1
  Ca2+  Ca38  1  0.42018025  0.16679797  0.81809696  1
  Ca2+  Ca39  1  0.41438584  0.66099288  0.16250557  1
  Ca2+  Ca40  1  0.41308352  0.67165333  0.49369459  1
  Ca2+  Ca41  1  0.41445233  0.67235129  0.82862350  1
  Ca2+  Ca42  1  0.92308890  0.16727768  0.16120320  1
  Ca2+  Ca43  1  0.92669346  0.16403767  0.49412752  1
  Ca2+  Ca44  1  0.92902487  0.17919056  0.82768269  1
  Ca2+  Ca45  1  0.90714271  0.67568806  0.16321637  1
  Ca2+  Ca46  1  0.90656590  0.67555770  0.49810936  1
  Ca2+  Ca47  1  0.90919485  0.67306424  0.82707425  1
  Al0+  Al48  1  -0.00136070  -0.00065663  -0.00698222  1
  Al0+  Al49  1  -0.00142689  -0.00154396  0.33486676  1
  Al0+  Al50  1  -0.00066517  -0.00097346  0.66223012  1
  Al0+  Al51  1  0.00204100  0.50263563  0.00634137  1
  Al0+  Al52  1  0.00319946  0.50150051  0.33663108  1
  Al0+  Al53  1  0.00382462  0.50107675  0.67293644  1
  Al0+  Al54  1  0.49818374  -0.00061753  0.00403856  1
  Al0+  Al55  1  0.49811270  0.00085045  0.32874856  1
  Al0+  Al56  1  0.49957932  -0.00110136  0.66573060  1
  Al0+  Al57  1  0.50151848  0.50040956  0.00003824  1
  Al0+  Al58  1  0.50085214  0.50267427  0.33678209  1
  Al0+  Al59  1  0.50329883  0.50199200  0.66477776  1
  Al0+  Al60  1  0.25229009  0.24874822  -0.00090411  1
  Al0+  Al61  1  0.25156642  0.24898528  0.32067951  1
  Al0+  Al62  1  0.25085841  0.24964474  0.66843545  1
  Al0+  Al63  1  0.24891597  0.75178290  0.00683755  1
  Al0+  Al64  1  0.24736442  0.75125795  0.34051103  1
  Al0+  Al65  1  0.24921861  0.75049024  0.66355498  1
  Al0+  Al66  1  0.74769587  0.24868767  -0.00407164  1
  Al0+  Al67  1  0.74851355  0.24863693  0.34151918  1
  Al0+  Al68  1  0.75168512  0.25132667  0.66224746  1
  Al0+  Al69  1  0.74710138  0.74800716  -0.00004030  1
  Al0+  Al70  1  0.74671717  0.74972894  0.33139037  1
  Al0+  Al71  1  0.74898374  0.75092229  0.66978699  1
  Al0+  Al72  1  0.07162612  0.17835751  0.98303158  1
  Al0+  Al73  1  0.92767858  0.81824926  0.98527455  1
  Al0+  Al74  1  0.06915129  0.17958855  0.31852888  1
  Al0+  Al75  1  0.43211456  0.32143345  0.31813714  1
  Al0+  Al76  1  0.18286853  0.42947357  0.68001490  1
  Al0+  Al77  1  0.32017175  0.57055267  0.34844342  1
  Al0+  Al78  1  0.82224807  0.57122013  0.01471622  1
  Al0+  Al79  1  0.17822548  0.93184198  0.34875159  1
  Al0+  Al80  1  0.67979153  0.42881460  0.34910909  1
  Al0+  Al81  1  0.82351954  0.57167583  0.34924929  1
  Al0+  Al82  1  0.57258671  0.17692401  0.65136216  1
  Al0+  Al83  1  0.93022276  0.32520670  0.65147373  1
  Al0+  Al84  1  0.92871233  0.81836303  0.65264913  1
  Al0+  Al85  1  0.31883976  0.06881074  0.67828963  1
  Al0+  Al86  1  0.82004180  0.56929475  0.68147458  1
  Al0+  Al87  1  0.42766395  0.81983695  0.65366355  1
  Al0+  Al88  1  0.17818009  0.93272629  0.01255870  1
  Al0+  Al89  1  0.32065181  0.56889711  0.01193560  1
  Al0+  Al90  1  0.82060541  0.06916806  0.34628230  1
  Al0+  Al91  1  0.07071574  0.17936419  0.65072865  1
  Al0+  Al92  1  0.92888253  0.81719981  0.31968639  1
  Al0+  Al93  1  0.92791761  0.32365684  0.98772640  1
  Al0+  Al94  1  0.42980846  0.32232201  0.65264379  1
  Al0+  Al95  1  0.68133743  0.93233087  0.67945439  1
  Si0+  Si96  1  0.56775742  0.68094801  0.31642886  1
  Si0+  Si97  1  0.42801693  0.82080893  0.98682016  1
  Si0+  Si98  1  0.43161909  0.32238227  0.98559724  1
  Si0+  Si99  1  0.92631332  0.32418019  0.31962887  1
  Si0+  Si100  1  0.32499069  0.07329376  0.01934826  1
  Si0+  Si101  1  0.18005547  0.42436451  0.34801816  1
  Si0+  Si102  1  0.67566059  0.92746693  0.01532538  1
  Si0+  Si103  1  0.56947462  0.17573727  0.98546311  1
  Si0+  Si104  1  0.32494342  0.57484122  0.68242353  1
  Si0+  Si105  1  0.32343272  0.07326621  0.34901943  1
  Si0+  Si106  1  0.67862116  0.42691315  0.01484537  1
  Si0+  Si107  1  0.17876888  0.42492258  0.01903154  1
  Si0+  Si108  1  0.67647220  0.42629137  0.68495238  1
  Si0+  Si109  1  0.17533937  0.92593077  0.68416780  1
  Si0+  Si110  1  0.67415720  0.92752411  0.34812298  1
  Si0+  Si111  1  0.42522239  0.82235441  0.31651283  1
  Si0+  Si112  1  0.82554356  0.07426891  0.68513294  1
  Si0+  Si113  1  0.57291142  0.67944359  0.64865108  1
  Si0+  Si114  1  0.81775831  0.06887002  0.01155522  1
  Si0+  Si115  1  0.07571384  0.67899929  0.98460414  1
  Si0+  Si116  1  0.57451219  0.17592950  0.31487944  1
  Si0+  Si117  1  0.07343787  0.67760383  0.65024182  1
  Si0+  Si118  1  0.56931896  0.67917885  0.98397267  1
  Si0+  Si119  1  0.07481856  0.67694059  0.31623930  1
  O2-  O120  1  0.24985441  0.01048012  0.06100199  1
  O2-  O121  1  0.25449331  0.00554070  0.39328826  1
  O2-  O122  1  0.24384827  -0.00470937  0.72720347  1
  O2-  O123  1  0.24868074  0.49352068  0.06185872  1
  O2-  O124  1  0.24712844  0.49441627  0.39315335  1
  O2-  O125  1  0.26030624  0.50284914  0.72642251  1
  O2-  O126  1  0.74877136  -0.00386559  0.05632391  1
  O2-  O127  1  0.74207441  -0.00308659  0.39054473  1
  O2-  O128  1  0.75359076  0.00794909  0.72926433  1
  O2-  O129  1  0.75324053  0.48952974  0.05836359  1
  O2-  O130  1  0.75951027  0.49223083  0.39884007  1
  O2-  O131  1  0.74959361  0.49034372  0.72926362  1
  O2-  O132  1  -0.00605573  0.25532693  0.27370339  1
  O2-  O133  1  -0.00492875  0.24745056  0.60055927  1
  O2-  O134  1  0.00520819  0.25750455  0.93689816  1
  O2-  O135  1  0.00073520  0.74000521  0.27202131  1
  O2-  O136  1  0.00493202  0.74595197  0.60572311  1
  O2-  O137  1  0.00047059  0.74054849  0.94019394  1
  O2-  O138  1  0.50887599  0.24809195  0.27055918  1
  O2-  O139  1  0.50562584  0.25423362  0.60259342  1
  O2-  O140  1  0.49712992  0.24593949  0.94464068  1
  O2-  O141  1  0.49611629  0.75166832  0.27300540  1
  O2-  O142  1  0.49817335  0.74206983  0.60506254  1
  O2-  O143  1  0.49899422  0.75111810  0.94261173  1
  O2-  O144  1  0.06545692  0.17627519  0.09685638  1
  O2-  O145  1  0.07106147  0.18037769  0.43101912  1
  O2-  O146  1  0.07074655  0.18091242  0.76430417  1
  O2-  O147  1  0.07996263  0.68287483  0.08998625  1
  O2-  O148  1  0.07869415  0.67903506  0.42142423  1
  O2-  O149  1  0.07557540  0.67920195  0.75615054  1
  O2-  O150  1  0.57026846  0.17328413  0.09036184  1
  O2-  O151  1  0.57096800  0.16968632  0.41932748  1
  O2-  O152  1  0.56704366  0.17610826  0.76609465  1
  O2-  O153  1  0.56880969  0.68000037  0.08922558  1
  O2-  O154  1  0.56757773  0.68271129  0.42119103  1
  O2-  O155  1  0.57312656  0.68162735  0.75488435  1
  O2-  O156  1  0.18185649  0.42588434  0.24218620  1
  O2-  O157  1  0.18379476  0.43078752  0.56683821  1
  O2-  O158  1  0.18063755  0.42505121  0.91348049  1
  O2-  O159  1  0.17807712  0.93203401  0.23510168  1
  O2-  O160  1  0.17674264  0.92493937  0.57868440  1
  O2-  O161  1  0.18242183  0.93040150  0.89977403  1
  O2-  O162  1  0.67930039  0.43414037  0.23469269  1
  O2-  O163  1  0.67195609  0.43141885  0.58002980  1
  O2-  O164  1  0.67287229  0.42994332  0.90983953  1
  O2-  O165  1  0.67268164  0.92800569  0.24174344  1
  O2-  O166  1  0.68207347  0.93164545  0.56646088  1
  O2-  O167  1  0.67060224  0.92847824  0.91073247  1
  O2-  O168  1  0.43516312  0.32484379  0.09068618  1
  O2-  O169  1  0.43095444  0.32061686  0.43044018  1
  O2-  O170  1  0.43045622  0.32062582  0.76710965  1
  O2-  O171  1  0.43084525  0.82043519  0.09206617  1
  O2-  O172  1  0.42718037  0.82279529  0.42133323  1
  O2-  O173  1  0.42868627  0.81817834  0.76764625  1
  O2-  O174  1  0.92551596  0.31902905  0.10174469  1
  O2-  O175  1  0.92977907  0.32403986  0.42471363  1
  O2-  O176  1  0.93493552  0.32623542  0.76526379  1
  O2-  O177  1  0.92776306  0.81978560  0.09842983  1
  O2-  O178  1  0.92875917  0.81715825  0.43244489  1
  O2-  O179  1  0.92868442  0.81655124  0.76607236  1
  O2-  O180  1  0.32656161  0.06970937  0.24311878  1
  O2-  O181  1  0.31816242  0.06760879  0.56519129  1
  O2-  O182  1  0.33305688  0.06959606  0.91435108  1
  O2-  O183  1  0.32012323  0.56987983  0.23473919  1
  O2-  O184  1  0.32197154  0.57677779  0.57708512  1
  O2-  O185  1  0.32082191  0.56852694  0.89906458  1
  O2-  O186  1  0.82034874  0.06682807  0.23196716  1
  O2-  O187  1  0.82684218  0.06951476  0.57956671  1
  O2-  O188  1  0.81352511  0.06831643  0.90700409  1
  O2-  O189  1  0.81880372  0.57375232  0.23539147  1
  O2-  O190  1  0.81718455  0.57128381  0.56876327  1
  O2-  O191  1  0.81682327  0.57512525  0.90193574  1
  O2-  O192  1  0.03278789  0.08377092  0.26620899  1
  O2-  O193  1  0.04609970  0.07955071  0.59900874  1
  O2-  O194  1  0.03811271  0.08308912  0.92804139  1
  O2-  O195  1  0.05727062  0.58061021  0.27169462  1
  O2-  O196  1  0.04873882  0.58400905  0.60556187  1
  O2-  O197  1  0.05772654  0.58204362  0.94313768  1
  O2-  O198  1  0.54512087  0.08407730  0.26434299  1
  O2-  O199  1  0.53931796  0.08097679  0.59781558  1
  O2-  O200  1  0.54111849  0.08315536  0.93886365  1
  O2-  O201  1  0.53908330  0.59020932  0.26784203  1
  O2-  O202  1  0.55459796  0.58437709  0.60359814  1
  O2-  O203  1  0.54096054  0.58804693  0.93569097  1
  O2-  O204  1  0.16523831  0.20600899  0.26036284  1
  O2-  O205  1  0.16832977  0.21123280  0.59944186  1
  O2-  O206  1  0.17488745  0.19822577  0.93600780  1
  O2-  O207  1  0.16646461  0.70945273  0.26878078  1
  O2-  O208  1  0.16658798  0.70154824  0.60225328  1
  O2-  O209  1  0.16654973  0.71141935  0.93617794  1
  O2-  O210  1  0.66981767  0.19825758  0.27022198  1
  O2-  O211  1  0.67389398  0.19617016  0.60218808  1
  O2-  O212  1  0.65998475  0.20241430  0.93575884  1
  O2-  O213  1  0.65795379  0.71039002  0.26584613  1
  O2-  O214  1  0.66248957  0.71402076  0.60158024  1
  O2-  O215  1  0.65968106  0.70793256  0.93512695  1
  O2-  O216  1  0.08635861  0.45087723  0.06678422  1
  O2-  O217  1  0.08660356  0.44791706  0.39473145  1
  O2-  O218  1  0.08996613  0.46416153  0.73916785  1
  O2-  O219  1  0.07964589  0.96167379  0.06496515  1
  O2-  O220  1  0.08290023  0.96260785  0.40302363  1
  O2-  O221  1  0.08150447  0.95179172  0.72935123  1
  O2-  O222  1  0.58828940  0.46091497  0.06393107  1
  O2-  O223  1  0.58582806  0.46863721  0.40308710  1
  O2-  O224  1  0.58453465  0.45721511  0.73382686  1
  O2-  O225  1  0.58532729  0.95679346  0.06619758  1
  O2-  O226  1  0.57937536  0.95224266  0.39239021  1
  O2-  O227  1  0.58414666  0.96086408  0.73499889  1
  O2-  O228  1  0.20464041  0.33070854  0.06412740  1
  O2-  O229  1  0.20979193  0.33087506  0.39091743  1
  O2-  O230  1  0.21409285  0.33471332  0.73717184  1
  O2-  O231  1  0.21212296  0.83853909  0.07014203  1
  O2-  O232  1  0.20827409  0.83611649  0.40375590  1
  O2-  O233  1  0.20244779  0.83224697  0.72966535  1
  O2-  O234  1  0.69568467  0.33045979  0.05909266  1
  O2-  O235  1  0.69077076  0.32649096  0.39824004  1
  O2-  O236  1  0.69506327  0.32973255  0.72777136  1
  O2-  O237  1  0.70006649  0.83459115  0.06177049  1
  O2-  O238  1  0.69809058  0.83381848  0.39296868  1
  O2-  O239  1  0.71133205  0.83646069  0.73631114  1
  O2-  O240  1  0.46484778  0.41930000  0.26560685  1
  O2-  O241  1  0.45444123  0.42296264  0.60154685  1
  O2-  O242  1  0.46337126  0.41201767  0.93651776  1
  O2-  O243  1  0.45247383  0.91368442  0.26701347  1
  O2-  O244  1  0.46282312  0.91338707  0.59817654  1
  O2-  O245  1  0.45605750  0.91338674  0.94090841  1
  O2-  O246  1  0.95194150  0.41883412  0.27437755  1
  O2-  O247  1  0.96623642  0.42205579  0.60038849  1
  O2-  O248  1  0.95204040  0.42591547  0.94071365  1
  O2-  O249  1  0.96364268  0.91283587  0.26614303  1
  O2-  O250  1  0.95678943  0.91523510  0.59886389  1
  O2-  O251  1  0.95912949  0.91326682  0.92957620  1
  O2-  O252  1  0.33831317  0.29054051  0.25814231  1
  O2-  O253  1  0.33333990  0.29013380  0.60008469  1
  O2-  O254  1  0.33752496  0.30016714  0.94102446  1
  O2-  O255  1  0.33308186  0.79264440  0.27112805  1
  O2-  O256  1  0.33082055  0.79326072  0.59802012  1
  O2-  O257  1  0.33643787  0.79212032  0.94070925  1
  O2-  O258  1  0.83053649  0.30010664  0.27733851  1
  O2-  O259  1  0.82808379  0.30867662  0.60287009  1
  O2-  O260  1  0.83007763  0.29303098  0.93371139  1
  O2-  O261  1  0.82982239  0.79176048  0.26587616  1
  O2-  O262  1  0.83197205  0.78635802  0.60029262  1
  O2-  O263  1  0.82878761  0.78976253  0.93378983  1
  O2-  O264  1  0.41524268  0.04141158  0.07024451  1
  O2-  O265  1  0.41711540  0.04671336  0.39423897  1
  O2-  O266  1  0.41410783  0.03502062  0.73381523  1
  O2-  O267  1  0.41827208  0.53923856  0.06611219  1
  O2-  O268  1  0.41707842  0.54370143  0.40171680  1
  O2-  O269  1  0.42127854  0.55582437  0.72562243  1
  O2-  O270  1  0.90982113  0.04064992  0.05747054  1
  O2-  O271  1  0.91330359  0.03295821  0.40248202  1
  O2-  O272  1  0.91737880  0.04304917  0.73170755  1
  O2-  O273  1  0.92128813  0.55241678  0.06925994  1
  O2-  O274  1  0.92531855  0.55375851  0.39959844  1
  O2-  O275  1  0.91828939  0.54466290  0.73543815  1
  O2-  O276  1  0.30697286  0.16979287  0.06241323  1
  O2-  O277  1  0.29821094  0.16855017  0.38961592  1
  O2-  O278  1  0.29114554  0.16470581  0.73488405  1
  O2-  O279  1  0.29107680  0.66532566  0.06778268  1
  O2-  O280  1  0.28971714  0.66662690  0.40264043  1
  O2-  O281  1  0.29481319  0.66728712  0.72958305  1
  O2-  O282  1  0.78761198  0.15987520  0.06013520  1
  O2-  O283  1  0.79508586  0.16539472  0.40250273  1
  O2-  O284  1  0.80450705  0.17032202  0.72787686  1
  O2-  O285  1  0.78107879  0.66499118  0.06931507  1
  O2-  O286  1  0.78381407  0.66785330  0.39991125  1
  O2-  O287  1  0.78253081  0.66385759  0.73587405  1
