# generated using pymatgen
data_Ca2Al2SiO7
_symmetry_space_group_name_H-M   'P 1'
_cell_length_a   15.46635282
_cell_length_b   15.46694542
_cell_length_c   15.28874058
_cell_angle_alpha   89.99699092
_cell_angle_beta   89.99576758
_cell_angle_gamma   90.00446563
_symmetry_Int_Tables_number   1
_chemical_formula_structural   Ca2Al2SiO7
_chemical_formula_sum   'Ca48 Al48 Si24 O168'
_cell_volume   3657.33022264
_cell_formula_units_Z   24
loop_
 _symmetry_equiv_pos_site_id
 _symmetry_equiv_pos_as_xyz
  1  'x, y, z'
loop_
 _atom_type_symbol
 _atom_type_oxidation_number
  Ca2+  2.0
  Al0+  0.0
  Si0+  0.0
  O2-  -2.0
loop_
 _atom_site_type_symbol
 _atom_site_label
 _atom_site_symmetry_multiplicity
 _atom_site_fract_x
 _atom_site_fract_y
 _atom_site_fract_z
 _atom_site_occupancy
  Ca2+  Ca0  1  0.17140865  0.07564281  0.17736647  1
  Ca2+  Ca1  1  0.16841330  0.07575035  0.49689105  1
  Ca2+  Ca2  1  0.16862769  0.06995846  0.83946583  1
  Ca2+  Ca3  1  0.17488084  0.57361965  0.17193370  1
  Ca2+  Ca4  1  0.17289060  0.58547749  0.50061246  1
  Ca2+  Ca5  1  0.16734717  0.57787619  0.83858899  1
  Ca2+  Ca6  1  0.66612835  0.08306601  0.17549472  1
  Ca2+  Ca7  1  0.66371293  0.08559359  0.49511837  1
  Ca2+  Ca8  1  0.67030753  0.07943035  0.84482363  1
  Ca2+  Ca9  1  0.67453925  0.58535916  0.17685494  1
  Ca2+  Ca10  1  0.67555808  0.59066206  0.49830074  1
  Ca2+  Ca11  1  0.67936151  0.58633481  0.83914792  1
  Ca2+  Ca12  1  0.08218225  0.32857146  0.16825895  1
  Ca2+  Ca13  1  0.07508293  0.32442411  0.48852604  1
  Ca2+  Ca14  1  0.08478750  0.33362239  0.83183257  1
  Ca2+  Ca15  1  0.08506492  0.83761409  0.16323408  1
  Ca2+  Ca16  1  0.08883100  0.83164829  0.49630430  1
  Ca2+  Ca17  1  0.08493257  0.82889432  0.82469699  1
  Ca2+  Ca18  1  0.57357557  0.32225546  0.16371443  1
  Ca2+  Ca19  1  0.57474218  0.32819163  0.48993646  1
  Ca2+  Ca20  1  0.57537745  0.32865326  0.83204079  1
  Ca2+  Ca21  1  0.58558703  0.83652513  0.16809366  1
  Ca2+  Ca22  1  0.57351851  0.83140367  0.48832696  1
  Ca2+  Ca23  1  0.57904101  0.83653382  0.82935247  1
  Ca2+  Ca24  1  0.33504386  0.41376282  0.17319361  1
  Ca2+  Ca25  1  0.34401754  0.42081814  0.50054390  1
  Ca2+  Ca26  1  0.33069625  0.41139588  0.84070590  1
  Ca2+  Ca27  1  0.32441309  0.91924058  0.17914113  1
  Ca2+  Ca28  1  0.33112352  0.91637640  0.50028203  1
  Ca2+  Ca29  1  0.32348660  0.90828521  0.83519377  1
  Ca2+  Ca30  1  0.83673517  0.42618975  0.17494810  1
  Ca2+  Ca31  1  0.83559058  0.42326505  0.50028817  1
  Ca2+  Ca32  1  0.83510631  0.42934651  0.83805254  1
  Ca2+  Ca33  1  0.82002778  0.92948683  0.17100318  1
  Ca2+  Ca34  1  0.82607072  0.92052348  0.49484209  1
  Ca2+  Ca35  1  0.82524164  0.92332116  0.84496533  1
  Ca2+  Ca36  1  0.42373261  0.16498911  0.16402492  1
  Ca2+  Ca37  1  0.41603800  0.17646297  0.48737782  1
  Ca2+  Ca38  1  0.41804360  0.17544057  0.83275308  1
  Ca2+  Ca39  1  0.41892260  0.66891570  0.17254167  1
  Ca2+  Ca40  1  0.41876416  0.67642782  0.48814386  1
  Ca2+  Ca41  1  0.41933597  0.67426365  0.82607479  1
  Ca2+  Ca42  1  0.91745369  0.16035061  0.16666572  1
  Ca2+  Ca43  1  0.92112099  0.16976772  0.48422360  1
  Ca2+  Ca44  1  0.91636610  0.16427580  0.83238267  1
  Ca2+  Ca45  1  0.91260474  0.66688845  0.16318505  1
  Ca2+  Ca46  1  0.92166814  0.66073654  0.49554954  1
  Ca2+  Ca47  1  0.92147547  0.66381584  0.82699139  1
  Al0+  Al48  1  -0.00173315  -0.00142047  0.00374575  1
  Al0+  Al49  1  -0.00157090  -0.00212115  0.33665502  1
  Al0+  Al50  1  0.00051077  -0.00133195  0.67047850  1
  Al0+  Al51  1  0.00336628  0.49959262  0.00723439  1
  Al0+  Al52  1  0.00130188  0.49999600  0.33331121  1
  Al0+  Al53  1  0.00132663  0.50020809  0.66646994  1
  Al0+  Al54  1  0.49806000  -0.00155590  -0.00491062  1
  Al0+  Al55  1  0.49648302  0.00000280  0.33442998  1
  Al0+  Al56  1  0.49984310  0.00208275  0.66485526  1
  Al0+  Al57  1  0.50151107  0.50285446  -0.00662556  1
  Al0+  Al58  1  0.50122403  0.50202085  0.33045349  1
  Al0+  Al59  1  0.50251575  0.49957519  0.66615616  1
  Al0+  Al60  1  0.24693984  0.24875751  -0.00089209  1
  Al0+  Al61  1  0.24521050  0.24849270  0.33033763  1
  Al0+  Al62  1  0.25004842  0.24947969  0.66306265  1
  Al0+  Al63  1  0.24940621  0.74660466  0.00276580  1
  Al0+  Al64  1  0.24968847  0.74571462  0.33513212  1
  Al0+  Al65  1  0.24974330  0.74882903  0.66341531  1
  Al0+  Al66  1  0.75175411  0.25336728  -0.00393967  1
  Al0+  Al67  1  0.74911388  0.25371422  0.33013056  1
  Al0+  Al68  1  0.74974728  0.25154967  0.66903924  1
  Al0+  Al69  1  0.75156802  0.75255549  0.00460190  1
  Al0+  Al70  1  0.75197087  0.75043786  0.33907096  1
  Al0+  Al71  1  0.75224395  0.75191113  0.67214638  1
  Al0+  Al72  1  0.57370540  0.68130919  0.31862764  1
  Al0+  Al73  1  0.67559616  0.93065329  0.01424597  1
  Al0+  Al74  1  0.82171502  0.57015428  0.68122543  1
  Al0+  Al75  1  0.82263747  0.57108082  0.34858292  1
  Al0+  Al76  1  0.18114846  0.92861087  0.68157591  1
  Al0+  Al77  1  0.42745433  0.32141793  0.98453890  1
  Al0+  Al78  1  0.57258484  0.17713564  0.98353080  1
  Al0+  Al79  1  0.42980042  0.82041579  0.65311486  1
  Al0+  Al80  1  0.06843877  0.17545892  0.31697546  1
  Al0+  Al81  1  0.42855027  0.32091824  0.65183085  1
  Al0+  Al82  1  0.81867570  0.07403356  0.34840276  1
  Al0+  Al83  1  0.42693911  0.82085824  0.31722425  1
  Al0+  Al84  1  0.67678608  0.92963918  0.34968461  1
  Al0+  Al85  1  0.82010195  0.07481929  0.01412738  1
  Al0+  Al86  1  0.82093993  0.56994350  0.01460449  1
  Al0+  Al87  1  0.56974043  0.17828015  0.31927198  1
  Al0+  Al88  1  0.17977261  0.92627368  0.01280073  1
  Al0+  Al89  1  0.18134318  0.42741178  0.01379414  1
  Al0+  Al90  1  0.32214996  0.56708941  0.34716608  1
  Al0+  Al91  1  0.32047801  0.07255877  0.34781861  1
  Al0+  Al92  1  0.17806127  0.92635359  0.34931317  1
  Al0+  Al93  1  0.42669182  0.32283830  0.31862407  1
  Al0+  Al94  1  0.06928095  0.67855421  0.65266881  1
  Al0+  Al95  1  0.92849717  0.32277141  0.31757953  1
  Si0+  Si96  1  0.57460491  0.68134331  0.98374106  1
  Si0+  Si97  1  0.32199663  0.07416546  0.68477220  1
  Si0+  Si98  1  0.67819119  0.42678853  0.68590531  1
  Si0+  Si99  1  0.06836170  0.17684789  0.98305520  1
  Si0+  Si100  1  0.67803254  0.93074804  0.68162225  1
  Si0+  Si101  1  0.57543983  0.67903481  0.65191082  1
  Si0+  Si102  1  0.67779297  0.42989057  0.34969653  1
  Si0+  Si103  1  0.67636986  0.42980617  0.01614935  1
  Si0+  Si104  1  0.18043086  0.42835913  0.68019885  1
  Si0+  Si105  1  0.57383664  0.17940702  0.64976885  1
  Si0+  Si106  1  0.17775266  0.42758288  0.35170689  1
  Si0+  Si107  1  0.07125556  0.67828709  0.31615495  1
  Si0+  Si108  1  0.92912379  0.81980786  0.31801662  1
  Si0+  Si109  1  0.93131683  0.32489684  0.98325260  1
  Si0+  Si110  1  0.31988263  0.07098836  0.01399890  1
  Si0+  Si111  1  0.92978331  0.32056418  0.65409529  1
  Si0+  Si112  1  0.07081826  0.67826247  0.98571320  1
  Si0+  Si113  1  0.82124922  0.07237238  0.68127369  1
  Si0+  Si114  1  0.93000729  0.82031847  0.98488653  1
  Si0+  Si115  1  0.32242420  0.57046902  0.68124513  1
  Si0+  Si116  1  0.06948115  0.17678270  0.65318022  1
  Si0+  Si117  1  0.32456401  0.57176185  0.01513772  1
  Si0+  Si118  1  0.92748339  0.82367326  0.64990327  1
  Si0+  Si119  1  0.42612566  0.81846703  0.98496776  1
  O2-  O120  1  0.25474116  -0.00057247  0.05816850  1
  O2-  O121  1  0.25109841  -0.00236347  0.39838263  1
  O2-  O122  1  0.25664294  0.00203700  0.72964971  1
  O2-  O123  1  0.26322847  0.49551914  0.05695062  1
  O2-  O124  1  0.25156786  0.48980621  0.39693468  1
  O2-  O125  1  0.25426361  0.49642001  0.72354183  1
  O2-  O126  1  0.73977629  0.01099690  0.06131461  1
  O2-  O127  1  0.74470144  0.00550821  0.40066533  1
  O2-  O128  1  0.74928672  0.00219668  0.72321183  1
  O2-  O129  1  0.74556692  0.49711268  0.06148447  1
  O2-  O130  1  0.74787808  0.49705621  0.39528099  1
  O2-  O131  1  0.74530291  0.49806277  0.72927315  1
  O2-  O132  1  -0.00477195  0.24646873  0.26650820  1
  O2-  O133  1  -0.00373058  0.24593090  0.61209917  1
  O2-  O134  1  -0.00251207  0.24880684  0.94018845  1
  O2-  O135  1  0.00152734  0.75033661  0.27457381  1
  O2-  O136  1  -0.00520684  0.75353499  0.60592053  1
  O2-  O137  1  0.00125502  0.74969441  0.94174060  1
  O2-  O138  1  0.49422091  0.24673060  0.26967266  1
  O2-  O139  1  0.50330053  0.24634308  0.60708468  1
  O2-  O140  1  0.50012471  0.24991872  0.93390595  1
  O2-  O141  1  0.50351653  0.75389683  0.26655126  1
  O2-  O142  1  0.50588688  0.74636077  0.60841438  1
  O2-  O143  1  0.50151438  0.75125960  0.94253633  1
  O2-  O144  1  0.06838115  0.17586981  0.08716201  1
  O2-  O145  1  0.06721298  0.17799348  0.43166142  1
  O2-  O146  1  0.06864132  0.17742591  0.75884273  1
  O2-  O147  1  0.07103459  0.67883589  0.09038906  1
  O2-  O148  1  0.06992536  0.67677364  0.42156024  1
  O2-  O149  1  0.06859685  0.67730220  0.76646911  1
  O2-  O150  1  0.57060429  0.17755294  0.09615225  1
  O2-  O151  1  0.57073617  0.18328861  0.43341708  1
  O2-  O152  1  0.57601370  0.18040507  0.75532634  1
  O2-  O153  1  0.57635334  0.67940996  0.08787637  1
  O2-  O154  1  0.57271585  0.68216016  0.43279282  1
  O2-  O155  1  0.57504217  0.68069127  0.75826989  1
  O2-  O156  1  0.17535267  0.43256169  0.24614283  1
  O2-  O157  1  0.17788630  0.42900874  0.57589678  1
  O2-  O158  1  0.17833601  0.43124986  0.89959696  1
  O2-  O159  1  0.17884312  0.92710352  0.23540219  1
  O2-  O160  1  0.17923222  0.93027577  0.56975682  1
  O2-  O161  1  0.18053384  0.92521707  0.89907142  1
  O2-  O162  1  0.67802011  0.43262453  0.24421086  1
  O2-  O163  1  0.67978290  0.42281775  0.58104929  1
  O2-  O164  1  0.67827855  0.43378798  0.90990715  1
  O2-  O165  1  0.68163733  0.92810797  0.23651418  1
  O2-  O166  1  0.67853965  0.92953044  0.57738555  1
  O2-  O167  1  0.68040199  0.92768513  0.89952871  1
  O2-  O168  1  0.42773918  0.32057596  0.09698249  1
  O2-  O169  1  0.43180272  0.32314421  0.43264105  1
  O2-  O170  1  0.42726652  0.31937190  0.76495188  1
  O2-  O171  1  0.42185073  0.81572693  0.08890988  1
  O2-  O172  1  0.42631653  0.81664736  0.43112617  1
  O2-  O173  1  0.43061930  0.81722870  0.76725297  1
  O2-  O174  1  0.93439725  0.32976328  0.08713983  1
  O2-  O175  1  0.93270540  0.32396923  0.43231451  1
  O2-  O176  1  0.93248473  0.32138401  0.75958406  1
  O2-  O177  1  0.93063041  0.81886359  0.08957866  1
  O2-  O178  1  0.92911800  0.81811550  0.42347658  1
  O2-  O179  1  0.92835892  0.82392780  0.75597809  1
  O2-  O180  1  0.31809757  0.07135368  0.23378843  1
  O2-  O181  1  0.31946252  0.07691830  0.58009208  1
  O2-  O182  1  0.31620619  0.07106101  0.90771626  1
  O2-  O183  1  0.31825897  0.56801141  0.23392564  1
  O2-  O184  1  0.32146884  0.57012395  0.57666812  1
  O2-  O185  1  0.32045186  0.57657252  0.90896417  1
  O2-  O186  1  0.81923311  0.07041720  0.23534277  1
  O2-  O187  1  0.82232974  0.07408401  0.57702516  1
  O2-  O188  1  0.82343114  0.06846370  0.89936116  1
  O2-  O189  1  0.82253187  0.57044834  0.23549893  1
  O2-  O190  1  0.82266332  0.56752500  0.56885277  1
  O2-  O191  1  0.82210096  0.56937290  0.90085913  1
  O2-  O192  1  0.04087142  0.07617225  0.26570858  1
  O2-  O193  1  0.04254123  0.08471207  0.60695991  1
  O2-  O194  1  0.03821935  0.08523778  0.93467944  1
  O2-  O195  1  0.04182273  0.58741310  0.26851434  1
  O2-  O196  1  0.03826275  0.58235268  0.59782065  1
  O2-  O197  1  0.04144423  0.58642035  0.93858145  1
  O2-  O198  1  0.54507249  0.07882164  0.26812995  1
  O2-  O199  1  0.55133851  0.08488411  0.60543752  1
  O2-  O200  1  0.54386463  0.07859514  0.92829574  1
  O2-  O201  1  0.54400753  0.58430708  0.26441747  1
  O2-  O202  1  0.55371866  0.58389970  0.60855149  1
  O2-  O203  1  0.54898372  0.59035937  0.93246468  1
  O2-  O204  1  0.16484460  0.20560564  0.26196946  1
  O2-  O205  1  0.16003735  0.20652559  0.60585650  1
  O2-  O206  1  0.15930930  0.20501201  0.93370331  1
  O2-  O207  1  0.16289445  0.70365955  0.26834724  1
  O2-  O208  1  0.16559891  0.70790256  0.59859174  1
  O2-  O209  1  0.16323778  0.70416707  0.93737928  1
  O2-  O210  1  0.66688746  0.20957370  0.26611895  1
  O2-  O211  1  0.66746650  0.20713332  0.60425856  1
  O2-  O212  1  0.67177996  0.20649189  0.92979019  1
  O2-  O213  1  0.67388532  0.70775306  0.26823133  1
  O2-  O214  1  0.66965849  0.70557127  0.60810477  1
  O2-  O215  1  0.66580896  0.71222289  0.93542542  1
  O2-  O216  1  0.08978809  0.46527174  0.07124908  1
  O2-  O217  1  0.08742083  0.46125022  0.39985402  1
  O2-  O218  1  0.09005388  0.45909227  0.72969702  1
  O2-  O219  1  0.08314269  0.95653810  0.06470815  1
  O2-  O220  1  0.07978362  0.95377570  0.40271592  1
  O2-  O221  1  0.08376584  0.95917865  0.73662693  1
  O2-  O222  1  0.58249687  0.45661815  0.05970909  1
  O2-  O223  1  0.58585666  0.45827057  0.39740067  1
  O2-  O224  1  0.58424433  0.45195457  0.73220234  1
  O2-  O225  1  0.57284570  0.94654699  0.06123287  1
  O2-  O226  1  0.57687643  0.95226319  0.40099810  1
  O2-  O227  1  0.58599990  0.95792877  0.72976964  1
  O2-  O228  1  0.20292343  0.32856191  0.06627852  1
  O2-  O229  1  0.19333404  0.33125843  0.39434621  1
  O2-  O230  1  0.20530820  0.33539757  0.72794182  1
  O2-  O231  1  0.20754798  0.82905115  0.06607754  1
  O2-  O232  1  0.20488262  0.82685321  0.40019580  1
  O2-  O233  1  0.21172513  0.83049947  0.73450197  1
  O2-  O234  1  0.70089391  0.33536657  0.05864493  1
  O2-  O235  1  0.70243128  0.33703261  0.39732938  1
  O2-  O236  1  0.70696556  0.33496563  0.73533103  1
  O2-  O237  1  0.71256095  0.83612331  0.06819596  1
  O2-  O238  1  0.71296505  0.83439952  0.40522166  1
  O2-  O239  1  0.70570067  0.83948894  0.73117712  1
  O2-  O240  1  0.45821433  0.41970309  0.26540978  1
  O2-  O241  1  0.45921813  0.41903238  0.60076551  1
  O2-  O242  1  0.45401792  0.42144475  0.93078667  1
  O2-  O243  1  0.44786382  0.92105284  0.26708150  1
  O2-  O244  1  0.45701870  0.91899493  0.60219057  1
  O2-  O245  1  0.44748486  0.91088577  0.93544582  1
  O2-  O246  1  0.96409014  0.41918891  0.26410717  1
  O2-  O247  1  0.96141491  0.41033807  0.60607032  1
  O2-  O248  1  0.96721795  0.41450462  0.93452094  1
  O2-  O249  1  0.95539230  0.91135339  0.27052678  1
  O2-  O250  1  0.95441305  0.91701334  0.60453632  1
  O2-  O251  1  0.95766044  0.91193524  0.93616853  1
  O2-  O252  1  0.32496409  0.30203908  0.27121344  1
  O2-  O253  1  0.33114577  0.29277075  0.59817745  1
  O2-  O254  1  0.32799580  0.29128693  0.93160459  1
  O2-  O255  1  0.33048047  0.78385614  0.26482122  1
  O2-  O256  1  0.33459201  0.78761262  0.59967271  1
  O2-  O257  1  0.33641144  0.78362504  0.93528826  1
  O2-  O258  1  0.82806524  0.30519214  0.26659355  1
  O2-  O259  1  0.83595696  0.29763179  0.60920191  1
  O2-  O260  1  0.83839910  0.30447918  0.93404824  1
  O2-  O261  1  0.83903595  0.78846038  0.27065710  1
  O2-  O262  1  0.83290290  0.79933959  0.60592220  1
  O2-  O263  1  0.83847024  0.79172906  0.93641185  1
  O2-  O264  1  0.41500798  0.04838924  0.05587356  1
  O2-  O265  1  0.41856895  0.04882287  0.40263545  1
  O2-  O266  1  0.41765671  0.05233362  0.72877201  1
  O2-  O267  1  0.42151748  0.55553565  0.05642523  1
  O2-  O268  1  0.41997107  0.54204908  0.40157254  1
  O2-  O269  1  0.41623942  0.54762456  0.72807116  1
  O2-  O270  1  0.91482136  0.03754166  0.06765486  1
  O2-  O271  1  0.91518856  0.03994896  0.40239851  1
  O2-  O272  1  0.91233906  0.04370659  0.73041614  1
  O2-  O273  1  0.91713754  0.53953538  0.06798079  1
  O2-  O274  1  0.91925828  0.53851485  0.40191226  1
  O2-  O275  1  0.91778257  0.53556006  0.73564538  1
  O2-  O276  1  0.29086435  0.16275341  0.05984152  1
  O2-  O277  1  0.28726595  0.17004922  0.40126303  1
  O2-  O278  1  0.29054803  0.16614899  0.73222793  1
  O2-  O279  1  0.28987489  0.66015082  0.06505587  1
  O2-  O280  1  0.28552432  0.66078110  0.40302672  1
  O2-  O281  1  0.29055820  0.66043749  0.72982218  1
  O2-  O282  1  0.80652019  0.17844041  0.05957560  1
  O2-  O283  1  0.79565944  0.17500434  0.39926725  1
  O2-  O284  1  0.79562599  0.16489934  0.72972168  1
  O2-  O285  1  0.79241953  0.66727690  0.06643850  1
  O2-  O286  1  0.79358623  0.66646506  0.40516182  1
  O2-  O287  1  0.79509378  0.66828987  0.73600914  1
