# generated using pymatgen
data_Ca2Al2SiO7
_symmetry_space_group_name_H-M   'P 1'
_cell_length_a   15.45582953
_cell_length_b   15.45582392
_cell_length_c   15.28128899
_cell_angle_alpha   90.01449481
_cell_angle_beta   89.99666554
_cell_angle_gamma   89.99677791
_symmetry_Int_Tables_number   1
_chemical_formula_structural   Ca2Al2SiO7
_chemical_formula_sum   'Ca48 Al48 Si24 O168'
_cell_volume   3650.43360818
_cell_formula_units_Z   24
loop_
 _symmetry_equiv_pos_site_id
 _symmetry_equiv_pos_as_xyz
  1  'x, y, z'
loop_
 _atom_type_symbol
 _atom_type_oxidation_number
  Ca2+  2.0
  Al0+  0.0
  Si0+  0.0
  O2-  -2.0
loop_
 _atom_site_type_symbol
 _atom_site_label
 _atom_site_symmetry_multiplicity
 _atom_site_fract_x
 _atom_site_fract_y
 _atom_site_fract_z
 _atom_site_occupancy
  Ca2+  Ca0  1  0.16681415  0.07773680  0.16779623  1
  Ca2+  Ca1  1  0.17144406  0.07617360  0.51108081  1
  Ca2+  Ca2  1  0.17297680  0.07328490  0.83524951  1
  Ca2+  Ca3  1  0.16199263  0.58288940  0.16497150  1
  Ca2+  Ca4  1  0.16404725  0.57843058  0.50439145  1
  Ca2+  Ca5  1  0.16512475  0.57273623  0.84017445  1
  Ca2+  Ca6  1  0.66839193  0.08038307  0.17392394  1
  Ca2+  Ca7  1  0.67621422  0.07376004  0.50438311  1
  Ca2+  Ca8  1  0.66651010  0.08691510  0.83297044  1
  Ca2+  Ca9  1  0.66110869  0.57639647  0.17086586  1
  Ca2+  Ca10  1  0.67281806  0.58534433  0.50514457  1
  Ca2+  Ca11  1  0.67509247  0.57676025  0.83683609  1
  Ca2+  Ca12  1  0.07161432  0.33502841  0.16061731  1
  Ca2+  Ca13  1  0.07431610  0.33394700  0.49867248  1
  Ca2+  Ca14  1  0.07722219  0.34076177  0.82738046  1
  Ca2+  Ca15  1  0.08380207  0.82544135  0.16046071  1
  Ca2+  Ca16  1  0.07866214  0.82970735  0.49227240  1
  Ca2+  Ca17  1  0.09322306  0.82814199  0.83063298  1
  Ca2+  Ca18  1  0.57545303  0.32928437  0.15432735  1
  Ca2+  Ca19  1  0.57013192  0.33315013  0.49497494  1
  Ca2+  Ca20  1  0.57688323  0.33147908  0.83225169  1
  Ca2+  Ca21  1  0.58460111  0.82922552  0.16326596  1
  Ca2+  Ca22  1  0.58712361  0.83403280  0.49752261  1
  Ca2+  Ca23  1  0.57295623  0.83957878  0.82645564  1
  Ca2+  Ca24  1  0.32960683  0.40869442  0.16953045  1
  Ca2+  Ca25  1  0.32896794  0.41503298  0.50886979  1
  Ca2+  Ca26  1  0.32457256  0.40871036  0.83875843  1
  Ca2+  Ca27  1  0.33108533  0.91056948  0.16453804  1
  Ca2+  Ca28  1  0.32896061  0.92262277  0.51333411  1
  Ca2+  Ca29  1  0.33022855  0.91409003  0.83708502  1
  Ca2+  Ca30  1  0.82951412  0.41016322  0.16713109  1
  Ca2+  Ca31  1  0.83962739  0.42252782  0.50754825  1
  Ca2+  Ca32  1  0.83552241  0.41799390  0.83901582  1
  Ca2+  Ca33  1  0.82892339  0.92443978  0.18129672  1
  Ca2+  Ca34  1  0.82841591  0.92193915  0.50697180  1
  Ca2+  Ca35  1  0.82784922  0.92377647  0.83430018  1
  Ca2+  Ca36  1  0.42444739  0.17476479  0.15888768  1
  Ca2+  Ca37  1  0.40869269  0.17508137  0.49990804  1
  Ca2+  Ca38  1  0.41796903  0.17201768  0.82859277  1
  Ca2+  Ca39  1  0.42377866  0.67135761  0.16296214  1
  Ca2+  Ca40  1  0.42409283  0.67469227  0.49617269  1
  Ca2+  Ca41  1  0.41317472  0.67857914  0.82998508  1
  Ca2+  Ca42  1  0.90949856  0.17465230  0.16380485  1
  Ca2+  Ca43  1  0.90729486  0.17299219  0.49807527  1
  Ca2+  Ca44  1  0.91431946  0.17814990  0.82714769  1
  Ca2+  Ca45  1  0.92631537  0.67323680  0.16584944  1
  Ca2+  Ca46  1  0.91989279  0.67251378  0.49184612  1
  Ca2+  Ca47  1  0.92275248  0.66158445  0.82963053  1
  Al0+  Al48  1  -0.00010796  0.00002922  0.00566119  1
  Al0+  Al49  1  0.00050926  0.00211741  0.33551273  1
  Al0+  Al50  1  -0.00031252  -0.00067638  0.67554772  1
  Al0+  Al51  1  0.00145729  0.50221805  -0.00105414  1
  Al0+  Al52  1  -0.00031355  0.49846214  0.32563643  1
  Al0+  Al53  1  0.00037880  0.50011818  0.66901255  1
  Al0+  Al54  1  0.50118477  0.00034780  -0.00545195  1
  Al0+  Al55  1  0.49840428  0.00125543  0.33854716  1
  Al0+  Al56  1  0.49977812  0.00133411  0.66687876  1
  Al0+  Al57  1  0.50109661  0.50090394  -0.00093131  1
  Al0+  Al58  1  0.49694111  0.50207381  0.32753952  1
  Al0+  Al59  1  0.50058017  0.50116344  0.66280376  1
  Al0+  Al60  1  0.24861424  0.24823104  0.00427454  1
  Al0+  Al61  1  0.24693042  0.25019148  0.33007390  1
  Al0+  Al62  1  0.24770546  0.24877279  0.67044358  1
  Al0+  Al63  1  0.24986136  0.74872531  -0.00237112  1
  Al0+  Al64  1  0.25162651  0.74725682  0.33190768  1
  Al0+  Al65  1  0.25198591  0.74769044  0.66201746  1
  Al0+  Al66  1  0.75001668  0.25183799  -0.00404572  1
  Al0+  Al67  1  0.74712633  0.24992563  0.33518743  1
  Al0+  Al68  1  0.74826547  0.25080660  0.66315686  1
  Al0+  Al69  1  0.75237953  0.75094091  0.00101910  1
  Al0+  Al70  1  0.74952482  0.74780480  0.32734241  1
  Al0+  Al71  1  0.75201668  0.74905321  0.67721895  1
  Al0+  Al72  1  0.32112006  0.07208478  0.68256891  1
  Al0+  Al73  1  0.42695533  0.32087041  0.31925377  1
  Al0+  Al74  1  0.06912085  0.68188354  0.98355462  1
  Al0+  Al75  1  0.92922197  0.32124572  0.65264991  1
  Al0+  Al76  1  0.07268290  0.67884381  0.31785824  1
  Al0+  Al77  1  0.57177662  0.17938629  0.98417340  1
  Al0+  Al78  1  0.92894811  0.82356274  0.32032312  1
  Al0+  Al79  1  0.92743083  0.31944535  0.31959935  1
  Al0+  Al80  1  0.42650694  0.32239496  0.98413454  1
  Al0+  Al81  1  0.82216428  0.07318324  0.34917388  1
  Al0+  Al82  1  0.82103713  0.07406124  0.68423162  1
  Al0+  Al83  1  0.17914140  0.42786508  0.01612362  1
  Al0+  Al84  1  0.18039023  0.43079788  0.67848891  1
  Al0+  Al85  1  0.93180536  0.31949940  0.98558961  1
  Al0+  Al86  1  0.42714254  0.32048846  0.65310205  1
  Al0+  Al87  1  0.57154196  0.68012983  0.32020041  1
  Al0+  Al88  1  0.68032532  0.43044187  0.01313768  1
  Al0+  Al89  1  0.67838557  0.92611162  0.34761208  1
  Al0+  Al90  1  0.17924385  0.92516568  0.68088227  1
  Al0+  Al91  1  0.42958527  0.82176990  0.65138018  1
  Al0+  Al92  1  0.67954835  0.92864517  0.68375327  1
  Al0+  Al93  1  0.18071746  0.92769721  0.01582232  1
  Al0+  Al94  1  0.82158626  0.56959769  0.67925439  1
  Al0+  Al95  1  0.43173874  0.81839009  0.98691366  1
  Si0+  Si96  1  0.67518987  0.42840255  0.68078785  1
  Si0+  Si97  1  0.92871326  0.82127801  0.65500698  1
  Si0+  Si98  1  0.07016035  0.17605394  0.65188211  1
  Si0+  Si99  1  0.17821826  0.42967237  0.34795480  1
  Si0+  Si100  1  0.81978086  0.07157112  0.01547441  1
  Si0+  Si101  1  0.82345294  0.57326628  0.02023331  1
  Si0+  Si102  1  0.57605526  0.67706163  0.98143887  1
  Si0+  Si103  1  0.18055051  0.92673370  0.34739910  1
  Si0+  Si104  1  0.82130013  0.56754590  0.34568734  1
  Si0+  Si105  1  0.07051722  0.67870174  0.65156793  1
  Si0+  Si106  1  0.32216997  0.57088402  0.34942486  1
  Si0+  Si107  1  0.32398017  0.07069695  0.01882058  1
  Si0+  Si108  1  0.07230833  0.17441652  0.98350916  1
  Si0+  Si109  1  0.32177182  0.57210982  0.01692018  1
  Si0+  Si110  1  0.92720915  0.82491555  0.98192831  1
  Si0+  Si111  1  0.31899481  0.07246843  0.34756146  1
  Si0+  Si112  1  0.32485156  0.57129562  0.68191742  1
  Si0+  Si113  1  0.57217188  0.17803137  0.64560972  1
  Si0+  Si114  1  0.07297344  0.17782597  0.31650575  1
  Si0+  Si115  1  0.42840496  0.82422114  0.31789059  1
  Si0+  Si116  1  0.67799023  0.92905436  0.01542578  1
  Si0+  Si117  1  0.67534793  0.42966100  0.34786677  1
  Si0+  Si118  1  0.56954770  0.17843266  0.31853959  1
  Si0+  Si119  1  0.57472000  0.67943607  0.65179497  1
  O2-  O120  1  0.25474530  0.00254470  0.06422312  1
  O2-  O121  1  0.25088553  -0.00176743  0.38942259  1
  O2-  O122  1  0.25344454  -0.00505840  0.73087097  1
  O2-  O123  1  0.25915364  0.49794223  0.06245716  1
  O2-  O124  1  0.24997240  0.50004326  0.39038613  1
  O2-  O125  1  0.25943150  0.50017947  0.72618822  1
  O2-  O126  1  0.75034169  -0.00143376  0.05754975  1
  O2-  O127  1  0.75416311  -0.00462817  0.39624946  1
  O2-  O128  1  0.74824978  0.00330325  0.73497171  1
  O2-  O129  1  0.75202762  0.50679981  0.06361885  1
  O2-  O130  1  0.74979506  0.49750213  0.38994626  1
  O2-  O131  1  0.74770316  0.49349700  0.72419381  1
  O2-  O132  1  -0.00132721  0.24118166  0.27361294  1
  O2-  O133  1  -0.00038391  0.24228643  0.60586274  1
  O2-  O134  1  0.00852365  0.24707609  0.93868927  1
  O2-  O135  1  0.00453311  0.75549617  0.26951681  1
  O2-  O136  1  0.00284535  0.75370571  0.61137563  1
  O2-  O137  1  -0.00482140  0.75669417  0.93592618  1
  O2-  O138  1  0.50270856  0.24791276  0.27304836  1
  O2-  O139  1  0.50146511  0.24669537  0.60340362  1
  O2-  O140  1  0.49793153  0.25001288  0.93470743  1
  O2-  O141  1  0.50117882  0.75962069  0.27452525  1
  O2-  O142  1  0.50757644  0.74932182  0.60648594  1
  O2-  O143  1  0.50825409  0.74647630  0.93803643  1
  O2-  O144  1  0.06857047  0.17289125  0.08955019  1
  O2-  O145  1  0.08005450  0.18102623  0.42171017  1
  O2-  O146  1  0.07032555  0.17788389  0.75721990  1
  O2-  O147  1  0.06833996  0.68323415  0.09660762  1
  O2-  O148  1  0.07094532  0.67762340  0.43201620  1
  O2-  O149  1  0.06990152  0.67728543  0.75645151  1
  O2-  O150  1  0.57119344  0.17873633  0.09852675  1
  O2-  O151  1  0.56770008  0.17983600  0.42388386  1
  O2-  O152  1  0.57362619  0.18061844  0.75103496  1
  O2-  O153  1  0.57513165  0.67844978  0.08743160  1
  O2-  O154  1  0.56919510  0.67694587  0.43324929  1
  O2-  O155  1  0.57291613  0.67775678  0.75706778  1
  O2-  O156  1  0.17908444  0.42978368  0.24304510  1
  O2-  O157  1  0.17872733  0.43386663  0.56462189  1
  O2-  O158  1  0.17747962  0.43116860  0.90307314  1
  O2-  O159  1  0.18257208  0.92673536  0.24226456  1
  O2-  O160  1  0.17878657  0.92606920  0.56635813  1
  O2-  O161  1  0.18312779  0.92792598  0.90335201  1
  O2-  O162  1  0.67549571  0.43072655  0.24277929  1
  O2-  O163  1  0.67269701  0.43238037  0.57468174  1
  O2-  O164  1  0.68270145  0.43197639  0.90004150  1
  O2-  O165  1  0.67674258  0.92988053  0.23338289  1
  O2-  O166  1  0.68417042  0.92569941  0.57015261  1
  O2-  O167  1  0.67882195  0.92846994  0.91078411  1
  O2-  O168  1  0.42893148  0.31948470  0.09825137  1
  O2-  O169  1  0.42581164  0.32007956  0.43258319  1
  O2-  O170  1  0.42873795  0.32093793  0.76545014  1
  O2-  O171  1  0.43371302  0.81690474  0.10061649  1
  O2-  O172  1  0.42535696  0.82165021  0.42324861  1
  O2-  O173  1  0.42779028  0.81746246  0.76440697  1
  O2-  O174  1  0.92979804  0.31647959  0.09902669  1
  O2-  O175  1  0.93163613  0.32414967  0.43256721  1
  O2-  O176  1  0.93240027  0.32348486  0.76546183  1
  O2-  O177  1  0.92721663  0.82368547  0.08758792  1
  O2-  O178  1  0.93050230  0.82010210  0.43462262  1
  O2-  O179  1  0.92817936  0.81863810  0.75987148  1
  O2-  O180  1  0.31872045  0.07268606  0.24260979  1
  O2-  O181  1  0.31603928  0.07236229  0.56785058  1
  O2-  O182  1  0.32320116  0.07010226  0.91371824  1
  O2-  O183  1  0.32399145  0.57245374  0.24468276  1
  O2-  O184  1  0.32355144  0.57156326  0.57584578  1
  O2-  O185  1  0.31800458  0.57447828  0.91133915  1
  O2-  O186  1  0.81748658  0.07495876  0.23500762  1
  O2-  O187  1  0.82028966  0.07179488  0.57076583  1
  O2-  O188  1  0.82022041  0.07059711  0.91073948  1
  O2-  O189  1  0.82116606  0.56552836  0.24088077  1
  O2-  O190  1  0.82187260  0.57098493  0.56540035  1
  O2-  O191  1  0.82304039  0.57262584  0.91439591  1
  O2-  O192  1  0.05382967  0.08221589  0.27208114  1
  O2-  O193  1  0.04757022  0.08050110  0.60732004  1
  O2-  O194  1  0.04355941  0.08172231  0.93759392  1
  O2-  O195  1  0.04030465  0.58289910  0.26299203  1
  O2-  O196  1  0.03752733  0.58921984  0.60290488  1
  O2-  O197  1  0.03720490  0.58585383  0.92954666  1
  O2-  O198  1  0.54207109  0.08486953  0.27258262  1
  O2-  O199  1  0.54771023  0.08404689  0.60049518  1
  O2-  O200  1  0.54572354  0.08123597  0.93020685  1
  O2-  O201  1  0.53416540  0.58722932  0.26232573  1
  O2-  O202  1  0.54893279  0.58690044  0.60280295  1
  O2-  O203  1  0.55110332  0.58380477  0.93555783  1
  O2-  O204  1  0.16254756  0.20859473  0.26469885  1
  O2-  O205  1  0.16247164  0.20423860  0.60421053  1
  O2-  O206  1  0.16838419  0.19430737  0.94186095  1
  O2-  O207  1  0.17254290  0.70322260  0.26558080  1
  O2-  O208  1  0.16321765  0.70114826  0.60300139  1
  O2-  O209  1  0.16577763  0.71133667  0.92983132  1
  O2-  O210  1  0.66315713  0.20265820  0.27248155  1
  O2-  O211  1  0.66443305  0.20548939  0.59750069  1
  O2-  O212  1  0.66796391  0.21091444  0.92947472  1
  O2-  O213  1  0.66758218  0.70274514  0.26170337  1
  O2-  O214  1  0.66968690  0.70485816  0.60782633  1
  O2-  O215  1  0.67104744  0.70147233  0.93783320  1
  O2-  O216  1  0.08408761  0.46562611  0.06976903  1
  O2-  O217  1  0.08621128  0.45955728  0.39407131  1
  O2-  O218  1  0.08704960  0.46730371  0.73430973  1
  O2-  O219  1  0.08348743  0.95773289  0.07047194  1
  O2-  O220  1  0.08842725  0.95336657  0.39444640  1
  O2-  O221  1  0.08207466  0.95162857  0.73637341  1
  O2-  O222  1  0.58264090  0.45961587  0.06784702  1
  O2-  O223  1  0.58419733  0.46220536  0.39417826  1
  O2-  O224  1  0.58377421  0.45832962  0.72914812  1
  O2-  O225  1  0.58614455  0.95704549  0.06244732  1
  O2-  O226  1  0.58008777  0.95595862  0.40138468  1
  O2-  O227  1  0.57982929  0.95560126  0.73307687  1
  O2-  O228  1  0.20259333  0.32914325  0.07074251  1
  O2-  O229  1  0.20504902  0.33708217  0.39445599  1
  O2-  O230  1  0.20437473  0.33345128  0.73256821  1
  O2-  O231  1  0.21447070  0.83154340  0.06944415  1
  O2-  O232  1  0.20803960  0.83434665  0.39408933  1
  O2-  O233  1  0.20828902  0.82546914  0.73069351  1
  O2-  O234  1  0.71312939  0.33414605  0.06752853  1
  O2-  O235  1  0.69789144  0.33684399  0.39486805  1
  O2-  O236  1  0.69653179  0.33359035  0.72385281  1
  O2-  O237  1  0.70421925  0.83578114  0.06193793  1
  O2-  O238  1  0.70286561  0.82480042  0.39668480  1
  O2-  O239  1  0.70906159  0.83219104  0.74016550  1
  O2-  O240  1  0.45489439  0.41766209  0.26567454  1
  O2-  O241  1  0.45698083  0.41828139  0.59858550  1
  O2-  O242  1  0.45340102  0.42221075  0.93381936  1
  O2-  O243  1  0.44795996  0.91989606  0.27379699  1
  O2-  O244  1  0.45565327  0.92002174  0.59873805  1
  O2-  O245  1  0.45940133  0.91507530  0.93281912  1
  O2-  O246  1  0.96132458  0.41299503  0.26209557  1
  O2-  O247  1  0.96562607  0.41686293  0.59866387  1
  O2-  O248  1  0.96035001  0.41777238  0.93486807  1
  O2-  O249  1  0.95277413  0.92405024  0.26935032  1
  O2-  O250  1  0.95340809  0.91469697  0.60928751  1
  O2-  O251  1  0.95208088  0.91955113  0.93871842  1
  O2-  O252  1  0.33072485  0.28894374  0.26567058  1
  O2-  O253  1  0.32951445  0.28905625  0.60001131  1
  O2-  O254  1  0.32616077  0.29372394  0.93606952  1
  O2-  O255  1  0.33730022  0.79233183  0.27015794  1
  O2-  O256  1  0.33500497  0.78667242  0.59434763  1
  O2-  O257  1  0.33644247  0.78476886  0.93286163  1
  O2-  O258  1  0.82841998  0.29234840  0.26779553  1
  O2-  O259  1  0.83043896  0.29722998  0.59907319  1
  O2-  O260  1  0.83635858  0.28827539  0.93103308  1
  O2-  O261  1  0.83304641  0.79203539  0.26462187  1
  O2-  O262  1  0.83791643  0.78865385  0.60852341  1
  O2-  O263  1  0.83298851  0.79956336  0.93652252  1
  O2-  O264  1  0.41773286  0.04276570  0.06412344  1
  O2-  O265  1  0.41089979  0.04929937  0.39678768  1
  O2-  O266  1  0.42139759  0.05034634  0.73220430  1
  O2-  O267  1  0.41853766  0.55449089  0.06005417  1
  O2-  O268  1  0.41309313  0.54203270  0.39825961  1
  O2-  O269  1  0.41981652  0.55136878  0.72700641  1
  O2-  O270  1  0.91163386  0.04627202  0.06460177  1
  O2-  O271  1  0.92361403  0.05318268  0.40051947  1
  O2-  O272  1  0.91843825  0.04601738  0.73875891  1
  O2-  O273  1  0.91609086  0.54519149  0.06565277  1
  O2-  O274  1  0.91326532  0.53849707  0.39302582  1
  O2-  O275  1  0.91632843  0.53782188  0.73567969  1
  O2-  O276  1  0.29795233  0.16355281  0.06680862  1
  O2-  O277  1  0.28661709  0.16327875  0.39505064  1
  O2-  O278  1  0.28816829  0.16733177  0.73809445  1
  O2-  O279  1  0.28950653  0.66260937  0.06567915  1
  O2-  O280  1  0.29478568  0.66267647  0.39841442  1
  O2-  O281  1  0.29524509  0.66350347  0.72770908  1
  O2-  O282  1  0.78957938  0.16306470  0.06159498  1
  O2-  O283  1  0.78840853  0.17007665  0.40343616  1
  O2-  O284  1  0.79211021  0.17401105  0.73411754  1
  O2-  O285  1  0.80044735  0.66868223  0.06475548  1
  O2-  O286  1  0.79430625  0.66017676  0.39172073  1
  O2-  O287  1  0.79227428  0.66300077  0.73966234  1
