# generated using pymatgen
data_Ca2Al2SiO7
_symmetry_space_group_name_H-M   'P 1'
_cell_length_a   15.45830269
_cell_length_b   15.45984616
_cell_length_c   15.28440379
_cell_angle_alpha   90.00953267
_cell_angle_beta   89.99071760
_cell_angle_gamma   89.99531426
_symmetry_Int_Tables_number   1
_chemical_formula_structural   Ca2Al2SiO7
_chemical_formula_sum   'Ca48 Al48 Si24 O168'
_cell_volume   3652.71227739
_cell_formula_units_Z   24
loop_
 _symmetry_equiv_pos_site_id
 _symmetry_equiv_pos_as_xyz
  1  'x, y, z'
loop_
 _atom_type_symbol
 _atom_type_oxidation_number
  Ca2+  2.0
  Al0+  0.0
  Si0+  0.0
  O2-  -2.0
loop_
 _atom_site_type_symbol
 _atom_site_label
 _atom_site_symmetry_multiplicity
 _atom_site_fract_x
 _atom_site_fract_y
 _atom_site_fract_z
 _atom_site_occupancy
  Ca2+  Ca0  1  0.17161716  0.08337174  0.16719697  1
  Ca2+  Ca1  1  0.17852852  0.09028146  0.50034562  1
  Ca2+  Ca2  1  0.17791879  0.07883156  0.84392725  1
  Ca2+  Ca3  1  0.16738928  0.57671303  0.17403208  1
  Ca2+  Ca4  1  0.16140239  0.56927857  0.50293771  1
  Ca2+  Ca5  1  0.16384124  0.57656016  0.83319887  1
  Ca2+  Ca6  1  0.67539585  0.07639067  0.17200382  1
  Ca2+  Ca7  1  0.66230482  0.07325131  0.50471111  1
  Ca2+  Ca8  1  0.67060980  0.07859713  0.83450136  1
  Ca2+  Ca9  1  0.66842508  0.58220268  0.17596227  1
  Ca2+  Ca10  1  0.67623698  0.57875186  0.49966554  1
  Ca2+  Ca11  1  0.66909239  0.58973696  0.83551733  1
  Ca2+  Ca12  1  0.08409521  0.32329161  0.16983415  1
  Ca2+  Ca13  1  0.08379268  0.33208106  0.48881777  1
  Ca2+  Ca14  1  0.08649947  0.32660158  0.83033687  1
  Ca2+  Ca15  1  0.07261677  0.84215345  0.16074327  1
  Ca2+  Ca16  1  0.06855929  0.83308552  0.49365975  1
  Ca2+  Ca17  1  0.07198537  0.84512046  0.83234669  1
  Ca2+  Ca18  1  0.57797583  0.34002770  0.16586675  1
  Ca2+  Ca19  1  0.58013460  0.32662791  0.49226084  1
  Ca2+  Ca20  1  0.58060330  0.32164346  0.82611480  1
  Ca2+  Ca21  1  0.57598732  0.83447885  0.16567777  1
  Ca2+  Ca22  1  0.57659774  0.84214163  0.49576431  1
  Ca2+  Ca23  1  0.57344567  0.83917366  0.82894994  1
  Ca2+  Ca24  1  0.33036196  0.41718469  0.17804254  1
  Ca2+  Ca25  1  0.32290220  0.40744775  0.50026548  1
  Ca2+  Ca26  1  0.32696191  0.41529482  0.83531085  1
  Ca2+  Ca27  1  0.33648056  0.92416059  0.17174622  1
  Ca2+  Ca28  1  0.34076725  0.92621936  0.50498778  1
  Ca2+  Ca29  1  0.33355960  0.92234984  0.84094240  1
  Ca2+  Ca30  1  0.82779256  0.42415694  0.18086762  1
  Ca2+  Ca31  1  0.84047977  0.42712973  0.50144010  1
  Ca2+  Ca32  1  0.83293546  0.42463367  0.83573792  1
  Ca2+  Ca33  1  0.83282492  0.91597694  0.17175923  1
  Ca2+  Ca34  1  0.82176235  0.90696972  0.50368037  1
  Ca2+  Ca35  1  0.82990262  0.91444681  0.83879515  1
  Ca2+  Ca36  1  0.40999827  0.16776332  0.16906335  1
  Ca2+  Ca37  1  0.41944952  0.16384626  0.49491166  1
  Ca2+  Ca38  1  0.41998738  0.15689770  0.82657412  1
  Ca2+  Ca39  1  0.42226157  0.67943546  0.15751178  1
  Ca2+  Ca40  1  0.41535762  0.68155901  0.49316476  1
  Ca2+  Ca41  1  0.42113624  0.67951775  0.83055974  1
  Ca2+  Ca42  1  0.92796222  0.16391735  0.16047827  1
  Ca2+  Ca43  1  0.92803123  0.17509725  0.48638509  1
  Ca2+  Ca44  1  0.92404921  0.15812526  0.83313659  1
  Ca2+  Ca45  1  0.91105777  0.67633216  0.16689680  1
  Ca2+  Ca46  1  0.90672219  0.67159846  0.49713099  1
  Ca2+  Ca47  1  0.91443495  0.67778336  0.82754632  1
  Al0+  Al48  1  0.00105453  0.00189888  -0.00250786  1
  Al0+  Al49  1  0.00203155  -0.00049001  0.32677348  1
  Al0+  Al50  1  0.00042328  0.00065759  0.65722775  1
  Al0+  Al51  1  -0.00215791  0.50007116  0.00168036  1
  Al0+  Al52  1  0.00072162  0.50038250  0.33655334  1
  Al0+  Al53  1  -0.00022705  0.49969627  0.67843013  1
  Al0+  Al54  1  0.50121827  0.00204655  0.00188741  1
  Al0+  Al55  1  0.50084769  0.00092726  0.33474373  1
  Al0+  Al56  1  0.50193282  0.00053224  0.66725782  1
  Al0+  Al57  1  0.49902519  0.49991089  -0.00672232  1
  Al0+  Al58  1  0.50096302  0.50031352  0.33623951  1
  Al0+  Al59  1  0.49878946  0.49974347  0.66659286  1
  Al0+  Al60  1  0.24839124  0.24972964  -0.00075650  1
  Al0+  Al61  1  0.25256841  0.24940509  0.33292467  1
  Al0+  Al62  1  0.25049186  0.24937281  0.67654654  1
  Al0+  Al63  1  0.24803541  0.74787180  -0.00075834  1
  Al0+  Al64  1  0.24864555  0.75240686  0.32927186  1
  Al0+  Al65  1  0.24800068  0.74862720  0.66166985  1
  Al0+  Al66  1  0.74930617  0.25198848  0.00388455  1
  Al0+  Al67  1  0.75010989  0.24931636  0.33306913  1
  Al0+  Al68  1  0.75060999  0.24982965  0.66152766  1
  Al0+  Al69  1  0.75049246  0.74879383  -0.00544686  1
  Al0+  Al70  1  0.74891079  0.75009929  0.33673757  1
  Al0+  Al71  1  0.74811834  0.74924116  0.67263145  1
  Al0+  Al72  1  0.32341858  0.07105305  0.01752970  1
  Al0+  Al73  1  0.92823851  0.82051254  0.65196546  1
  Al0+  Al74  1  0.18240585  0.43056552  0.34498921  1
  Al0+  Al75  1  0.42828716  0.82364273  0.98490955  1
  Al0+  Al76  1  0.68070854  0.93054782  0.68188909  1
  Al0+  Al77  1  0.31973068  0.06761943  0.68063146  1
  Al0+  Al78  1  0.67587121  0.42561414  0.34901996  1
  Al0+  Al79  1  0.42813173  0.82371726  0.31916216  1
  Al0+  Al80  1  0.92774440  0.32343211  0.31879597  1
  Al0+  Al81  1  0.93135234  0.82059174  0.98580508  1
  Al0+  Al82  1  0.31887778  0.06847301  0.34806216  1
  Al0+  Al83  1  0.82047915  0.57017567  0.34815674  1
  Al0+  Al84  1  0.07011563  0.18116897  0.98349814  1
  Al0+  Al85  1  0.17874907  0.92692071  0.01414801  1
  Al0+  Al86  1  0.81824096  0.56964845  0.68418321  1
  Al0+  Al87  1  0.07310957  0.17949233  0.31735474  1
  Al0+  Al88  1  0.92745904  0.81867993  0.31968939  1
  Al0+  Al89  1  0.68163811  0.93161691  0.34613560  1
  Al0+  Al90  1  0.82091779  0.07155282  0.01227366  1
  Al0+  Al91  1  0.18061861  0.42939355  0.68286166  1
  Al0+  Al92  1  0.42913751  0.82054741  0.65221567  1
  Al0+  Al93  1  0.57135909  0.17940427  0.65273909  1
  Al0+  Al94  1  0.57039958  0.67774781  0.98440101  1
  Al0+  Al95  1  0.43190150  0.32062150  0.32159277  1
  Si0+  Si96  1  0.42820600  0.32082469  0.98420591  1
  Si0+  Si97  1  0.81981773  0.57159712  0.01608837  1
  Si0+  Si98  1  0.82459198  0.07407470  0.67998760  1
  Si0+  Si99  1  0.57031679  0.67944058  0.31962945  1
  Si0+  Si100  1  0.07166429  0.67311209  0.98276363  1
  Si0+  Si101  1  0.67948448  0.92658778  0.01680225  1
  Si0+  Si102  1  0.67759315  0.42984189  0.01362901  1
  Si0+  Si103  1  0.17543714  0.92580890  0.35133989  1
  Si0+  Si104  1  0.93097786  0.32243849  0.65397068  1
  Si0+  Si105  1  0.42633587  0.32176751  0.65148488  1
  Si0+  Si106  1  0.07268153  0.67752167  0.31715819  1
  Si0+  Si107  1  0.57199322  0.67609868  0.64789553  1
  Si0+  Si108  1  0.57342300  0.18099344  0.98655830  1
  Si0+  Si109  1  0.32319008  0.57577577  0.34877410  1
  Si0+  Si110  1  0.67653475  0.42523674  0.68392239  1
  Si0+  Si111  1  0.92605671  0.32302471  0.98251662  1
  Si0+  Si112  1  0.17831902  0.42915236  0.01676990  1
  Si0+  Si113  1  0.06995501  0.67452393  0.65007842  1
  Si0+  Si114  1  0.57282504  0.17640749  0.31511717  1
  Si0+  Si115  1  0.32168777  0.56908549  0.01388397  1
  Si0+  Si116  1  0.82643358  0.07224835  0.34926289  1
  Si0+  Si117  1  0.32296238  0.57524240  0.68370828  1
  Si0+  Si118  1  0.17493712  0.92621442  0.67984715  1
  Si0+  Si119  1  0.07279799  0.18036104  0.65168986  1
  O2-  O120  1  0.25492739  -0.00568348  0.06513492  1
  O2-  O121  1  0.24564606  -0.00732347  0.39576246  1
  O2-  O122  1  0.24633634  -0.00896217  0.72527696  1
  O2-  O123  1  0.24891114  0.50075546  0.05780434  1
  O2-  O124  1  0.25522501  0.50656823  0.39349008  1
  O2-  O125  1  0.25594524  0.50447731  0.72852658  1
  O2-  O126  1  0.74936099  -0.00549441  0.06006173  1
  O2-  O127  1  0.75767340  0.00463992  0.39449107  1
  O2-  O128  1  0.75899877  0.00326082  0.72571461  1
  O2-  O129  1  0.74694917  0.50188144  0.05621748  1
  O2-  O130  1  0.75313946  0.49282364  0.39771282  1
  O2-  O131  1  0.74168477  0.49581020  0.73073638  1
  O2-  O132  1  -0.00458407  0.24731901  0.26880120  1
  O2-  O133  1  0.00004505  0.25014841  0.61121224  1
  O2-  O134  1  -0.00640637  0.25453427  0.93606791  1
  O2-  O135  1  0.00487018  0.74678528  0.27283744  1
  O2-  O136  1  0.00367073  0.74540243  0.60617926  1
  O2-  O137  1  0.00798822  0.74685484  0.93953208  1
  O2-  O138  1  0.51005289  0.25127448  0.27159738  1
  O2-  O139  1  0.49793310  0.25645976  0.60812825  1
  O2-  O140  1  0.49665282  0.24647035  0.94386105  1
  O2-  O141  1  0.49861718  0.74424083  0.27460998  1
  O2-  O142  1  0.50150362  0.74321660  0.60467562  1
  O2-  O143  1  0.50202675  0.75321858  0.93447600  1
  O2-  O144  1  0.07186649  0.18449231  0.09588470  1
  O2-  O145  1  0.07402379  0.18314710  0.43184845  1
  O2-  O146  1  0.07210020  0.18012776  0.75682558  1
  O2-  O147  1  0.06798758  0.66523810  0.08780242  1
  O2-  O148  1  0.07405534  0.67768121  0.42277714  1
  O2-  O149  1  0.06869953  0.67302754  0.75582966  1
  O2-  O150  1  0.57731096  0.18520478  0.09106507  1
  O2-  O151  1  0.56861985  0.17399097  0.42072941  1
  O2-  O152  1  0.57123957  0.18078781  0.76666832  1
  O2-  O153  1  0.56738205  0.67363671  0.09791236  1
  O2-  O154  1  0.56985412  0.68069335  0.42520741  1
  O2-  O155  1  0.56992888  0.67623609  0.75357791  1
  O2-  O156  1  0.18437399  0.43210868  0.23161258  1
  O2-  O157  1  0.18052677  0.42819168  0.56999718  1
  O2-  O158  1  0.17941972  0.42991031  0.91138589  1
  O2-  O159  1  0.17512382  0.92522778  0.24606492  1
  O2-  O160  1  0.17303838  0.92920670  0.57446639  1
  O2-  O161  1  0.17800381  0.93160523  0.89997896  1
  O2-  O162  1  0.67311632  0.43254294  0.23474089  1
  O2-  O163  1  0.67823936  0.42464388  0.57909367  1
  O2-  O164  1  0.67936701  0.42756530  0.90846508  1
  O2-  O165  1  0.68212996  0.93200543  0.23280644  1
  O2-  O166  1  0.68011030  0.93167670  0.56881074  1
  O2-  O167  1  0.67896785  0.92861812  0.91108006  1
  O2-  O168  1  0.42967431  0.32566485  0.08904164  1
  O2-  O169  1  0.42954472  0.31696281  0.43456992  1
  O2-  O170  1  0.42686179  0.32132468  0.75766824  1
  O2-  O171  1  0.43107982  0.82184560  0.09852018  1
  O2-  O172  1  0.43041192  0.82384148  0.43240652  1
  O2-  O173  1  0.42967583  0.82049962  0.76518821  1
  O2-  O174  1  0.92700785  0.32450289  0.08741985  1
  O2-  O175  1  0.93304590  0.32368943  0.43325295  1
  O2-  O176  1  0.93128028  0.32169206  0.75931339  1
  O2-  O177  1  0.92891988  0.81735619  0.09877765  1
  O2-  O178  1  0.92670254  0.81618838  0.43284848  1
  O2-  O179  1  0.93037342  0.82146477  0.76522253  1
  O2-  O180  1  0.31879264  0.06883391  0.23542911  1
  O2-  O181  1  0.31832783  0.07130891  0.56769098  1
  O2-  O182  1  0.32269154  0.07223492  0.90367498  1
  O2-  O183  1  0.32190587  0.57384135  0.24274023  1
  O2-  O184  1  0.32225776  0.57625119  0.57843652  1
  O2-  O185  1  0.32168366  0.56544040  0.90872296  1
  O2-  O186  1  0.82493825  0.07007904  0.24339797  1
  O2-  O187  1  0.82429738  0.07610830  0.57478679  1
  O2-  O188  1  0.81751776  0.07173238  0.89876223  1
  O2-  O189  1  0.81695793  0.57247966  0.23414933  1
  O2-  O190  1  0.81983768  0.56737146  0.57160168  1
  O2-  O191  1  0.82125168  0.56921689  0.91097344  1
  O2-  O192  1  0.04939489  0.08030814  0.26412569  1
  O2-  O193  1  0.04852805  0.08948543  0.60115936  1
  O2-  O194  1  0.03952176  0.08565021  0.92784783  1
  O2-  O195  1  0.04702484  0.58415233  0.27098186  1
  O2-  O196  1  0.04053162  0.58062845  0.60638127  1
  O2-  O197  1  0.03979291  0.58192093  0.93328220  1
  O2-  O198  1  0.54024593  0.08652442  0.26634048  1
  O2-  O199  1  0.53796797  0.08473039  0.59806685  1
  O2-  O200  1  0.55071792  0.08757276  0.94024004  1
  O2-  O201  1  0.54916075  0.58454631  0.27439860  1
  O2-  O202  1  0.54964197  0.58052909  0.60353507  1
  O2-  O203  1  0.53948179  0.58105828  0.92705266  1
  O2-  O204  1  0.16877271  0.21450834  0.26402742  1
  O2-  O205  1  0.16472468  0.21254018  0.60759900  1
  O2-  O206  1  0.16596473  0.21529686  0.92851021  1
  O2-  O207  1  0.16614539  0.70035296  0.26889823  1
  O2-  O208  1  0.16454409  0.69399851  0.60367798  1
  O2-  O209  1  0.16754853  0.69055913  0.93828332  1
  O2-  O210  1  0.66918349  0.19392483  0.27182638  1
  O2-  O211  1  0.66783444  0.20791585  0.59687981  1
  O2-  O212  1  0.66231736  0.21479463  0.93614616  1
  O2-  O213  1  0.66192219  0.70900935  0.27210861  1
  O2-  O214  1  0.66582053  0.70306438  0.60481194  1
  O2-  O215  1  0.66991582  0.70141083  0.93216450  1
  O2-  O216  1  0.08560653  0.45671247  0.06217701  1
  O2-  O217  1  0.08652097  0.46025312  0.40094388  1
  O2-  O218  1  0.08627361  0.46044666  0.74152744  1
  O2-  O219  1  0.08214279  0.96166303  0.06664372  1
  O2-  O220  1  0.08166744  0.95299025  0.39672109  1
  O2-  O221  1  0.08202480  0.95696484  0.72545031  1
  O2-  O222  1  0.58410461  0.45689148  0.05826032  1
  O2-  O223  1  0.57951222  0.45716149  0.40544760  1
  O2-  O224  1  0.58050188  0.44640352  0.72832971  1
  O2-  O225  1  0.58689519  0.95467016  0.06302401  1
  O2-  O226  1  0.58650561  0.96542468  0.40114540  1
  O2-  O227  1  0.58674935  0.96682935  0.73716683  1
  O2-  O228  1  0.20770561  0.33804664  0.06274281  1
  O2-  O229  1  0.21611856  0.33565093  0.40002380  1
  O2-  O230  1  0.21304426  0.33532430  0.74141390  1
  O2-  O231  1  0.19505812  0.82395996  0.06360336  1
  O2-  O232  1  0.19769957  0.83076020  0.39629645  1
  O2-  O233  1  0.19395892  0.82978949  0.72272285  1
  O2-  O234  1  0.70471506  0.33975007  0.06404637  1
  O2-  O235  1  0.69610234  0.32385963  0.39830240  1
  O2-  O236  1  0.70614702  0.33233566  0.73054735  1
  O2-  O237  1  0.70502757  0.83201899  0.06047770  1
  O2-  O238  1  0.71003844  0.83536173  0.40151183  1
  O2-  O239  1  0.70717818  0.83384724  0.73709001  1
  O2-  O240  1  0.45755538  0.41960976  0.26761533  1
  O2-  O241  1  0.44541187  0.41754237  0.60718857  1
  O2-  O242  1  0.45839028  0.40992018  0.93251973  1
  O2-  O243  1  0.46571416  0.91760272  0.26521071  1
  O2-  O244  1  0.46508178  0.91573141  0.59958834  1
  O2-  O245  1  0.45746585  0.92307613  0.93349660  1
  O2-  O246  1  0.95895016  0.42128692  0.26621375  1
  O2-  O247  1  0.96242221  0.41424838  0.60950370  1
  O2-  O248  1  0.95378244  0.41669013  0.93626773  1
  O2-  O249  1  0.95610893  0.91565076  0.26563519  1
  O2-  O250  1  0.95691313  0.91665604  0.59509144  1
  O2-  O251  1  0.96041333  0.91712429  0.93097655  1
  O2-  O252  1  0.33771008  0.28732587  0.26486867  1
  O2-  O253  1  0.33294915  0.29181351  0.60789380  1
  O2-  O254  1  0.33535498  0.29642440  0.93757690  1
  O2-  O255  1  0.33015237  0.79760955  0.26571006  1
  O2-  O256  1  0.33101101  0.79291327  0.59841266  1
  O2-  O257  1  0.32938440  0.79236016  0.93381766  1
  O2-  O258  1  0.82633778  0.30219690  0.26857255  1
  O2-  O259  1  0.83864076  0.29927285  0.60613184  1
  O2-  O260  1  0.83118782  0.29960179  0.93745654  1
  O2-  O261  1  0.83160173  0.78541541  0.26563600  1
  O2-  O262  1  0.83062896  0.78626566  0.60254483  1
  O2-  O263  1  0.83571835  0.78808832  0.93086799  1
  O2-  O264  1  0.42423916  0.05005922  0.06928442  1
  O2-  O265  1  0.41602975  0.03836372  0.40120586  1
  O2-  O266  1  0.41667354  0.03794254  0.73354571  1
  O2-  O267  1  0.41268556  0.53745438  0.06061840  1
  O2-  O268  1  0.41649918  0.55235507  0.39519683  1
  O2-  O269  1  0.41712249  0.55041273  0.72991835  1
  O2-  O270  1  0.91808439  0.04343145  0.06451792  1
  O2-  O271  1  0.92108525  0.04802818  0.39350940  1
  O2-  O272  1  0.92000808  0.04959382  0.72347840  1
  O2-  O273  1  0.91101690  0.54238368  0.06383683  1
  O2-  O274  1  0.91983291  0.54655539  0.40173063  1
  O2-  O275  1  0.91294848  0.53715935  0.74144376  1
  O2-  O276  1  0.29045561  0.17023931  0.06721762  1
  O2-  O277  1  0.28804193  0.16498624  0.40215059  1
  O2-  O278  1  0.28983646  0.16310874  0.73761687  1
  O2-  O279  1  0.29707245  0.66138141  0.06127944  1
  O2-  O280  1  0.29636923  0.66962162  0.39388700  1
  O2-  O281  1  0.29377147  0.66746487  0.73127495  1
  O2-  O282  1  0.78894461  0.16765815  0.06739862  1
  O2-  O283  1  0.80358852  0.16713108  0.39366144  1
  O2-  O284  1  0.79759850  0.16726537  0.72711486  1
  O2-  O285  1  0.79314070  0.66401910  0.06219066  1
  O2-  O286  1  0.78541968  0.66533912  0.40333056  1
  O2-  O287  1  0.78730038  0.66511360  0.73983745  1
