# generated using pymatgen
data_Ca2Al2SiO7
_symmetry_space_group_name_H-M   'P 1'
_cell_length_a   15.46396326
_cell_length_b   15.46520656
_cell_length_c   15.28714448
_cell_angle_alpha   89.98335675
_cell_angle_beta   89.98960968
_cell_angle_gamma   90.01528117
_symmetry_Int_Tables_number   1
_chemical_formula_structural   Ca2Al2SiO7
_chemical_formula_sum   'Ca48 Al48 Si24 O168'
_cell_volume   3655.97201937
_cell_formula_units_Z   24
loop_
 _symmetry_equiv_pos_site_id
 _symmetry_equiv_pos_as_xyz
  1  'x, y, z'
loop_
 _atom_type_symbol
 _atom_type_oxidation_number
  Ca2+  2.0
  Al0+  0.0
  Si0+  0.0
  O2-  -2.0
loop_
 _atom_site_type_symbol
 _atom_site_label
 _atom_site_symmetry_multiplicity
 _atom_site_fract_x
 _atom_site_fract_y
 _atom_site_fract_z
 _atom_site_occupancy
  Ca2+  Ca0  1  0.17254451  0.08594893  0.16780417  1
  Ca2+  Ca1  1  0.17388645  0.09311908  0.50297479  1
  Ca2+  Ca2  1  0.16844512  0.08241650  0.84629763  1
  Ca2+  Ca3  1  0.17286886  0.57858865  0.17105040  1
  Ca2+  Ca4  1  0.16559322  0.58441778  0.49714122  1
  Ca2+  Ca5  1  0.17168748  0.57438196  0.84412749  1
  Ca2+  Ca6  1  0.67109614  0.08908277  0.16851165  1
  Ca2+  Ca7  1  0.67478624  0.09545619  0.50182726  1
  Ca2+  Ca8  1  0.67672851  0.08547308  0.84007345  1
  Ca2+  Ca9  1  0.67745212  0.57599017  0.16779722  1
  Ca2+  Ca10  1  0.67159648  0.57908035  0.50079357  1
  Ca2+  Ca11  1  0.67312437  0.57286476  0.84572877  1
  Ca2+  Ca12  1  0.07780569  0.33142858  0.16061015  1
  Ca2+  Ca13  1  0.07255055  0.32842147  0.49879967  1
  Ca2+  Ca14  1  0.08077009  0.32369019  0.83125113  1
  Ca2+  Ca15  1  0.08846468  0.82785392  0.16261542  1
  Ca2+  Ca16  1  0.07634369  0.82866258  0.49640806  1
  Ca2+  Ca17  1  0.07758135  0.83592393  0.82966838  1
  Ca2+  Ca18  1  0.57945727  0.32514040  0.16270748  1
  Ca2+  Ca19  1  0.58041520  0.32140211  0.49202979  1
  Ca2+  Ca20  1  0.58970771  0.32247633  0.83360639  1
  Ca2+  Ca21  1  0.58553446  0.83391930  0.15886405  1
  Ca2+  Ca22  1  0.57702550  0.83393053  0.49810646  1
  Ca2+  Ca23  1  0.57893851  0.83732166  0.83073890  1
  Ca2+  Ca24  1  0.32996117  0.41937416  0.17291367  1
  Ca2+  Ca25  1  0.34075569  0.42073106  0.49986629  1
  Ca2+  Ca26  1  0.32564731  0.42192229  0.84612114  1
  Ca2+  Ca27  1  0.32940326  0.93044130  0.16522522  1
  Ca2+  Ca28  1  0.33405222  0.92112944  0.50138171  1
  Ca2+  Ca29  1  0.32624354  0.92028416  0.84131073  1
  Ca2+  Ca30  1  0.83196958  0.41924286  0.17135935  1
  Ca2+  Ca31  1  0.84480819  0.41813853  0.50094381  1
  Ca2+  Ca32  1  0.83176280  0.41922997  0.84028699  1
  Ca2+  Ca33  1  0.82831543  0.93091145  0.16660193  1
  Ca2+  Ca34  1  0.83610975  0.92990203  0.50602480  1
  Ca2+  Ca35  1  0.83151833  0.92631419  0.83976521  1
  Ca2+  Ca36  1  0.42348613  0.16110791  0.16119983  1
  Ca2+  Ca37  1  0.42815696  0.16831482  0.48861842  1
  Ca2+  Ca38  1  0.42996164  0.15649615  0.83270998  1
  Ca2+  Ca39  1  0.41068778  0.66492532  0.16214111  1
  Ca2+  Ca40  1  0.41151199  0.67349809  0.49390266  1
  Ca2+  Ca41  1  0.41444510  0.67261746  0.82979760  1
  Ca2+  Ca42  1  0.91544194  0.16802022  0.16041875  1
  Ca2+  Ca43  1  0.91249430  0.17441607  0.49571095  1
  Ca2+  Ca44  1  0.92556599  0.16291793  0.82613793  1
  Ca2+  Ca45  1  0.91792778  0.66112425  0.16347881  1
  Ca2+  Ca46  1  0.91859926  0.67305555  0.48941360  1
  Ca2+  Ca47  1  0.91249738  0.67456110  0.82903242  1
  Al0+  Al48  1  -0.00094486  -0.00198341  0.00437384  1
  Al0+  Al49  1  -0.00225610  -0.00175170  0.33779214  1
  Al0+  Al50  1  0.00299340  -0.00171171  0.66109508  1
  Al0+  Al51  1  0.00261644  0.50103356  0.00347429  1
  Al0+  Al52  1  0.00059211  0.50063866  0.33006471  1
  Al0+  Al53  1  0.00280637  0.49925369  0.66711629  1
  Al0+  Al54  1  0.49921490  -0.00182899  -0.00043801  1
  Al0+  Al55  1  0.49783715  -0.00200849  0.33317762  1
  Al0+  Al56  1  0.50042380  -0.00145570  0.65715208  1
  Al0+  Al57  1  0.50180202  0.50127308  0.00469769  1
  Al0+  Al58  1  0.49954777  0.50088055  0.33533642  1
  Al0+  Al59  1  0.50223025  0.50119600  0.66950448  1
  Al0+  Al60  1  0.24994085  0.25130175  0.00319101  1
  Al0+  Al61  1  0.24857143  0.25076357  0.33711242  1
  Al0+  Al62  1  0.25173580  0.25230601  0.66588972  1
  Al0+  Al63  1  0.24897660  0.75048577  0.00365445  1
  Al0+  Al64  1  0.24868689  0.74856951  0.33319842  1
  Al0+  Al65  1  0.25149090  0.75119548  0.66297185  1
  Al0+  Al66  1  0.74884612  0.25210685  0.00153261  1
  Al0+  Al67  1  0.74888963  0.25004562  0.32881814  1
  Al0+  Al68  1  0.75084011  0.25133470  0.66435710  1
  Al0+  Al69  1  0.74966313  0.75024747  0.00456519  1
  Al0+  Al70  1  0.74878988  0.75007284  0.33709358  1
  Al0+  Al71  1  0.74932489  0.75059711  0.66163146  1
  Al0+  Al72  1  0.82216975  0.57148836  0.01325858  1
  Al0+  Al73  1  0.92750795  0.82097753  0.65292004  1
  Al0+  Al74  1  0.06942919  0.68128511  0.31793042  1
  Al0+  Al75  1  0.82150725  0.07127468  0.67974863  1
  Al0+  Al76  1  0.17628465  0.92873881  0.01397721  1
  Al0+  Al77  1  0.07040046  0.17807687  0.98916739  1
  Al0+  Al78  1  0.57047382  0.17815017  0.98441240  1
  Al0+  Al79  1  0.82134884  0.07233642  0.01291895  1
  Al0+  Al80  1  0.93023627  0.31972160  0.31789478  1
  Al0+  Al81  1  0.07435935  0.17691819  0.65225274  1
  Al0+  Al82  1  0.42905786  0.81904745  0.65213457  1
  Al0+  Al83  1  0.92983470  0.32098114  0.65353989  1
  Al0+  Al84  1  0.32046279  0.56992174  0.34962940  1
  Al0+  Al85  1  0.81915324  0.07162818  0.34853042  1
  Al0+  Al86  1  0.17907185  0.42712538  0.01632215  1
  Al0+  Al87  1  0.42713507  0.32275173  0.31855682  1
  Al0+  Al88  1  0.31958442  0.07136265  0.34867398  1
  Al0+  Al89  1  0.67870758  0.42692709  0.01612557  1
  Al0+  Al90  1  0.32111009  0.57159486  0.01381534  1
  Al0+  Al91  1  0.32139964  0.07175500  0.01197652  1
  Al0+  Al92  1  0.82199896  0.56979135  0.34881394  1
  Al0+  Al93  1  0.67800104  0.92935969  0.01209866  1
  Al0+  Al94  1  0.57047582  0.17995290  0.65335679  1
  Al0+  Al95  1  0.56891292  0.17760350  0.31539437  1
  Si0+  Si96  1  0.67877074  0.42903126  0.35180387  1
  Si0+  Si97  1  0.67707291  0.92690420  0.68168694  1
  Si0+  Si98  1  0.18119328  0.92765035  0.68033756  1
  Si0+  Si99  1  0.17961322  0.42919846  0.68283248  1
  Si0+  Si100  1  0.92766057  0.81936879  0.98612878  1
  Si0+  Si101  1  0.67891128  0.43009779  0.68157968  1
  Si0+  Si102  1  0.07220140  0.67932444  0.98406014  1
  Si0+  Si103  1  0.82233799  0.57228654  0.67988704  1
  Si0+  Si104  1  0.67619491  0.92696767  0.35173933  1
  Si0+  Si105  1  0.42861189  0.32526796  0.65262270  1
  Si0+  Si106  1  0.32143256  0.57223410  0.68128272  1
  Si0+  Si107  1  0.07161836  0.17550144  0.31734743  1
  Si0+  Si108  1  0.17833398  0.92715903  0.35196764  1
  Si0+  Si109  1  0.32233102  0.07133234  0.68010843  1
  Si0+  Si110  1  0.92860778  0.32358786  0.98396157  1
  Si0+  Si111  1  0.92532266  0.82295122  0.31409232  1
  Si0+  Si112  1  0.42861683  0.32434087  0.98361497  1
  Si0+  Si113  1  0.42843860  0.81905101  0.31539826  1
  Si0+  Si114  1  0.42803461  0.81925286  0.98500718  1
  Si0+  Si115  1  0.57261840  0.67903299  0.98536534  1
  Si0+  Si116  1  0.57213434  0.67584039  0.64933419  1
  Si0+  Si117  1  0.17647762  0.42789526  0.35353145  1
  Si0+  Si118  1  0.07176389  0.67838809  0.65150021  1
  Si0+  Si119  1  0.57199962  0.67935317  0.31743269  1
  O2-  O120  1  0.24417303  0.00518032  0.06189289  1
  O2-  O121  1  0.24210539  -0.00009988  0.39749010  1
  O2-  O122  1  0.24735266  0.00387510  0.72182241  1
  O2-  O123  1  0.25356987  0.49701098  0.06496875  1
  O2-  O124  1  0.24928961  0.49303589  0.39848399  1
  O2-  O125  1  0.25280685  0.49963549  0.72351056  1
  O2-  O126  1  0.74409279  0.00551453  0.06269117  1
  O2-  O127  1  0.74353763  -0.00300954  0.39533507  1
  O2-  O128  1  0.74681892  -0.00528871  0.72471862  1
  O2-  O129  1  0.75480817  0.49588890  0.06363514  1
  O2-  O130  1  0.74993299  0.49435003  0.39863018  1
  O2-  O131  1  0.75171436  0.50112605  0.72193482  1
  O2-  O132  1  0.00220740  0.24227912  0.27228549  1
  O2-  O133  1  -0.00236822  0.24471527  0.60354661  1
  O2-  O134  1  -0.00557950  0.25138094  0.94082326  1
  O2-  O135  1  -0.00594683  0.75456880  0.26972005  1
  O2-  O136  1  -0.00053810  0.74283728  0.60724229  1
  O2-  O137  1  -0.00074876  0.74858121  0.94241364  1
  O2-  O138  1  0.49367116  0.24716113  0.26696448  1
  O2-  O139  1  0.49396113  0.25392467  0.60886178  1
  O2-  O140  1  0.49490950  0.25359304  0.93795086  1
  O2-  O141  1  0.50128428  0.74991676  0.27398924  1
  O2-  O142  1  0.50324228  0.74400990  0.60474737  1
  O2-  O143  1  0.49967674  0.74826172  0.94277424  1
  O2-  O144  1  0.06832978  0.17871650  0.10205475  1
  O2-  O145  1  0.07121275  0.17775370  0.42320261  1
  O2-  O146  1  0.07604715  0.17885358  0.76598566  1
  O2-  O147  1  0.07371556  0.68077161  0.08862658  1
  O2-  O148  1  0.06861969  0.68413465  0.43189818  1
  O2-  O149  1  0.07305876  0.67942788  0.75722309  1
  O2-  O150  1  0.56795416  0.17702205  0.09662396  1
  O2-  O151  1  0.56922104  0.18021694  0.42964822  1
  O2-  O152  1  0.57007818  0.17946382  0.76653691  1
  O2-  O153  1  0.57383554  0.68133193  0.09026440  1
  O2-  O154  1  0.57143552  0.68125935  0.42305527  1
  O2-  O155  1  0.57153950  0.67389745  0.75481525  1
  O2-  O156  1  0.17590766  0.43048371  0.24845301  1
  O2-  O157  1  0.17801024  0.43077188  0.57818399  1
  O2-  O158  1  0.17906400  0.43078380  0.90166140  1
  O2-  O159  1  0.18104332  0.92585830  0.24675016  1
  O2-  O160  1  0.18487163  0.92198175  0.57560037  1
  O2-  O161  1  0.17871190  0.92588803  0.89964728  1
  O2-  O162  1  0.67883843  0.43281299  0.24679768  1
  O2-  O163  1  0.67416643  0.43330796  0.57688867  1
  O2-  O164  1  0.67943240  0.42992205  0.90134570  1
  O2-  O165  1  0.67736301  0.92381839  0.24648612  1
  O2-  O166  1  0.67671605  0.92466097  0.57619629  1
  O2-  O167  1  0.68027323  0.92688348  0.89812387  1
  O2-  O168  1  0.43060905  0.32605167  0.08856900  1
  O2-  O169  1  0.43271894  0.32286057  0.43304377  1
  O2-  O170  1  0.42874573  0.32893442  0.75794543  1
  O2-  O171  1  0.42787147  0.81797695  0.08999810  1
  O2-  O172  1  0.42882285  0.81770487  0.42103316  1
  O2-  O173  1  0.42742094  0.81697789  0.76524943  1
  O2-  O174  1  0.93055247  0.32491588  0.08940964  1
  O2-  O175  1  0.93268894  0.32012205  0.43126237  1
  O2-  O176  1  0.93235260  0.32591211  0.76677676  1
  O2-  O177  1  0.92717915  0.81752439  0.09071226  1
  O2-  O178  1  0.92707894  0.82111487  0.42024723  1
  O2-  O179  1  0.92814591  0.81901300  0.76643265  1
  O2-  O180  1  0.32000247  0.06791635  0.23611051  1
  O2-  O181  1  0.32183483  0.06930288  0.57502587  1
  O2-  O182  1  0.32288866  0.06631645  0.89756448  1
  O2-  O183  1  0.31854874  0.57155794  0.23739936  1
  O2-  O184  1  0.32112581  0.57232296  0.57644485  1
  O2-  O185  1  0.31829052  0.57288829  0.89906375  1
  O2-  O186  1  0.81987057  0.06982558  0.23586599  1
  O2-  O187  1  0.81827195  0.07124082  0.56667509  1
  O2-  O188  1  0.82348485  0.06847976  0.89891304  1
  O2-  O189  1  0.81921491  0.56994808  0.23641745  1
  O2-  O190  1  0.82174213  0.57214439  0.57500007  1
  O2-  O191  1  0.81929968  0.57348881  0.89855860  1
  O2-  O192  1  0.04881418  0.07958162  0.27542426  1
  O2-  O193  1  0.05617776  0.07680401  0.59960955  1
  O2-  O194  1  0.04169231  0.07945923  0.93609975  1
  O2-  O195  1  0.04074870  0.58484397  0.26443029  1
  O2-  O196  1  0.05059577  0.58388332  0.60609435  1
  O2-  O197  1  0.04661930  0.58685383  0.93612720  1
  O2-  O198  1  0.54264566  0.07683592  0.26662681  1
  O2-  O199  1  0.54198962  0.08429310  0.59695640  1
  O2-  O200  1  0.53849457  0.08089678  0.93024332  1
  O2-  O201  1  0.54418389  0.58761699  0.27180921  1
  O2-  O202  1  0.54641762  0.58265226  0.60223259  1
  O2-  O203  1  0.54641417  0.58690973  0.93708893  1
  O2-  O204  1  0.16581382  0.20152970  0.27368748  1
  O2-  O205  1  0.17134002  0.21182481  0.59852900  1
  O2-  O206  1  0.16817701  0.20807970  0.93521674  1
  O2-  O207  1  0.16594273  0.71317424  0.26429267  1
  O2-  O208  1  0.16349900  0.70813911  0.60385555  1
  O2-  O209  1  0.16309500  0.70966634  0.93526856  1
  O2-  O210  1  0.66619211  0.20872315  0.26345530  1
  O2-  O211  1  0.66512285  0.21458690  0.59886067  1
  O2-  O212  1  0.66763754  0.21090052  0.93088092  1
  O2-  O213  1  0.66388840  0.70760489  0.27059650  1
  O2-  O214  1  0.66476026  0.70145274  0.60121365  1
  O2-  O215  1  0.66336773  0.70906419  0.93632775  1
  O2-  O216  1  0.08291879  0.45909350  0.06993899  1
  O2-  O217  1  0.08565199  0.46163787  0.40039623  1
  O2-  O218  1  0.08946872  0.45945716  0.73267356  1
  O2-  O219  1  0.07807886  0.94894287  0.06885249  1
  O2-  O220  1  0.08233931  0.94585184  0.39617885  1
  O2-  O221  1  0.08729466  0.94882479  0.72570788  1
  O2-  O222  1  0.58329336  0.46015825  0.07025160  1
  O2-  O223  1  0.58709020  0.45963309  0.39963064  1
  O2-  O224  1  0.58865512  0.45949327  0.73246377  1
  O2-  O225  1  0.57783038  0.94894173  0.06373605  1
  O2-  O226  1  0.58116121  0.94931372  0.39643238  1
  O2-  O227  1  0.58214189  0.95281631  0.72519520  1
  O2-  O228  1  0.20311873  0.32945909  0.07056010  1
  O2-  O229  1  0.19609288  0.33318610  0.39980496  1
  O2-  O230  1  0.20755693  0.33760911  0.73090648  1
  O2-  O231  1  0.21028230  0.83339825  0.06878481  1
  O2-  O232  1  0.21025613  0.83577210  0.39910395  1
  O2-  O233  1  0.21390351  0.83751365  0.72954630  1
  O2-  O234  1  0.70213922  0.32912188  0.06985547  1
  O2-  O235  1  0.70207616  0.33411668  0.39502650  1
  O2-  O236  1  0.70710047  0.33889124  0.72875942  1
  O2-  O237  1  0.70932938  0.83361476  0.06833364  1
  O2-  O238  1  0.70158086  0.83379901  0.39982359  1
  O2-  O239  1  0.69990110  0.83145310  0.72651778  1
  O2-  O240  1  0.45764723  0.42145847  0.26743370  1
  O2-  O241  1  0.45689349  0.41852961  0.60597656  1
  O2-  O242  1  0.45600812  0.41841661  0.93725176  1
  O2-  O243  1  0.45458588  0.91096504  0.26872296  1
  O2-  O244  1  0.45956164  0.91329665  0.59361925  1
  O2-  O245  1  0.45555561  0.90963287  0.93491963  1
  O2-  O246  1  0.96231423  0.41580794  0.26465372  1
  O2-  O247  1  0.96337723  0.41870289  0.59959526  1
  O2-  O248  1  0.95789146  0.41692234  0.93775425  1
  O2-  O249  1  0.95121592  0.91706842  0.27016056  1
  O2-  O250  1  0.96252366  0.91389603  0.59530844  1
  O2-  O251  1  0.95620139  0.91054660  0.93793385  1
  O2-  O252  1  0.32480664  0.30170936  0.27183254  1
  O2-  O253  1  0.33439319  0.30437544  0.60638040  1
  O2-  O254  1  0.33337341  0.30227968  0.93906944  1
  O2-  O255  1  0.33753999  0.78810931  0.26965109  1
  O2-  O256  1  0.33432573  0.78665202  0.59453773  1
  O2-  O257  1  0.33659389  0.78943173  0.93682978  1
  O2-  O258  1  0.83269546  0.29298688  0.26505757  1
  O2-  O259  1  0.83085787  0.29881747  0.59955191  1
  O2-  O260  1  0.83312163  0.30346707  0.93992825  1
  O2-  O261  1  0.83071365  0.79683845  0.27156621  1
  O2-  O262  1  0.83107129  0.79325477  0.59686557  1
  O2-  O263  1  0.83664422  0.78953906  0.93717041  1
  O2-  O264  1  0.41563850  0.03470403  0.06651325  1
  O2-  O265  1  0.41505433  0.03512407  0.40268783  1
  O2-  O266  1  0.41362784  0.03758447  0.72483180  1
  O2-  O267  1  0.42139626  0.55185896  0.06449176  1
  O2-  O268  1  0.41858161  0.54402318  0.40459116  1
  O2-  O269  1  0.41497601  0.54873483  0.72790472  1
  O2-  O270  1  0.91548555  0.03785435  0.06917281  1
  O2-  O271  1  0.91570378  0.04015574  0.40373708  1
  O2-  O272  1  0.92059100  0.03940558  0.72875563  1
  O2-  O273  1  0.92182991  0.54956853  0.06420730  1
  O2-  O274  1  0.91965657  0.54106425  0.40169800  1
  O2-  O275  1  0.91512915  0.54653103  0.72669643  1
  O2-  O276  1  0.30103183  0.17104927  0.06403310  1
  O2-  O277  1  0.29254056  0.16877075  0.40406886  1
  O2-  O278  1  0.30103865  0.16569653  0.72521214  1
  O2-  O279  1  0.28956603  0.66785888  0.06770976  1
  O2-  O280  1  0.28560864  0.66616137  0.40359792  1
  O2-  O281  1  0.29135890  0.66386390  0.72780877  1
  O2-  O282  1  0.79820021  0.17184106  0.06341172  1
  O2-  O283  1  0.78744013  0.16918463  0.40059986  1
  O2-  O284  1  0.79099819  0.16863210  0.73233883  1
  O2-  O285  1  0.78964035  0.66683588  0.06851342  1
  O2-  O286  1  0.78906982  0.66659255  0.40278883  1
  O2-  O287  1  0.79358060  0.66469191  0.72589735  1
