# generated using pymatgen
data_Ca2Al2SiO7
_symmetry_space_group_name_H-M   'P 1'
_cell_length_a   15.46310362
_cell_length_b   15.46047969
_cell_length_c   15.28548569
_cell_angle_alpha   90.00186621
_cell_angle_beta   90.01942836
_cell_angle_gamma   90.00811883
_symmetry_Int_Tables_number   1
_chemical_formula_structural   Ca2Al2SiO7
_chemical_formula_sum   'Ca48 Al48 Si24 O168'
_cell_volume   3654.25495104
_cell_formula_units_Z   24
loop_
 _symmetry_equiv_pos_site_id
 _symmetry_equiv_pos_as_xyz
  1  'x, y, z'
loop_
 _atom_type_symbol
 _atom_type_oxidation_number
  Ca2+  2.0
  Al0+  0.0
  Si0+  0.0
  O2-  -2.0
loop_
 _atom_site_type_symbol
 _atom_site_label
 _atom_site_symmetry_multiplicity
 _atom_site_fract_x
 _atom_site_fract_y
 _atom_site_fract_z
 _atom_site_occupancy
  Ca2+  Ca0  1  0.17239900  0.07605827  0.17166742  1
  Ca2+  Ca1  1  0.15744438  0.07894666  0.50189550  1
  Ca2+  Ca2  1  0.17476664  0.07897713  0.84402213  1
  Ca2+  Ca3  1  0.17573634  0.58333673  0.17125437  1
  Ca2+  Ca4  1  0.17645124  0.58432101  0.50582210  1
  Ca2+  Ca5  1  0.17473329  0.58411973  0.84207559  1
  Ca2+  Ca6  1  0.66355869  0.07041365  0.17321956  1
  Ca2+  Ca7  1  0.65677396  0.07608275  0.50365673  1
  Ca2+  Ca8  1  0.65642063  0.07252806  0.83458993  1
  Ca2+  Ca9  1  0.65559779  0.57220442  0.16903823  1
  Ca2+  Ca10  1  0.66652097  0.57760068  0.50125410  1
  Ca2+  Ca11  1  0.66440971  0.57853487  0.84262543  1
  Ca2+  Ca12  1  0.09523836  0.33310510  0.16468003  1
  Ca2+  Ca13  1  0.08978048  0.32230565  0.49261914  1
  Ca2+  Ca14  1  0.08910490  0.32815990  0.82754760  1
  Ca2+  Ca15  1  0.08264320  0.83493589  0.16161717  1
  Ca2+  Ca16  1  0.08085215  0.82900174  0.49120685  1
  Ca2+  Ca17  1  0.09682794  0.82008676  0.83292016  1
  Ca2+  Ca18  1  0.58923463  0.32988935  0.16308191  1
  Ca2+  Ca19  1  0.58023691  0.32637624  0.49285683  1
  Ca2+  Ca20  1  0.57619137  0.32862872  0.82452090  1
  Ca2+  Ca21  1  0.57936272  0.82832036  0.15549076  1
  Ca2+  Ca22  1  0.57748046  0.83995044  0.49665899  1
  Ca2+  Ca23  1  0.57312222  0.83604358  0.83101329  1
  Ca2+  Ca24  1  0.32585119  0.43049451  0.17064199  1
  Ca2+  Ca25  1  0.33454422  0.42680595  0.50308292  1
  Ca2+  Ca26  1  0.33348183  0.42743593  0.83997268  1
  Ca2+  Ca27  1  0.32562038  0.91473230  0.16438363  1
  Ca2+  Ca28  1  0.32896301  0.91589189  0.50315631  1
  Ca2+  Ca29  1  0.33572811  0.92088229  0.84227067  1
  Ca2+  Ca30  1  0.82301056  0.41875338  0.16906973  1
  Ca2+  Ca31  1  0.82642088  0.41019194  0.49938395  1
  Ca2+  Ca32  1  0.82622772  0.41725805  0.84047413  1
  Ca2+  Ca33  1  0.82309792  0.90942396  0.17289543  1
  Ca2+  Ca34  1  0.82229324  0.91167219  0.50182537  1
  Ca2+  Ca35  1  0.82012757  0.91571764  0.83647335  1
  Ca2+  Ca36  1  0.41928194  0.16476489  0.16372424  1
  Ca2+  Ca37  1  0.42611170  0.17228742  0.49810250  1
  Ca2+  Ca38  1  0.41569036  0.17475908  0.82438172  1
  Ca2+  Ca39  1  0.41606686  0.66922345  0.15726546  1
  Ca2+  Ca40  1  0.40978352  0.66934522  0.50015732  1
  Ca2+  Ca41  1  0.41060182  0.67614130  0.83222155  1
  Ca2+  Ca42  1  0.92369208  0.16661534  0.16746309  1
  Ca2+  Ca43  1  0.92799661  0.16268914  0.49490409  1
  Ca2+  Ca44  1  0.92496088  0.16782012  0.82890439  1
  Ca2+  Ca45  1  0.92318542  0.67197870  0.16189901  1
  Ca2+  Ca46  1  0.92302320  0.67235568  0.49504953  1
  Ca2+  Ca47  1  0.93097044  0.66583691  0.83085181  1
  Al0+  Al48  1  -0.00167057  0.00174743  -0.00012005  1
  Al0+  Al49  1  -0.00083962  0.00008616  0.32725509  1
  Al0+  Al50  1  -0.00398654  -0.00159333  0.66609282  1
  Al0+  Al51  1  -0.00247964  0.49861442  -0.00108276  1
  Al0+  Al52  1  0.00053827  0.49933433  0.33601758  1
  Al0+  Al53  1  -0.00044544  0.49965047  0.66124716  1
  Al0+  Al54  1  0.50180541  -0.00012997  0.00525720  1
  Al0+  Al55  1  0.49898855  0.00027535  0.33173729  1
  Al0+  Al56  1  0.49696662  -0.00081747  0.66331253  1
  Al0+  Al57  1  0.50010717  0.49808190  0.00431374  1
  Al0+  Al58  1  0.50023133  0.49991278  0.34264987  1
  Al0+  Al59  1  0.49898164  0.50209374  0.66811716  1
  Al0+  Al60  1  0.25269935  0.24961430  0.00570114  1
  Al0+  Al61  1  0.25331611  0.25121615  0.33123812  1
  Al0+  Al62  1  0.24990637  0.24994090  0.65648262  1
  Al0+  Al63  1  0.25019639  0.75189675  -0.00015231  1
  Al0+  Al64  1  0.25021745  0.75240486  0.34009472  1
  Al0+  Al65  1  0.25050991  0.74917649  0.66133628  1
  Al0+  Al66  1  0.75195974  0.24963981  0.00150836  1
  Al0+  Al67  1  0.75168456  0.24863495  0.33285187  1
  Al0+  Al68  1  0.75156974  0.24726775  0.66511764  1
  Al0+  Al69  1  0.75174933  0.74881257  -0.00157098  1
  Al0+  Al70  1  0.74929983  0.74971533  0.33390142  1
  Al0+  Al71  1  0.74917858  0.74850120  0.67339512  1
  Al0+  Al72  1  0.17662281  0.42839901  0.01229308  1
  Al0+  Al73  1  0.43021398  0.82167425  0.98587061  1
  Al0+  Al74  1  0.07023136  0.17780928  0.65455597  1
  Al0+  Al75  1  0.67656781  0.92998800  0.68125734  1
  Al0+  Al76  1  0.68109296  0.92848795  0.01388338  1
  Al0+  Al77  1  0.57190245  0.67579269  0.98592361  1
  Al0+  Al78  1  0.67884557  0.42881026  0.01168750  1
  Al0+  Al79  1  0.42894048  0.32492170  0.65067999  1
  Al0+  Al80  1  0.32023882  0.57180810  0.68424063  1
  Al0+  Al81  1  0.57097811  0.17877602  0.65255332  1
  Al0+  Al82  1  0.57131009  0.17919653  0.31700052  1
  Al0+  Al83  1  0.67825168  0.92841934  0.34743145  1
  Al0+  Al84  1  0.92794916  0.81980337  0.31968124  1
  Al0+  Al85  1  0.32032808  0.57250633  0.01395412  1
  Al0+  Al86  1  0.17793238  0.93264243  0.34799071  1
  Al0+  Al87  1  0.42995121  0.82016638  0.65136295  1
  Al0+  Al88  1  0.07096177  0.67950902  0.65160308  1
  Al0+  Al89  1  0.07008207  0.67951886  0.98863732  1
  Al0+  Al90  1  0.17743381  0.92908700  0.01300412  1
  Al0+  Al91  1  0.68109357  0.42774550  0.34865182  1
  Al0+  Al92  1  0.32331197  0.07227810  0.01458787  1
  Al0+  Al93  1  0.07277231  0.18036663  0.31655217  1
  Al0+  Al94  1  0.32053369  0.57257620  0.35099501  1
  Al0+  Al95  1  0.17828425  0.42763951  0.35042798  1
  Si0+  Si96  1  0.92746218  0.32226026  0.64934816  1
  Si0+  Si97  1  0.17763474  0.42701317  0.68140735  1
  Si0+  Si98  1  0.82179221  0.07081594  0.35000916  1
  Si0+  Si99  1  0.07258096  0.18031741  0.98581144  1
  Si0+  Si100  1  0.57345574  0.17948642  0.98593672  1
  Si0+  Si101  1  0.17606563  0.92918392  0.67973450  1
  Si0+  Si102  1  0.82331914  0.07195768  0.68479532  1
  Si0+  Si103  1  0.57028645  0.67859820  0.32098868  1
  Si0+  Si104  1  0.07303244  0.67881711  0.31704605  1
  Si0+  Si105  1  0.68030131  0.42778016  0.68113198  1
  Si0+  Si106  1  0.82263924  0.07312701  0.01782541  1
  Si0+  Si107  1  0.43120634  0.32450793  0.31363856  1
  Si0+  Si108  1  0.32291818  0.07238923  0.35205154  1
  Si0+  Si109  1  0.82293133  0.57138783  0.01619940  1
  Si0+  Si110  1  0.92712925  0.82460162  0.98106567  1
  Si0+  Si111  1  0.92476997  0.81987024  0.65104545  1
  Si0+  Si112  1  0.31797934  0.07108135  0.67850897  1
  Si0+  Si113  1  0.42806700  0.82101327  0.31775404  1
  Si0+  Si114  1  0.92806272  0.32326637  0.31478469  1
  Si0+  Si115  1  0.42928403  0.31937265  0.98672497  1
  Si0+  Si116  1  0.82246461  0.57278534  0.35027348  1
  Si0+  Si117  1  0.82247592  0.57010521  0.68254272  1
  Si0+  Si118  1  0.92755307  0.31978998  0.98478041  1
  Si0+  Si119  1  0.57458272  0.67811917  0.64998277  1
  O2-  O120  1  0.24980050  0.00075767  0.06271566  1
  O2-  O121  1  0.25001262  0.00861711  0.39723395  1
  O2-  O122  1  0.24374122  0.00361328  0.72100656  1
  O2-  O123  1  0.24406772  0.50415721  0.06229631  1
  O2-  O124  1  0.24707706  0.50167840  0.40109179  1
  O2-  O125  1  0.24547312  0.49496508  0.72747584  1
  O2-  O126  1  0.75718976  0.00145223  0.06125371  1
  O2-  O127  1  0.75120809  0.00457102  0.39484736  1
  O2-  O128  1  0.75044673  0.00674907  0.72725625  1
  O2-  O129  1  0.74815193  0.50855229  0.05899397  1
  O2-  O130  1  0.75672259  0.50151116  0.39568693  1
  O2-  O131  1  0.75132072  0.49848645  0.72406974  1
  O2-  O132  1  0.00174700  0.25979048  0.27039223  1
  O2-  O133  1  -0.00275540  0.25404319  0.60706992  1
  O2-  O134  1  0.00334110  0.25323891  0.94310525  1
  O2-  O135  1  0.00358795  0.74637953  0.27260288  1
  O2-  O136  1  -0.00365301  0.75500166  0.60613932  1
  O2-  O137  1  -0.00070448  0.75814022  0.93903171  1
  O2-  O138  1  0.49946159  0.25554785  0.26838640  1
  O2-  O139  1  0.50423791  0.25516733  0.60203206  1
  O2-  O140  1  0.50074336  0.24857202  0.94385107  1
  O2-  O141  1  0.49887040  0.74861509  0.27837691  1
  O2-  O142  1  0.50679466  0.74702077  0.60497625  1
  O2-  O143  1  0.50117371  0.74846694  0.93485439  1
  O2-  O144  1  0.07046956  0.17994704  0.09046446  1
  O2-  O145  1  0.06746114  0.17867960  0.42992302  1
  O2-  O146  1  0.06984791  0.17902877  0.76820801  1
  O2-  O147  1  0.06624136  0.67871924  0.10153977  1
  O2-  O148  1  0.07095566  0.68095893  0.42289814  1
  O2-  O149  1  0.07010137  0.67933587  0.76492936  1
  O2-  O150  1  0.57533620  0.18173182  0.09094725  1
  O2-  O151  1  0.56878064  0.17970233  0.43000218  1
  O2-  O152  1  0.56803824  0.17973398  0.76678913  1
  O2-  O153  1  0.57028697  0.67641153  0.10010965  1
  O2-  O154  1  0.57203504  0.67996916  0.42626594  1
  O2-  O155  1  0.57615256  0.67777238  0.75520059  1
  O2-  O156  1  0.18034449  0.43090072  0.23692361  1
  O2-  O157  1  0.17747872  0.42822176  0.57623254  1
  O2-  O158  1  0.17948308  0.42543984  0.89837502  1
  O2-  O159  1  0.17985829  0.93133908  0.23534164  1
  O2-  O160  1  0.17563173  0.93091073  0.57448648  1
  O2-  O161  1  0.17755002  0.93246035  0.89862941  1
  O2-  O162  1  0.68151435  0.42939716  0.23557730  1
  O2-  O163  1  0.68320879  0.42832432  0.57605535  1
  O2-  O164  1  0.68282522  0.42541190  0.89818394  1
  O2-  O165  1  0.67974824  0.92736734  0.23455596  1
  O2-  O166  1  0.67910116  0.93009337  0.56815735  1
  O2-  O167  1  0.68008974  0.93211909  0.90054412  1
  O2-  O168  1  0.43046401  0.31858610  0.09150407  1
  O2-  O169  1  0.43373761  0.32368132  0.41930587  1
  O2-  O170  1  0.42911642  0.32268942  0.76514913  1
  O2-  O171  1  0.43170700  0.82171505  0.09975331  1
  O2-  O172  1  0.42901868  0.82226384  0.42312719  1
  O2-  O173  1  0.42924703  0.82287143  0.76398340  1
  O2-  O174  1  0.92271536  0.31711808  0.08921700  1
  O2-  O175  1  0.92502477  0.31958494  0.42043094  1
  O2-  O176  1  0.92591963  0.32272335  0.75526096  1
  O2-  O177  1  0.92515235  0.82285149  0.08663293  1
  O2-  O178  1  0.92776352  0.81691473  0.43317304  1
  O2-  O179  1  0.92336300  0.81785109  0.75647977  1
  O2-  O180  1  0.32359075  0.06903967  0.24656541  1
  O2-  O181  1  0.31853967  0.06914469  0.57359479  1
  O2-  O182  1  0.32076217  0.07638958  0.90016161  1
  O2-  O183  1  0.32124995  0.57389195  0.23755929  1
  O2-  O184  1  0.31836411  0.57226628  0.57148221  1
  O2-  O185  1  0.32007281  0.57030510  0.90022388  1
  O2-  O186  1  0.82092034  0.07045725  0.24429806  1
  O2-  O187  1  0.82846781  0.07107262  0.57976662  1
  O2-  O188  1  0.82311042  0.07534159  0.91209429  1
  O2-  O189  1  0.82113558  0.57286091  0.24485602  1
  O2-  O190  1  0.82142062  0.57092663  0.57752040  1
  O2-  O191  1  0.82595861  0.56647898  0.91028671  1
  O2-  O192  1  0.03687910  0.08614813  0.26140358  1
  O2-  O193  1  0.03577145  0.08167706  0.60059410  1
  O2-  O194  1  0.04219114  0.08959096  0.93696666  1
  O2-  O195  1  0.04843795  0.58388060  0.27367889  1
  O2-  O196  1  0.03910368  0.58352628  0.59683029  1
  O2-  O197  1  0.03551003  0.58374691  0.93333878  1
  O2-  O198  1  0.53772760  0.08284497  0.26338822  1
  O2-  O199  1  0.53649998  0.08332485  0.59840660  1
  O2-  O200  1  0.54678827  0.08674073  0.94112651  1
  O2-  O201  1  0.54319514  0.58521308  0.27644444  1
  O2-  O202  1  0.54897494  0.58448007  0.60426575  1
  O2-  O203  1  0.54624752  0.57534265  0.93492120  1
  O2-  O204  1  0.17169914  0.20653736  0.26487097  1
  O2-  O205  1  0.16521653  0.20431787  0.59633687  1
  O2-  O206  1  0.16538996  0.20685822  0.93962081  1
  O2-  O207  1  0.16662859  0.70776806  0.27381006  1
  O2-  O208  1  0.16506522  0.71225066  0.59559732  1
  O2-  O209  1  0.16639161  0.70907232  0.93328145  1
  O2-  O210  1  0.66976830  0.20736688  0.26549006  1
  O2-  O211  1  0.67223792  0.19982264  0.60196008  1
  O2-  O212  1  0.66475438  0.20856208  0.93788972  1
  O2-  O213  1  0.66178364  0.70503974  0.27298990  1
  O2-  O214  1  0.66930651  0.70175789  0.60478312  1
  O2-  O215  1  0.67282356  0.69944657  0.93479978  1
  O2-  O216  1  0.07518051  0.44811553  0.06241986  1
  O2-  O217  1  0.07655831  0.44795869  0.40082977  1
  O2-  O218  1  0.08176370  0.45024786  0.72484215  1
  O2-  O219  1  0.07810837  0.95699479  0.06426867  1
  O2-  O220  1  0.07975336  0.96208149  0.39989716  1
  O2-  O221  1  0.08247846  0.95131365  0.72598052  1
  O2-  O222  1  0.58307574  0.45358315  0.06922051  1
  O2-  O223  1  0.58676513  0.45973123  0.40528100  1
  O2-  O224  1  0.58845043  0.45547700  0.72754133  1
  O2-  O225  1  0.58672082  0.96049517  0.07006577  1
  O2-  O226  1  0.58112040  0.96032318  0.39969806  1
  O2-  O227  1  0.57968230  0.96276961  0.73387329  1
  O2-  O228  1  0.20921506  0.33265338  0.06717826  1
  O2-  O229  1  0.20924115  0.32863700  0.40094473  1
  O2-  O230  1  0.20263077  0.33134881  0.72414229  1
  O2-  O231  1  0.20428796  0.83164156  0.06712398  1
  O2-  O232  1  0.20954401  0.83741672  0.40385878  1
  O2-  O233  1  0.20900843  0.83835970  0.72463421  1
  O2-  O234  1  0.71629554  0.33466324  0.06665486  1
  O2-  O235  1  0.71378395  0.33135336  0.40234093  1
  O2-  O236  1  0.70811156  0.33516598  0.72753596  1
  O2-  O237  1  0.71083162  0.83051962  0.06580833  1
  O2-  O238  1  0.71016895  0.83229437  0.40191612  1
  O2-  O239  1  0.70844749  0.83373661  0.73576127  1
  O2-  O240  1  0.45928331  0.41878835  0.27068344  1
  O2-  O241  1  0.45730510  0.42345128  0.59870186  1
  O2-  O242  1  0.45785407  0.41065972  0.93925605  1
  O2-  O243  1  0.45609675  0.91216215  0.27040116  1
  O2-  O244  1  0.45925448  0.91590453  0.59510248  1
  O2-  O245  1  0.46126575  0.92093972  0.93407735  1
  O2-  O246  1  0.94640671  0.41979455  0.27151373  1
  O2-  O247  1  0.94914049  0.41557017  0.60144684  1
  O2-  O248  1  0.94869492  0.41254713  0.93632910  1
  O2-  O249  1  0.95573630  0.91578874  0.26401819  1
  O2-  O250  1  0.94545401  0.91491181  0.60632118  1
  O2-  O251  1  0.94727745  0.92025505  0.93629603  1
  O2-  O252  1  0.33763627  0.29922590  0.26818591  1
  O2-  O253  1  0.33304290  0.29418117  0.59485205  1
  O2-  O254  1  0.33812720  0.29057953  0.93796739  1
  O2-  O255  1  0.33540403  0.79326756  0.27246504  1
  O2-  O256  1  0.33474028  0.78857061  0.59531958  1
  O2-  O257  1  0.33082454  0.79730698  0.93269771  1
  O2-  O258  1  0.83683149  0.29202615  0.26665347  1
  O2-  O259  1  0.83483112  0.29469416  0.60206575  1
  O2-  O260  1  0.83878331  0.28628043  0.93314939  1
  O2-  O261  1  0.83208431  0.78602292  0.26485472  1
  O2-  O262  1  0.83239526  0.78940850  0.60484026  1
  O2-  O263  1  0.83564199  0.79483099  0.93284282  1
  O2-  O264  1  0.42052494  0.04507260  0.06941534  1
  O2-  O265  1  0.41423074  0.04074874  0.39900912  1
  O2-  O266  1  0.40831022  0.04080985  0.72688785  1
  O2-  O267  1  0.41669628  0.53993076  0.06806683  1
  O2-  O268  1  0.41788171  0.54321706  0.40604244  1
  O2-  O269  1  0.41862959  0.54389105  0.73660797  1
  O2-  O270  1  0.91715261  0.05161015  0.06347871  1
  O2-  O271  1  0.91453709  0.04204987  0.39554415  1
  O2-  O272  1  0.91433169  0.04175109  0.73542405  1
  O2-  O273  1  0.91216858  0.53861756  0.06625890  1
  O2-  O274  1  0.91685586  0.55093403  0.39648482  1
  O2-  O275  1  0.91437653  0.54065074  0.72955036  1
  O2-  O276  1  0.29495009  0.16848762  0.07126455  1
  O2-  O277  1  0.30416120  0.16862107  0.39412121  1
  O2-  O278  1  0.29256105  0.16478249  0.72408881  1
  O2-  O279  1  0.29543425  0.67141497  0.06595436  1
  O2-  O280  1  0.29242654  0.67066434  0.40501320  1
  O2-  O281  1  0.28612055  0.66930243  0.73464949  1
  O2-  O282  1  0.79480972  0.16509412  0.06553794  1
  O2-  O283  1  0.80045172  0.16526084  0.39583058  1
  O2-  O284  1  0.80276023  0.16739301  0.73042635  1
  O2-  O285  1  0.80559140  0.66723236  0.05951647  1
  O2-  O286  1  0.79216023  0.66383299  0.39892456  1
  O2-  O287  1  0.79580044  0.66051485  0.73292956  1
