# generated using pymatgen
data_Ca2Al2SiO7
_symmetry_space_group_name_H-M   'P 1'
_cell_length_a   15.46961473
_cell_length_b   15.46829030
_cell_length_c   15.28940968
_cell_angle_alpha   89.97326921
_cell_angle_beta   89.98889434
_cell_angle_gamma   90.01583010
_symmetry_Int_Tables_number   1
_chemical_formula_structural   Ca2Al2SiO7
_chemical_formula_sum   'Ca48 Al48 Si24 O168'
_cell_volume   3658.57917035
_cell_formula_units_Z   24
loop_
 _symmetry_equiv_pos_site_id
 _symmetry_equiv_pos_as_xyz
  1  'x, y, z'
loop_
 _atom_type_symbol
 _atom_type_oxidation_number
  Ca2+  2.0
  Al0+  0.0
  Si0+  0.0
  O2-  -2.0
loop_
 _atom_site_type_symbol
 _atom_site_label
 _atom_site_symmetry_multiplicity
 _atom_site_fract_x
 _atom_site_fract_y
 _atom_site_fract_z
 _atom_site_occupancy
  Ca2+  Ca0  1  0.17767121  0.08351283  0.17088020  1
  Ca2+  Ca1  1  0.17664722  0.07746128  0.50669321  1
  Ca2+  Ca2  1  0.17507998  0.07633422  0.83694267  1
  Ca2+  Ca3  1  0.16069370  0.58449342  0.16836752  1
  Ca2+  Ca4  1  0.16456614  0.58465065  0.50106687  1
  Ca2+  Ca5  1  0.17064459  0.57864204  0.84793847  1
  Ca2+  Ca6  1  0.67438481  0.08066486  0.17353273  1
  Ca2+  Ca7  1  0.67570134  0.08954245  0.50043855  1
  Ca2+  Ca8  1  0.67870387  0.08238967  0.83960384  1
  Ca2+  Ca9  1  0.67380210  0.58835050  0.17010009  1
  Ca2+  Ca10  1  0.67577919  0.58412789  0.50685890  1
  Ca2+  Ca11  1  0.66712959  0.57809318  0.84052326  1
  Ca2+  Ca12  1  0.07689976  0.33509642  0.16353057  1
  Ca2+  Ca13  1  0.07301904  0.32928902  0.49067324  1
  Ca2+  Ca14  1  0.08341535  0.33434255  0.83258119  1
  Ca2+  Ca15  1  0.07331754  0.82308175  0.16249079  1
  Ca2+  Ca16  1  0.07926200  0.83011717  0.49325029  1
  Ca2+  Ca17  1  0.08077684  0.83288512  0.83420708  1
  Ca2+  Ca18  1  0.58399437  0.32884850  0.16528880  1
  Ca2+  Ca19  1  0.58085013  0.32869950  0.49087255  1
  Ca2+  Ca20  1  0.58743919  0.33751576  0.82933440  1
  Ca2+  Ca21  1  0.58630078  0.82107926  0.16293563  1
  Ca2+  Ca22  1  0.58953332  0.82148927  0.49686010  1
  Ca2+  Ca23  1  0.58439289  0.81968961  0.83130804  1
  Ca2+  Ca24  1  0.32910278  0.41895402  0.16488874  1
  Ca2+  Ca25  1  0.33514006  0.41382299  0.49859600  1
  Ca2+  Ca26  1  0.32549975  0.42268685  0.84405735  1
  Ca2+  Ca27  1  0.33776737  0.92652673  0.17313061  1
  Ca2+  Ca28  1  0.32868441  0.92577888  0.50755106  1
  Ca2+  Ca29  1  0.33225885  0.92419301  0.83697192  1
  Ca2+  Ca30  1  0.83108360  0.42881012  0.16989326  1
  Ca2+  Ca31  1  0.82969123  0.42665197  0.50331525  1
  Ca2+  Ca32  1  0.82127599  0.43023921  0.83806698  1
  Ca2+  Ca33  1  0.84410195  0.92266353  0.17059927  1
  Ca2+  Ca34  1  0.83844731  0.92510977  0.49984972  1
  Ca2+  Ca35  1  0.83920170  0.92529938  0.83886574  1
  Ca2+  Ca36  1  0.41632847  0.16725471  0.16505594  1
  Ca2+  Ca37  1  0.41905277  0.17040823  0.48754741  1
  Ca2+  Ca38  1  0.41293198  0.16581943  0.82950223  1
  Ca2+  Ca39  1  0.42841532  0.65806287  0.16013052  1
  Ca2+  Ca40  1  0.43185274  0.66557834  0.49358234  1
  Ca2+  Ca41  1  0.42768670  0.65471151  0.83207759  1
  Ca2+  Ca42  1  0.90552336  0.17274265  0.16334555  1
  Ca2+  Ca43  1  0.91064522  0.17168012  0.49070160  1
  Ca2+  Ca44  1  0.91281932  0.16542209  0.82916960  1
  Ca2+  Ca45  1  0.91631719  0.67342003  0.15867541  1
  Ca2+  Ca46  1  0.91823690  0.67039586  0.48688993  1
  Ca2+  Ca47  1  0.91501921  0.66470526  0.83419938  1
  Al0+  Al48  1  0.00238015  0.00179307  0.00057925  1
  Al0+  Al49  1  0.00262791  -0.00019705  0.33523503  1
  Al0+  Al50  1  0.00300775  -0.00020693  0.67249233  1
  Al0+  Al51  1  -0.00277130  0.49848440  0.00101660  1
  Al0+  Al52  1  0.00014922  0.49741616  0.33218751  1
  Al0+  Al53  1  -0.00066111  0.49914971  0.66854352  1
  Al0+  Al54  1  0.50243607  0.00090264  0.00187429  1
  Al0+  Al55  1  0.50214162  -0.00053612  0.33663173  1
  Al0+  Al56  1  0.50148070  0.00027827  0.66888682  1
  Al0+  Al57  1  0.49669231  0.49555870  0.00216963  1
  Al0+  Al58  1  0.49824214  0.49815050  0.32618645  1
  Al0+  Al59  1  0.49954611  0.49813227  0.66221949  1
  Al0+  Al60  1  0.24960156  0.24980610  0.00569671  1
  Al0+  Al61  1  0.24963768  0.25142743  0.33437494  1
  Al0+  Al62  1  0.24940418  0.24971631  0.66746083  1
  Al0+  Al63  1  0.25051137  0.75176501  0.00029710  1
  Al0+  Al64  1  0.25088063  0.74930822  0.33223768  1
  Al0+  Al65  1  0.24971333  0.75045622  0.66949112  1
  Al0+  Al66  1  0.74907006  0.24941915  0.00396581  1
  Al0+  Al67  1  0.74852841  0.25079534  0.32843149  1
  Al0+  Al68  1  0.74947397  0.25217352  0.67236920  1
  Al0+  Al69  1  0.74805167  0.75169695  -0.00835899  1
  Al0+  Al70  1  0.75121940  0.75196978  0.33008949  1
  Al0+  Al71  1  0.75297786  0.75244132  0.66450570  1
  Al0+  Al72  1  0.32202615  0.07136015  0.34808022  1
  Al0+  Al73  1  0.81992517  0.07089964  0.67936107  1
  Al0+  Al74  1  0.82111609  0.57190865  0.34612507  1
  Al0+  Al75  1  0.67655291  0.42774643  0.01708228  1
  Al0+  Al76  1  0.82244235  0.06906755  0.01435635  1
  Al0+  Al77  1  0.92961907  0.82272778  0.31931773  1
  Al0+  Al78  1  0.81755916  0.57345513  0.01512192  1
  Al0+  Al79  1  0.42622374  0.32049230  0.31499254  1
  Al0+  Al80  1  0.57148206  0.67928324  0.31969841  1
  Al0+  Al81  1  0.17973894  0.92691734  0.68362778  1
  Al0+  Al82  1  0.82098603  0.07174948  0.34626385  1
  Al0+  Al83  1  0.07046715  0.67740804  0.98346842  1
  Al0+  Al84  1  0.32198311  0.06912246  0.01528644  1
  Al0+  Al85  1  0.32023111  0.57316025  0.01485907  1
  Al0+  Al86  1  0.67745769  0.43133508  0.67919111  1
  Al0+  Al87  1  0.57094333  0.67859087  0.65214419  1
  Al0+  Al88  1  0.82305131  0.57414332  0.68052127  1
  Al0+  Al89  1  0.32268525  0.07233068  0.68179233  1
  Al0+  Al90  1  0.17678423  0.42955691  0.01586980  1
  Al0+  Al91  1  0.92777009  0.31979077  0.31934875  1
  Al0+  Al92  1  0.07246137  0.67751274  0.32002156  1
  Al0+  Al93  1  0.57098052  0.17737492  0.31756734  1
  Al0+  Al94  1  0.92928596  0.82304614  0.98189892  1
  Al0+  Al95  1  0.56780548  0.67717515  0.98522113  1
  Si0+  Si96  1  0.07136642  0.17897635  0.65203105  1
  Si0+  Si97  1  0.07262371  0.18135518  0.98441460  1
  Si0+  Si98  1  0.07196080  0.17826141  0.31785227  1
  Si0+  Si99  1  0.42810218  0.82135957  0.31904407  1
  Si0+  Si100  1  0.67663700  0.42970820  0.34889647  1
  Si0+  Si101  1  0.67829844  0.92864787  0.01605528  1
  Si0+  Si102  1  0.32052403  0.56947469  0.67801326  1
  Si0+  Si103  1  0.93151596  0.82378779  0.65079109  1
  Si0+  Si104  1  0.17785948  0.92801857  0.01979480  1
  Si0+  Si105  1  0.17853763  0.42933614  0.35044759  1
  Si0+  Si106  1  0.42879765  0.82587617  0.98403128  1
  Si0+  Si107  1  0.92646623  0.31954717  0.98247326  1
  Si0+  Si108  1  0.32192784  0.57114238  0.34938037  1
  Si0+  Si109  1  0.42739378  0.82283958  0.65053283  1
  Si0+  Si110  1  0.57286294  0.17900181  0.65358633  1
  Si0+  Si111  1  0.92886221  0.31966322  0.65245255  1
  Si0+  Si112  1  0.07140377  0.67740550  0.65273725  1
  Si0+  Si113  1  0.57139526  0.17899656  0.98263437  1
  Si0+  Si114  1  0.67791350  0.92668873  0.68385623  1
  Si0+  Si115  1  0.18033247  0.92673761  0.35039467  1
  Si0+  Si116  1  0.17814784  0.42888463  0.67955372  1
  Si0+  Si117  1  0.42713621  0.31713170  0.98263917  1
  Si0+  Si118  1  0.42725704  0.31889443  0.65205458  1
  Si0+  Si119  1  0.67822125  0.92730227  0.35119298  1
  O2-  O120  1  0.25135492  -0.00808873  0.06337612  1
  O2-  O121  1  0.24880992  -0.00425812  0.39486998  1
  O2-  O122  1  0.25384883  -0.00209548  0.73195061  1
  O2-  O123  1  0.24186931  0.50811819  0.06535677  1
  O2-  O124  1  0.24908734  0.50163071  0.39236556  1
  O2-  O125  1  0.24726737  0.50137922  0.72074644  1
  O2-  O126  1  0.75220988  -0.00902112  0.06072903  1
  O2-  O127  1  0.74634962  -0.00219097  0.39434564  1
  O2-  O128  1  0.74592061  -0.00345497  0.72726836  1
  O2-  O129  1  0.74381569  0.50393458  0.06632984  1
  O2-  O130  1  0.74365212  0.49972706  0.39338769  1
  O2-  O131  1  0.74465461  0.50791686  0.72826080  1
  O2-  O132  1  -0.00130744  0.24100669  0.27267390  1
  O2-  O133  1  -0.00213973  0.24682830  0.60899707  1
  O2-  O134  1  -0.00022343  0.24992254  0.94044069  1
  O2-  O135  1  -0.00276679  0.74597421  0.27116919  1
  O2-  O136  1  -0.00114671  0.74735297  0.61099793  1
  O2-  O137  1  -0.00124389  0.74846807  0.93083411  1
  O2-  O138  1  0.49712953  0.24685302  0.26635539  1
  O2-  O139  1  0.49740674  0.24597628  0.61195425  1
  O2-  O140  1  0.50026716  0.24919312  0.93894854  1
  O2-  O141  1  0.49530180  0.75265642  0.27351124  1
  O2-  O142  1  0.49685175  0.75508727  0.60576777  1
  O2-  O143  1  0.48982816  0.75023407  0.93940711  1
  O2-  O144  1  0.07431684  0.18299278  0.08936675  1
  O2-  O145  1  0.07271806  0.18193151  0.42407146  1
  O2-  O146  1  0.07336450  0.18236474  0.75708812  1
  O2-  O147  1  0.06881826  0.67914714  0.09660818  1
  O2-  O148  1  0.07327865  0.68008447  0.43474840  1
  O2-  O149  1  0.07291652  0.67514296  0.75709981  1
  O2-  O150  1  0.57046785  0.17833295  0.08720010  1
  O2-  O151  1  0.57173506  0.18113935  0.43219063  1
  O2-  O152  1  0.57389506  0.18097862  0.75866091  1
  O2-  O153  1  0.56805864  0.68005754  0.09816770  1
  O2-  O154  1  0.57040123  0.67956693  0.43331287  1
  O2-  O155  1  0.56636707  0.67701375  0.76491085  1
  O2-  O156  1  0.17805961  0.42741036  0.24611009  1
  O2-  O157  1  0.17738587  0.42791136  0.57444672  1
  O2-  O158  1  0.18161696  0.42589436  0.90121092  1
  O2-  O159  1  0.18187997  0.92738987  0.24518231  1
  O2-  O160  1  0.18018041  0.92873128  0.56977121  1
  O2-  O161  1  0.17728351  0.93189770  0.91405647  1
  O2-  O162  1  0.67763819  0.43012303  0.24376541  1
  O2-  O163  1  0.67875894  0.42802875  0.56565153  1
  O2-  O164  1  0.67909944  0.42737349  0.90304369  1
  O2-  O165  1  0.67575785  0.92699885  0.24591963  1
  O2-  O166  1  0.67834359  0.92643570  0.57831403  1
  O2-  O167  1  0.67483202  0.93394349  0.91029681  1
  O2-  O168  1  0.42455244  0.31429139  0.08710605  1
  O2-  O169  1  0.42690237  0.32031153  0.42977292  1
  O2-  O170  1  0.42433613  0.31983671  0.75690159  1
  O2-  O171  1  0.43468049  0.83118327  0.08933761  1
  O2-  O172  1  0.42777452  0.81838025  0.42489354  1
  O2-  O173  1  0.42751229  0.82253265  0.75589432  1
  O2-  O174  1  0.92661306  0.31724630  0.08750219  1
  O2-  O175  1  0.93043552  0.31981958  0.43344382  1
  O2-  O176  1  0.93177237  0.31892906  0.75739712  1
  O2-  O177  1  0.93296133  0.82567000  0.09500901  1
  O2-  O178  1  0.93247644  0.82423007  0.43372571  1
  O2-  O179  1  0.93312192  0.82716383  0.75532944  1
  O2-  O180  1  0.31947513  0.06964248  0.23499393  1
  O2-  O181  1  0.31980173  0.07418863  0.56838371  1
  O2-  O182  1  0.32005183  0.06943928  0.90210561  1
  O2-  O183  1  0.32197428  0.57140866  0.24507530  1
  O2-  O184  1  0.31999149  0.56750096  0.57262563  1
  O2-  O185  1  0.32174312  0.56583296  0.90020187  1
  O2-  O186  1  0.81953931  0.07017405  0.23367005  1
  O2-  O187  1  0.81923093  0.07248159  0.56630565  1
  O2-  O188  1  0.81947647  0.07064337  0.90074945  1
  O2-  O189  1  0.82032833  0.57176377  0.23374748  1
  O2-  O190  1  0.82573980  0.57032268  0.56660418  1
  O2-  O191  1  0.81669969  0.57039650  0.90130090  1
  O2-  O192  1  0.05484104  0.08256759  0.27453552  1
  O2-  O193  1  0.04715524  0.08564466  0.60669991  1
  O2-  O194  1  0.04687015  0.08932832  0.93684535  1
  O2-  O195  1  0.05048354  0.57702194  0.27118055  1
  O2-  O196  1  0.04613071  0.58421709  0.60532611  1
  O2-  O197  1  0.04444043  0.57660548  0.93231721  1
  O2-  O198  1  0.54672703  0.07689521  0.26751029  1
  O2-  O199  1  0.55155368  0.08494066  0.60754758  1
  O2-  O200  1  0.54413410  0.08693882  0.93507993  1
  O2-  O201  1  0.54018377  0.58378273  0.26575451  1
  O2-  O202  1  0.53725371  0.58310693  0.59667781  1
  O2-  O203  1  0.53510917  0.57926835  0.93351542  1
  O2-  O204  1  0.16280200  0.21029084  0.27094783  1
  O2-  O205  1  0.16177604  0.21037896  0.60295778  1
  O2-  O206  1  0.16333966  0.21233577  0.93572457  1
  O2-  O207  1  0.17069291  0.70649560  0.26697330  1
  O2-  O208  1  0.16384377  0.70531737  0.60530966  1
  O2-  O209  1  0.17168201  0.70462284  0.93295732  1
  O2-  O210  1  0.66725542  0.20764969  0.26241416  1
  O2-  O211  1  0.66321153  0.21153081  0.60546593  1
  O2-  O212  1  0.66331322  0.20826989  0.93547860  1
  O2-  O213  1  0.66605751  0.71293724  0.26529199  1
  O2-  O214  1  0.66858411  0.71035615  0.59979562  1
  O2-  O215  1  0.66190171  0.71026139  0.92787494  1
  O2-  O216  1  0.07605380  0.44872593  0.06605501  1
  O2-  O217  1  0.08744294  0.45541915  0.40065737  1
  O2-  O218  1  0.08675192  0.45388470  0.72841158  1
  O2-  O219  1  0.08765966  0.96147432  0.06671908  1
  O2-  O220  1  0.08778689  0.95352221  0.39823683  1
  O2-  O221  1  0.08450798  0.95989004  0.73934639  1
  O2-  O222  1  0.57527243  0.44621628  0.06592343  1
  O2-  O223  1  0.58102865  0.45240812  0.39278171  1
  O2-  O224  1  0.57689103  0.45441873  0.73110765  1
  O2-  O225  1  0.58830130  0.96009249  0.06558968  1
  O2-  O226  1  0.58502331  0.94987097  0.40015522  1
  O2-  O227  1  0.58405543  0.94991460  0.73010723  1
  O2-  O228  1  0.21195495  0.33428230  0.07018128  1
  O2-  O229  1  0.20809105  0.33877688  0.40030153  1
  O2-  O230  1  0.20705030  0.33799691  0.72778754  1
  O2-  O231  1  0.19746879  0.83276870  0.06332391  1
  O2-  O232  1  0.20660510  0.83342026  0.39775567  1
  O2-  O233  1  0.20602390  0.82838335  0.73764002  1
  O2-  O234  1  0.70906095  0.33094267  0.06959842  1
  O2-  O235  1  0.70436204  0.33610581  0.39382809  1
  O2-  O236  1  0.70899515  0.33552442  0.73568068  1
  O2-  O237  1  0.69742174  0.83264936  0.05764910  1
  O2-  O238  1  0.70739816  0.83542081  0.39898934  1
  O2-  O239  1  0.70497972  0.83412764  0.73040872  1
  O2-  O240  1  0.45274191  0.41815047  0.26138760  1
  O2-  O241  1  0.45485078  0.40946662  0.60185523  1
  O2-  O242  1  0.45159404  0.40960950  0.93502114  1
  O2-  O243  1  0.45416566  0.91516823  0.27454428  1
  O2-  O244  1  0.45201693  0.91759357  0.60520998  1
  O2-  O245  1  0.46236145  0.91621180  0.93427038  1
  O2-  O246  1  0.96390592  0.41326051  0.26442413  1
  O2-  O247  1  0.95997728  0.41059179  0.60453433  1
  O2-  O248  1  0.95313477  0.41107060  0.93456749  1
  O2-  O249  1  0.96251007  0.92013157  0.26672887  1
  O2-  O250  1  0.96469785  0.91446416  0.60316582  1
  O2-  O251  1  0.96303857  0.92194939  0.93009105  1
  O2-  O252  1  0.32706667  0.29309374  0.26400293  1
  O2-  O253  1  0.33502674  0.29272103  0.60314468  1
  O2-  O254  1  0.33588783  0.28603214  0.93483599  1
  O2-  O255  1  0.33477515  0.79848145  0.27203707  1
  O2-  O256  1  0.33360201  0.79646244  0.60459652  1
  O2-  O257  1  0.33191656  0.81013114  0.94168356  1
  O2-  O258  1  0.83219707  0.29244462  0.26360903  1
  O2-  O259  1  0.83647385  0.29245400  0.60629045  1
  O2-  O260  1  0.83596483  0.28695249  0.93522871  1
  O2-  O261  1  0.83055714  0.80093913  0.26648082  1
  O2-  O262  1  0.83812513  0.80310180  0.60341512  1
  O2-  O263  1  0.82925925  0.80132773  0.92891140  1
  O2-  O264  1  0.42002223  0.04178017  0.06748812  1
  O2-  O265  1  0.41933419  0.04281509  0.40179641  1
  O2-  O266  1  0.42263315  0.04817372  0.73352075  1
  O2-  O267  1  0.41406174  0.53492865  0.06937738  1
  O2-  O268  1  0.41295355  0.53930418  0.39705864  1
  O2-  O269  1  0.41061663  0.53739843  0.72518475  1
  O2-  O270  1  0.92133375  0.04599597  0.06644583  1
  O2-  O271  1  0.91938428  0.04405974  0.39987052  1
  O2-  O272  1  0.91714253  0.04265306  0.73262629  1
  O2-  O273  1  0.91541379  0.54176959  0.06580340  1
  O2-  O274  1  0.91728599  0.53747264  0.39985513  1
  O2-  O275  1  0.91874606  0.53858890  0.73503010  1
  O2-  O276  1  0.28677961  0.16359834  0.06906112  1
  O2-  O277  1  0.28898702  0.16801846  0.40080226  1
  O2-  O278  1  0.28999365  0.16980779  0.73489218  1
  O2-  O279  1  0.30561759  0.67578903  0.06352995  1
  O2-  O280  1  0.29641417  0.66345590  0.39773185  1
  O2-  O281  1  0.29793465  0.66201813  0.72487382  1
  O2-  O282  1  0.78691336  0.16373603  0.06729328  1
  O2-  O283  1  0.78864093  0.16920813  0.39906916  1
  O2-  O284  1  0.78928402  0.16649630  0.73510047  1
  O2-  O285  1  0.79129801  0.67447830  0.06279848  1
  O2-  O286  1  0.79263778  0.67014344  0.39857333  1
  O2-  O287  1  0.80347927  0.67564029  0.72884321  1
