# generated using pymatgen
data_Ca2Al2SiO7
_symmetry_space_group_name_H-M   'P 1'
_cell_length_a   15.45466018
_cell_length_b   15.45466389
_cell_length_c   15.28124858
_cell_angle_alpha   89.99191877
_cell_angle_beta   90.01146431
_cell_angle_gamma   90.00685637
_symmetry_Int_Tables_number   1
_chemical_formula_structural   Ca2Al2SiO7
_chemical_formula_sum   'Ca48 Al48 Si24 O168'
_cell_volume   3649.87380399
_cell_formula_units_Z   24
loop_
 _symmetry_equiv_pos_site_id
 _symmetry_equiv_pos_as_xyz
  1  'x, y, z'
loop_
 _atom_type_symbol
 _atom_type_oxidation_number
  Ca2+  2.0
  Al0+  0.0
  Si0+  0.0
  O2-  -2.0
loop_
 _atom_site_type_symbol
 _atom_site_label
 _atom_site_symmetry_multiplicity
 _atom_site_fract_x
 _atom_site_fract_y
 _atom_site_fract_z
 _atom_site_occupancy
  Ca2+  Ca0  1  0.17138461  0.08680472  0.17258386  1
  Ca2+  Ca1  1  0.15760729  0.07766832  0.50776123  1
  Ca2+  Ca2  1  0.16755508  0.07826181  0.83425040  1
  Ca2+  Ca3  1  0.16711114  0.58180192  0.17698635  1
  Ca2+  Ca4  1  0.17094106  0.58306133  0.50876402  1
  Ca2+  Ca5  1  0.16406130  0.58516320  0.83358896  1
  Ca2+  Ca6  1  0.67316739  0.06983609  0.17493385  1
  Ca2+  Ca7  1  0.67337794  0.08068913  0.50130950  1
  Ca2+  Ca8  1  0.66302632  0.07861402  0.83940580  1
  Ca2+  Ca9  1  0.67855285  0.58244106  0.17904017  1
  Ca2+  Ca10  1  0.66604563  0.57995907  0.50344890  1
  Ca2+  Ca11  1  0.67112222  0.58179284  0.83556033  1
  Ca2+  Ca12  1  0.07908770  0.33334274  0.16453008  1
  Ca2+  Ca13  1  0.09620405  0.32467450  0.49534427  1
  Ca2+  Ca14  1  0.07809188  0.33122529  0.82697406  1
  Ca2+  Ca15  1  0.07571625  0.82024771  0.16638308  1
  Ca2+  Ca16  1  0.08216647  0.82435198  0.49301256  1
  Ca2+  Ca17  1  0.08716536  0.82316906  0.82684536  1
  Ca2+  Ca18  1  0.58601037  0.33525467  0.16702205  1
  Ca2+  Ca19  1  0.58826654  0.33601023  0.49703348  1
  Ca2+  Ca20  1  0.58404202  0.32754940  0.82091295  1
  Ca2+  Ca21  1  0.58544883  0.83228124  0.16460310  1
  Ca2+  Ca22  1  0.58363179  0.82012282  0.49235051  1
  Ca2+  Ca23  1  0.57858609  0.83146151  0.83024372  1
  Ca2+  Ca24  1  0.32515044  0.42563950  0.17906151  1
  Ca2+  Ca25  1  0.32271154  0.42794846  0.50186549  1
  Ca2+  Ca26  1  0.32787147  0.42272772  0.82957100  1
  Ca2+  Ca27  1  0.33716385  0.91959462  0.16470048  1
  Ca2+  Ca28  1  0.32393957  0.91678560  0.50543202  1
  Ca2+  Ca29  1  0.33005353  0.91840734  0.83842800  1
  Ca2+  Ca30  1  0.83379137  0.42544975  0.17152094  1
  Ca2+  Ca31  1  0.82547408  0.42248807  0.49979447  1
  Ca2+  Ca32  1  0.83196295  0.41983103  0.83808610  1
  Ca2+  Ca33  1  0.82626135  0.91577042  0.17752163  1
  Ca2+  Ca34  1  0.83679690  0.91573651  0.49571750  1
  Ca2+  Ca35  1  0.82467132  0.91788953  0.83921139  1
  Ca2+  Ca36  1  0.41608077  0.16789019  0.16022689  1
  Ca2+  Ca37  1  0.42392164  0.16846526  0.49729835  1
  Ca2+  Ca38  1  0.42085972  0.16524159  0.82827612  1
  Ca2+  Ca39  1  0.42211694  0.66933943  0.16557322  1
  Ca2+  Ca40  1  0.42348416  0.65328722  0.49674157  1
  Ca2+  Ca41  1  0.41966327  0.67150838  0.82548195  1
  Ca2+  Ca42  1  0.91711873  0.17135337  0.16719493  1
  Ca2+  Ca43  1  0.92601150  0.16684638  0.49183155  1
  Ca2+  Ca44  1  0.91773978  0.17615300  0.82646132  1
  Ca2+  Ca45  1  0.92259303  0.65766322  0.16454459  1
  Ca2+  Ca46  1  0.92634356  0.66861253  0.48992397  1
  Ca2+  Ca47  1  0.92591336  0.66210889  0.83196721  1
  Al0+  Al48  1  0.00078626  -0.00170830  0.00048213  1
  Al0+  Al49  1  0.00113094  0.00035005  0.32531139  1
  Al0+  Al50  1  -0.00152536  0.00214736  0.67163816  1
  Al0+  Al51  1  -0.00062459  0.49752646  -0.00567307  1
  Al0+  Al52  1  -0.00070025  0.49529350  0.33900466  1
  Al0+  Al53  1  -0.00108688  0.50070888  0.66514191  1
  Al0+  Al54  1  0.49876764  -0.00071099  0.00437693  1
  Al0+  Al55  1  0.50113337  -0.00015024  0.33742968  1
  Al0+  Al56  1  0.50045291  0.00078620  0.66038832  1
  Al0+  Al57  1  0.49865703  0.49896017  -0.00147537  1
  Al0+  Al58  1  0.49816386  0.49938006  0.33263715  1
  Al0+  Al59  1  0.49959626  0.49962468  0.67298436  1
  Al0+  Al60  1  0.25070818  0.24962069  0.00202183  1
  Al0+  Al61  1  0.25295999  0.25049887  0.33173809  1
  Al0+  Al62  1  0.25088421  0.25161300  0.66710957  1
  Al0+  Al63  1  0.25136150  0.75020769  -0.00687090  1
  Al0+  Al64  1  0.25209276  0.75257772  0.33180769  1
  Al0+  Al65  1  0.24951657  0.75244276  0.67126361  1
  Al0+  Al66  1  0.74995944  0.24943492  -0.00434019  1
  Al0+  Al67  1  0.75111391  0.24758988  0.33821424  1
  Al0+  Al68  1  0.74991753  0.25037027  0.66553225  1
  Al0+  Al69  1  0.75129632  0.74853095  0.00692348  1
  Al0+  Al70  1  0.74915488  0.75003655  0.33466763  1
  Al0+  Al71  1  0.74843594  0.75160507  0.66471997  1
  Al0+  Al72  1  0.06969219  0.67959521  0.98536783  1
  Al0+  Al73  1  0.82288822  0.57236900  0.35004984  1
  Al0+  Al74  1  0.67973603  0.92988944  0.01311719  1
  Al0+  Al75  1  0.92907430  0.82000586  0.31803128  1
  Al0+  Al76  1  0.67791964  0.92758356  0.35187498  1
  Al0+  Al77  1  0.56973384  0.67913948  0.65445834  1
  Al0+  Al78  1  0.92967620  0.31861013  0.98609909  1
  Al0+  Al79  1  0.82110702  0.56759818  0.01253094  1
  Al0+  Al80  1  0.07020579  0.18082947  0.65502473  1
  Al0+  Al81  1  0.17725499  0.93057736  0.68034098  1
  Al0+  Al82  1  0.56925918  0.67738314  0.31940213  1
  Al0+  Al83  1  0.17781548  0.42787452  0.34672107  1
  Al0+  Al84  1  0.31839731  0.07003177  0.01306731  1
  Al0+  Al85  1  0.31887897  0.57446505  0.34640528  1
  Al0+  Al86  1  0.07295132  0.17940962  0.31843368  1
  Al0+  Al87  1  0.68048499  0.42940774  0.68170738  1
  Al0+  Al88  1  0.67796355  0.42914460  0.34688962  1
  Al0+  Al89  1  0.07047565  0.68026248  0.65274196  1
  Al0+  Al90  1  0.07219234  0.67559850  0.32014131  1
  Al0+  Al91  1  0.57176896  0.17842516  0.65139582  1
  Al0+  Al92  1  0.17674437  0.42801356  0.68371114  1
  Al0+  Al93  1  0.82339137  0.06956171  0.34835074  1
  Al0+  Al94  1  0.32047096  0.57199250  0.68453387  1
  Al0+  Al95  1  0.43171781  0.82095566  0.98580045  1
  Si0+  Si96  1  0.82324541  0.07401947  0.01520680  1
  Si0+  Si97  1  0.92566726  0.82320353  0.98310279  1
  Si0+  Si98  1  0.18036809  0.93158589  0.34525701  1
  Si0+  Si99  1  0.42752887  0.82283808  0.64920923  1
  Si0+  Si100  1  0.42816530  0.82568329  0.31610781  1
  Si0+  Si101  1  0.32391349  0.07175108  0.68134830  1
  Si0+  Si102  1  0.92550939  0.31986894  0.31741084  1
  Si0+  Si103  1  0.17734993  0.92518450  0.01826391  1
  Si0+  Si104  1  0.18008152  0.42990300  0.01422992  1
  Si0+  Si105  1  0.67791720  0.92940149  0.68172659  1
  Si0+  Si106  1  0.43080012  0.31899165  0.31699470  1
  Si0+  Si107  1  0.57395901  0.67687994  0.98407358  1
  Si0+  Si108  1  0.42668891  0.32236979  0.98425911  1
  Si0+  Si109  1  0.32182748  0.57237716  0.01478838  1
  Si0+  Si110  1  0.92710874  0.32283525  0.64754442  1
  Si0+  Si111  1  0.57234623  0.17758431  0.31726291  1
  Si0+  Si112  1  0.92651165  0.82374552  0.65223671  1
  Si0+  Si113  1  0.32242747  0.07276589  0.34913408  1
  Si0+  Si114  1  0.56834550  0.18042991  0.98721032  1
  Si0+  Si115  1  0.82108946  0.57480020  0.68386270  1
  Si0+  Si116  1  0.82002971  0.07132356  0.68349169  1
  Si0+  Si117  1  0.07468803  0.17686555  0.98301282  1
  Si0+  Si118  1  0.42870142  0.32225676  0.64896338  1
  Si0+  Si119  1  0.67577455  0.42585549  0.01519425  1
  O2-  O120  1  0.24167748  -0.00139832  0.06209944  1
  O2-  O121  1  0.25030267  0.00308957  0.38975178  1
  O2-  O122  1  0.25341436  0.00530819  0.72554504  1
  O2-  O123  1  0.25070336  0.50135333  0.05637694  1
  O2-  O124  1  0.23985342  0.50937407  0.39513586  1
  O2-  O125  1  0.24457371  0.50361632  0.73516007  1
  O2-  O126  1  0.75916686  0.00075079  0.05807926  1
  O2-  O127  1  0.75267868  -0.00241328  0.40073780  1
  O2-  O128  1  0.74745727  0.00135221  0.72524393  1
  O2-  O129  1  0.74221294  0.49639499  0.05826780  1
  O2-  O130  1  0.74685285  0.50302016  0.39798561  1
  O2-  O131  1  0.75390428  0.50457980  0.72894219  1
  O2-  O132  1  -0.00157959  0.25476345  0.27334406  1
  O2-  O133  1  0.00104439  0.25869228  0.60513119  1
  O2-  O134  1  0.00128807  0.24045159  0.93939269  1
  O2-  O135  1  -0.00449460  0.74209065  0.26832531  1
  O2-  O136  1  -0.00515089  0.75484219  0.60856374  1
  O2-  O137  1  -0.00374947  0.75675047  0.93879354  1
  O2-  O138  1  0.50330257  0.24956519  0.27334314  1
  O2-  O139  1  0.49818864  0.25402527  0.60458078  1
  O2-  O140  1  0.50125401  0.25433820  0.94315830  1
  O2-  O141  1  0.49656406  0.75541440  0.27408214  1
  O2-  O142  1  0.49312180  0.75117485  0.60612496  1
  O2-  O143  1  0.50540438  0.74532792  0.93908999  1
  O2-  O144  1  0.07748663  0.18047714  0.08844607  1
  O2-  O145  1  0.07352990  0.17863927  0.43164663  1
  O2-  O146  1  0.06588889  0.17936722  0.76836852  1
  O2-  O147  1  0.07016903  0.67782962  0.09812591  1
  O2-  O148  1  0.07483647  0.68159197  0.43345503  1
  O2-  O149  1  0.06819492  0.68160688  0.76635104  1
  O2-  O150  1  0.56751073  0.18197502  0.09230077  1
  O2-  O151  1  0.56947946  0.17722063  0.42219118  1
  O2-  O152  1  0.56881796  0.17681861  0.76549781  1
  O2-  O153  1  0.57168686  0.67553311  0.08937853  1
  O2-  O154  1  0.56547756  0.67606355  0.43263435  1
  O2-  O155  1  0.57176531  0.68394502  0.76805251  1
  O2-  O156  1  0.18267900  0.42509719  0.23223076  1
  O2-  O157  1  0.18142911  0.42533891  0.57090143  1
  O2-  O158  1  0.18185727  0.42847995  0.90938720  1
  O2-  O159  1  0.18354241  0.93235738  0.24019369  1
  O2-  O160  1  0.17748743  0.93218845  0.56683112  1
  O2-  O161  1  0.17889509  0.92664277  0.91249814  1
  O2-  O162  1  0.67981741  0.42833550  0.23261704  1
  O2-  O163  1  0.68187496  0.42908522  0.56926988  1
  O2-  O164  1  0.67539061  0.42426164  0.90955509  1
  O2-  O165  1  0.67481722  0.93264605  0.23793748  1
  O2-  O166  1  0.67885137  0.92960787  0.57746542  1
  O2-  O167  1  0.67884861  0.93343667  0.89908192  1
  O2-  O168  1  0.42581978  0.32204846  0.08929820  1
  O2-  O169  1  0.42958292  0.31549726  0.42164524  1
  O2-  O170  1  0.42957877  0.31913894  0.75536210  1
  O2-  O171  1  0.43220019  0.82022836  0.09872248  1
  O2-  O172  1  0.42690501  0.83064864  0.42140618  1
  O2-  O173  1  0.43163541  0.82645843  0.75507405  1
  O2-  O174  1  0.93093502  0.31870892  0.09898893  1
  O2-  O175  1  0.92149729  0.31633869  0.42257453  1
  O2-  O176  1  0.92506008  0.31884437  0.75378002  1
  O2-  O177  1  0.92625832  0.82398861  0.08803330  1
  O2-  O178  1  0.93652972  0.82349394  0.43185357  1
  O2-  O179  1  0.92454988  0.82333335  0.75824522  1
  O2-  O180  1  0.32330534  0.07310758  0.24384948  1
  O2-  O181  1  0.32555721  0.06981894  0.57560645  1
  O2-  O182  1  0.31936197  0.07003070  0.90003869  1
  O2-  O183  1  0.32060458  0.57087125  0.23182435  1
  O2-  O184  1  0.32086324  0.56941872  0.57129625  1
  O2-  O185  1  0.32348558  0.57047897  0.91011669  1
  O2-  O186  1  0.81932773  0.07110165  0.23424998  1
  O2-  O187  1  0.82228671  0.07043328  0.57897625  1
  O2-  O188  1  0.81970803  0.07586211  0.90918455  1
  O2-  O189  1  0.82307639  0.56777694  0.23590269  1
  O2-  O190  1  0.81939112  0.57575122  0.57885886  1
  O2-  O191  1  0.81985700  0.56597577  0.89916057  1
  O2-  O192  1  0.04345400  0.08488075  0.26025899  1
  O2-  O193  1  0.03530401  0.08456005  0.60232077  1
  O2-  O194  1  0.05514512  0.07996540  0.94091227  1
  O2-  O195  1  0.04835613  0.57364234  0.27161047  1
  O2-  O196  1  0.04275031  0.58247824  0.60022176  1
  O2-  O197  1  0.03682007  0.58413786  0.93025495  1
  O2-  O198  1  0.54078199  0.08656389  0.27026838  1
  O2-  O199  1  0.54006151  0.08358251  0.59454450  1
  O2-  O200  1  0.53606035  0.09004672  0.93997989  1
  O2-  O201  1  0.53649946  0.58205430  0.26298714  1
  O2-  O202  1  0.54039569  0.58075645  0.60412535  1
  O2-  O203  1  0.54802223  0.58255240  0.93830109  1
  O2-  O204  1  0.17051268  0.20996130  0.26484987  1
  O2-  O205  1  0.16980460  0.20426768  0.60292603  1
  O2-  O206  1  0.16681905  0.20696102  0.93602968  1
  O2-  O207  1  0.16954670  0.70996857  0.26651920  1
  O2-  O208  1  0.16790525  0.71315019  0.60248953  1
  O2-  O209  1  0.16606948  0.70985844  0.93037046  1
  O2-  O210  1  0.66489130  0.20357548  0.27081515  1
  O2-  O211  1  0.66862746  0.20819030  0.59850547  1
  O2-  O212  1  0.66083700  0.20310524  0.93810678  1
  O2-  O213  1  0.66659073  0.70657139  0.26676777  1
  O2-  O214  1  0.66522353  0.71195792  0.59977019  1
  O2-  O215  1  0.66819445  0.70276435  0.93969577  1
  O2-  O216  1  0.08770486  0.45724273  0.05945744  1
  O2-  O217  1  0.07665540  0.43786559  0.39789401  1
  O2-  O218  1  0.07573795  0.45254960  0.73388571  1
  O2-  O219  1  0.08153968  0.94522372  0.06224916  1
  O2-  O220  1  0.08901491  0.96018312  0.39140950  1
  O2-  O221  1  0.08238497  0.96281123  0.73797084  1
  O2-  O222  1  0.58021895  0.44754210  0.05973503  1
  O2-  O223  1  0.57821278  0.45325490  0.39809364  1
  O2-  O224  1  0.58371533  0.45607758  0.73732789  1
  O2-  O225  1  0.58597899  0.96531745  0.06865149  1
  O2-  O226  1  0.58067761  0.95990505  0.40560819  1
  O2-  O227  1  0.58520203  0.95840725  0.72742157  1
  O2-  O228  1  0.20856301  0.33831275  0.06173696  1
  O2-  O229  1  0.21941442  0.33324919  0.39986197  1
  O2-  O230  1  0.20973619  0.33034082  0.73809153  1
  O2-  O231  1  0.20971244  0.83323990  0.06316855  1
  O2-  O232  1  0.20947703  0.84104938  0.39437504  1
  O2-  O233  1  0.20953891  0.83663570  0.73775334  1
  O2-  O234  1  0.70230430  0.33174462  0.05995546  1
  O2-  O235  1  0.70569837  0.33047504  0.39947698  1
  O2-  O236  1  0.71145440  0.33170094  0.73546325  1
  O2-  O237  1  0.70563976  0.83263492  0.06731591  1
  O2-  O238  1  0.70272243  0.82876114  0.40358375  1
  O2-  O239  1  0.70654496  0.83846627  0.73099555  1
  O2-  O240  1  0.45680259  0.41020903  0.26739180  1
  O2-  O241  1  0.45549637  0.41577571  0.60537281  1
  O2-  O242  1  0.45086439  0.41476629  0.93579292  1
  O2-  O243  1  0.45618039  0.91907263  0.26908107  1
  O2-  O244  1  0.45428707  0.91500099  0.60081440  1
  O2-  O245  1  0.46337638  0.91799469  0.93205279  1
  O2-  O246  1  0.94860389  0.41418257  0.27214504  1
  O2-  O247  1  0.94514484  0.41864474  0.60479445  1
  O2-  O248  1  0.96333962  0.41170890  0.92772282  1
  O2-  O249  1  0.96204197  0.91557914  0.26079324  1
  O2-  O250  1  0.95252145  0.91799958  0.60862539  1
  O2-  O251  1  0.94765800  0.91863031  0.93708588  1
  O2-  O252  1  0.34150498  0.28778390  0.26588311  1
  O2-  O253  1  0.33603279  0.29550398  0.60225794  1
  O2-  O254  1  0.33670589  0.29021710  0.93583998  1
  O2-  O255  1  0.33517359  0.80202007  0.26773663  1
  O2-  O256  1  0.33218458  0.80136729  0.60629774  1
  O2-  O257  1  0.33568527  0.79235474  0.92957558  1
  O2-  O258  1  0.83409724  0.28892544  0.26847208  1
  O2-  O259  1  0.83608245  0.29057319  0.60124736  1
  O2-  O260  1  0.83238973  0.29018650  0.92959985  1
  O2-  O261  1  0.82738953  0.80040300  0.26914147  1
  O2-  O262  1  0.83300985  0.80023772  0.60526461  1
  O2-  O263  1  0.83185486  0.79599692  0.93748740  1
  O2-  O264  1  0.41339015  0.03813139  0.06996572  1
  O2-  O265  1  0.41320710  0.04448507  0.39773712  1
  O2-  O266  1  0.41712938  0.04335565  0.72797314  1
  O2-  O267  1  0.41398582  0.54360683  0.06196803  1
  O2-  O268  1  0.41354031  0.53531481  0.39902682  1
  O2-  O269  1  0.41664379  0.53909974  0.74053134  1
  O2-  O270  1  0.91962133  0.05473987  0.05808328  1
  O2-  O271  1  0.92359469  0.04195848  0.39820166  1
  O2-  O272  1  0.90957985  0.04323012  0.73531969  1
  O2-  O273  1  0.91656959  0.53099380  0.06523868  1
  O2-  O274  1  0.91902428  0.54071022  0.40526304  1
  O2-  O275  1  0.91489517  0.54867679  0.72908133  1
  O2-  O276  1  0.29103745  0.16754860  0.06909640  1
  O2-  O277  1  0.29722521  0.16476088  0.39618888  1
  O2-  O278  1  0.30199722  0.16620301  0.72664951  1
  O2-  O279  1  0.29499895  0.66525995  0.05952751  1
  O2-  O280  1  0.30264239  0.67599846  0.39751755  1
  O2-  O281  1  0.29666978  0.67212153  0.73613169  1
  O2-  O282  1  0.79272663  0.16597132  0.06189676  1
  O2-  O283  1  0.79321520  0.16578792  0.40400941  1
  O2-  O284  1  0.79122887  0.16293264  0.73084579  1
  O2-  O285  1  0.79644573  0.66475957  0.06759144  1
  O2-  O286  1  0.79848197  0.67163031  0.40085677  1
  O2-  O287  1  0.79343323  0.66817698  0.73054266  1
