# generated using pymatgen
data_Ca2Al2SiO7
_symmetry_space_group_name_H-M   'P 1'
_cell_length_a   15.45345188
_cell_length_b   15.45340426
_cell_length_c   15.28043933
_cell_angle_alpha   89.99865977
_cell_angle_beta   89.99766406
_cell_angle_gamma   89.99469944
_symmetry_Int_Tables_number   1
_chemical_formula_structural   Ca2Al2SiO7
_chemical_formula_sum   'Ca48 Al48 Si24 O168'
_cell_volume   3649.09784589
_cell_formula_units_Z   24
loop_
 _symmetry_equiv_pos_site_id
 _symmetry_equiv_pos_as_xyz
  1  'x, y, z'
loop_
 _atom_type_symbol
 _atom_type_oxidation_number
  Ca2+  2.0
  Al0+  0.0
  Si0+  0.0
  O2-  -2.0
loop_
 _atom_site_type_symbol
 _atom_site_label
 _atom_site_symmetry_multiplicity
 _atom_site_fract_x
 _atom_site_fract_y
 _atom_site_fract_z
 _atom_site_occupancy
  Ca2+  Ca0  1  0.17175729  0.07702286  0.17429051  1
  Ca2+  Ca1  1  0.16599380  0.08175183  0.50106451  1
  Ca2+  Ca2  1  0.16115721  0.08599932  0.83706679  1
  Ca2+  Ca3  1  0.17943256  0.59788816  0.16801952  1
  Ca2+  Ca4  1  0.17547497  0.57950664  0.50674976  1
  Ca2+  Ca5  1  0.16627074  0.57747602  0.84122051  1
  Ca2+  Ca6  1  0.67102687  0.07413960  0.17611526  1
  Ca2+  Ca7  1  0.66833816  0.07709038  0.50350938  1
  Ca2+  Ca8  1  0.68391542  0.08520729  0.83836685  1
  Ca2+  Ca9  1  0.66001893  0.58081001  0.17405471  1
  Ca2+  Ca10  1  0.66552770  0.57722508  0.50796021  1
  Ca2+  Ca11  1  0.66502426  0.58514370  0.82913421  1
  Ca2+  Ca12  1  0.08346442  0.32482501  0.16133541  1
  Ca2+  Ca13  1  0.08086726  0.33417707  0.50376961  1
  Ca2+  Ca14  1  0.08085904  0.32341000  0.82119224  1
  Ca2+  Ca15  1  0.07621128  0.83544651  0.16104780  1
  Ca2+  Ca16  1  0.07097942  0.83877498  0.49511364  1
  Ca2+  Ca17  1  0.07412764  0.82640269  0.83224668  1
  Ca2+  Ca18  1  0.58712305  0.32863580  0.16963714  1
  Ca2+  Ca19  1  0.58440015  0.33385529  0.49506034  1
  Ca2+  Ca20  1  0.57673404  0.33842628  0.82460730  1
  Ca2+  Ca21  1  0.58060736  0.82371688  0.16146360  1
  Ca2+  Ca22  1  0.59062194  0.82056106  0.49259878  1
  Ca2+  Ca23  1  0.58034000  0.82252192  0.83101904  1
  Ca2+  Ca24  1  0.33262443  0.43059528  0.17102548  1
  Ca2+  Ca25  1  0.33212787  0.41908332  0.50578122  1
  Ca2+  Ca26  1  0.32954512  0.41887402  0.83458976  1
  Ca2+  Ca27  1  0.32748965  0.91598773  0.17685759  1
  Ca2+  Ca28  1  0.32873091  0.92198349  0.49924306  1
  Ca2+  Ca29  1  0.33278802  0.91499582  0.83986328  1
  Ca2+  Ca30  1  0.82636704  0.42193906  0.17411956  1
  Ca2+  Ca31  1  0.82319069  0.42119081  0.51255266  1
  Ca2+  Ca32  1  0.83240384  0.41830388  0.83096112  1
  Ca2+  Ca33  1  0.83541807  0.91759967  0.17066442  1
  Ca2+  Ca34  1  0.83119489  0.91530273  0.50516951  1
  Ca2+  Ca35  1  0.84436560  0.92389807  0.83515848  1
  Ca2+  Ca36  1  0.42355834  0.15859168  0.16823212  1
  Ca2+  Ca37  1  0.41953511  0.17387984  0.49298709  1
  Ca2+  Ca38  1  0.42011953  0.17498086  0.82396212  1
  Ca2+  Ca39  1  0.42254800  0.66638848  0.15906874  1
  Ca2+  Ca40  1  0.42805308  0.65993593  0.49484858  1
  Ca2+  Ca41  1  0.42360956  0.66399085  0.83446101  1
  Ca2+  Ca42  1  0.92176339  0.16533671  0.15843929  1
  Ca2+  Ca43  1  0.91466866  0.16872876  0.50380218  1
  Ca2+  Ca44  1  0.92404322  0.16554249  0.82457491  1
  Ca2+  Ca45  1  0.92114020  0.68182925  0.15922981  1
  Ca2+  Ca46  1  0.90891577  0.67583414  0.49728135  1
  Ca2+  Ca47  1  0.91153412  0.67603346  0.82664016  1
  Al0+  Al48  1  0.00111228  0.00204654  -0.00178068  1
  Al0+  Al49  1  0.00026678  0.00182526  0.33225047  1
  Al0+  Al50  1  0.00104313  -0.00179448  0.66227074  1
  Al0+  Al51  1  -0.00221640  0.49797498  0.00208517  1
  Al0+  Al52  1  0.00101118  0.50082756  0.33025795  1
  Al0+  Al53  1  0.00103812  0.49947982  0.67133760  1
  Al0+  Al54  1  0.50191949  0.00019190  -0.00501807  1
  Al0+  Al55  1  0.50128585  0.00065710  0.33868177  1
  Al0+  Al56  1  0.49840823  -0.00114904  0.66874121  1
  Al0+  Al57  1  0.49865331  0.49866220  0.00138854  1
  Al0+  Al58  1  0.49917382  0.49855714  0.33616206  1
  Al0+  Al59  1  0.49935830  0.50007935  0.66281826  1
  Al0+  Al60  1  0.25036002  0.24995360  -0.00109521  1
  Al0+  Al61  1  0.24988294  0.25181915  0.33403560  1
  Al0+  Al62  1  0.25165673  0.25019493  0.66187309  1
  Al0+  Al63  1  0.24958168  0.75028874  -0.00352689  1
  Al0+  Al64  1  0.24970957  0.75029893  0.34692267  1
  Al0+  Al65  1  0.25061479  0.75213921  0.66781710  1
  Al0+  Al66  1  0.75063880  0.24941080  0.00628225  1
  Al0+  Al67  1  0.74922915  0.25100367  0.33159134  1
  Al0+  Al68  1  0.75040262  0.24828406  0.67241097  1
  Al0+  Al69  1  0.74867757  0.75002835  -0.00736213  1
  Al0+  Al70  1  0.75095522  0.75105473  0.32549209  1
  Al0+  Al71  1  0.74789643  0.74927702  0.66292917  1
  Al0+  Al72  1  0.07123684  0.17829116  0.64849444  1
  Al0+  Al73  1  0.17675455  0.92949012  0.34952956  1
  Al0+  Al74  1  0.68079718  0.42945923  0.34691778  1
  Al0+  Al75  1  0.68055874  0.92744891  0.34540500  1
  Al0+  Al76  1  0.92748464  0.32240300  0.65226940  1
  Al0+  Al77  1  0.43071454  0.32023343  0.65246676  1
  Al0+  Al78  1  0.92921580  0.82146899  0.98341882  1
  Al0+  Al79  1  0.57038084  0.67557080  0.98380045  1
  Al0+  Al80  1  0.82216780  0.06950220  0.01555346  1
  Al0+  Al81  1  0.56924435  0.67805705  0.31926996  1
  Al0+  Al82  1  0.82065549  0.06808849  0.67946635  1
  Al0+  Al83  1  0.67756325  0.42840777  0.68271063  1
  Al0+  Al84  1  0.42805795  0.82285005  0.98694824  1
  Al0+  Al85  1  0.32238211  0.07255758  0.34865197  1
  Al0+  Al86  1  0.07180676  0.67717170  0.98601954  1
  Al0+  Al87  1  0.56760029  0.68157552  0.65074392  1
  Al0+  Al88  1  0.82082418  0.57277268  0.68141991  1
  Al0+  Al89  1  0.32073371  0.57078929  0.34832907  1
  Al0+  Al90  1  0.93058126  0.81851694  0.65148520  1
  Al0+  Al91  1  0.57130682  0.17827544  0.32023440  1
  Al0+  Al92  1  0.31880653  0.57000644  0.01269828  1
  Al0+  Al93  1  0.18017306  0.42870155  0.68057662  1
  Al0+  Al94  1  0.93021290  0.82165401  0.31828851  1
  Al0+  Al95  1  0.07090950  0.18165079  0.98761778  1
  Si0+  Si96  1  0.82326917  0.57244199  0.34679247  1
  Si0+  Si97  1  0.67832020  0.42967675  0.01683101  1
  Si0+  Si98  1  0.67706360  0.92790348  0.01579895  1
  Si0+  Si99  1  0.18109813  0.93086376  0.01284120  1
  Si0+  Si100  1  0.57301993  0.17848840  0.98521195  1
  Si0+  Si101  1  0.32090058  0.07106281  0.68297179  1
  Si0+  Si102  1  0.07424846  0.67714102  0.31901921  1
  Si0+  Si103  1  0.42659194  0.32141929  0.31399917  1
  Si0+  Si104  1  0.67598926  0.92628465  0.68460352  1
  Si0+  Si105  1  0.57307894  0.17607784  0.65189635  1
  Si0+  Si106  1  0.07125232  0.18089319  0.31721956  1
  Si0+  Si107  1  0.82223936  0.07291095  0.34976401  1
  Si0+  Si108  1  0.92817749  0.32251090  0.31785368  1
  Si0+  Si109  1  0.82117285  0.57334265  0.01603855  1
  Si0+  Si110  1  0.07471019  0.67640851  0.65022598  1
  Si0+  Si111  1  0.42527921  0.82506280  0.64684201  1
  Si0+  Si112  1  0.43072341  0.31926125  0.98663262  1
  Si0+  Si113  1  0.17653544  0.42580582  0.01740153  1
  Si0+  Si114  1  0.92496331  0.32197350  0.98448813  1
  Si0+  Si115  1  0.17900575  0.92990089  0.68436397  1
  Si0+  Si116  1  0.32192129  0.57282658  0.68475878  1
  Si0+  Si117  1  0.32379686  0.07336467  0.01309485  1
  Si0+  Si118  1  0.42671261  0.82186186  0.32076548  1
  Si0+  Si119  1  0.17595456  0.42713426  0.34960756  1
  O2-  O120  1  0.25600396  -0.00102347  0.05433481  1
  O2-  O121  1  0.24939448  0.00177289  0.39892856  1
  O2-  O122  1  0.25092230  0.00015335  0.72711353  1
  O2-  O123  1  0.23957897  0.49991132  0.06140726  1
  O2-  O124  1  0.24367106  0.49711437  0.39236168  1
  O2-  O125  1  0.25024513  0.50719048  0.72878503  1
  O2-  O126  1  0.74815433  -0.00620045  0.06117960  1
  O2-  O127  1  0.75484749  0.00259141  0.39263420  1
  O2-  O128  1  0.74471508  -0.00478128  0.72837072  1
  O2-  O129  1  0.74854655  0.50271970  0.05777686  1
  O2-  O130  1  0.75508058  0.50437445  0.39203745  1
  O2-  O131  1  0.75134523  0.49839450  0.73315629  1
  O2-  O132  1  -0.00015807  0.25189267  0.27537330  1
  O2-  O133  1  -0.00096064  0.25102503  0.59959367  1
  O2-  O134  1  -0.00287507  0.25676842  0.94151949  1
  O2-  O135  1  0.00685660  0.74706577  0.27462403  1
  O2-  O136  1  0.00310402  0.74128762  0.60478273  1
  O2-  O137  1  -0.00411307  0.74372271  0.93446861  1
  O2-  O138  1  0.49431746  0.25052983  0.27103573  1
  O2-  O139  1  0.50735554  0.24696282  0.60710476  1
  O2-  O140  1  0.50114037  0.24827698  0.94322945  1
  O2-  O141  1  0.49351473  0.75286502  0.27417374  1
  O2-  O142  1  0.49376172  0.75677599  0.60308908  1
  O2-  O143  1  0.49895854  0.74999285  0.93664420  1
  O2-  O144  1  0.07166770  0.18207868  0.10132356  1
  O2-  O145  1  0.07144404  0.18123649  0.42169248  1
  O2-  O146  1  0.07125212  0.17848015  0.76240310  1
  O2-  O147  1  0.07278339  0.68356950  0.09993059  1
  O2-  O148  1  0.07142557  0.67328846  0.42436551  1
  O2-  O149  1  0.07740595  0.68057278  0.75566811  1
  O2-  O150  1  0.57191106  0.17798727  0.09032188  1
  O2-  O151  1  0.57225565  0.18102747  0.43301287  1
  O2-  O152  1  0.56888253  0.17521091  0.75812260  1
  O2-  O153  1  0.56825039  0.67455078  0.09763984  1
  O2-  O154  1  0.56969784  0.67781678  0.43204273  1
  O2-  O155  1  0.56506143  0.68183858  0.76377564  1
  O2-  O156  1  0.17634901  0.42396292  0.24384140  1
  O2-  O157  1  0.18348869  0.43024640  0.56719441  1
  O2-  O158  1  0.18064555  0.42188680  0.91226779  1
  O2-  O159  1  0.17728167  0.93087731  0.23511493  1
  O2-  O160  1  0.18007111  0.93042407  0.57951005  1
  O2-  O161  1  0.18101968  0.93331939  0.90759651  1
  O2-  O162  1  0.68265741  0.42921990  0.23297729  1
  O2-  O163  1  0.67736206  0.43009098  0.56917461  1
  O2-  O164  1  0.67730587  0.42655908  0.91230526  1
  O2-  O165  1  0.68092995  0.92832671  0.23207558  1
  O2-  O166  1  0.67588751  0.92751270  0.57873474  1
  O2-  O167  1  0.67440928  0.93274757  0.91040009  1
  O2-  O168  1  0.43114808  0.31891938  0.09160156  1
  O2-  O169  1  0.42630508  0.32116184  0.41940048  1
  O2-  O170  1  0.43041062  0.31791032  0.76656639  1
  O2-  O171  1  0.42811105  0.82455482  0.10070131  1
  O2-  O172  1  0.42856894  0.82049326  0.42628346  1
  O2-  O173  1  0.42483932  0.82637294  0.75252587  1
  O2-  O174  1  0.92449256  0.32031404  0.09084718  1
  O2-  O175  1  0.92770368  0.32353081  0.42224746  1
  O2-  O176  1  0.92923212  0.31929696  0.76609442  1
  O2-  O177  1  0.93183746  0.82273006  0.09722516  1
  O2-  O178  1  0.92940986  0.82060581  0.43129942  1
  O2-  O179  1  0.93397345  0.82053928  0.76428753  1
  O2-  O180  1  0.32006550  0.07094776  0.23405652  1
  O2-  O181  1  0.32221569  0.06942685  0.57834464  1
  O2-  O182  1  0.32271506  0.07625975  0.90797045  1
  O2-  O183  1  0.32005433  0.57097969  0.23474584  1
  O2-  O184  1  0.32102246  0.57135780  0.57896870  1
  O2-  O185  1  0.32062288  0.56405919  0.90002263  1
  O2-  O186  1  0.82218281  0.07287639  0.24373306  1
  O2-  O187  1  0.81856958  0.06661487  0.56622437  1
  O2-  O188  1  0.82195238  0.07117624  0.90264601  1
  O2-  O189  1  0.82387404  0.56905776  0.24064613  1
  O2-  O190  1  0.81733380  0.57397204  0.56743902  1
  O2-  O191  1  0.82286272  0.57165124  0.91148938  1
  O2-  O192  1  0.04345899  0.08963195  0.26877595  1
  O2-  O193  1  0.04224963  0.08052106  0.59564685  1
  O2-  O194  1  0.04062479  0.08619630  0.93263753  1
  O2-  O195  1  0.05136079  0.58389561  0.26954383  1
  O2-  O196  1  0.05524189  0.58068902  0.60744791  1
  O2-  O197  1  0.04985810  0.57459608  0.93916801  1
  O2-  O198  1  0.54089217  0.08111827  0.26561098  1
  O2-  O199  1  0.54435265  0.08272001  0.60661869  1
  O2-  O200  1  0.54750792  0.08789707  0.93515970  1
  O2-  O201  1  0.53749172  0.58072764  0.26674568  1
  O2-  O202  1  0.53612645  0.58527933  0.59703578  1
  O2-  O203  1  0.53840865  0.57775479  0.93148235  1
  O2-  O204  1  0.16309370  0.20948645  0.26918123  1
  O2-  O205  1  0.16959397  0.20697611  0.59643779  1
  O2-  O206  1  0.16819872  0.21016541  0.93291376  1
  O2-  O207  1  0.16934204  0.70460548  0.27715127  1
  O2-  O208  1  0.16781377  0.70595555  0.60399285  1
  O2-  O209  1  0.16797793  0.70724325  0.93045403  1
  O2-  O210  1  0.66650505  0.21163298  0.26307480  1
  O2-  O211  1  0.66792805  0.19704561  0.60839687  1
  O2-  O212  1  0.66504499  0.20870556  0.94011418  1
  O2-  O213  1  0.66527617  0.70800943  0.26361098  1
  O2-  O214  1  0.66377606  0.71141514  0.59587457  1
  O2-  O215  1  0.66815260  0.70215826  0.92983570  1
  O2-  O216  1  0.07994276  0.44213139  0.06169518  1
  O2-  O217  1  0.08150715  0.45159358  0.39464327  1
  O2-  O218  1  0.08322598  0.45316055  0.73657198  1
  O2-  O219  1  0.09153241  0.96352603  0.06153840  1
  O2-  O220  1  0.07970430  0.96284523  0.40250717  1
  O2-  O221  1  0.08791809  0.95907340  0.73143503  1
  O2-  O222  1  0.58637715  0.45581426  0.06501528  1
  O2-  O223  1  0.58323863  0.45616219  0.39920066  1
  O2-  O224  1  0.57897881  0.46051570  0.73450740  1
  O2-  O225  1  0.58433788  0.95746296  0.06271907  1
  O2-  O226  1  0.58531877  0.95688002  0.40200132  1
  O2-  O227  1  0.58152245  0.95063314  0.73048569  1
  O2-  O228  1  0.21002733  0.33472909  0.06597261  1
  O2-  O229  1  0.20239378  0.33475641  0.39695811  1
  O2-  O230  1  0.21584883  0.33237821  0.73332245  1
  O2-  O231  1  0.20531421  0.83837814  0.06012294  1
  O2-  O232  1  0.20173003  0.83288844  0.40724647  1
  O2-  O233  1  0.20667711  0.83777004  0.73208010  1
  O2-  O234  1  0.70782791  0.33861448  0.06624858  1
  O2-  O235  1  0.71152018  0.33273606  0.39997047  1
  O2-  O236  1  0.70128930  0.32898054  0.73631781  1
  O2-  O237  1  0.69885647  0.83167392  0.05805382  1
  O2-  O238  1  0.71371868  0.83102865  0.39845491  1
  O2-  O239  1  0.70191069  0.83297583  0.72928977  1
  O2-  O240  1  0.45654726  0.41361368  0.26770877  1
  O2-  O241  1  0.45788403  0.41653002  0.59731889  1
  O2-  O242  1  0.45975013  0.40961733  0.93805024  1
  O2-  O243  1  0.45080241  0.91641373  0.27637986  1
  O2-  O244  1  0.44972706  0.91974496  0.60235428  1
  O2-  O245  1  0.45597661  0.92080096  0.93026074  1
  O2-  O246  1  0.95565897  0.41402463  0.26794930  1
  O2-  O247  1  0.95566617  0.42173461  0.60055693  1
  O2-  O248  1  0.94507198  0.41719841  0.94080369  1
  O2-  O249  1  0.96050275  0.91938607  0.26508008  1
  O2-  O250  1  0.96453151  0.91298151  0.59605380  1
  O2-  O251  1  0.96473886  0.91793389  0.93164039  1
  O2-  O252  1  0.33209597  0.29874853  0.26761794  1
  O2-  O253  1  0.33699737  0.28675796  0.59574223  1
  O2-  O254  1  0.33916198  0.29169202  0.93860492  1
  O2-  O255  1  0.33068599  0.79754200  0.27873081  1
  O2-  O256  1  0.33073752  0.80066340  0.60216618  1
  O2-  O257  1  0.33059927  0.79607376  0.93177744  1
  O2-  O258  1  0.83762599  0.29379148  0.26824107  1
  O2-  O259  1  0.82826568  0.29195460  0.60129035  1
  O2-  O260  1  0.83189613  0.29372187  0.93940175  1
  O2-  O261  1  0.83615337  0.78992626  0.25998675  1
  O2-  O262  1  0.83258729  0.79114623  0.59875257  1
  O2-  O263  1  0.82949283  0.79928024  0.93128706  1
  O2-  O264  1  0.41772808  0.04888581  0.05827893  1
  O2-  O265  1  0.41981674  0.04639132  0.40373037  1
  O2-  O266  1  0.41297603  0.04439475  0.73218524  1
  O2-  O267  1  0.41356383  0.53400002  0.06839403  1
  O2-  O268  1  0.41474933  0.53505321  0.40326227  1
  O2-  O269  1  0.41384915  0.54203070  0.72976036  1
  O2-  O270  1  0.91962881  0.04010252  0.06931545  1
  O2-  O271  1  0.91655571  0.05027214  0.39419500  1
  O2-  O272  1  0.91806046  0.03522188  0.73162591  1
  O2-  O273  1  0.91218301  0.54454141  0.06622894  1
  O2-  O274  1  0.91762217  0.54808995  0.39181352  1
  O2-  O275  1  0.92060293  0.54971382  0.73420371  1
  O2-  O276  1  0.29371168  0.16359389  0.06263069  1
  O2-  O277  1  0.29380005  0.17191323  0.39941379  1
  O2-  O278  1  0.29349876  0.16316947  0.72959245  1
  O2-  O279  1  0.29112007  0.66854506  0.06570053  1
  O2-  O280  1  0.29368409  0.66525409  0.40766652  1
  O2-  O281  1  0.30065313  0.66874971  0.72835003  1
  O2-  O282  1  0.79086175  0.16590326  0.07116842  1
  O2-  O283  1  0.79449615  0.16611926  0.39448591  1
  O2-  O284  1  0.79238756  0.16374152  0.73703962  1
  O2-  O285  1  0.79439821  0.66664524  0.06135135  1
  O2-  O286  1  0.79784018  0.66680985  0.38932050  1
  O2-  O287  1  0.78684075  0.66990824  0.73461650  1
