# generated using pymatgen
data_Ca2Al2SiO7
_symmetry_space_group_name_H-M   'P 1'
_cell_length_a   15.46270428
_cell_length_b   15.46285482
_cell_length_c   15.28793077
_cell_angle_alpha   90.00146357
_cell_angle_beta   89.99717168
_cell_angle_gamma   90.00053215
_symmetry_Int_Tables_number   1
_chemical_formula_structural   Ca2Al2SiO7
_chemical_formula_sum   'Ca48 Al48 Si24 O168'
_cell_volume   3655.30680637
_cell_formula_units_Z   24
loop_
 _symmetry_equiv_pos_site_id
 _symmetry_equiv_pos_as_xyz
  1  'x, y, z'
loop_
 _atom_type_symbol
 _atom_type_oxidation_number
  Ca2+  2.0
  Al0+  0.0
  Si0+  0.0
  O2-  -2.0
loop_
 _atom_site_type_symbol
 _atom_site_label
 _atom_site_symmetry_multiplicity
 _atom_site_fract_x
 _atom_site_fract_y
 _atom_site_fract_z
 _atom_site_occupancy
  Ca2+  Ca0  1  0.16966722  0.08246119  0.16906896  1
  Ca2+  Ca1  1  0.16524699  0.07388621  0.50795394  1
  Ca2+  Ca2  1  0.16175261  0.07189437  0.83602626  1
  Ca2+  Ca3  1  0.17907570  0.57775598  0.16476809  1
  Ca2+  Ca4  1  0.17355690  0.58409074  0.50871855  1
  Ca2+  Ca5  1  0.17307104  0.57728122  0.83316933  1
  Ca2+  Ca6  1  0.65798031  0.07886696  0.17283697  1
  Ca2+  Ca7  1  0.66732112  0.08331712  0.50479835  1
  Ca2+  Ca8  1  0.66504004  0.08951522  0.83306842  1
  Ca2+  Ca9  1  0.66798705  0.57189356  0.17147596  1
  Ca2+  Ca10  1  0.67536882  0.57703323  0.49832371  1
  Ca2+  Ca11  1  0.67404485  0.57836625  0.84737749  1
  Ca2+  Ca12  1  0.07310398  0.34597227  0.16234340  1
  Ca2+  Ca13  1  0.07233696  0.34303603  0.49867474  1
  Ca2+  Ca14  1  0.07325002  0.35035103  0.82998961  1
  Ca2+  Ca15  1  0.07423011  0.82955203  0.16515038  1
  Ca2+  Ca16  1  0.08033827  0.82880860  0.49852971  1
  Ca2+  Ca17  1  0.08521726  0.82455831  0.82353760  1
  Ca2+  Ca18  1  0.58975666  0.32683507  0.15877491  1
  Ca2+  Ca19  1  0.58933774  0.32291556  0.49432642  1
  Ca2+  Ca20  1  0.58296034  0.33101723  0.83357166  1
  Ca2+  Ca21  1  0.58108472  0.82522571  0.15789589  1
  Ca2+  Ca22  1  0.57988649  0.83379739  0.49650400  1
  Ca2+  Ca23  1  0.57333452  0.82143420  0.83282578  1
  Ca2+  Ca24  1  0.34183698  0.42570211  0.16934084  1
  Ca2+  Ca25  1  0.32723589  0.43017111  0.51034948  1
  Ca2+  Ca26  1  0.32499049  0.42250933  0.84616749  1
  Ca2+  Ca27  1  0.33828134  0.91621931  0.16751009  1
  Ca2+  Ca28  1  0.32929961  0.91598076  0.51116630  1
  Ca2+  Ca29  1  0.33538146  0.91073112  0.83362410  1
  Ca2+  Ca30  1  0.82733151  0.42133393  0.16828217  1
  Ca2+  Ca31  1  0.83121086  0.40800523  0.50000427  1
  Ca2+  Ca32  1  0.83146659  0.41770978  0.84272618  1
  Ca2+  Ca33  1  0.82382165  0.91794851  0.17811662  1
  Ca2+  Ca34  1  0.82943559  0.92100941  0.50362957  1
  Ca2+  Ca35  1  0.83607999  0.92975273  0.83675012  1
  Ca2+  Ca36  1  0.42822326  0.17641381  0.15787562  1
  Ca2+  Ca37  1  0.42844319  0.16619458  0.49538413  1
  Ca2+  Ca38  1  0.42726454  0.17353820  0.83212578  1
  Ca2+  Ca39  1  0.42117921  0.66632446  0.15653823  1
  Ca2+  Ca40  1  0.40793424  0.66969739  0.49955132  1
  Ca2+  Ca41  1  0.40726937  0.67055234  0.83137117  1
  Ca2+  Ca42  1  0.91611761  0.18207881  0.16248252  1
  Ca2+  Ca43  1  0.91368712  0.17450686  0.49884862  1
  Ca2+  Ca44  1  0.91453745  0.17957426  0.82689386  1
  Ca2+  Ca45  1  0.90504016  0.66754235  0.16357028  1
  Ca2+  Ca46  1  0.92346579  0.66663271  0.49175617  1
  Ca2+  Ca47  1  0.92421230  0.66027570  0.82737669  1
  Al0+  Al48  1  -0.00051263  0.00052478  0.00359207  1
  Al0+  Al49  1  0.00024723  -0.00125068  0.32886352  1
  Al0+  Al50  1  -0.00144640  0.00194293  0.67501621  1
  Al0+  Al51  1  0.00109994  0.50307542  0.00438885  1
  Al0+  Al52  1  0.00287100  0.50175039  0.32907725  1
  Al0+  Al53  1  0.00024586  0.50210036  0.65864048  1
  Al0+  Al54  1  0.49891372  -0.00064761  -0.00758935  1
  Al0+  Al55  1  0.49966092  -0.00032854  0.33426583  1
  Al0+  Al56  1  0.50004166  -0.00139874  0.66041749  1
  Al0+  Al57  1  0.50198804  0.49793730  0.00033120  1
  Al0+  Al58  1  0.50051813  0.50067552  0.34561006  1
  Al0+  Al59  1  0.50211852  0.50160216  0.66922508  1
  Al0+  Al60  1  0.24781429  0.24562085  0.00120600  1
  Al0+  Al61  1  0.25115733  0.24938393  0.33477055  1
  Al0+  Al62  1  0.24843121  0.24953661  0.66971814  1
  Al0+  Al63  1  0.24642447  0.74970126  0.00258094  1
  Al0+  Al64  1  0.24825275  0.75092230  0.33409744  1
  Al0+  Al65  1  0.24855220  0.75077944  0.66542598  1
  Al0+  Al66  1  0.75443844  0.24968276  -0.00411051  1
  Al0+  Al67  1  0.75185007  0.24839052  0.32712456  1
  Al0+  Al68  1  0.75047143  0.24880069  0.66324367  1
  Al0+  Al69  1  0.74896146  0.75521213  -0.00432138  1
  Al0+  Al70  1  0.74860788  0.75025861  0.33883631  1
  Al0+  Al71  1  0.74772675  0.75096176  0.66762898  1
  Al0+  Al72  1  0.32128400  0.57134462  0.68300387  1
  Al0+  Al73  1  0.17695903  0.42826071  0.68033258  1
  Al0+  Al74  1  0.82233233  0.57149102  0.34867344  1
  Al0+  Al75  1  0.67968354  0.42692545  0.01296043  1
  Al0+  Al76  1  0.57260133  0.17898200  0.98386631  1
  Al0+  Al77  1  0.93131200  0.32035814  0.65228756  1
  Al0+  Al78  1  0.93418830  0.32186244  0.98579021  1
  Al0+  Al79  1  0.82137909  0.57444855  0.01273364  1
  Al0+  Al80  1  0.42671808  0.81828996  0.98555227  1
  Al0+  Al81  1  0.17869127  0.42595336  0.01601425  1
  Al0+  Al82  1  0.93113128  0.32150671  0.31707577  1
  Al0+  Al83  1  0.32183006  0.57033747  0.01500797  1
  Al0+  Al84  1  0.17966469  0.93070821  0.68029824  1
  Al0+  Al85  1  0.57029719  0.17900951  0.31910518  1
  Al0+  Al86  1  0.92774634  0.81982844  0.32050754  1
  Al0+  Al87  1  0.57293679  0.67648902  0.98731382  1
  Al0+  Al88  1  0.68108870  0.42565513  0.34982657  1
  Al0+  Al89  1  0.43090972  0.81656922  0.65184523  1
  Al0+  Al90  1  0.67723009  0.92890054  0.34712604  1
  Al0+  Al91  1  0.42647750  0.32225244  0.98658784  1
  Al0+  Al92  1  0.56844215  0.18192499  0.65117766  1
  Al0+  Al93  1  0.81860533  0.07078086  0.68039048  1
  Al0+  Al94  1  0.06878647  0.68140014  0.65221866  1
  Al0+  Al95  1  0.32113767  0.57206383  0.34848230  1
  Si0+  Si96  1  0.67808059  0.93288594  0.01339539  1
  Si0+  Si97  1  0.07165365  0.17388398  0.98255233  1
  Si0+  Si98  1  0.42820209  0.32295300  0.32037652  1
  Si0+  Si99  1  0.17723134  0.92835659  0.01792534  1
  Si0+  Si100  1  0.57007653  0.67848977  0.32115161  1
  Si0+  Si101  1  0.32136885  0.07059766  0.34803399  1
  Si0+  Si102  1  0.07239800  0.17428132  0.65119327  1
  Si0+  Si103  1  0.17931088  0.42678601  0.35004153  1
  Si0+  Si104  1  0.42521796  0.32492637  0.65067626  1
  Si0+  Si105  1  0.92633201  0.82534358  0.65215026  1
  Si0+  Si106  1  0.82091398  0.57198042  0.67920675  1
  Si0+  Si107  1  0.82266974  0.07079215  0.01747677  1
  Si0+  Si108  1  0.67537875  0.92751861  0.68573338  1
  Si0+  Si109  1  0.32187456  0.06859655  0.01495805  1
  Si0+  Si110  1  0.17847859  0.93070083  0.34798209  1
  Si0+  Si111  1  0.42757091  0.82027043  0.31930543  1
  Si0+  Si112  1  0.07453772  0.17640125  0.31676537  1
  Si0+  Si113  1  0.57627282  0.67510217  0.64689202  1
  Si0+  Si114  1  0.07341509  0.67951369  0.31305986  1
  Si0+  Si115  1  0.92722794  0.82449060  0.98433337  1
  Si0+  Si116  1  0.82311148  0.07030667  0.34851805  1
  Si0+  Si117  1  0.06808613  0.68208318  0.98525689  1
  Si0+  Si118  1  0.32465684  0.07199233  0.68347612  1
  Si0+  Si119  1  0.68165278  0.42757432  0.68100994  1
  O2-  O120  1  0.25007280  -0.00195309  0.05879227  1
  O2-  O121  1  0.24837952  0.00204259  0.39073060  1
  O2-  O122  1  0.25219924  0.00711996  0.72802087  1
  O2-  O123  1  0.25778186  0.49081473  0.06567979  1
  O2-  O124  1  0.24781170  0.49541138  0.39376067  1
  O2-  O125  1  0.25647043  0.49160235  0.73043318  1
  O2-  O126  1  0.74819843  0.00323546  0.05861738  1
  O2-  O127  1  0.75336286  0.00278082  0.39282780  1
  O2-  O128  1  0.74615530  -0.00553974  0.72917195  1
  O2-  O129  1  0.74696108  0.50449995  0.06162114  1
  O2-  O130  1  0.75646644  0.49464801  0.40048371  1
  O2-  O131  1  0.74778979  0.50392128  0.72147949  1
  O2-  O132  1  0.00920349  0.24786705  0.27264306  1
  O2-  O133  1  0.00960635  0.24780592  0.60668634  1
  O2-  O134  1  0.01107706  0.24911456  0.93856522  1
  O2-  O135  1  -0.00196115  0.74234167  0.27033346  1
  O2-  O136  1  -0.00801527  0.75508488  0.60678505  1
  O2-  O137  1  -0.00590309  0.75035646  0.94251928  1
  O2-  O138  1  0.49903450  0.25745822  0.27462469  1
  O2-  O139  1  0.49204501  0.25509892  0.60439892  1
  O2-  O140  1  0.50264056  0.25428680  0.93612330  1
  O2-  O141  1  0.49706324  0.74803945  0.27841019  1
  O2-  O142  1  0.50446628  0.74168897  0.60354773  1
  O2-  O143  1  0.49359787  0.74088834  0.93692533  1
  O2-  O144  1  0.06661853  0.16538774  0.08797672  1
  O2-  O145  1  0.07483686  0.17165532  0.42205701  1
  O2-  O146  1  0.06792962  0.16723283  0.75611138  1
  O2-  O147  1  0.06975883  0.68628140  0.09036135  1
  O2-  O148  1  0.07600636  0.68400922  0.41860884  1
  O2-  O149  1  0.06664628  0.68219321  0.76565133  1
  O2-  O150  1  0.56866123  0.17474166  0.09748489  1
  O2-  O151  1  0.56762138  0.17739021  0.43227658  1
  O2-  O152  1  0.56907215  0.18392293  0.76381171  1
  O2-  O153  1  0.57494056  0.68302675  0.10142561  1
  O2-  O154  1  0.56953169  0.68114635  0.42624449  1
  O2-  O155  1  0.58200658  0.67723413  0.75183817  1
  O2-  O156  1  0.18161131  0.42595213  0.24466485  1
  O2-  O157  1  0.17637068  0.43228381  0.56639797  1
  O2-  O158  1  0.17607609  0.43232420  0.90289601  1
  O2-  O159  1  0.17921535  0.93120372  0.24266386  1
  O2-  O160  1  0.17974727  0.93238422  0.56664015  1
  O2-  O161  1  0.17341910  0.92953042  0.91315615  1
  O2-  O162  1  0.67885526  0.42655611  0.23684201  1
  O2-  O163  1  0.68410778  0.42589063  0.57586673  1
  O2-  O164  1  0.68518714  0.42518158  0.89877765  1
  O2-  O165  1  0.67619356  0.93012461  0.23352792  1
  O2-  O166  1  0.67616050  0.92797325  0.57990195  1
  O2-  O167  1  0.68089947  0.93321597  0.90853521  1
  O2-  O168  1  0.42556641  0.31749167  0.10054100  1
  O2-  O169  1  0.42562597  0.31788769  0.42591825  1
  O2-  O170  1  0.42717267  0.32338650  0.75587458  1
  O2-  O171  1  0.42993680  0.82213071  0.09983467  1
  O2-  O172  1  0.42633403  0.82138817  0.42421437  1
  O2-  O173  1  0.43129672  0.81637508  0.76451357  1
  O2-  O174  1  0.93414751  0.31915505  0.09880651  1
  O2-  O175  1  0.93208185  0.31740408  0.43036117  1
  O2-  O176  1  0.93079258  0.32102748  0.76514852  1
  O2-  O177  1  0.92880993  0.82699874  0.08948443  1
  O2-  O178  1  0.93290386  0.82373611  0.43337597  1
  O2-  O179  1  0.92807111  0.82479093  0.75805856  1
  O2-  O180  1  0.32093160  0.06833593  0.24290887  1
  O2-  O181  1  0.32392144  0.06857964  0.57726017  1
  O2-  O182  1  0.32106718  0.06663504  0.91010609  1
  O2-  O183  1  0.32167930  0.57406464  0.23568990  1
  O2-  O184  1  0.31669557  0.57260003  0.56906341  1
  O2-  O185  1  0.31431687  0.57531032  0.90228183  1
  O2-  O186  1  0.82416906  0.06732448  0.24277743  1
  O2-  O187  1  0.81836122  0.06918026  0.56708278  1
  O2-  O188  1  0.82620551  0.06775472  0.91251030  1
  O2-  O189  1  0.81516662  0.57396094  0.23569226  1
  O2-  O190  1  0.82070014  0.57248902  0.57438603  1
  O2-  O191  1  0.82345627  0.57225761  0.89839596  1
  O2-  O192  1  0.04773404  0.08397699  0.26797115  1
  O2-  O193  1  0.04008480  0.08294940  0.60248304  1
  O2-  O194  1  0.03801484  0.08267816  0.93458307  1
  O2-  O195  1  0.05741955  0.58393976  0.26874382  1
  O2-  O196  1  0.03799601  0.58773859  0.59331780  1
  O2-  O197  1  0.04192825  0.59045459  0.93807330  1
  O2-  O198  1  0.53419784  0.08306887  0.26592105  1
  O2-  O199  1  0.53943840  0.08444250  0.59738542  1
  O2-  O200  1  0.53920705  0.08307491  0.92852230  1
  O2-  O201  1  0.54270332  0.58518093  0.27697587  1
  O2-  O202  1  0.55490188  0.57990080  0.60230404  1
  O2-  O203  1  0.55746733  0.57517741  0.93756611  1
  O2-  O204  1  0.16997687  0.19843658  0.27159776  1
  O2-  O205  1  0.16931263  0.19102907  0.60785569  1
  O2-  O206  1  0.16858677  0.18668206  0.94047156  1
  O2-  O207  1  0.16325827  0.71567331  0.26501555  1
  O2-  O208  1  0.16285541  0.71677064  0.59669327  1
  O2-  O209  1  0.15750616  0.71496483  0.93711975  1
  O2-  O210  1  0.66815575  0.20236428  0.26515775  1
  O2-  O211  1  0.66458849  0.21334705  0.59684008  1
  O2-  O212  1  0.67276288  0.20237806  0.93303887  1
  O2-  O213  1  0.66075201  0.70870133  0.27424653  1
  O2-  O214  1  0.66828264  0.70557815  0.59853651  1
  O2-  O215  1  0.66683166  0.71526664  0.92940013  1
  O2-  O216  1  0.08549856  0.46654331  0.07157816  1
  O2-  O217  1  0.08534011  0.45373750  0.39364993  1
  O2-  O218  1  0.08053547  0.46734542  0.73120018  1
  O2-  O219  1  0.08675805  0.95970279  0.06736550  1
  O2-  O220  1  0.08660385  0.95840607  0.39514142  1
  O2-  O221  1  0.08387854  0.95946585  0.73732505  1
  O2-  O222  1  0.57972111  0.44627659  0.06619424  1
  O2-  O223  1  0.58457655  0.45536117  0.40651281  1
  O2-  O224  1  0.58769839  0.44949156  0.72627964  1
  O2-  O225  1  0.58552105  0.95997600  0.05983352  1
  O2-  O226  1  0.58120483  0.96053971  0.40238367  1
  O2-  O227  1  0.58253854  0.95680706  0.73016946  1
  O2-  O228  1  0.19225034  0.32201819  0.06381588  1
  O2-  O229  1  0.20153807  0.33192382  0.39604753  1
  O2-  O230  1  0.19088328  0.32517356  0.72980661  1
  O2-  O231  1  0.20307975  0.83759614  0.06739132  1
  O2-  O232  1  0.20690975  0.83960542  0.39549922  1
  O2-  O233  1  0.21213772  0.83564404  0.73456842  1
  O2-  O234  1  0.71467885  0.32964493  0.06542626  1
  O2-  O235  1  0.71061742  0.32568482  0.40031080  1
  O2-  O236  1  0.71456050  0.33805071  0.72831073  1
  O2-  O237  1  0.70647935  0.84147178  0.06117391  1
  O2-  O238  1  0.70650092  0.83411323  0.40421350  1
  O2-  O239  1  0.69852794  0.83290674  0.73104254  1
  O2-  O240  1  0.45138844  0.41921185  0.27994512  1
  O2-  O241  1  0.45234791  0.41887295  0.60572848  1
  O2-  O242  1  0.44933592  0.42142272  0.93394277  1
  O2-  O243  1  0.45624905  0.91192388  0.27215912  1
  O2-  O244  1  0.46043677  0.91326124  0.59627861  1
  O2-  O245  1  0.45842025  0.91427613  0.93038636  1
  O2-  O246  1  0.96074332  0.41891581  0.26369704  1
  O2-  O247  1  0.95954921  0.41616426  0.59557888  1
  O2-  O248  1  0.96321135  0.42040557  0.93440673  1
  O2-  O249  1  0.96208278  0.91461411  0.26316311  1
  O2-  O250  1  0.95504136  0.91849827  0.60732053  1
  O2-  O251  1  0.96145654  0.91479101  0.93736902  1
  O2-  O252  1  0.33555108  0.29491791  0.27301159  1
  O2-  O253  1  0.32989465  0.30159232  0.60602717  1
  O2-  O254  1  0.32862295  0.28802090  0.93434584  1
  O2-  O255  1  0.33462769  0.79600024  0.27205579  1
  O2-  O256  1  0.33350985  0.78876558  0.59733880  1
  O2-  O257  1  0.32506970  0.79614020  0.93596155  1
  O2-  O258  1  0.83664321  0.28758848  0.26169630  1
  O2-  O259  1  0.83700781  0.28378433  0.59740551  1
  O2-  O260  1  0.83984264  0.28736973  0.93024461  1
  O2-  O261  1  0.82894135  0.79303661  0.26834703  1
  O2-  O262  1  0.83071351  0.80351718  0.60871615  1
  O2-  O263  1  0.83469054  0.80573010  0.93548141  1
  O2-  O264  1  0.41296185  0.03764453  0.06249126  1
  O2-  O265  1  0.41082446  0.03927429  0.39739821  1
  O2-  O266  1  0.41625354  0.03978248  0.72901847  1
  O2-  O267  1  0.42306454  0.54972460  0.06543293  1
  O2-  O268  1  0.41637836  0.54585921  0.40702193  1
  O2-  O269  1  0.42444959  0.55478745  0.73051365  1
  O2-  O270  1  0.91222404  0.03860141  0.06721324  1
  O2-  O271  1  0.91694804  0.04328663  0.39404106  1
  O2-  O272  1  0.91359124  0.04170672  0.73877915  1
  O2-  O273  1  0.91829320  0.54689978  0.06797452  1
  O2-  O274  1  0.92562058  0.55109264  0.39477724  1
  O2-  O275  1  0.91253131  0.54226094  0.72479266  1
  O2-  O276  1  0.29421085  0.15858057  0.06582175  1
  O2-  O277  1  0.29725813  0.16295208  0.39624026  1
  O2-  O278  1  0.30511219  0.16728724  0.72755469  1
  O2-  O279  1  0.28508879  0.66697782  0.06938791  1
  O2-  O280  1  0.28617645  0.66888445  0.40092191  1
  O2-  O281  1  0.28386172  0.66727643  0.73394473  1
  O2-  O282  1  0.79913408  0.16393377  0.06237140  1
  O2-  O283  1  0.79785334  0.16395047  0.39296300  1
  O2-  O284  1  0.78534689  0.16644519  0.73466968  1
  O2-  O285  1  0.79718274  0.67684274  0.06024228  1
  O2-  O286  1  0.79093635  0.66783152  0.40455291  1
  O2-  O287  1  0.79764763  0.66563757  0.72618055  1
