# generated using pymatgen
data_Ca2Al2SiO7
_symmetry_space_group_name_H-M   'P 1'
_cell_length_a   15.45583435
_cell_length_b   15.45551832
_cell_length_c   15.28230928
_cell_angle_alpha   89.99346643
_cell_angle_beta   90.00010375
_cell_angle_gamma   89.98567212
_symmetry_Int_Tables_number   1
_chemical_formula_structural   Ca2Al2SiO7
_chemical_formula_sum   'Ca48 Al48 Si24 O168'
_cell_volume   3650.60628363
_cell_formula_units_Z   24
loop_
 _symmetry_equiv_pos_site_id
 _symmetry_equiv_pos_as_xyz
  1  'x, y, z'
loop_
 _atom_type_symbol
 _atom_type_oxidation_number
  Ca2+  2.0
  Al0+  0.0
  Si0+  0.0
  O2-  -2.0
loop_
 _atom_site_type_symbol
 _atom_site_label
 _atom_site_symmetry_multiplicity
 _atom_site_fract_x
 _atom_site_fract_y
 _atom_site_fract_z
 _atom_site_occupancy
  Ca2+  Ca0  1  0.17416386  0.09159364  0.17219431  1
  Ca2+  Ca1  1  0.17159924  0.08675351  0.49757851  1
  Ca2+  Ca2  1  0.17303517  0.08660819  0.84332021  1
  Ca2+  Ca3  1  0.16979013  0.58413468  0.17196293  1
  Ca2+  Ca4  1  0.17933344  0.58853947  0.50609631  1
  Ca2+  Ca5  1  0.16771050  0.58890603  0.83594530  1
  Ca2+  Ca6  1  0.66800611  0.07578421  0.17796793  1
  Ca2+  Ca7  1  0.66180028  0.07513072  0.50671018  1
  Ca2+  Ca8  1  0.66791961  0.08070059  0.83142405  1
  Ca2+  Ca9  1  0.66683882  0.58325638  0.17229689  1
  Ca2+  Ca10  1  0.65541261  0.57044034  0.50043702  1
  Ca2+  Ca11  1  0.66846253  0.57607036  0.84114934  1
  Ca2+  Ca12  1  0.08175547  0.32438543  0.16110681  1
  Ca2+  Ca13  1  0.07962156  0.32665705  0.49390648  1
  Ca2+  Ca14  1  0.07606710  0.33281809  0.83608531  1
  Ca2+  Ca15  1  0.07012276  0.82949150  0.16004961  1
  Ca2+  Ca16  1  0.07629968  0.83106645  0.49498091  1
  Ca2+  Ca17  1  0.07913181  0.82416200  0.83098772  1
  Ca2+  Ca18  1  0.58066168  0.33402316  0.17159201  1
  Ca2+  Ca19  1  0.58113966  0.32787746  0.49460846  1
  Ca2+  Ca20  1  0.57956104  0.32765745  0.82085853  1
  Ca2+  Ca21  1  0.58345255  0.82522616  0.16785103  1
  Ca2+  Ca22  1  0.58378593  0.82973034  0.48848000  1
  Ca2+  Ca23  1  0.58739625  0.82737704  0.83218163  1
  Ca2+  Ca24  1  0.33422058  0.42120273  0.17696928  1
  Ca2+  Ca25  1  0.34614084  0.42628572  0.50160269  1
  Ca2+  Ca26  1  0.33613604  0.42035961  0.83222881  1
  Ca2+  Ca27  1  0.33508699  0.92721138  0.17502804  1
  Ca2+  Ca28  1  0.34351938  0.92444847  0.49869649  1
  Ca2+  Ca29  1  0.33059730  0.92536619  0.84110520  1
  Ca2+  Ca30  1  0.83314220  0.42328971  0.17030046  1
  Ca2+  Ca31  1  0.81750916  0.41242870  0.50437503  1
  Ca2+  Ca32  1  0.82947874  0.41888030  0.84059436  1
  Ca2+  Ca33  1  0.83125089  0.91010818  0.17410651  1
  Ca2+  Ca34  1  0.82287748  0.91920699  0.50377748  1
  Ca2+  Ca35  1  0.83078153  0.91680155  0.83345130  1
  Ca2+  Ca36  1  0.41846297  0.16434167  0.16775173  1
  Ca2+  Ca37  1  0.42697957  0.17567197  0.49041091  1
  Ca2+  Ca38  1  0.42090589  0.17242513  0.82458710  1
  Ca2+  Ca39  1  0.42744334  0.66422301  0.16912756  1
  Ca2+  Ca40  1  0.41862094  0.67074401  0.48946951  1
  Ca2+  Ca41  1  0.42116162  0.66421278  0.82818801  1
  Ca2+  Ca42  1  0.92963038  0.17045338  0.15960239  1
  Ca2+  Ca43  1  0.91955825  0.16076761  0.49545214  1
  Ca2+  Ca44  1  0.91687721  0.16672127  0.83133001  1
  Ca2+  Ca45  1  0.91435332  0.67582554  0.15649710  1
  Ca2+  Ca46  1  0.92161938  0.67115471  0.49518636  1
  Ca2+  Ca47  1  0.92334128  0.66431189  0.83416138  1
  Al0+  Al48  1  -0.00022601  -0.00062952  -0.00789614  1
  Al0+  Al49  1  0.00143735  -0.00033966  0.32486653  1
  Al0+  Al50  1  -0.00021277  -0.00079419  0.67017645  1
  Al0+  Al51  1  -0.00064797  0.49955842  -0.00105331  1
  Al0+  Al52  1  0.00064044  0.49980727  0.33606432  1
  Al0+  Al53  1  0.00225431  0.49894896  0.65970905  1
  Al0+  Al54  1  0.49999977  -0.00002943  0.00414606  1
  Al0+  Al55  1  0.50007819  0.00020337  0.33486033  1
  Al0+  Al56  1  0.49992011  -0.00053537  0.67099715  1
  Al0+  Al57  1  0.49961164  0.49925527  -0.00326963  1
  Al0+  Al58  1  0.50036197  0.49945173  0.33294351  1
  Al0+  Al59  1  0.49943101  0.50110916  0.67411886  1
  Al0+  Al60  1  0.25124025  0.25177494  0.00035758  1
  Al0+  Al61  1  0.24968699  0.25062993  0.33242940  1
  Al0+  Al62  1  0.24860509  0.25365556  0.66338468  1
  Al0+  Al63  1  0.25038323  0.75246840  0.00018716  1
  Al0+  Al64  1  0.24917803  0.75164226  0.33313680  1
  Al0+  Al65  1  0.25040587  0.74970525  0.66790301  1
  Al0+  Al66  1  0.74773976  0.24836595  -0.00064189  1
  Al0+  Al67  1  0.75075825  0.25090603  0.33272514  1
  Al0+  Al68  1  0.75030990  0.24844975  0.67130676  1
  Al0+  Al69  1  0.74837206  0.74795991  -0.00563218  1
  Al0+  Al70  1  0.75148777  0.74987106  0.33215764  1
  Al0+  Al71  1  0.75105168  0.75000312  0.66935411  1
  Al0+  Al72  1  0.43013892  0.32109492  0.31748955  1
  Al0+  Al73  1  0.42685659  0.82305705  0.31868264  1
  Al0+  Al74  1  0.07294835  0.67848301  0.98600447  1
  Al0+  Al75  1  0.68064846  0.42937187  0.34615987  1
  Al0+  Al76  1  0.68012111  0.92866498  0.34539588  1
  Al0+  Al77  1  0.57074977  0.67809452  0.32025621  1
  Al0+  Al78  1  0.56827734  0.67839841  0.98455758  1
  Al0+  Al79  1  0.57305947  0.17774896  0.31781759  1
  Al0+  Al80  1  0.92996380  0.81889763  0.32120405  1
  Al0+  Al81  1  0.07010537  0.18028125  0.32027018  1
  Al0+  Al82  1  0.07280285  0.18021824  0.98336434  1
  Al0+  Al83  1  0.07188966  0.67905687  0.65072959  1
  Al0+  Al84  1  0.67638237  0.92676421  0.68395972  1
  Al0+  Al85  1  0.92684798  0.32037146  0.98564691  1
  Al0+  Al86  1  0.57180978  0.17772548  0.65197893  1
  Al0+  Al87  1  0.31943239  0.57104664  0.68214168  1
  Al0+  Al88  1  0.42865966  0.32298464  0.65100210  1
  Al0+  Al89  1  0.31917649  0.57124743  0.34547651  1
  Al0+  Al90  1  0.92596689  0.82121168  0.98126481  1
  Al0+  Al91  1  0.67938408  0.43016224  0.68184076  1
  Al0+  Al92  1  0.32014927  0.07189450  0.01428696  1
  Al0+  Al93  1  0.82000814  0.56935279  0.01289068  1
  Al0+  Al94  1  0.32069785  0.07178987  0.34911729  1
  Al0+  Al95  1  0.82235914  0.07006699  0.68248213  1
  Si0+  Si96  1  0.17544746  0.42709215  0.68474772  1
  Si0+  Si97  1  0.68032339  0.92893923  0.01640919  1
  Si0+  Si98  1  0.42963857  0.32113693  0.98429646  1
  Si0+  Si99  1  0.67585930  0.42620959  0.01790678  1
  Si0+  Si100  1  0.07119467  0.17724580  0.65167228  1
  Si0+  Si101  1  0.82159337  0.07166552  0.01605725  1
  Si0+  Si102  1  0.31897703  0.07294922  0.68046326  1
  Si0+  Si103  1  0.82385200  0.57310096  0.35102850  1
  Si0+  Si104  1  0.17649696  0.92802599  0.01702384  1
  Si0+  Si105  1  0.92663078  0.32411001  0.31774629  1
  Si0+  Si106  1  0.42864009  0.82076408  0.65411874  1
  Si0+  Si107  1  0.07262390  0.67661604  0.31752592  1
  Si0+  Si108  1  0.32248117  0.57231286  0.01537863  1
  Si0+  Si109  1  0.82405929  0.07155629  0.34599278  1
  Si0+  Si110  1  0.92863371  0.32035653  0.65112147  1
  Si0+  Si111  1  0.82529427  0.57063041  0.68206258  1
  Si0+  Si112  1  0.57005669  0.17635204  0.98501529  1
  Si0+  Si113  1  0.17666445  0.42758412  0.35112000  1
  Si0+  Si114  1  0.17898126  0.92930838  0.68164202  1
  Si0+  Si115  1  0.17631113  0.92934253  0.34961458  1
  Si0+  Si116  1  0.57176478  0.67993207  0.65339591  1
  Si0+  Si117  1  0.42933895  0.82392174  0.98341893  1
  Si0+  Si118  1  0.17972534  0.43056395  0.01488681  1
  Si0+  Si119  1  0.92849236  0.82243416  0.64847173  1
  O2-  O120  1  0.24279599  -0.00069994  0.06051947  1
  O2-  O121  1  0.24783848  -0.00562515  0.39583722  1
  O2-  O122  1  0.24754524  0.00298362  0.72388150  1
  O2-  O123  1  0.24794216  0.50471612  0.05650892  1
  O2-  O124  1  0.24372581  0.49804375  0.39447174  1
  O2-  O125  1  0.24433657  0.49605167  0.72843285  1
  O2-  O126  1  0.75378072  -0.00214860  0.05857275  1
  O2-  O127  1  0.75210934  0.00699121  0.39080686  1
  O2-  O128  1  0.74885878  -0.00070044  0.73287102  1
  O2-  O129  1  0.74642064  0.49371309  0.06047199  1
  O2-  O130  1  0.75591429  0.50343991  0.39447270  1
  O2-  O131  1  0.75520827  0.50421920  0.72758714  1
  O2-  O132  1  -0.00400054  0.25588076  0.27469356  1
  O2-  O133  1  -0.00175732  0.24675415  0.61025855  1
  O2-  O134  1  -0.00340560  0.24725619  0.93279132  1
  O2-  O135  1  0.00131834  0.74158894  0.27351484  1
  O2-  O136  1  -0.00466806  0.75178086  0.60446109  1
  O2-  O137  1  0.00061937  0.74961503  0.93462274  1
  O2-  O138  1  0.49985054  0.24773869  0.26584657  1
  O2-  O139  1  0.50034812  0.25031263  0.60246881  1
  O2-  O140  1  0.50067686  0.24949629  0.94358575  1
  O2-  O141  1  0.49915325  0.75080175  0.26985237  1
  O2-  O142  1  0.50383597  0.75411013  0.61227056  1
  O2-  O143  1  0.49266441  0.75188379  0.93674253  1
  O2-  O144  1  0.07375357  0.18374319  0.09674363  1
  O2-  O145  1  0.06745124  0.17998807  0.43418221  1
  O2-  O146  1  0.07365148  0.17838001  0.75639156  1
  O2-  O147  1  0.07331771  0.68014709  0.09959205  1
  O2-  O148  1  0.07240074  0.67832175  0.42331849  1
  O2-  O149  1  0.07155555  0.68133358  0.76356280  1
  O2-  O150  1  0.57016124  0.17459566  0.08969848  1
  O2-  O151  1  0.57311091  0.17822834  0.43109890  1
  O2-  O152  1  0.56743399  0.17811254  0.76657730  1
  O2-  O153  1  0.56762834  0.67773609  0.09714929  1
  O2-  O154  1  0.56894665  0.67802098  0.43438945  1
  O2-  O155  1  0.56937570  0.67989753  0.75879395  1
  O2-  O156  1  0.17470396  0.42909496  0.24520021  1
  O2-  O157  1  0.17223714  0.42567601  0.57957922  1
  O2-  O158  1  0.18197366  0.42838581  0.90973536  1
  O2-  O159  1  0.17480545  0.93142541  0.24428649  1
  O2-  O160  1  0.17782503  0.93009964  0.57665822  1
  O2-  O161  1  0.18089328  0.92678003  0.91084827  1
  O2-  O162  1  0.68300312  0.43080733  0.23300376  1
  O2-  O163  1  0.67907414  0.43106375  0.56871542  1
  O2-  O164  1  0.67473676  0.42718484  0.91211552  1
  O2-  O165  1  0.68348708  0.92735096  0.23184836  1
  O2-  O166  1  0.67716817  0.92466406  0.57057529  1
  O2-  O167  1  0.67803051  0.93209043  0.91136900  1
  O2-  O168  1  0.42928351  0.32394013  0.08889927  1
  O2-  O169  1  0.43260931  0.32206958  0.43066902  1
  O2-  O170  1  0.42787928  0.31944848  0.76556442  1
  O2-  O171  1  0.43190656  0.82538933  0.08840342  1
  O2-  O172  1  0.42827748  0.82121595  0.43306942  1
  O2-  O173  1  0.42634171  0.81923237  0.75950283  1
  O2-  O174  1  0.92967649  0.31915191  0.09927982  1
  O2-  O175  1  0.92716931  0.32369603  0.42370888  1
  O2-  O176  1  0.93086758  0.32280568  0.75598284  1
  O2-  O177  1  0.92632606  0.81984465  0.09510861  1
  O2-  O178  1  0.93210398  0.81917002  0.43449611  1
  O2-  O179  1  0.93029721  0.82278662  0.75371831  1
  O2-  O180  1  0.31765132  0.07200899  0.23599189  1
  O2-  O181  1  0.31830029  0.07156255  0.57570529  1
  O2-  O182  1  0.32022863  0.07044520  0.90017951  1
  O2-  O183  1  0.31708471  0.56882732  0.23180261  1
  O2-  O184  1  0.31970853  0.57306716  0.56933242  1
  O2-  O185  1  0.32365238  0.56980566  0.91018877  1
  O2-  O186  1  0.82484985  0.06943549  0.24015391  1
  O2-  O187  1  0.82754962  0.06634884  0.56885702  1
  O2-  O188  1  0.81778067  0.07349510  0.91121429  1
  O2-  O189  1  0.82589858  0.57211747  0.24544205  1
  O2-  O190  1  0.82556909  0.56895242  0.57644105  1
  O2-  O191  1  0.81814838  0.56686388  0.89947100  1
  O2-  O192  1  0.04096199  0.08559749  0.26254227  1
  O2-  O193  1  0.04493811  0.08445734  0.60535418  1
  O2-  O194  1  0.05018219  0.08050788  0.93141286  1
  O2-  O195  1  0.05130489  0.58072370  0.27410069  1
  O2-  O196  1  0.04525072  0.58187234  0.59558921  1
  O2-  O197  1  0.04614871  0.57984725  0.93323681  1
  O2-  O198  1  0.54466235  0.07948099  0.26560441  1
  O2-  O199  1  0.54184905  0.07816052  0.60245399  1
  O2-  O200  1  0.53978473  0.08539228  0.93729093  1
  O2-  O201  1  0.54035705  0.58188035  0.26487645  1
  O2-  O202  1  0.53966110  0.58880804  0.60857104  1
  O2-  O203  1  0.53721854  0.58190440  0.92942427  1
  O2-  O204  1  0.16531066  0.21262298  0.26577572  1
  O2-  O205  1  0.16143043  0.20758089  0.60253231  1
  O2-  O206  1  0.17004939  0.21413317  0.93042503  1
  O2-  O207  1  0.16485806  0.70372858  0.27077729  1
  O2-  O208  1  0.16789528  0.71414273  0.59804306  1
  O2-  O209  1  0.17198943  0.70782531  0.93270541  1
  O2-  O210  1  0.67189386  0.20632524  0.26482591  1
  O2-  O211  1  0.67229483  0.20287983  0.60285108  1
  O2-  O212  1  0.66205321  0.20219202  0.93737948  1
  O2-  O213  1  0.66938052  0.70560171  0.26783349  1
  O2-  O214  1  0.66549703  0.70237758  0.60765070  1
  O2-  O215  1  0.66301812  0.70969198  0.92857392  1
  O2-  O216  1  0.08744306  0.45468543  0.06279968  1
  O2-  O217  1  0.08229104  0.45031156  0.39869050  1
  O2-  O218  1  0.08202128  0.45433811  0.73081543  1
  O2-  O219  1  0.08048992  0.95045510  0.05916533  1
  O2-  O220  1  0.08421550  0.96042835  0.39690462  1
  O2-  O221  1  0.08735384  0.95421362  0.73048965  1
  O2-  O222  1  0.58254216  0.45550259  0.06276682  1
  O2-  O223  1  0.58489792  0.46144033  0.40069183  1
  O2-  O224  1  0.58481240  0.46222832  0.73899284  1
  O2-  O225  1  0.58936355  0.95896606  0.06409224  1
  O2-  O226  1  0.58314371  0.95569124  0.39977716  1
  O2-  O227  1  0.57813774  0.95426807  0.73962744  1
  O2-  O228  1  0.21169625  0.34071835  0.06387408  1
  O2-  O229  1  0.20202621  0.33446592  0.39735924  1
  O2-  O230  1  0.20149772  0.33367114  0.73224682  1
  O2-  O231  1  0.20347643  0.83538651  0.06483561  1
  O2-  O232  1  0.19668866  0.83428241  0.39509368  1
  O2-  O233  1  0.21090027  0.83955909  0.73041042  1
  O2-  O234  1  0.69808625  0.33102957  0.06221250  1
  O2-  O235  1  0.71195717  0.33292206  0.40176512  1
  O2-  O236  1  0.70911825  0.33343484  0.73568488  1
  O2-  O237  1  0.70607072  0.83535061  0.06010660  1
  O2-  O238  1  0.71337368  0.83296367  0.40041546  1
  O2-  O239  1  0.70703693  0.82845488  0.73766113  1
  O2-  O240  1  0.46090170  0.41790163  0.26286716  1
  O2-  O241  1  0.45913040  0.42279835  0.60312568  1
  O2-  O242  1  0.45739639  0.41195249  0.93469871  1
  O2-  O243  1  0.45490418  0.92098644  0.26633352  1
  O2-  O244  1  0.45222926  0.91444415  0.60897488  1
  O2-  O245  1  0.45926707  0.91616944  0.93580523  1
  O2-  O246  1  0.95281462  0.41831413  0.27254849  1
  O2-  O247  1  0.95834923  0.40973241  0.60012792  1
  O2-  O248  1  0.95833683  0.41709841  0.93151779  1
  O2-  O249  1  0.96214514  0.91309985  0.26349984  1
  O2-  O250  1  0.95841115  0.91516306  0.60301460  1
  O2-  O251  1  0.95295562  0.91950116  0.92768703  1
  O2-  O252  1  0.33010501  0.29623574  0.26668963  1
  O2-  O253  1  0.32844207  0.29924177  0.59957447  1
  O2-  O254  1  0.33821788  0.29379044  0.93636292  1
  O2-  O255  1  0.32749681  0.79729889  0.26604779  1
  O2-  O256  1  0.33855180  0.79082225  0.60550705  1
  O2-  O257  1  0.33368643  0.80355014  0.93930910  1
  O2-  O258  1  0.83417614  0.30045533  0.27016620  1
  O2-  O259  1  0.83667006  0.29273714  0.60484468  1
  O2-  O260  1  0.82722053  0.29370908  0.93358689  1
  O2-  O261  1  0.83460161  0.78934617  0.26522315  1
  O2-  O262  1  0.83375678  0.79769877  0.60426082  1
  O2-  O263  1  0.82926340  0.79086897  0.92726570  1
  O2-  O264  1  0.41585816  0.03866829  0.06872425  1
  O2-  O265  1  0.41688106  0.04144064  0.40380516  1
  O2-  O266  1  0.40955417  0.04420535  0.72970691  1
  O2-  O267  1  0.41284383  0.53894501  0.06216641  1
  O2-  O268  1  0.41543715  0.53961197  0.39919889  1
  O2-  O269  1  0.41409904  0.53978241  0.73989158  1
  O2-  O270  1  0.91662890  0.04758302  0.05876502  1
  O2-  O271  1  0.91682832  0.04163220  0.39183743  1
  O2-  O272  1  0.92043642  0.04084652  0.73797600  1
  O2-  O273  1  0.91725804  0.54055582  0.06763011  1
  O2-  O274  1  0.91812869  0.54861995  0.39790771  1
  O2-  O275  1  0.91895434  0.54186491  0.72653761  1
  O2-  O276  1  0.29164970  0.16964017  0.06716688  1
  O2-  O277  1  0.28597526  0.16751884  0.40283042  1
  O2-  O278  1  0.29066351  0.16557339  0.72652120  1
  O2-  O279  1  0.29947382  0.66627396  0.06038524  1
  O2-  O280  1  0.28987096  0.66871668  0.39986678  1
  O2-  O281  1  0.28793444  0.66745406  0.73733808  1
  O2-  O282  1  0.79165246  0.16260525  0.06437895  1
  O2-  O283  1  0.80518206  0.16713236  0.39055906  1
  O2-  O284  1  0.79692530  0.16845725  0.73705157  1
  O2-  O285  1  0.78697505  0.66640807  0.06496083  1
  O2-  O286  1  0.79866237  0.66610496  0.39748469  1
  O2-  O287  1  0.80332173  0.66552056  0.72656132  1
