# generated using pymatgen
data_Ca2Al2SiO7
_symmetry_space_group_name_H-M   'P 1'
_cell_length_a   15.45849342
_cell_length_b   15.45808489
_cell_length_c   15.28415163
_cell_angle_alpha   89.99973336
_cell_angle_beta   89.99860644
_cell_angle_gamma   89.99738377
_symmetry_Int_Tables_number   1
_chemical_formula_structural   Ca2Al2SiO7
_chemical_formula_sum   'Ca48 Al48 Si24 O168'
_cell_volume   3652.28105415
_cell_formula_units_Z   24
loop_
 _symmetry_equiv_pos_site_id
 _symmetry_equiv_pos_as_xyz
  1  'x, y, z'
loop_
 _atom_type_symbol
 _atom_type_oxidation_number
  Ca2+  2.0
  Al0+  0.0
  Si0+  0.0
  O2-  -2.0
loop_
 _atom_site_type_symbol
 _atom_site_label
 _atom_site_symmetry_multiplicity
 _atom_site_fract_x
 _atom_site_fract_y
 _atom_site_fract_z
 _atom_site_occupancy
  Ca2+  Ca0  1  0.17841941  0.08501995  0.17263179  1
  Ca2+  Ca1  1  0.17539338  0.09070056  0.50327779  1
  Ca2+  Ca2  1  0.17778224  0.08440704  0.83803615  1
  Ca2+  Ca3  1  0.17001206  0.57368590  0.16765799  1
  Ca2+  Ca4  1  0.17137625  0.57536780  0.50362001  1
  Ca2+  Ca5  1  0.18118915  0.57863213  0.84252572  1
  Ca2+  Ca6  1  0.66087905  0.07801793  0.16593235  1
  Ca2+  Ca7  1  0.66746404  0.08329675  0.50547636  1
  Ca2+  Ca8  1  0.65857848  0.08135369  0.84152021  1
  Ca2+  Ca9  1  0.67187190  0.57689877  0.17943760  1
  Ca2+  Ca10  1  0.66227557  0.57588354  0.50222472  1
  Ca2+  Ca11  1  0.66023619  0.57698219  0.83089137  1
  Ca2+  Ca12  1  0.07811178  0.34040425  0.16441188  1
  Ca2+  Ca13  1  0.08526673  0.32421167  0.48984264  1
  Ca2+  Ca14  1  0.08216673  0.33366046  0.83145901  1
  Ca2+  Ca15  1  0.08028704  0.83700258  0.16270957  1
  Ca2+  Ca16  1  0.07683795  0.83051750  0.49149304  1
  Ca2+  Ca17  1  0.08695411  0.83780348  0.83362101  1
  Ca2+  Ca18  1  0.58519138  0.32799051  0.16135054  1
  Ca2+  Ca19  1  0.58024085  0.33672254  0.50106129  1
  Ca2+  Ca20  1  0.57775382  0.32251557  0.82308239  1
  Ca2+  Ca21  1  0.57352987  0.83016724  0.16291666  1
  Ca2+  Ca22  1  0.57850970  0.81799716  0.49116916  1
  Ca2+  Ca23  1  0.57637597  0.83015650  0.83235855  1
  Ca2+  Ca24  1  0.32251036  0.41646724  0.17091358  1
  Ca2+  Ca25  1  0.33107413  0.41716292  0.50685226  1
  Ca2+  Ca26  1  0.33763088  0.42567324  0.83662548  1
  Ca2+  Ca27  1  0.33973543  0.92476413  0.16821721  1
  Ca2+  Ca28  1  0.34154225  0.92713716  0.50041133  1
  Ca2+  Ca29  1  0.33288569  0.92714335  0.84425528  1
  Ca2+  Ca30  1  0.83217182  0.41772774  0.17804360  1
  Ca2+  Ca31  1  0.82367639  0.41357422  0.49721388  1
  Ca2+  Ca32  1  0.82731864  0.41080120  0.83657244  1
  Ca2+  Ca33  1  0.82677820  0.91349696  0.17199615  1
  Ca2+  Ca34  1  0.83423748  0.91473920  0.50231782  1
  Ca2+  Ca35  1  0.82248802  0.92201378  0.84077398  1
  Ca2+  Ca36  1  0.41844681  0.16241960  0.16144486  1
  Ca2+  Ca37  1  0.41499757  0.16837638  0.50052197  1
  Ca2+  Ca38  1  0.42076913  0.16580073  0.82699735  1
  Ca2+  Ca39  1  0.41470080  0.67530823  0.16139245  1
  Ca2+  Ca40  1  0.42528118  0.66444680  0.49430950  1
  Ca2+  Ca41  1  0.41298882  0.66978776  0.82707551  1
  Ca2+  Ca42  1  0.92251373  0.18018347  0.16323540  1
  Ca2+  Ca43  1  0.93224439  0.17072727  0.49069029  1
  Ca2+  Ca44  1  0.92479270  0.17306937  0.82912054  1
  Ca2+  Ca45  1  0.91362902  0.66706389  0.16817004  1
  Ca2+  Ca46  1  0.91349486  0.67063441  0.49091276  1
  Ca2+  Ca47  1  0.92033994  0.66910825  0.83198467  1
  Al0+  Al48  1  -0.00113536  0.00248206  0.00049528  1
  Al0+  Al49  1  0.00171798  -0.00049910  0.32426963  1
  Al0+  Al50  1  -0.00191362  0.00101995  0.66406280  1
  Al0+  Al51  1  -0.00145268  0.50153006  -0.00394645  1
  Al0+  Al52  1  -0.00027371  0.50033553  0.34053874  1
  Al0+  Al53  1  -0.00223885  0.50230576  0.66600326  1
  Al0+  Al54  1  0.50122303  -0.00321681  0.00013455  1
  Al0+  Al55  1  0.50054197  -0.00056345  0.33648305  1
  Al0+  Al56  1  0.50016967  -0.00045461  0.66694541  1
  Al0+  Al57  1  0.50232425  0.50034632  0.00553595  1
  Al0+  Al58  1  0.50031067  0.49798261  0.33091698  1
  Al0+  Al59  1  0.50052292  0.49959256  0.66852673  1
  Al0+  Al60  1  0.24967705  0.25139430  0.00639678  1
  Al0+  Al61  1  0.25265361  0.24865377  0.33757033  1
  Al0+  Al62  1  0.24935819  0.24916934  0.66560602  1
  Al0+  Al63  1  0.24922336  0.75085041  0.00231909  1
  Al0+  Al64  1  0.24960542  0.75182284  0.33002561  1
  Al0+  Al65  1  0.24736325  0.75041741  0.66724168  1
  Al0+  Al66  1  0.75112531  0.24939684  -0.00848018  1
  Al0+  Al67  1  0.75137235  0.24829424  0.33478079  1
  Al0+  Al68  1  0.75061059  0.24973187  0.66767681  1
  Al0+  Al69  1  0.74943524  0.75024165  0.00164303  1
  Al0+  Al70  1  0.74985448  0.74876647  0.32957768  1
  Al0+  Al71  1  0.74909666  0.74996222  0.66559384  1
  Al0+  Al72  1  0.17737320  0.43017876  0.01385710  1
  Al0+  Al73  1  0.32197006  0.07064419  0.01539971  1
  Al0+  Al74  1  0.32073855  0.07026075  0.68115117  1
  Al0+  Al75  1  0.32195496  0.06919852  0.35009501  1
  Al0+  Al76  1  0.18002306  0.42969500  0.34873372  1
  Al0+  Al77  1  0.42945832  0.32085027  0.65260614  1
  Al0+  Al78  1  0.32048233  0.57094739  0.67839643  1
  Al0+  Al79  1  0.56974318  0.67971230  0.65401503  1
  Al0+  Al80  1  0.68014190  0.92870705  0.01447584  1
  Al0+  Al81  1  0.06978205  0.18012181  0.65364738  1
  Al0+  Al82  1  0.57013142  0.67578923  0.31624583  1
  Al0+  Al83  1  0.32433621  0.57192474  0.01653346  1
  Al0+  Al84  1  0.92989370  0.32086017  0.31978635  1
  Al0+  Al85  1  0.67717629  0.42552361  0.34848688  1
  Al0+  Al86  1  0.17628813  0.92938800  0.01530481  1
  Al0+  Al87  1  0.42836288  0.81822839  0.98458923  1
  Al0+  Al88  1  0.42915625  0.82221214  0.31792176  1
  Al0+  Al89  1  0.92914598  0.82057606  0.31866112  1
  Al0+  Al90  1  0.57206862  0.17639016  0.65025213  1
  Al0+  Al91  1  0.93009820  0.32288594  0.98426861  1
  Al0+  Al92  1  0.82032701  0.57195046  0.34916668  1
  Al0+  Al93  1  0.68054310  0.42878420  0.68255633  1
  Al0+  Al94  1  0.07537553  0.17959995  0.31513274  1
  Al0+  Al95  1  0.56830441  0.17963675  0.98781334  1
  Si0+  Si96  1  0.57390062  0.67676277  0.98266995  1
  Si0+  Si97  1  0.42527830  0.82195682  0.65058832  1
  Si0+  Si98  1  0.42948281  0.32021341  0.31821707  1
  Si0+  Si99  1  0.06913926  0.68036508  0.98460816  1
  Si0+  Si100  1  0.82305004  0.06948066  0.34720126  1
  Si0+  Si101  1  0.17610207  0.42801089  0.68262161  1
  Si0+  Si102  1  0.82052522  0.57109450  0.01358962  1
  Si0+  Si103  1  0.17613907  0.92752623  0.35040930  1
  Si0+  Si104  1  0.42669369  0.32425475  0.98585645  1
  Si0+  Si105  1  0.17455951  0.92847643  0.68137042  1
  Si0+  Si106  1  0.82226620  0.07027196  0.68125050  1
  Si0+  Si107  1  0.68023047  0.92948469  0.34953133  1
  Si0+  Si108  1  0.68131344  0.42708454  0.01341705  1
  Si0+  Si109  1  0.92725308  0.32449135  0.64842932  1
  Si0+  Si110  1  0.82188308  0.57494874  0.68594891  1
  Si0+  Si111  1  0.68031656  0.92825958  0.68091274  1
  Si0+  Si112  1  0.92673517  0.82284591  0.98385313  1
  Si0+  Si113  1  0.32155616  0.57376172  0.34919816  1
  Si0+  Si114  1  0.07356179  0.17839704  0.98283248  1
  Si0+  Si115  1  0.57242365  0.17827503  0.31958612  1
  Si0+  Si116  1  0.07266065  0.67714607  0.31648423  1
  Si0+  Si117  1  0.92912165  0.81987635  0.65365488  1
  Si0+  Si118  1  0.82124078  0.07387997  0.01686634  1
  Si0+  Si119  1  0.07165504  0.67880006  0.65211618  1
  O2-  O120  1  0.24775092  0.00084054  0.06598468  1
  O2-  O121  1  0.24568723  -0.00558641  0.39550047  1
  O2-  O122  1  0.24584231  -0.00582453  0.72505641  1
  O2-  O123  1  0.25381179  0.49732272  0.06436772  1
  O2-  O124  1  0.25388109  0.50532502  0.39525101  1
  O2-  O125  1  0.24522439  0.49662017  0.72577874  1
  O2-  O126  1  0.75486094  0.00341980  0.06171219  1
  O2-  O127  1  0.75384690  -0.00233098  0.39229091  1
  O2-  O128  1  0.74606244  0.00454919  0.72343731  1
  O2-  O129  1  0.74974471  0.50028228  0.05508899  1
  O2-  O130  1  0.74711516  0.50052590  0.39770275  1
  O2-  O131  1  0.75681901  0.50295211  0.72997418  1
  O2-  O132  1  0.00433859  0.25342419  0.26675370  1
  O2-  O133  1  -0.00070917  0.25871962  0.60626235  1
  O2-  O134  1  0.00683674  0.24960430  0.93869420  1
  O2-  O135  1  0.00389185  0.74608465  0.27199725  1
  O2-  O136  1  -0.00007279  0.74956993  0.61091484  1
  O2-  O137  1  0.00184817  0.75617951  0.94166201  1
  O2-  O138  1  0.50384847  0.25148161  0.27778344  1
  O2-  O139  1  0.50047235  0.24825409  0.60019774  1
  O2-  O140  1  0.49264713  0.25308098  0.94153657  1
  O2-  O141  1  0.49646415  0.74620281  0.26724485  1
  O2-  O142  1  0.49196336  0.75109073  0.60726499  1
  O2-  O143  1  0.50018150  0.73996610  0.93822624  1
  O2-  O144  1  0.07073035  0.17661159  0.08773235  1
  O2-  O145  1  0.07256708  0.17936010  0.42928199  1
  O2-  O146  1  0.06667686  0.17838293  0.76683428  1
  O2-  O147  1  0.06434543  0.67771445  0.08927122  1
  O2-  O148  1  0.07318977  0.68012674  0.42268785  1
  O2-  O149  1  0.07111594  0.67921951  0.75722761  1
  O2-  O150  1  0.57097347  0.18212763  0.10140429  1
  O2-  O151  1  0.57241670  0.17628514  0.42438690  1
  O2-  O152  1  0.57073384  0.17585258  0.76386178  1
  O2-  O153  1  0.57776085  0.67919094  0.08761757  1
  O2-  O154  1  0.56935746  0.67754848  0.43037530  1
  O2-  O155  1  0.57199367  0.68385259  0.76719450  1
  O2-  O156  1  0.18055079  0.43195934  0.23577540  1
  O2-  O157  1  0.17547909  0.43057286  0.57699805  1
  O2-  O158  1  0.17538531  0.43399736  0.90002045  1
  O2-  O159  1  0.17480696  0.92856338  0.24527949  1
  O2-  O160  1  0.17018977  0.92740706  0.57611294  1
  O2-  O161  1  0.17643449  0.93230614  0.90095531  1
  O2-  O162  1  0.68024600  0.42329757  0.23426566  1
  O2-  O163  1  0.68205661  0.42951814  0.57005620  1
  O2-  O164  1  0.68173869  0.42791699  0.90831225  1
  O2-  O165  1  0.67992875  0.93221643  0.24450427  1
  O2-  O166  1  0.68497989  0.92566670  0.57580584  1
  O2-  O167  1  0.68262617  0.92781266  0.90072333  1
  O2-  O168  1  0.43022804  0.32510013  0.09170831  1
  O2-  O169  1  0.42815026  0.32064304  0.42311123  1
  O2-  O170  1  0.43098297  0.32082875  0.76651355  1
  O2-  O171  1  0.43199174  0.81961203  0.09719565  1
  O2-  O172  1  0.43345357  0.82305391  0.43195681  1
  O2-  O173  1  0.42614495  0.82188913  0.75628091  1
  O2-  O174  1  0.92790451  0.32340073  0.09684055  1
  O2-  O175  1  0.92882347  0.31561488  0.43327061  1
  O2-  O176  1  0.92806793  0.32327811  0.75452650  1
  O2-  O177  1  0.92398440  0.81955933  0.08835149  1
  O2-  O178  1  0.93076667  0.82119277  0.43263898  1
  O2-  O179  1  0.92873510  0.81992831  0.75891564  1
  O2-  O180  1  0.32495695  0.06864169  0.23746152  1
  O2-  O181  1  0.32073296  0.06804415  0.56815184  1
  O2-  O182  1  0.32156572  0.07017571  0.90157725  1
  O2-  O183  1  0.31938195  0.57219577  0.24383982  1
  O2-  O184  1  0.31703754  0.57179455  0.56534498  1
  O2-  O185  1  0.32271543  0.57141915  0.90233091  1
  O2-  O186  1  0.81953963  0.06952527  0.24228503  1
  O2-  O187  1  0.82534920  0.06527649  0.57616931  1
  O2-  O188  1  0.82127567  0.07126851  0.91064592  1
  O2-  O189  1  0.81979985  0.57124418  0.23488138  1
  O2-  O190  1  0.82227518  0.57953143  0.58126126  1
  O2-  O191  1  0.82066353  0.57304670  0.90825456  1
  O2-  O192  1  0.04601415  0.08205166  0.26233427  1
  O2-  O193  1  0.03425718  0.08496882  0.59842482  1
  O2-  O194  1  0.04399341  0.08600311  0.93504916  1
  O2-  O195  1  0.04503763  0.58385315  0.27231361  1
  O2-  O196  1  0.04391368  0.58740196  0.60365388  1
  O2-  O197  1  0.03528385  0.59270697  0.93262523  1
  O2-  O198  1  0.54197529  0.08715311  0.27257380  1
  O2-  O199  1  0.54638399  0.07664811  0.59815922  1
  O2-  O200  1  0.54123525  0.08185576  0.93478958  1
  O2-  O201  1  0.54673997  0.57599002  0.26390219  1
  O2-  O202  1  0.54172741  0.58278140  0.60124828  1
  O2-  O203  1  0.55355236  0.58020089  0.94004865  1
  O2-  O204  1  0.17511612  0.20698563  0.26610617  1
  O2-  O205  1  0.16651891  0.20717673  0.59945012  1
  O2-  O206  1  0.16830063  0.20328631  0.93851467  1
  O2-  O207  1  0.16549167  0.70200217  0.26907782  1
  O2-  O208  1  0.16180041  0.70690316  0.60177103  1
  O2-  O209  1  0.16157887  0.70514788  0.93720902  1
  O2-  O210  1  0.66483431  0.20243787  0.27187997  1
  O2-  O211  1  0.67280778  0.20241691  0.60072087  1
  O2-  O212  1  0.66435165  0.20918953  0.93128058  1
  O2-  O213  1  0.66785266  0.70673809  0.26440512  1
  O2-  O214  1  0.66560344  0.71380259  0.59960106  1
  O2-  O215  1  0.66590774  0.70777145  0.93497134  1
  O2-  O216  1  0.08005975  0.46600568  0.06556909  1
  O2-  O217  1  0.08442648  0.45890818  0.40513434  1
  O2-  O218  1  0.08157265  0.45490963  0.72715615  1
  O2-  O219  1  0.07523616  0.95346943  0.06568994  1
  O2-  O220  1  0.08141380  0.95317545  0.39533085  1
  O2-  O221  1  0.08122268  0.95552099  0.72862732  1
  O2-  O222  1  0.58945384  0.45054424  0.06237406  1
  O2-  O223  1  0.57753408  0.45232973  0.40016739  1
  O2-  O224  1  0.58514472  0.46124156  0.73755315  1
  O2-  O225  1  0.58554007  0.96035529  0.06977579  1
  O2-  O226  1  0.59094909  0.96030132  0.39930515  1
  O2-  O227  1  0.58713105  0.95117383  0.72735457  1
  O2-  O228  1  0.19884154  0.33121031  0.06788972  1
  O2-  O229  1  0.21375081  0.33422924  0.40251374  1
  O2-  O230  1  0.19950291  0.33405280  0.72764710  1
  O2-  O231  1  0.19893508  0.82946983  0.06613377  1
  O2-  O232  1  0.19860483  0.83224422  0.39571138  1
  O2-  O233  1  0.19620226  0.83364801  0.72723219  1
  O2-  O234  1  0.71214232  0.33546974  0.05880423  1
  O2-  O235  1  0.70814605  0.32786140  0.40265201  1
  O2-  O236  1  0.71142110  0.33146197  0.73693658  1
  O2-  O237  1  0.71369579  0.83333208  0.06916682  1
  O2-  O238  1  0.70780210  0.83699202  0.39504622  1
  O2-  O239  1  0.71444624  0.83940459  0.73067860  1
  O2-  O240  1  0.45339731  0.41186810  0.26895722  1
  O2-  O241  1  0.45905583  0.41862882  0.59935812  1
  O2-  O242  1  0.45618595  0.41750977  0.94036054  1
  O2-  O243  1  0.46535441  0.91889086  0.26581428  1
  O2-  O244  1  0.45538512  0.91392973  0.60476926  1
  O2-  O245  1  0.46532810  0.91264546  0.92993221  1
  O2-  O246  1  0.95459606  0.42209919  0.27122233  1
  O2-  O247  1  0.94686291  0.42069277  0.60530205  1
  O2-  O248  1  0.95749964  0.41976092  0.92805818  1
  O2-  O249  1  0.95733717  0.91581578  0.26124946  1
  O2-  O250  1  0.95514898  0.91134924  0.60484377  1
  O2-  O251  1  0.94974386  0.91648626  0.93692978  1
  O2-  O252  1  0.33973005  0.28822775  0.27029214  1
  O2-  O253  1  0.33044191  0.29426221  0.60021553  1
  O2-  O254  1  0.33091215  0.30388205  0.94240714  1
  O2-  O255  1  0.32834431  0.80097641  0.26693643  1
  O2-  O256  1  0.33006589  0.80057461  0.60585159  1
  O2-  O257  1  0.32958132  0.79243769  0.93162132  1
  O2-  O258  1  0.83233219  0.28795968  0.26633498  1
  O2-  O259  1  0.83474648  0.29517905  0.60398087  1
  O2-  O260  1  0.83642853  0.28741659  0.92656773  1
  O2-  O261  1  0.83323628  0.79049846  0.26347455  1
  O2-  O262  1  0.83827708  0.79154689  0.60490624  1
  O2-  O263  1  0.83708428  0.78964434  0.93426623  1
  O2-  O264  1  0.41925582  0.03792521  0.06758006  1
  O2-  O265  1  0.41824968  0.03679598  0.40521085  1
  O2-  O266  1  0.41827996  0.03986743  0.73422739  1
  O2-  O267  1  0.42377511  0.54847819  0.06956660  1
  O2-  O268  1  0.41577258  0.54676796  0.39250837  1
  O2-  O269  1  0.41624894  0.54196392  0.73418808  1
  O2-  O270  1  0.91518468  0.05101394  0.06196794  1
  O2-  O271  1  0.91577288  0.04084939  0.39270444  1
  O2-  O272  1  0.91072888  0.03603613  0.73209065  1
  O2-  O273  1  0.91206490  0.54404996  0.06045004  1
  O2-  O274  1  0.91827833  0.54704751  0.40464711  1
  O2-  O275  1  0.91740951  0.55258048  0.73118134  1
  O2-  O276  1  0.29830651  0.17027088  0.06809419  1
  O2-  O277  1  0.29212633  0.16533596  0.40492235  1
  O2-  O278  1  0.28906131  0.16693690  0.73457407  1
  O2-  O279  1  0.29102266  0.66867805  0.06830505  1
  O2-  O280  1  0.29661867  0.66821415  0.39434349  1
  O2-  O281  1  0.28770709  0.66773792  0.73269350  1
  O2-  O282  1  0.79226320  0.16692917  0.06143299  1
  O2-  O283  1  0.79417085  0.15935584  0.39727711  1
  O2-  O284  1  0.80153842  0.16382871  0.72765849  1
  O2-  O285  1  0.79389470  0.66288937  0.06141027  1
  O2-  O286  1  0.79308112  0.67188125  0.40101194  1
  O2-  O287  1  0.79340255  0.66765626  0.73387477  1
