# generated using pymatgen
data_Ca2Al2SiO7
_symmetry_space_group_name_H-M   'P 1'
_cell_length_a   15.45566397
_cell_length_b   15.45443520
_cell_length_c   15.28160678
_cell_angle_alpha   90.00288658
_cell_angle_beta   89.99181222
_cell_angle_gamma   90.01164378
_symmetry_Int_Tables_number   1
_chemical_formula_structural   Ca2Al2SiO7
_chemical_formula_sum   'Ca48 Al48 Si24 O168'
_cell_volume   3650.14243193
_cell_formula_units_Z   24
loop_
 _symmetry_equiv_pos_site_id
 _symmetry_equiv_pos_as_xyz
  1  'x, y, z'
loop_
 _atom_type_symbol
 _atom_type_oxidation_number
  Ca2+  2.0
  Al0+  0.0
  Si0+  0.0
  O2-  -2.0
loop_
 _atom_site_type_symbol
 _atom_site_label
 _atom_site_symmetry_multiplicity
 _atom_site_fract_x
 _atom_site_fract_y
 _atom_site_fract_z
 _atom_site_occupancy
  Ca2+  Ca0  1  0.17558093  0.06991630  0.17084350  1
  Ca2+  Ca1  1  0.17280651  0.07804214  0.50121816  1
  Ca2+  Ca2  1  0.18050908  0.07378718  0.84138161  1
  Ca2+  Ca3  1  0.16986114  0.58297011  0.16828126  1
  Ca2+  Ca4  1  0.17120226  0.57935745  0.50444014  1
  Ca2+  Ca5  1  0.15752892  0.57519904  0.83788987  1
  Ca2+  Ca6  1  0.67084013  0.07268229  0.17664664  1
  Ca2+  Ca7  1  0.67602152  0.08092134  0.50075580  1
  Ca2+  Ca8  1  0.67280611  0.08506786  0.83353869  1
  Ca2+  Ca9  1  0.67767570  0.59287944  0.17051148  1
  Ca2+  Ca10  1  0.67171143  0.58152245  0.50550278  1
  Ca2+  Ca11  1  0.66392772  0.58648942  0.83553766  1
  Ca2+  Ca12  1  0.07934611  0.33613989  0.16429812  1
  Ca2+  Ca13  1  0.07972658  0.33185974  0.49364471  1
  Ca2+  Ca14  1  0.08605547  0.33617806  0.82723595  1
  Ca2+  Ca15  1  0.08299281  0.83306641  0.16255986  1
  Ca2+  Ca16  1  0.08035739  0.83071076  0.49357874  1
  Ca2+  Ca17  1  0.09186352  0.82011271  0.83140617  1
  Ca2+  Ca18  1  0.57576042  0.33102421  0.16729223  1
  Ca2+  Ca19  1  0.57400838  0.33643570  0.49653960  1
  Ca2+  Ca20  1  0.57526365  0.33430561  0.82296419  1
  Ca2+  Ca21  1  0.57918956  0.83109617  0.15839910  1
  Ca2+  Ca22  1  0.58184643  0.83368297  0.49980633  1
  Ca2+  Ca23  1  0.57428692  0.82379258  0.82906990  1
  Ca2+  Ca24  1  0.32938014  0.42252744  0.17340374  1
  Ca2+  Ca25  1  0.33552161  0.41952686  0.50584209  1
  Ca2+  Ca26  1  0.32234716  0.41436163  0.83499732  1
  Ca2+  Ca27  1  0.32642326  0.91714701  0.17333811  1
  Ca2+  Ca28  1  0.33380485  0.92537825  0.50456820  1
  Ca2+  Ca29  1  0.33996194  0.92153201  0.83993434  1
  Ca2+  Ca30  1  0.83527102  0.42923783  0.17273435  1
  Ca2+  Ca31  1  0.82901512  0.41808384  0.50385959  1
  Ca2+  Ca32  1  0.82230174  0.42381262  0.83792759  1
  Ca2+  Ca33  1  0.82712155  0.91616065  0.18138387  1
  Ca2+  Ca34  1  0.83350045  0.92133661  0.49848848  1
  Ca2+  Ca35  1  0.83519151  0.92088832  0.83370566  1
  Ca2+  Ca36  1  0.40594403  0.16724350  0.16679962  1
  Ca2+  Ca37  1  0.40507874  0.17598995  0.49606968  1
  Ca2+  Ca38  1  0.41119488  0.16845478  0.82567847  1
  Ca2+  Ca39  1  0.42147662  0.67187201  0.15773173  1
  Ca2+  Ca40  1  0.42115814  0.66721114  0.49673736  1
  Ca2+  Ca41  1  0.42050262  0.67953355  0.82484164  1
  Ca2+  Ca42  1  0.91293382  0.17121393  0.16737269  1
  Ca2+  Ca43  1  0.91237004  0.16970971  0.49016040  1
  Ca2+  Ca44  1  0.92008144  0.16673954  0.82587404  1
  Ca2+  Ca45  1  0.91781348  0.66941106  0.16167411  1
  Ca2+  Ca46  1  0.92364679  0.66702824  0.49230772  1
  Ca2+  Ca47  1  0.92583554  0.66126420  0.83251433  1
  Al0+  Al48  1  0.00183725  0.00300618  0.00217045  1
  Al0+  Al49  1  0.00038586  -0.00100394  0.33469061  1
  Al0+  Al50  1  0.00142683  -0.00002956  0.67188097  1
  Al0+  Al51  1  -0.00353242  0.50022534  0.00421881  1
  Al0+  Al52  1  0.00029511  0.49929330  0.33232816  1
  Al0+  Al53  1  -0.00048530  0.50011494  0.66473078  1
  Al0+  Al54  1  0.50338934  0.00379992  -0.00037826  1
  Al0+  Al55  1  0.50003240  -0.00008176  0.34100884  1
  Al0+  Al56  1  0.50291655  0.00055717  0.66698624  1
  Al0+  Al57  1  0.50009452  0.49674404  -0.00399592  1
  Al0+  Al58  1  0.49973148  0.49940424  0.32946579  1
  Al0+  Al59  1  0.50000634  0.50029532  0.66450996  1
  Al0+  Al60  1  0.24718044  0.24985526  0.00792049  1
  Al0+  Al61  1  0.24788358  0.24967785  0.32871166  1
  Al0+  Al62  1  0.24870128  0.24891705  0.66978106  1
  Al0+  Al63  1  0.24866159  0.74939333  -0.00574017  1
  Al0+  Al64  1  0.25139495  0.74752817  0.34104571  1
  Al0+  Al65  1  0.24976009  0.74969289  0.65605862  1
  Al0+  Al66  1  0.74834666  0.25253161  -0.00030081  1
  Al0+  Al67  1  0.74825316  0.25049307  0.32857313  1
  Al0+  Al68  1  0.74966591  0.25140899  0.67582149  1
  Al0+  Al69  1  0.75090555  0.75130383  -0.00244571  1
  Al0+  Al70  1  0.75205544  0.74882144  0.33997483  1
  Al0+  Al71  1  0.75120880  0.75177337  0.66464380  1
  Al0+  Al72  1  0.06941247  0.67667625  0.65061051  1
  Al0+  Al73  1  0.82239929  0.57002277  0.34820923  1
  Al0+  Al74  1  0.32413618  0.07017007  0.01615300  1
  Al0+  Al75  1  0.17835897  0.92631686  0.35022235  1
  Al0+  Al76  1  0.42930150  0.82380683  0.64803905  1
  Al0+  Al77  1  0.32019511  0.07191185  0.35002598  1
  Al0+  Al78  1  0.57342964  0.67797121  0.98581714  1
  Al0+  Al79  1  0.67787704  0.92616649  0.34942859  1
  Al0+  Al80  1  0.82081305  0.07264539  0.34580683  1
  Al0+  Al81  1  0.42762020  0.31804626  0.65438751  1
  Al0+  Al82  1  0.92743039  0.32127478  0.31915495  1
  Al0+  Al83  1  0.93025156  0.81976311  0.32080055  1
  Al0+  Al84  1  0.17767461  0.42990118  0.01508156  1
  Al0+  Al85  1  0.32081185  0.06950684  0.68050346  1
  Al0+  Al86  1  0.82170936  0.07109034  0.68141250  1
  Al0+  Al87  1  0.32316371  0.56939164  0.34611697  1
  Al0+  Al88  1  0.17961153  0.92525217  0.01420314  1
  Al0+  Al89  1  0.42872777  0.82250511  0.98729610  1
  Al0+  Al90  1  0.57196763  0.67851526  0.64892332  1
  Al0+  Al91  1  0.06911518  0.67871865  0.98806305  1
  Al0+  Al92  1  0.67769392  0.43103378  0.67970078  1
  Al0+  Al93  1  0.42781435  0.32092809  0.31798385  1
  Al0+  Al94  1  0.81735876  0.57088469  0.01317845  1
  Al0+  Al95  1  0.17897900  0.43066365  0.67838850  1
  Si0+  Si96  1  0.92794310  0.31947971  0.65376229  1
  Si0+  Si97  1  0.42620198  0.31895162  0.98451916  1
  Si0+  Si98  1  0.07015241  0.18015001  0.98395219  1
  Si0+  Si99  1  0.82215350  0.57321753  0.68303224  1
  Si0+  Si100  1  0.42932204  0.82127401  0.31983269  1
  Si0+  Si101  1  0.57108392  0.17674664  0.31664774  1
  Si0+  Si102  1  0.32345016  0.57093151  0.01264779  1
  Si0+  Si103  1  0.68252206  0.93133948  0.01284319  1
  Si0+  Si104  1  0.07391634  0.67768684  0.31577546  1
  Si0+  Si105  1  0.67769691  0.42853271  0.34787121  1
  Si0+  Si106  1  0.17824256  0.92593095  0.68389057  1
  Si0+  Si107  1  0.07147174  0.17712656  0.31420636  1
  Si0+  Si108  1  0.57135150  0.67896232  0.31856814  1
  Si0+  Si109  1  0.67521596  0.42631828  0.01896666  1
  Si0+  Si110  1  0.32198007  0.57322531  0.68304051  1
  Si0+  Si111  1  0.17813434  0.42854469  0.34911645  1
  Si0+  Si112  1  0.57300790  0.18092903  0.98357494  1
  Si0+  Si113  1  0.07011811  0.17878834  0.65311140  1
  Si0+  Si114  1  0.92957329  0.82447240  0.65015654  1
  Si0+  Si115  1  0.92793354  0.82573101  0.98373455  1
  Si0+  Si116  1  0.67905814  0.92707067  0.68668381  1
  Si0+  Si117  1  0.92830462  0.32103240  0.98306146  1
  Si0+  Si118  1  0.82238787  0.07403882  0.01512848  1
  Si0+  Si119  1  0.57534215  0.17920009  0.65006240  1
  O2-  O120  1  0.25663295  -0.00739921  0.06331836  1
  O2-  O121  1  0.25041317  -0.00172303  0.40015137  1
  O2-  O122  1  0.25230417  -0.01067995  0.72749652  1
  O2-  O123  1  0.25380196  0.50408509  0.05906256  1
  O2-  O124  1  0.24951382  0.49374424  0.39320214  1
  O2-  O125  1  0.25108281  0.50665858  0.72762085  1
  O2-  O126  1  0.75608322  -0.00085013  0.05634264  1
  O2-  O127  1  0.75068447  -0.00031877  0.39643501  1
  O2-  O128  1  0.74839351  -0.00375881  0.73036181  1
  O2-  O129  1  0.73880002  0.50040432  0.06128000  1
  O2-  O130  1  0.74891667  0.49369326  0.39318547  1
  O2-  O131  1  0.74880428  0.50916510  0.72692128  1
  O2-  O132  1  0.00046040  0.24514856  0.27127658  1
  O2-  O133  1  -0.00286744  0.24759967  0.61028651  1
  O2-  O134  1  -0.00124072  0.25029323  0.93948597  1
  O2-  O135  1  0.00610602  0.74747854  0.27198953  1
  O2-  O136  1  -0.00421896  0.75337411  0.60636833  1
  O2-  O137  1  -0.00167185  0.75792945  0.94070561  1
  O2-  O138  1  0.49907871  0.24219025  0.27155083  1
  O2-  O139  1  0.50280947  0.24394921  0.60638306  1
  O2-  O140  1  0.49807644  0.24848270  0.94244365  1
  O2-  O141  1  0.50140654  0.75140677  0.27676722  1
  O2-  O142  1  0.50005232  0.74999755  0.59807877  1
  O2-  O143  1  0.49732715  0.74647634  0.93752631  1
  O2-  O144  1  0.06685174  0.18035568  0.08863159  1
  O2-  O145  1  0.07306156  0.18014359  0.42027258  1
  O2-  O146  1  0.06878551  0.18075434  0.75854719  1
  O2-  O147  1  0.06650086  0.67691451  0.10082673  1
  O2-  O148  1  0.07131566  0.67601513  0.42141026  1
  O2-  O149  1  0.06640204  0.67431534  0.76409914  1
  O2-  O150  1  0.57851251  0.18240317  0.08820106  1
  O2-  O151  1  0.57573399  0.18057627  0.42177216  1
  O2-  O152  1  0.57649999  0.18230656  0.75634190  1
  O2-  O153  1  0.57483744  0.68239138  0.09994293  1
  O2-  O154  1  0.56961711  0.67636339  0.42325975  1
  O2-  O155  1  0.57017270  0.68056303  0.76265958  1
  O2-  O156  1  0.17762128  0.43156642  0.24322045  1
  O2-  O157  1  0.17828421  0.42958390  0.56562483  1
  O2-  O158  1  0.17807047  0.42861458  0.90171723  1
  O2-  O159  1  0.18038463  0.92521187  0.23651817  1
  O2-  O160  1  0.17355741  0.93100319  0.57875712  1
  O2-  O161  1  0.17669552  0.92898292  0.90062591  1
  O2-  O162  1  0.67719168  0.43076394  0.24202005  1
  O2-  O163  1  0.68231557  0.42753293  0.56673699  1
  O2-  O164  1  0.67802982  0.42107199  0.91351419  1
  O2-  O165  1  0.67810188  0.92644296  0.23474108  1
  O2-  O166  1  0.68027702  0.92763150  0.58148520  1
  O2-  O167  1  0.68386575  0.93423640  0.90783544  1
  O2-  O168  1  0.42811849  0.31972659  0.08961081  1
  O2-  O169  1  0.42973874  0.32206743  0.43101421  1
  O2-  O170  1  0.42705395  0.31573191  0.76804585  1
  O2-  O171  1  0.43165059  0.82178147  0.10154621  1
  O2-  O172  1  0.43069477  0.81979385  0.42448007  1
  O2-  O173  1  0.43105402  0.82365807  0.76203735  1
  O2-  O174  1  0.92767487  0.31915509  0.08808087  1
  O2-  O175  1  0.92890063  0.32052067  0.43279038  1
  O2-  O176  1  0.92946242  0.31892401  0.75924530  1
  O2-  O177  1  0.92486848  0.82501434  0.08908664  1
  O2-  O178  1  0.93091292  0.81732587  0.43389004  1
  O2-  O179  1  0.93077185  0.82571371  0.75618014  1
  O2-  O180  1  0.31893909  0.06924598  0.23652147  1
  O2-  O181  1  0.31492635  0.07312232  0.56811516  1
  O2-  O182  1  0.32166344  0.07242020  0.90228396  1
  O2-  O183  1  0.32294085  0.56993687  0.23244998  1
  O2-  O184  1  0.32207406  0.56913683  0.57730498  1
  O2-  O185  1  0.32418643  0.56732540  0.90726813  1
  O2-  O186  1  0.81694870  0.07196085  0.23161051  1
  O2-  O187  1  0.82118208  0.07288840  0.56905394  1
  O2-  O188  1  0.82098022  0.07530316  0.90981796  1
  O2-  O189  1  0.82048541  0.57107260  0.23483308  1
  O2-  O190  1  0.82389683  0.56909360  0.57754922  1
  O2-  O191  1  0.81891945  0.56653708  0.90006892  1
  O2-  O192  1  0.04654661  0.08342322  0.26867233  1
  O2-  O193  1  0.04401212  0.08602429  0.60737059  1
  O2-  O194  1  0.04284576  0.08862803  0.93473513  1
  O2-  O195  1  0.04715161  0.58425411  0.27012936  1
  O2-  O196  1  0.03609595  0.58141840  0.59472680  1
  O2-  O197  1  0.03155281  0.58321754  0.93403046  1
  O2-  O198  1  0.54815487  0.08118330  0.27265206  1
  O2-  O199  1  0.55715694  0.08348532  0.60745795  1
  O2-  O200  1  0.55082622  0.08853142  0.93486338  1
  O2-  O201  1  0.54356260  0.58829241  0.26876270  1
  O2-  O202  1  0.54528610  0.57946953  0.59661871  1
  O2-  O203  1  0.55188165  0.57614467  0.93624925  1
  O2-  O204  1  0.16253440  0.20565517  0.26456893  1
  O2-  O205  1  0.15974460  0.20996314  0.60456200  1
  O2-  O206  1  0.16227686  0.20993959  0.93817410  1
  O2-  O207  1  0.16909122  0.70211740  0.27232962  1
  O2-  O208  1  0.16601811  0.70290724  0.59543813  1
  O2-  O209  1  0.16584580  0.70250247  0.93040391  1
  O2-  O210  1  0.66193875  0.20559949  0.26540420  1
  O2-  O211  1  0.66802214  0.21031838  0.60525872  1
  O2-  O212  1  0.66332647  0.21246738  0.93337133  1
  O2-  O213  1  0.66432525  0.70722841  0.27408914  1
  O2-  O214  1  0.67228169  0.70605635  0.59857781  1
  O2-  O215  1  0.66988206  0.71039050  0.93044827  1
  O2-  O216  1  0.08125807  0.46017516  0.06882268  1
  O2-  O217  1  0.08565019  0.45555349  0.39608732  1
  O2-  O218  1  0.08117739  0.45959787  0.73272532  1
  O2-  O219  1  0.08227373  0.96021589  0.06756784  1
  O2-  O220  1  0.08037799  0.95598485  0.40270031  1
  O2-  O221  1  0.08738338  0.95581973  0.73332683  1
  O2-  O222  1  0.57897880  0.44445739  0.06211476  1
  O2-  O223  1  0.58545334  0.45715303  0.39393088  1
  O2-  O224  1  0.58033183  0.45799309  0.73467247  1
  O2-  O225  1  0.59264209  0.96268722  0.06170272  1
  O2-  O226  1  0.58158407  0.95516977  0.40489746  1
  O2-  O227  1  0.58654223  0.95441518  0.73358047  1
  O2-  O228  1  0.20674673  0.33452215  0.07147370  1
  O2-  O229  1  0.19903897  0.33292132  0.39150782  1
  O2-  O230  1  0.20992454  0.33487797  0.73456164  1
  O2-  O231  1  0.20071113  0.82437311  0.06514222  1
  O2-  O232  1  0.20500693  0.82845020  0.40397129  1
  O2-  O233  1  0.19949717  0.82890751  0.72392197  1
  O2-  O234  1  0.70742154  0.33521484  0.06711939  1
  O2-  O235  1  0.70024134  0.33386610  0.39179036  1
  O2-  O236  1  0.71141543  0.33758134  0.73923786  1
  O2-  O237  1  0.70714576  0.83883766  0.05981859  1
  O2-  O238  1  0.70836706  0.83043499  0.40505040  1
  O2-  O239  1  0.70654130  0.83384468  0.73314903  1
  O2-  O240  1  0.46318392  0.41528700  0.26084910  1
  O2-  O241  1  0.45758156  0.41499872  0.60148626  1
  O2-  O242  1  0.45267379  0.41025188  0.93543271  1
  O2-  O243  1  0.45564845  0.91451573  0.27445155  1
  O2-  O244  1  0.46102608  0.92242542  0.59673667  1
  O2-  O245  1  0.46271649  0.92044743  0.93542549  1
  O2-  O246  1  0.96171248  0.41666230  0.26351941  1
  O2-  O247  1  0.95551821  0.41060323  0.60569835  1
  O2-  O248  1  0.95613686  0.41270267  0.93648603  1
  O2-  O249  1  0.95572966  0.91811132  0.26688650  1
  O2-  O250  1  0.95821298  0.91776384  0.60458868  1
  O2-  O251  1  0.95101444  0.92108365  0.93908993  1
  O2-  O252  1  0.33024324  0.29380460  0.26333799  1
  O2-  O253  1  0.33113070  0.28640998  0.60030649  1
  O2-  O254  1  0.33309348  0.29049085  0.94010791  1
  O2-  O255  1  0.33731163  0.79053794  0.27438604  1
  O2-  O256  1  0.33046050  0.79897842  0.59493961  1
  O2-  O257  1  0.33023024  0.79845345  0.93253259  1
  O2-  O258  1  0.83088838  0.29334237  0.26232313  1
  O2-  O259  1  0.83539722  0.29164413  0.60857833  1
  O2-  O260  1  0.83576729  0.29293967  0.93612381  1
  O2-  O261  1  0.83293297  0.78701166  0.26788999  1
  O2-  O262  1  0.83466996  0.80360159  0.60581994  1
  O2-  O263  1  0.83585888  0.79878917  0.93501649  1
  O2-  O264  1  0.42629286  0.05247644  0.06597083  1
  O2-  O265  1  0.41955724  0.04950644  0.40246349  1
  O2-  O266  1  0.42133692  0.04715645  0.73130394  1
  O2-  O267  1  0.41673411  0.54358750  0.05969402  1
  O2-  O268  1  0.41928463  0.53722955  0.39982171  1
  O2-  O269  1  0.41494075  0.54655335  0.72882792  1
  O2-  O270  1  0.91597652  0.05327449  0.06087618  1
  O2-  O271  1  0.91984525  0.04851927  0.39773877  1
  O2-  O272  1  0.91813774  0.04078552  0.73798366  1
  O2-  O273  1  0.91054012  0.53514185  0.06995538  1
  O2-  O274  1  0.91912358  0.53874748  0.40108141  1
  O2-  O275  1  0.91314815  0.54042500  0.73014404  1
  O2-  O276  1  0.28797952  0.16568420  0.07010766  1
  O2-  O277  1  0.28790529  0.17123819  0.39926133  1
  O2-  O278  1  0.28396175  0.16338682  0.73660192  1
  O2-  O279  1  0.29902671  0.66522803  0.05698053  1
  O2-  O280  1  0.29369231  0.66340909  0.40425926  1
  O2-  O281  1  0.29757306  0.66891689  0.72445978  1
  O2-  O282  1  0.79003771  0.16522487  0.06109364  1
  O2-  O283  1  0.79042661  0.17140035  0.39762435  1
  O2-  O284  1  0.79047021  0.16605406  0.73967386  1
  O2-  O285  1  0.79146546  0.66985846  0.06586507  1
  O2-  O286  1  0.79113803  0.66381451  0.40523275  1
  O2-  O287  1  0.80313656  0.66923259  0.72666840  1
