# generated using pymatgen
data_Ca2Al2SiO7
_symmetry_space_group_name_H-M   'P 1'
_cell_length_a   15.46483081
_cell_length_b   15.46731981
_cell_length_c   15.28844093
_cell_angle_alpha   90.02593668
_cell_angle_beta   89.99521200
_cell_angle_gamma   90.00642490
_symmetry_Int_Tables_number   1
_chemical_formula_structural   Ca2Al2SiO7
_chemical_formula_sum   'Ca48 Al48 Si24 O168'
_cell_volume   3656.98677108
_cell_formula_units_Z   24
loop_
 _symmetry_equiv_pos_site_id
 _symmetry_equiv_pos_as_xyz
  1  'x, y, z'
loop_
 _atom_type_symbol
 _atom_type_oxidation_number
  Ca2+  2.0
  Al0+  0.0
  Si0+  0.0
  O2-  -2.0
loop_
 _atom_site_type_symbol
 _atom_site_label
 _atom_site_symmetry_multiplicity
 _atom_site_fract_x
 _atom_site_fract_y
 _atom_site_fract_z
 _atom_site_occupancy
  Ca2+  Ca0  1  0.16298601  0.06896498  0.16933868  1
  Ca2+  Ca1  1  0.17120205  0.07241469  0.50642249  1
  Ca2+  Ca2  1  0.16904690  0.07170767  0.83232606  1
  Ca2+  Ca3  1  0.17734901  0.58753522  0.17232169  1
  Ca2+  Ca4  1  0.17343708  0.57966703  0.50161316  1
  Ca2+  Ca5  1  0.17499837  0.58568576  0.83524769  1
  Ca2+  Ca6  1  0.66718425  0.07031932  0.16806718  1
  Ca2+  Ca7  1  0.66536683  0.07672733  0.50045532  1
  Ca2+  Ca8  1  0.66958095  0.07621407  0.84103989  1
  Ca2+  Ca9  1  0.66578008  0.58154062  0.16991152  1
  Ca2+  Ca10  1  0.67159279  0.58816068  0.50387300  1
  Ca2+  Ca11  1  0.67716535  0.58195437  0.83864326  1
  Ca2+  Ca12  1  0.08182244  0.33443953  0.16070537  1
  Ca2+  Ca13  1  0.08324382  0.34560132  0.49788668  1
  Ca2+  Ca14  1  0.07508162  0.33978066  0.82597135  1
  Ca2+  Ca15  1  0.08862619  0.82465956  0.15730630  1
  Ca2+  Ca16  1  0.08289579  0.83260788  0.49505310  1
  Ca2+  Ca17  1  0.08030756  0.83281396  0.83041547  1
  Ca2+  Ca18  1  0.57137463  0.33847218  0.15948136  1
  Ca2+  Ca19  1  0.57269788  0.33095846  0.49179160  1
  Ca2+  Ca20  1  0.58015239  0.33814137  0.83581519  1
  Ca2+  Ca21  1  0.58014776  0.83053149  0.16207095  1
  Ca2+  Ca22  1  0.57551805  0.82756801  0.49376817  1
  Ca2+  Ca23  1  0.56993002  0.83971447  0.83001021  1
  Ca2+  Ca24  1  0.33389679  0.42570412  0.17485284  1
  Ca2+  Ca25  1  0.32619906  0.42574091  0.50497408  1
  Ca2+  Ca26  1  0.33367540  0.42926622  0.84036993  1
  Ca2+  Ca27  1  0.32297316  0.90841647  0.16687715  1
  Ca2+  Ca28  1  0.32154172  0.91506638  0.51015304  1
  Ca2+  Ca29  1  0.32564266  0.91076917  0.83837541  1
  Ca2+  Ca30  1  0.82891983  0.41240182  0.16564890  1
  Ca2+  Ca31  1  0.83349494  0.42612071  0.51164152  1
  Ca2+  Ca32  1  0.83467882  0.41906201  0.83839731  1
  Ca2+  Ca33  1  0.82261339  0.90242363  0.16688473  1
  Ca2+  Ca34  1  0.82610873  0.90809579  0.50432652  1
  Ca2+  Ca35  1  0.83069633  0.90999422  0.84224444  1
  Ca2+  Ca36  1  0.41076610  0.18157437  0.16223889  1
  Ca2+  Ca37  1  0.40697977  0.17183778  0.49750213  1
  Ca2+  Ca38  1  0.41351056  0.16923813  0.82907608  1
  Ca2+  Ca39  1  0.41908909  0.66420968  0.16091445  1
  Ca2+  Ca40  1  0.41407186  0.66625033  0.49636828  1
  Ca2+  Ca41  1  0.40952108  0.67434941  0.83188727  1
  Ca2+  Ca42  1  0.91902499  0.17215375  0.15938289  1
  Ca2+  Ca43  1  0.91927362  0.17472372  0.49993537  1
  Ca2+  Ca44  1  0.91705281  0.17789623  0.82955225  1
  Ca2+  Ca45  1  0.93540879  0.67009342  0.15931420  1
  Ca2+  Ca46  1  0.92434636  0.66731343  0.49816978  1
  Ca2+  Ca47  1  0.92217512  0.67326157  0.82864575  1
  Al0+  Al48  1  0.00080053  0.00099803  0.00085762  1
  Al0+  Al49  1  -0.00337251  0.00366512  0.33644895  1
  Al0+  Al50  1  -0.00243986  0.00195528  0.66462287  1
  Al0+  Al51  1  0.00195757  0.50018158  -0.00740827  1
  Al0+  Al52  1  -0.00137057  0.50276505  0.32980073  1
  Al0+  Al53  1  -0.00243285  0.50238012  0.66973014  1
  Al0+  Al54  1  0.50139875  0.00117746  0.00250707  1
  Al0+  Al55  1  0.50173087  0.00126656  0.33716571  1
  Al0+  Al56  1  0.49973148  0.00006591  0.66293737  1
  Al0+  Al57  1  0.50229133  0.49962442  0.00181961  1
  Al0+  Al58  1  0.50112554  0.50056121  0.33045659  1
  Al0+  Al59  1  0.50073795  0.49834401  0.66859609  1
  Al0+  Al60  1  0.25051657  0.24999587  -0.00687067  1
  Al0+  Al61  1  0.24608003  0.25010516  0.33027613  1
  Al0+  Al62  1  0.24803520  0.24744133  0.67300312  1
  Al0+  Al63  1  0.25262630  0.74850077  0.00052255  1
  Al0+  Al64  1  0.24929696  0.75053194  0.33875780  1
  Al0+  Al65  1  0.24894222  0.74855123  0.66831594  1
  Al0+  Al66  1  0.75016214  0.24949966  0.00133201  1
  Al0+  Al67  1  0.74850456  0.24903253  0.33340106  1
  Al0+  Al68  1  0.74974498  0.24832682  0.66038480  1
  Al0+  Al69  1  0.75213111  0.74776921  0.00369940  1
  Al0+  Al70  1  0.74753388  0.74963318  0.33459739  1
  Al0+  Al71  1  0.75008463  0.74880611  0.66886392  1
  Al0+  Al72  1  0.92944010  0.31930070  0.98666283  1
  Al0+  Al73  1  0.67982986  0.92845321  0.34924804  1
  Al0+  Al74  1  0.92783126  0.82251872  0.65233469  1
  Al0+  Al75  1  0.32369218  0.57093829  0.34855640  1
  Al0+  Al76  1  0.17805086  0.92892565  0.34651871  1
  Al0+  Al77  1  0.32066876  0.56967345  0.01514515  1
  Al0+  Al78  1  0.67881287  0.92708408  0.01315909  1
  Al0+  Al79  1  0.07475198  0.67920716  0.98252684  1
  Al0+  Al80  1  0.17676426  0.42863229  0.34553189  1
  Al0+  Al81  1  0.18027790  0.93028848  0.01359184  1
  Al0+  Al82  1  0.32384251  0.57005752  0.68359842  1
  Al0+  Al83  1  0.17663014  0.92795734  0.68206064  1
  Al0+  Al84  1  0.43216144  0.82113142  0.98865738  1
  Al0+  Al85  1  0.32294143  0.06991587  0.68198233  1
  Al0+  Al86  1  0.42916601  0.32252884  0.98423938  1
  Al0+  Al87  1  0.92938969  0.82089722  0.98677212  1
  Al0+  Al88  1  0.68189493  0.42915105  0.01412328  1
  Al0+  Al89  1  0.17777171  0.42945460  0.68236909  1
  Al0+  Al90  1  0.07144652  0.68092136  0.32038332  1
  Al0+  Al91  1  0.57083409  0.67993451  0.31958538  1
  Al0+  Al92  1  0.93011307  0.32208503  0.65150728  1
  Al0+  Al93  1  0.42809419  0.31894834  0.32098203  1
  Al0+  Al94  1  0.42783554  0.82016191  0.65240370  1
  Al0+  Al95  1  0.81903405  0.57169734  0.68092461  1
  Si0+  Si96  1  0.57126187  0.17888545  0.98362395  1
  Si0+  Si97  1  0.07195556  0.17871891  0.64802107  1
  Si0+  Si98  1  0.92754933  0.32242176  0.31866233  1
  Si0+  Si99  1  0.07091450  0.67912990  0.64848011  1
  Si0+  Si100  1  0.06861555  0.17798569  0.31724786  1
  Si0+  Si101  1  0.32055616  0.07326440  0.34688773  1
  Si0+  Si102  1  0.57132185  0.17771571  0.64988830  1
  Si0+  Si103  1  0.92768904  0.82373105  0.31845320  1
  Si0+  Si104  1  0.82066235  0.07555959  0.35278532  1
  Si0+  Si105  1  0.32357900  0.07390611  0.01739533  1
  Si0+  Si106  1  0.67868488  0.42447557  0.68169252  1
  Si0+  Si107  1  0.42789831  0.82366446  0.31828716  1
  Si0+  Si108  1  0.82525904  0.57136749  0.01946522  1
  Si0+  Si109  1  0.82187574  0.07159260  0.01620984  1
  Si0+  Si110  1  0.57185925  0.67742571  0.65242250  1
  Si0+  Si111  1  0.42810601  0.32019724  0.65249502  1
  Si0+  Si112  1  0.07325848  0.17638140  0.98108553  1
  Si0+  Si113  1  0.68025495  0.92941809  0.68132029  1
  Si0+  Si114  1  0.67879874  0.42769144  0.34867414  1
  Si0+  Si115  1  0.81948558  0.07303436  0.68133653  1
  Si0+  Si116  1  0.57384084  0.17719661  0.31420460  1
  Si0+  Si117  1  0.17773467  0.42638141  0.01507876  1
  Si0+  Si118  1  0.81966871  0.56951859  0.34727147  1
  Si0+  Si119  1  0.57391322  0.67689807  0.98348770  1
  O2-  O120  1  0.25507461  0.00522688  0.06151930  1
  O2-  O121  1  0.25705126  0.00029706  0.39125208  1
  O2-  O122  1  0.25422571  -0.00512159  0.73139967  1
  O2-  O123  1  0.24680919  0.49316842  0.06050712  1
  O2-  O124  1  0.25067084  0.49819079  0.39563232  1
  O2-  O125  1  0.25266089  0.49711057  0.73336342  1
  O2-  O126  1  0.75842623  -0.00236643  0.05971924  1
  O2-  O127  1  0.75525489  0.00302692  0.39583153  1
  O2-  O128  1  0.75299338  -0.00163112  0.72396840  1
  O2-  O129  1  0.75655117  0.50240361  0.06369514  1
  O2-  O130  1  0.75000717  0.49751355  0.39125221  1
  O2-  O131  1  0.74606306  0.49411942  0.72547961  1
  O2-  O132  1  -0.00068193  0.25213341  0.27677480  1
  O2-  O133  1  0.00858590  0.25259299  0.60273604  1
  O2-  O134  1  0.00684524  0.24837271  0.93872775  1
  O2-  O135  1  0.00199461  0.76182987  0.27467641  1
  O2-  O136  1  0.00565031  0.75214438  0.60473748  1
  O2-  O137  1  0.00137465  0.75122492  0.93437455  1
  O2-  O138  1  0.50269720  0.24397558  0.27229366  1
  O2-  O139  1  0.49859785  0.24820671  0.60964218  1
  O2-  O140  1  0.50211597  0.24567833  0.93752292  1
  O2-  O141  1  0.49453053  0.75309809  0.27383420  1
  O2-  O142  1  0.49977100  0.74176727  0.60713269  1
  O2-  O143  1  0.50893936  0.74893178  0.94006458  1
  O2-  O144  1  0.07149122  0.17575290  0.08728051  1
  O2-  O145  1  0.06728565  0.17508592  0.42184815  1
  O2-  O146  1  0.06694355  0.17638354  0.75328464  1
  O2-  O147  1  0.07413337  0.68016010  0.09676749  1
  O2-  O148  1  0.06700146  0.67778953  0.43324229  1
  O2-  O149  1  0.06873880  0.67841285  0.75376528  1
  O2-  O150  1  0.57123223  0.17951261  0.08910075  1
  O2-  O151  1  0.57745319  0.17935306  0.42001401  1
  O2-  O152  1  0.57567093  0.17711054  0.75460557  1
  O2-  O153  1  0.57246115  0.67695739  0.08937566  1
  O2-  O154  1  0.57480578  0.68193811  0.43276052  1
  O2-  O155  1  0.57518681  0.68002886  0.75766680  1
  O2-  O156  1  0.17599119  0.42748034  0.23214091  1
  O2-  O157  1  0.17967189  0.43196190  0.56847489  1
  O2-  O158  1  0.17904766  0.42640455  0.90979455  1
  O2-  O159  1  0.17779226  0.93045103  0.23329312  1
  O2-  O160  1  0.17624859  0.93171358  0.56801195  1
  O2-  O161  1  0.17928064  0.93225281  0.90112899  1
  O2-  O162  1  0.68081182  0.42612435  0.24378452  1
  O2-  O163  1  0.67897573  0.42403370  0.57563276  1
  O2-  O164  1  0.68362052  0.43006882  0.90084656  1
  O2-  O165  1  0.68129392  0.92925600  0.23625203  1
  O2-  O166  1  0.68126252  0.93075801  0.57604456  1
  O2-  O167  1  0.67757138  0.93182329  0.89984207  1
  O2-  O168  1  0.43000667  0.32110684  0.09757769  1
  O2-  O169  1  0.43068322  0.31616272  0.43455290  1
  O2-  O170  1  0.43242906  0.32048800  0.75727495  1
  O2-  O171  1  0.43273236  0.82054704  0.10190276  1
  O2-  O172  1  0.43070462  0.82414677  0.42398071  1
  O2-  O173  1  0.43193728  0.82321919  0.76542192  1
  O2-  O174  1  0.92903624  0.31611097  0.10055454  1
  O2-  O175  1  0.92588995  0.32177919  0.42362820  1
  O2-  O176  1  0.92663690  0.31740303  0.76417968  1
  O2-  O177  1  0.92904575  0.81793030  0.10071702  1
  O2-  O178  1  0.92656255  0.82052026  0.42425524  1
  O2-  O179  1  0.92500651  0.82054867  0.76482592  1
  O2-  O180  1  0.31804120  0.07554786  0.24142688  1
  O2-  O181  1  0.32060538  0.07070833  0.56779323  1
  O2-  O182  1  0.32424742  0.07277936  0.91214570  1
  O2-  O183  1  0.32417835  0.56975847  0.23495736  1
  O2-  O184  1  0.32655196  0.56735385  0.57015023  1
  O2-  O185  1  0.32117018  0.56943538  0.90242950  1
  O2-  O186  1  0.81982631  0.08151881  0.24764978  1
  O2-  O187  1  0.81553476  0.07608285  0.57630105  1
  O2-  O188  1  0.81820191  0.07500408  0.91055284  1
  O2-  O189  1  0.81910180  0.56699119  0.24248766  1
  O2-  O190  1  0.81713089  0.57082334  0.56701047  1
  O2-  O191  1  0.82247440  0.57179605  0.91391146  1
  O2-  O192  1  0.03588428  0.08842223  0.26679711  1
  O2-  O193  1  0.03866553  0.08858734  0.59882587  1
  O2-  O194  1  0.04324336  0.08506912  0.93372539  1
  O2-  O195  1  0.03471112  0.58722030  0.26343852  1
  O2-  O196  1  0.03765983  0.58787811  0.60222613  1
  O2-  O197  1  0.04693089  0.58124349  0.92928912  1
  O2-  O198  1  0.55082528  0.08199148  0.27055620  1
  O2-  O199  1  0.54467304  0.08703099  0.59927115  1
  O2-  O200  1  0.54717089  0.08528823  0.93693311  1
  O2-  O201  1  0.54564765  0.58228387  0.26478534  1
  O2-  O202  1  0.55250986  0.58118844  0.60760415  1
  O2-  O203  1  0.54755044  0.58434921  0.93685810  1
  O2-  O204  1  0.15971363  0.20276328  0.26747183  1
  O2-  O205  1  0.16807801  0.19780878  0.60441194  1
  O2-  O206  1  0.16723791  0.19742282  0.93472455  1
  O2-  O207  1  0.16973278  0.70881173  0.26838531  1
  O2-  O208  1  0.16564644  0.70013222  0.60341498  1
  O2-  O209  1  0.17206182  0.70913314  0.93044064  1
  O2-  O210  1  0.66661613  0.20471736  0.26725475  1
  O2-  O211  1  0.66118036  0.20690311  0.59847494  1
  O2-  O212  1  0.66440569  0.20585102  0.93704726  1
  O2-  O213  1  0.66682825  0.71212650  0.26412850  1
  O2-  O214  1  0.66347503  0.70775412  0.60438080  1
  O2-  O215  1  0.66965376  0.69836569  0.94076689  1
  O2-  O216  1  0.08266342  0.45067073  0.05888644  1
  O2-  O217  1  0.07779481  0.45921676  0.39719976  1
  O2-  O218  1  0.07963075  0.45931570  0.73401008  1
  O2-  O219  1  0.08372600  0.96196705  0.06851989  1
  O2-  O220  1  0.08122536  0.96294523  0.39867673  1
  O2-  O221  1  0.07864457  0.96243069  0.73267730  1
  O2-  O222  1  0.58640588  0.46072515  0.06936093  1
  O2-  O223  1  0.58791780  0.45621922  0.39635528  1
  O2-  O224  1  0.58504557  0.44774086  0.72772312  1
  O2-  O225  1  0.58526785  0.96330519  0.07011065  1
  O2-  O226  1  0.58406281  0.96116158  0.40489053  1
  O2-  O227  1  0.58923118  0.96136686  0.72664703  1
  O2-  O228  1  0.20045916  0.33031486  0.05828449  1
  O2-  O229  1  0.20023214  0.32824214  0.39750516  1
  O2-  O230  1  0.19751601  0.32817487  0.73226785  1
  O2-  O231  1  0.21438537  0.83471147  0.06695082  1
  O2-  O232  1  0.20525208  0.83348563  0.40323126  1
  O2-  O233  1  0.20027560  0.82837684  0.73241601  1
  O2-  O234  1  0.71201649  0.33248523  0.06929909  1
  O2-  O235  1  0.70451877  0.33491263  0.39584315  1
  O2-  O236  1  0.70568842  0.33089784  0.72651197  1
  O2-  O237  1  0.70689382  0.82995568  0.06842618  1
  O2-  O238  1  0.71105168  0.83249546  0.40446373  1
  O2-  O239  1  0.70530956  0.83763792  0.72847523  1
  O2-  O240  1  0.46250510  0.41405468  0.26711421  1
  O2-  O241  1  0.45791691  0.41112013  0.60395344  1
  O2-  O242  1  0.46673273  0.41691513  0.93071333  1
  O2-  O243  1  0.45567313  0.91760414  0.27374953  1
  O2-  O244  1  0.46202044  0.91559862  0.59710606  1
  O2-  O245  1  0.46167529  0.91885336  0.93543993  1
  O2-  O246  1  0.95217842  0.41382271  0.26989135  1
  O2-  O247  1  0.95604536  0.42076810  0.59926115  1
  O2-  O248  1  0.95506767  0.41628435  0.93217514  1
  O2-  O249  1  0.94279970  0.92144872  0.27713469  1
  O2-  O250  1  0.95058310  0.92165660  0.59868996  1
  O2-  O251  1  0.95215942  0.92197050  0.93693373  1
  O2-  O252  1  0.33161536  0.28894203  0.26581994  1
  O2-  O253  1  0.33548596  0.29113771  0.60770733  1
  O2-  O254  1  0.33278703  0.29402954  0.92920542  1
  O2-  O255  1  0.33281040  0.80056329  0.27548556  1
  O2-  O256  1  0.32992498  0.79219557  0.59976678  1
  O2-  O257  1  0.33748853  0.78782554  0.93420950  1
  O2-  O258  1  0.83566124  0.29175878  0.27204662  1
  O2-  O259  1  0.83477278  0.28679450  0.59576747  1
  O2-  O260  1  0.83358170  0.28520737  0.93300308  1
  O2-  O261  1  0.83586778  0.79105661  0.27340433  1
  O2-  O262  1  0.83153338  0.78701270  0.59887103  1
  O2-  O263  1  0.82985540  0.79221359  0.93541214  1
  O2-  O264  1  0.41744719  0.05154543  0.06406440  1
  O2-  O265  1  0.41696828  0.05625734  0.39102939  1
  O2-  O266  1  0.42438419  0.04783986  0.73172396  1
  O2-  O267  1  0.41830651  0.53915059  0.06714924  1
  O2-  O268  1  0.42270292  0.54219753  0.40046844  1
  O2-  O269  1  0.42311939  0.54251366  0.73629349  1
  O2-  O270  1  0.91700327  0.05330050  0.06158454  1
  O2-  O271  1  0.91470348  0.05454495  0.39931724  1
  O2-  O272  1  0.91256609  0.05145395  0.72723905  1
  O2-  O273  1  0.91942936  0.54341169  0.06280484  1
  O2-  O274  1  0.91067729  0.54143972  0.39547428  1
  O2-  O275  1  0.91402713  0.54212928  0.73624480  1
  O2-  O276  1  0.29581927  0.16839619  0.06129534  1
  O2-  O277  1  0.28884900  0.16425966  0.39485460  1
  O2-  O278  1  0.29316294  0.16651291  0.73766647  1
  O2-  O279  1  0.29062288  0.66558403  0.07021653  1
  O2-  O280  1  0.29540986  0.66883256  0.40189345  1
  O2-  O281  1  0.29425144  0.66844693  0.73451905  1
  O2-  O282  1  0.79009738  0.16190896  0.06580052  1
  O2-  O283  1  0.79011472  0.16716233  0.40187736  1
  O2-  O284  1  0.78636253  0.16300651  0.72966706  1
  O2-  O285  1  0.79940669  0.66368748  0.06768800  1
  O2-  O286  1  0.79014796  0.66038824  0.39517128  1
  O2-  O287  1  0.78545969  0.66587843  0.73793852  1
