# generated using pymatgen
data_Ca2Al2SiO7
_symmetry_space_group_name_H-M   'P 1'
_cell_length_a   15.46383454
_cell_length_b   15.46268390
_cell_length_c   15.28750038
_cell_angle_alpha   89.99157738
_cell_angle_beta   89.99152853
_cell_angle_gamma   90.00970569
_symmetry_Int_Tables_number   1
_chemical_formula_structural   Ca2Al2SiO7
_chemical_formula_sum   'Ca48 Al48 Si24 O168'
_cell_volume   3655.43055152
_cell_formula_units_Z   24
loop_
 _symmetry_equiv_pos_site_id
 _symmetry_equiv_pos_as_xyz
  1  'x, y, z'
loop_
 _atom_type_symbol
 _atom_type_oxidation_number
  Ca2+  2.0
  Al0+  0.0
  Si0+  0.0
  O2-  -2.0
loop_
 _atom_site_type_symbol
 _atom_site_label
 _atom_site_symmetry_multiplicity
 _atom_site_fract_x
 _atom_site_fract_y
 _atom_site_fract_z
 _atom_site_occupancy
  Ca2+  Ca0  1  0.17714712  0.07337966  0.17424228  1
  Ca2+  Ca1  1  0.17686932  0.07517854  0.49969961  1
  Ca2+  Ca2  1  0.17834064  0.07698237  0.83930902  1
  Ca2+  Ca3  1  0.17109062  0.58598303  0.17097520  1
  Ca2+  Ca4  1  0.15678211  0.58210509  0.49895052  1
  Ca2+  Ca5  1  0.16870171  0.58958961  0.84044176  1
  Ca2+  Ca6  1  0.67063443  0.08118092  0.16549335  1
  Ca2+  Ca7  1  0.67250362  0.07979950  0.50707151  1
  Ca2+  Ca8  1  0.67742536  0.07942556  0.83813073  1
  Ca2+  Ca9  1  0.66625685  0.58254079  0.17434098  1
  Ca2+  Ca10  1  0.66297822  0.57786238  0.49880719  1
  Ca2+  Ca11  1  0.66707447  0.57597711  0.84472473  1
  Ca2+  Ca12  1  0.08549339  0.33549907  0.16471707  1
  Ca2+  Ca13  1  0.08452747  0.33205843  0.49133300  1
  Ca2+  Ca14  1  0.08016343  0.32982192  0.83000793  1
  Ca2+  Ca15  1  0.08308279  0.82614734  0.16690299  1
  Ca2+  Ca16  1  0.07513223  0.82620597  0.49306189  1
  Ca2+  Ca17  1  0.07970110  0.82026887  0.82691235  1
  Ca2+  Ca18  1  0.57502584  0.34014556  0.16237657  1
  Ca2+  Ca19  1  0.58120449  0.33545254  0.49239137  1
  Ca2+  Ca20  1  0.58163361  0.33986102  0.83417996  1
  Ca2+  Ca21  1  0.57945602  0.82013671  0.16112714  1
  Ca2+  Ca22  1  0.57777846  0.83141215  0.49407805  1
  Ca2+  Ca23  1  0.57424451  0.83127727  0.83430830  1
  Ca2+  Ca24  1  0.33498453  0.42039892  0.17130089  1
  Ca2+  Ca25  1  0.32996758  0.41631095  0.49667442  1
  Ca2+  Ca26  1  0.33244331  0.42543176  0.84305294  1
  Ca2+  Ca27  1  0.33562191  0.92448148  0.17304356  1
  Ca2+  Ca28  1  0.33271199  0.92154970  0.50720503  1
  Ca2+  Ca29  1  0.34307473  0.92209680  0.84057441  1
  Ca2+  Ca30  1  0.82042454  0.43156017  0.16999085  1
  Ca2+  Ca31  1  0.82262106  0.42584647  0.50215192  1
  Ca2+  Ca32  1  0.82030095  0.42286012  0.84178476  1
  Ca2+  Ca33  1  0.84047406  0.92007818  0.17070705  1
  Ca2+  Ca34  1  0.83917935  0.91606874  0.50420913  1
  Ca2+  Ca35  1  0.84475760  0.92465247  0.83399444  1
  Ca2+  Ca36  1  0.40648754  0.17680125  0.16309766  1
  Ca2+  Ca37  1  0.41151646  0.17027938  0.49304093  1
  Ca2+  Ca38  1  0.41141942  0.17093997  0.83145506  1
  Ca2+  Ca39  1  0.42610178  0.66529481  0.15582914  1
  Ca2+  Ca40  1  0.42254241  0.67296123  0.49597977  1
  Ca2+  Ca41  1  0.41679494  0.67492027  0.83460722  1
  Ca2+  Ca42  1  0.91742586  0.16864337  0.15903258  1
  Ca2+  Ca43  1  0.91569256  0.16679958  0.49610825  1
  Ca2+  Ca44  1  0.91204784  0.16409740  0.82830988  1
  Ca2+  Ca45  1  0.92462956  0.65829583  0.16357465  1
  Ca2+  Ca46  1  0.92196067  0.67339072  0.48852525  1
  Ca2+  Ca47  1  0.92649718  0.66251210  0.82862239  1
  Al0+  Al48  1  0.00257756  0.00053180  0.00358135  1
  Al0+  Al49  1  0.00366380  0.00050775  0.33367980  1
  Al0+  Al50  1  0.00368289  -0.00031237  0.66737502  1
  Al0+  Al51  1  -0.00287485  0.49694637  -0.00342029  1
  Al0+  Al52  1  -0.00076575  0.49984270  0.33717843  1
  Al0+  Al53  1  -0.00174744  0.49566959  0.66369209  1
  Al0+  Al54  1  0.50273466  0.00324279  0.00284085  1
  Al0+  Al55  1  0.50402402  0.00361715  0.33657982  1
  Al0+  Al56  1  0.50177408  0.00207762  0.66714966  1
  Al0+  Al57  1  0.49662903  0.49872349  -0.00221581  1
  Al0+  Al58  1  0.49847390  0.49895111  0.33132967  1
  Al0+  Al59  1  0.49649268  0.49878994  0.67014325  1
  Al0+  Al60  1  0.24927514  0.24781379  -0.00304756  1
  Al0+  Al61  1  0.25031265  0.25114758  0.33661459  1
  Al0+  Al62  1  0.24946391  0.24980813  0.67029919  1
  Al0+  Al63  1  0.24784386  0.74972889  -0.00328568  1
  Al0+  Al64  1  0.24853972  0.75215292  0.33508089  1
  Al0+  Al65  1  0.25053156  0.74876451  0.65715976  1
  Al0+  Al66  1  0.74930664  0.25000314  0.00753492  1
  Al0+  Al67  1  0.74954755  0.25053848  0.33454967  1
  Al0+  Al68  1  0.74834904  0.24952627  0.67337550  1
  Al0+  Al69  1  0.75196909  0.75176250  -0.00321370  1
  Al0+  Al70  1  0.75002296  0.75323552  0.32998176  1
  Al0+  Al71  1  0.74971938  0.74864360  0.66519133  1
  Al0+  Al72  1  0.82228562  0.06900619  0.01458646  1
  Al0+  Al73  1  0.92892666  0.82202238  0.65230217  1
  Al0+  Al74  1  0.17959349  0.43105336  0.34532040  1
  Al0+  Al75  1  0.81994842  0.57410191  0.34925096  1
  Al0+  Al76  1  0.06842118  0.67733754  0.98641014  1
  Al0+  Al77  1  0.32269206  0.07090673  0.01442107  1
  Al0+  Al78  1  0.67732404  0.43062059  0.68170232  1
  Al0+  Al79  1  0.82234204  0.57369316  0.01313811  1
  Al0+  Al80  1  0.43200162  0.82280470  0.65247525  1
  Al0+  Al81  1  0.31776435  0.57185548  0.01191046  1
  Al0+  Al82  1  0.32261239  0.07063883  0.34906756  1
  Al0+  Al83  1  0.42896912  0.82299933  0.98847292  1
  Al0+  Al84  1  0.67650886  0.42963276  0.34894202  1
  Al0+  Al85  1  0.07036566  0.67551441  0.64934963  1
  Al0+  Al86  1  0.42933950  0.31794972  0.32056113  1
  Al0+  Al87  1  0.32190129  0.07047349  0.68267851  1
  Al0+  Al88  1  0.82197510  0.06809671  0.67856024  1
  Al0+  Al89  1  0.92927189  0.82315656  0.31601916  1
  Al0+  Al90  1  0.42785643  0.31926305  0.98452615  1
  Al0+  Al91  1  0.67645467  0.43112111  0.01674180  1
  Al0+  Al92  1  0.17928299  0.92698937  0.35056986  1
  Al0+  Al93  1  0.07092797  0.67675972  0.31549152  1
  Al0+  Al94  1  0.57300012  0.67744936  0.98451623  1
  Al0+  Al95  1  0.56831810  0.68037222  0.32150166  1
  Si0+  Si96  1  0.57044194  0.67480407  0.65128775  1
  Si0+  Si97  1  0.32293899  0.57359576  0.34982319  1
  Si0+  Si98  1  0.07048353  0.18111040  0.31838017  1
  Si0+  Si99  1  0.07288769  0.18023106  0.65088792  1
  Si0+  Si100  1  0.17897360  0.92764536  0.01626819  1
  Si0+  Si101  1  0.82264466  0.57151570  0.68296317  1
  Si0+  Si102  1  0.57177219  0.18120277  0.65268648  1
  Si0+  Si103  1  0.42817099  0.82572971  0.31906434  1
  Si0+  Si104  1  0.92941413  0.82592565  0.98309511  1
  Si0+  Si105  1  0.57586439  0.17690802  0.31553688  1
  Si0+  Si106  1  0.92692713  0.32061738  0.31800319  1
  Si0+  Si107  1  0.17677943  0.42648914  0.01339689  1
  Si0+  Si108  1  0.82260558  0.07158074  0.34735210  1
  Si0+  Si109  1  0.07048112  0.17774792  0.98378056  1
  Si0+  Si110  1  0.31876464  0.57078324  0.68074534  1
  Si0+  Si111  1  0.67706561  0.92564465  0.68320699  1
  Si0+  Si112  1  0.17717228  0.42776320  0.68202279  1
  Si0+  Si113  1  0.42739415  0.32083642  0.65119805  1
  Si0+  Si114  1  0.92788672  0.31783130  0.98436422  1
  Si0+  Si115  1  0.67774345  0.92788614  0.01746801  1
  Si0+  Si116  1  0.18108438  0.92637747  0.68451201  1
  Si0+  Si117  1  0.57480662  0.17940298  0.98184981  1
  Si0+  Si118  1  0.68019692  0.93003789  0.34834831  1
  Si0+  Si119  1  0.92671511  0.31705928  0.65102621  1
  O2-  O120  1  0.25320843  -0.00874240  0.05936141  1
  O2-  O121  1  0.25725579  -0.00652886  0.40005888  1
  O2-  O122  1  0.25279515  -0.00881890  0.73045619  1
  O2-  O123  1  0.24324391  0.49637776  0.05758260  1
  O2-  O124  1  0.24951632  0.50925488  0.39412802  1
  O2-  O125  1  0.24286164  0.50368305  0.72224323  1
  O2-  O126  1  0.75132554  -0.00798200  0.06199565  1
  O2-  O127  1  0.75319204  -0.00004318  0.38987581  1
  O2-  O128  1  0.75264712  -0.01150359  0.72559134  1
  O2-  O129  1  0.74228812  0.51054383  0.06334024  1
  O2-  O130  1  0.74656488  0.50303113  0.39943909  1
  O2-  O131  1  0.74911128  0.50824758  0.72724554  1
  O2-  O132  1  -0.00140091  0.25038558  0.27478876  1
  O2-  O133  1  -0.00084897  0.24793758  0.60753669  1
  O2-  O134  1  -0.00194381  0.24657305  0.94019967  1
  O2-  O135  1  -0.00243139  0.74786179  0.26592166  1
  O2-  O136  1  -0.00402155  0.74614729  0.60161676  1
  O2-  O137  1  -0.00879020  0.75035370  0.94042001  1
  O2-  O138  1  0.50528012  0.24449523  0.27380383  1
  O2-  O139  1  0.49916447  0.25033581  0.60983361  1
  O2-  O140  1  0.50419342  0.24602389  0.93710960  1
  O2-  O141  1  0.49082970  0.75229571  0.27484692  1
  O2-  O142  1  0.50824848  0.74927074  0.60645823  1
  O2-  O143  1  0.50023166  0.75060815  0.93678428  1
  O2-  O144  1  0.07006332  0.17908995  0.08885564  1
  O2-  O145  1  0.06821996  0.18256857  0.42397645  1
  O2-  O146  1  0.07353613  0.18324526  0.75620364  1
  O2-  O147  1  0.07008758  0.67616015  0.09863115  1
  O2-  O148  1  0.06711272  0.67645492  0.42887492  1
  O2-  O149  1  0.07017213  0.67538697  0.76337506  1
  O2-  O150  1  0.57694175  0.17970666  0.08722339  1
  O2-  O151  1  0.57951445  0.17612156  0.42142322  1
  O2-  O152  1  0.57328487  0.18174962  0.75739955  1
  O2-  O153  1  0.57045906  0.67875875  0.09819260  1
  O2-  O154  1  0.56648095  0.68270081  0.43528694  1
  O2-  O155  1  0.56644057  0.67285158  0.75639525  1
  O2-  O156  1  0.18227888  0.42716887  0.23251598  1
  O2-  O157  1  0.17915203  0.42315922  0.57718793  1
  O2-  O158  1  0.17765241  0.42550848  0.90723972  1
  O2-  O159  1  0.17819046  0.93127373  0.23678631  1
  O2-  O160  1  0.18117210  0.93107057  0.57936149  1
  O2-  O161  1  0.17526343  0.93171246  0.91058859  1
  O2-  O162  1  0.67779027  0.42866962  0.23615329  1
  O2-  O163  1  0.67806836  0.42931737  0.56886966  1
  O2-  O164  1  0.68119027  0.42844724  0.90262481  1
  O2-  O165  1  0.67727751  0.93271778  0.24362649  1
  O2-  O166  1  0.67358676  0.93050257  0.57751604  1
  O2-  O167  1  0.67528010  0.93206767  0.91183863  1
  O2-  O168  1  0.42421969  0.31694938  0.09725920  1
  O2-  O169  1  0.42902043  0.31634992  0.43444212  1
  O2-  O170  1  0.42592459  0.32053646  0.75610560  1
  O2-  O171  1  0.43103472  0.82311574  0.10200040  1
  O2-  O172  1  0.43322542  0.82660454  0.42504049  1
  O2-  O173  1  0.43257494  0.82274216  0.76529191  1
  O2-  O174  1  0.93090531  0.31635164  0.08939984  1
  O2-  O175  1  0.92626794  0.31611052  0.42359469  1
  O2-  O176  1  0.92890215  0.31597084  0.75633667  1
  O2-  O177  1  0.93471037  0.83274954  0.08783363  1
  O2-  O178  1  0.93091287  0.82538342  0.42955213  1
  O2-  O179  1  0.93401777  0.82409940  0.76590083  1
  O2-  O180  1  0.31918105  0.07142930  0.23554360  1
  O2-  O181  1  0.31867025  0.07377883  0.57006710  1
  O2-  O182  1  0.31887529  0.07195875  0.90104054  1
  O2-  O183  1  0.32441730  0.57075420  0.24434044  1
  O2-  O184  1  0.32340357  0.56682391  0.57586966  1
  O2-  O185  1  0.31548350  0.57131208  0.89806111  1
  O2-  O186  1  0.82167476  0.07264529  0.24231140  1
  O2-  O187  1  0.81871518  0.07208976  0.56540573  1
  O2-  O188  1  0.82227864  0.06871495  0.90131559  1
  O2-  O189  1  0.82020512  0.57060628  0.23600980  1
  O2-  O190  1  0.82413957  0.56818332  0.57771970  1
  O2-  O191  1  0.82570918  0.56610406  0.89926158  1
  O2-  O192  1  0.04380380  0.08991097  0.27027578  1
  O2-  O193  1  0.04822605  0.08762599  0.60476372  1
  O2-  O194  1  0.04341108  0.08598371  0.93603334  1
  O2-  O195  1  0.04463539  0.57586228  0.26579875  1
  O2-  O196  1  0.04503619  0.57425223  0.59973415  1
  O2-  O197  1  0.04002616  0.57951933  0.93123696  1
  O2-  O198  1  0.55251858  0.08293893  0.26909232  1
  O2-  O199  1  0.54717484  0.08904675  0.60434513  1
  O2-  O200  1  0.55182043  0.08504802  0.93652336  1
  O2-  O201  1  0.53933015  0.58359259  0.26804949  1
  O2-  O202  1  0.53617132  0.58393483  0.60387898  1
  O2-  O203  1  0.54182091  0.58006662  0.93181914  1
  O2-  O204  1  0.16110636  0.21206282  0.27161152  1
  O2-  O205  1  0.16268360  0.21353785  0.60279837  1
  O2-  O206  1  0.16006593  0.20761340  0.93310019  1
  O2-  O207  1  0.17163960  0.70524756  0.26629670  1
  O2-  O208  1  0.16859089  0.70192074  0.59574192  1
  O2-  O209  1  0.16331407  0.71042703  0.92989523  1
  O2-  O210  1  0.66907454  0.20284598  0.26825936  1
  O2-  O211  1  0.66303829  0.21070196  0.60428492  1
  O2-  O212  1  0.66838316  0.20731359  0.93585778  1
  O2-  O213  1  0.66336664  0.71380201  0.26732797  1
  O2-  O214  1  0.66694875  0.69215052  0.60835213  1
  O2-  O215  1  0.67198978  0.70472846  0.93072981  1
  O2-  O216  1  0.08174198  0.44758070  0.05722274  1
  O2-  O217  1  0.08217258  0.45426537  0.40209380  1
  O2-  O218  1  0.08245827  0.44778280  0.72789541  1
  O2-  O219  1  0.08958764  0.96136701  0.06575534  1
  O2-  O220  1  0.08415743  0.96560129  0.40487573  1
  O2-  O221  1  0.08955666  0.95725266  0.73192111  1
  O2-  O222  1  0.57508936  0.45154065  0.06468983  1
  O2-  O223  1  0.57755344  0.45691210  0.40193145  1
  O2-  O224  1  0.57904113  0.45742659  0.73467362  1
  O2-  O225  1  0.58824861  0.96014446  0.06770639  1
  O2-  O226  1  0.59087165  0.96085599  0.39999126  1
  O2-  O227  1  0.58796419  0.96060371  0.73231875  1
  O2-  O228  1  0.20248834  0.33270638  0.05849051  1
  O2-  O229  1  0.21341133  0.33658394  0.40320204  1
  O2-  O230  1  0.20894123  0.33844862  0.73241362  1
  O2-  O231  1  0.19842399  0.83266848  0.06012408  1
  O2-  O232  1  0.20002882  0.82744131  0.40406207  1
  O2-  O233  1  0.20321056  0.82997242  0.72552780  1
  O2-  O234  1  0.71073725  0.33487695  0.07010854  1
  O2-  O235  1  0.70744550  0.33062208  0.40125324  1
  O2-  O236  1  0.71117737  0.33542132  0.73660512  1
  O2-  O237  1  0.69832494  0.83248772  0.06066061  1
  O2-  O238  1  0.70522397  0.83902148  0.39755854  1
  O2-  O239  1  0.69368054  0.82918584  0.72661491  1
  O2-  O240  1  0.45698311  0.41493388  0.26663906  1
  O2-  O241  1  0.45400029  0.41302808  0.60434989  1
  O2-  O242  1  0.45569921  0.41558835  0.92865419  1
  O2-  O243  1  0.45984981  0.91830578  0.27423092  1
  O2-  O244  1  0.46258829  0.92011297  0.59877570  1
  O2-  O245  1  0.46072595  0.92183204  0.93619566  1
  O2-  O246  1  0.95575528  0.41190671  0.27230747  1
  O2-  O247  1  0.95354554  0.40823816  0.60262731  1
  O2-  O248  1  0.95633179  0.40732434  0.93291716  1
  O2-  O249  1  0.96167136  0.92206891  0.26434856  1
  O2-  O250  1  0.96008680  0.92080411  0.59990433  1
  O2-  O251  1  0.96329216  0.91728200  0.93517775  1
  O2-  O252  1  0.33291226  0.28601987  0.26663184  1
  O2-  O253  1  0.33517483  0.29137560  0.60504664  1
  O2-  O254  1  0.33168378  0.28639372  0.92872260  1
  O2-  O255  1  0.33158188  0.80847475  0.27794565  1
  O2-  O256  1  0.33684969  0.79113546  0.59650477  1
  O2-  O257  1  0.33054394  0.79674455  0.93418720  1
  O2-  O258  1  0.83652109  0.29021096  0.26967210  1
  O2-  O259  1  0.83562931  0.28595136  0.60474867  1
  O2-  O260  1  0.83611596  0.28786582  0.93840382  1
  O2-  O261  1  0.82831381  0.80403390  0.26535425  1
  O2-  O262  1  0.82634549  0.80267585  0.60286903  1
  O2-  O263  1  0.83283338  0.81209361  0.93949302  1
  O2-  O264  1  0.42145981  0.04934332  0.06736106  1
  O2-  O265  1  0.42430045  0.05135381  0.39977855  1
  O2-  O266  1  0.42120832  0.04615795  0.73399144  1
  O2-  O267  1  0.41335672  0.53949315  0.06520596  1
  O2-  O268  1  0.41289407  0.54083363  0.39890956  1
  O2-  O269  1  0.40721221  0.53795531  0.73153788  1
  O2-  O270  1  0.92018947  0.04306558  0.06870011  1
  O2-  O271  1  0.91518379  0.04686727  0.39412400  1
  O2-  O272  1  0.92106947  0.04434330  0.73235132  1
  O2-  O273  1  0.91675181  0.53280691  0.06691128  1
  O2-  O274  1  0.91641807  0.54064118  0.40308540  1
  O2-  O275  1  0.91439875  0.53793013  0.72919074  1
  O2-  O276  1  0.28325127  0.16536290  0.06681440  1
  O2-  O277  1  0.28592389  0.16608715  0.40292393  1
  O2-  O278  1  0.28540512  0.16598772  0.73659707  1
  O2-  O279  1  0.28822023  0.66818144  0.06620645  1
  O2-  O280  1  0.30395971  0.66918328  0.39406448  1
  O2-  O281  1  0.29426431  0.66456983  0.72528848  1
  O2-  O282  1  0.79048158  0.16414982  0.07027167  1
  O2-  O283  1  0.79410072  0.16276464  0.39580735  1
  O2-  O284  1  0.78683515  0.16221689  0.73520595  1
  O2-  O285  1  0.80888103  0.67723821  0.05955840  1
  O2-  O286  1  0.79286311  0.67393497  0.39965967  1
  O2-  O287  1  0.80464514  0.66782303  0.72636162  1
