# generated using pymatgen
data_Ca2Al2SiO7
_symmetry_space_group_name_H-M   'P 1'
_cell_length_a   15.47124263
_cell_length_b   15.46940659
_cell_length_c   15.29310127
_cell_angle_alpha   90.00705943
_cell_angle_beta   90.01713232
_cell_angle_gamma   89.98030713
_symmetry_Int_Tables_number   1
_chemical_formula_structural   Ca2Al2SiO7
_chemical_formula_sum   'Ca48 Al48 Si24 O168'
_cell_volume   3660.11193704
_cell_formula_units_Z   24
loop_
 _symmetry_equiv_pos_site_id
 _symmetry_equiv_pos_as_xyz
  1  'x, y, z'
loop_
 _atom_type_symbol
 _atom_type_oxidation_number
  Ca2+  2.0
  Al0+  0.0
  Si0+  0.0
  O2-  -2.0
loop_
 _atom_site_type_symbol
 _atom_site_label
 _atom_site_symmetry_multiplicity
 _atom_site_fract_x
 _atom_site_fract_y
 _atom_site_fract_z
 _atom_site_occupancy
  Ca2+  Ca0  1  0.17050452  0.08301035  0.17818672  1
  Ca2+  Ca1  1  0.16109506  0.07646202  0.50276400  1
  Ca2+  Ca2  1  0.16322257  0.08408877  0.83601694  1
  Ca2+  Ca3  1  0.17053209  0.57595048  0.17610529  1
  Ca2+  Ca4  1  0.17729032  0.58753209  0.50108964  1
  Ca2+  Ca5  1  0.17673038  0.57407370  0.83760506  1
  Ca2+  Ca6  1  0.65720572  0.08254129  0.17212967  1
  Ca2+  Ca7  1  0.66416722  0.08896355  0.50298394  1
  Ca2+  Ca8  1  0.65918427  0.08250603  0.84047568  1
  Ca2+  Ca9  1  0.67439702  0.57320636  0.17973143  1
  Ca2+  Ca10  1  0.66575909  0.56993551  0.50235927  1
  Ca2+  Ca11  1  0.66137383  0.57759586  0.83051170  1
  Ca2+  Ca12  1  0.08875276  0.32494931  0.16187983  1
  Ca2+  Ca13  1  0.07982943  0.32215486  0.49010807  1
  Ca2+  Ca14  1  0.09018833  0.32313355  0.83135816  1
  Ca2+  Ca15  1  0.08489205  0.82915951  0.17432928  1
  Ca2+  Ca16  1  0.08551774  0.83103646  0.48740393  1
  Ca2+  Ca17  1  0.08287415  0.83462854  0.82584709  1
  Ca2+  Ca18  1  0.57433070  0.32840947  0.16656404  1
  Ca2+  Ca19  1  0.57793629  0.33167444  0.49381415  1
  Ca2+  Ca20  1  0.57540156  0.33017480  0.82266323  1
  Ca2+  Ca21  1  0.57561336  0.83746778  0.16472836  1
  Ca2+  Ca22  1  0.57744577  0.82219234  0.49257418  1
  Ca2+  Ca23  1  0.58428781  0.82795457  0.82840211  1
  Ca2+  Ca24  1  0.33380826  0.41528257  0.17195305  1
  Ca2+  Ca25  1  0.34607145  0.42491054  0.50161608  1
  Ca2+  Ca26  1  0.33747504  0.41568959  0.83547167  1
  Ca2+  Ca27  1  0.32995427  0.92651541  0.18266195  1
  Ca2+  Ca28  1  0.32782819  0.92356237  0.49700604  1
  Ca2+  Ca29  1  0.32700673  0.91988475  0.83442095  1
  Ca2+  Ca30  1  0.82722656  0.41567666  0.18131397  1
  Ca2+  Ca31  1  0.82220303  0.40696256  0.49795264  1
  Ca2+  Ca32  1  0.82435502  0.41263755  0.83453766  1
  Ca2+  Ca33  1  0.82805339  0.91715683  0.17202573  1
  Ca2+  Ca34  1  0.83636828  0.91684106  0.50141929  1
  Ca2+  Ca35  1  0.82397837  0.92213600  0.84093926  1
  Ca2+  Ca36  1  0.42020061  0.17367240  0.16482149  1
  Ca2+  Ca37  1  0.42372943  0.17677350  0.49102096  1
  Ca2+  Ca38  1  0.42485375  0.17990372  0.82906480  1
  Ca2+  Ca39  1  0.40750002  0.67279639  0.17218531  1
  Ca2+  Ca40  1  0.41428520  0.66680809  0.49427693  1
  Ca2+  Ca41  1  0.42106010  0.66622852  0.82293381  1
  Ca2+  Ca42  1  0.92814504  0.17072531  0.17091907  1
  Ca2+  Ca43  1  0.92639552  0.17002974  0.49319557  1
  Ca2+  Ca44  1  0.92843443  0.16388577  0.83013847  1
  Ca2+  Ca45  1  0.91769186  0.66543808  0.17154790  1
  Ca2+  Ca46  1  0.92215185  0.67377679  0.48552872  1
  Ca2+  Ca47  1  0.91795817  0.66950426  0.82961599  1
  Al0+  Al48  1  -0.00257500  -0.00125102  -0.00260920  1
  Al0+  Al49  1  -0.00293622  -0.00165451  0.32839950  1
  Al0+  Al50  1  -0.00156174  -0.00047121  0.66947485  1
  Al0+  Al51  1  0.00185030  0.50077681  0.00147667  1
  Al0+  Al52  1  -0.00030347  0.50106332  0.33134365  1
  Al0+  Al53  1  0.00007153  0.50154758  0.66771753  1
  Al0+  Al54  1  0.49750148  -0.00122044  -0.00078521  1
  Al0+  Al55  1  0.49862774  -0.00250647  0.33391465  1
  Al0+  Al56  1  0.49780057  -0.00023835  0.66654326  1
  Al0+  Al57  1  0.50156585  0.50396263  -0.00038471  1
  Al0+  Al58  1  0.50098429  0.49909318  0.33576926  1
  Al0+  Al59  1  0.50238727  0.50221279  0.66900263  1
  Al0+  Al60  1  0.25078806  0.24992828  -0.00532905  1
  Al0+  Al61  1  0.25336429  0.25000977  0.33142335  1
  Al0+  Al62  1  0.25054762  0.24948289  0.65777169  1
  Al0+  Al63  1  0.24878074  0.74987234  -0.00226305  1
  Al0+  Al64  1  0.24927924  0.74985470  0.33159471  1
  Al0+  Al65  1  0.24904004  0.75026373  0.67745568  1
  Al0+  Al66  1  0.75295809  0.24884364  0.00003488  1
  Al0+  Al67  1  0.75085599  0.24622328  0.33016224  1
  Al0+  Al68  1  0.75156660  0.24942403  0.67204445  1
  Al0+  Al69  1  0.74952880  0.75264053  0.00342389  1
  Al0+  Al70  1  0.75030747  0.74899679  0.33278791  1
  Al0+  Al71  1  0.74962999  0.75044201  0.66370242  1
  Al0+  Al72  1  0.07260161  0.67811896  0.31872044  1
  Al0+  Al73  1  0.42932218  0.81898103  0.32147272  1
  Al0+  Al74  1  0.43002266  0.32266319  0.64994235  1
  Al0+  Al75  1  0.68172654  0.42947633  0.68188707  1
  Al0+  Al76  1  0.32038393  0.56929905  0.68079962  1
  Al0+  Al77  1  0.07259701  0.17884516  0.31919408  1
  Al0+  Al78  1  0.57121800  0.68093726  0.65231829  1
  Al0+  Al79  1  0.17862395  0.93179890  0.68166222  1
  Al0+  Al80  1  0.57306478  0.17733952  0.65224211  1
  Al0+  Al81  1  0.67806468  0.93142728  0.01438782  1
  Al0+  Al82  1  0.17796589  0.93192265  0.34629150  1
  Al0+  Al83  1  0.92614653  0.82134250  0.31677803  1
  Al0+  Al84  1  0.57160685  0.17783809  0.98540476  1
  Al0+  Al85  1  0.42968361  0.32415166  0.31748290  1
  Al0+  Al86  1  0.32353905  0.07391201  0.34907181  1
  Al0+  Al87  1  0.68078497  0.42632397  0.34806344  1
  Al0+  Al88  1  0.57112110  0.17742490  0.31898752  1
  Al0+  Al89  1  0.06996623  0.17844693  0.65259389  1
  Al0+  Al90  1  0.18224547  0.42854788  0.01241455  1
  Al0+  Al91  1  0.31915520  0.56952924  0.34586291  1
  Al0+  Al92  1  0.82367521  0.57212226  0.34912241  1
  Al0+  Al93  1  0.43104011  0.32381742  0.98386038  1
  Al0+  Al94  1  0.06978719  0.17909391  0.98591799  1
  Al0+  Al95  1  0.92915411  0.32097220  0.32017746  1
  Si0+  Si96  1  0.17704316  0.42580962  0.34938254  1
  Si0+  Si97  1  0.57309561  0.68272064  0.98568435  1
  Si0+  Si98  1  0.67962215  0.42850986  0.01480169  1
  Si0+  Si99  1  0.92822831  0.81859616  0.98299479  1
  Si0+  Si100  1  0.07148214  0.67824276  0.98200224  1
  Si0+  Si101  1  0.31782692  0.06847896  0.01315427  1
  Si0+  Si102  1  0.82038116  0.06954623  0.68281847  1
  Si0+  Si103  1  0.07185273  0.67962145  0.65430906  1
  Si0+  Si104  1  0.92806508  0.32361059  0.65227714  1
  Si0+  Si105  1  0.92951605  0.81990378  0.65369412  1
  Si0+  Si106  1  0.42436087  0.82127182  0.65096178  1
  Si0+  Si107  1  0.82097584  0.57173760  0.01359676  1
  Si0+  Si108  1  0.32365414  0.57448006  0.01736714  1
  Si0+  Si109  1  0.57172573  0.67747405  0.31575552  1
  Si0+  Si110  1  0.42682149  0.82057688  0.98374310  1
  Si0+  Si111  1  0.82383806  0.07205978  0.01902344  1
  Si0+  Si112  1  0.17585505  0.92708459  0.01555723  1
  Si0+  Si113  1  0.92872083  0.32554654  0.98262779  1
  Si0+  Si114  1  0.82288849  0.57520659  0.68410476  1
  Si0+  Si115  1  0.17498207  0.42631359  0.68131033  1
  Si0+  Si116  1  0.81968703  0.06816704  0.34867015  1
  Si0+  Si117  1  0.67689313  0.92740866  0.34983916  1
  Si0+  Si118  1  0.67809286  0.92765169  0.68013959  1
  Si0+  Si119  1  0.32260523  0.07415886  0.68522021  1
  O2-  O120  1  0.24538862  -0.00106766  0.05606441  1
  O2-  O121  1  0.24527895  0.00717039  0.39768957  1
  O2-  O122  1  0.25164397  0.00715777  0.73047915  1
  O2-  O123  1  0.25821228  0.50210926  0.05884120  1
  O2-  O124  1  0.24585632  0.49425811  0.39394580  1
  O2-  O125  1  0.24736446  0.49187053  0.72550287  1
  O2-  O126  1  0.74758391  0.01065028  0.06145832  1
  O2-  O127  1  0.74796986  -0.00196846  0.39204198  1
  O2-  O128  1  0.74338132  0.00359862  0.72361479  1
  O2-  O129  1  0.75440654  0.49672177  0.05522074  1
  O2-  O130  1  0.75435136  0.49760959  0.39815988  1
  O2-  O131  1  0.75740103  0.50423860  0.72952788  1
  O2-  O132  1  0.00747299  0.25705628  0.26874497  1
  O2-  O133  1  0.00031811  0.25871922  0.60901417  1
  O2-  O134  1  -0.00386836  0.25526332  0.93863541  1
  O2-  O135  1  -0.00262321  0.74757797  0.26834029  1
  O2-  O136  1  -0.00032614  0.74882414  0.61240501  1
  O2-  O137  1  0.00095517  0.75008639  0.93922589  1
  O2-  O138  1  0.49893690  0.24872611  0.26934966  1
  O2-  O139  1  0.50140482  0.24870682  0.60247719  1
  O2-  O140  1  0.50750334  0.25589805  0.93447162  1
  O2-  O141  1  0.50369849  0.74604584  0.27053177  1
  O2-  O142  1  0.49507285  0.75461178  0.60756509  1
  O2-  O143  1  0.49799421  0.74935663  0.94245903  1
  O2-  O144  1  0.06909319  0.17763376  0.09809166  1
  O2-  O145  1  0.06666312  0.17648131  0.43273617  1
  O2-  O146  1  0.06667928  0.17735947  0.76625661  1
  O2-  O147  1  0.07236247  0.67854846  0.08615068  1
  O2-  O148  1  0.07456061  0.68306691  0.43282454  1
  O2-  O149  1  0.06944431  0.68102586  0.76004773  1
  O2-  O150  1  0.56675971  0.17591940  0.09801769  1
  O2-  O151  1  0.57179040  0.17827404  0.43238607  1
  O2-  O152  1  0.57203901  0.17824190  0.76603650  1
  O2-  O153  1  0.57565591  0.68435823  0.09010369  1
  O2-  O154  1  0.57149478  0.67973657  0.42135025  1
  O2-  O155  1  0.57193516  0.68443908  0.76649192  1
  O2-  O156  1  0.17833264  0.42750508  0.24336266  1
  O2-  O157  1  0.16757739  0.43099346  0.57677755  1
  O2-  O158  1  0.18188231  0.43167259  0.89896288  1
  O2-  O159  1  0.18074537  0.93147651  0.23205085  1
  O2-  O160  1  0.17603547  0.92970858  0.56973406  1
  O2-  O161  1  0.17701881  0.92582403  0.91001340  1
  O2-  O162  1  0.68110172  0.42888898  0.23365254  1
  O2-  O163  1  0.68385728  0.42835177  0.56984713  1
  O2-  O164  1  0.67969493  0.43112302  0.90948786  1
  O2-  O165  1  0.67690593  0.92797760  0.24453839  1
  O2-  O166  1  0.68231568  0.92387856  0.57566967  1
  O2-  O167  1  0.68188603  0.92779795  0.90067319  1
  O2-  O168  1  0.43093464  0.32365916  0.09661582  1
  O2-  O169  1  0.43397533  0.32689695  0.43054442  1
  O2-  O170  1  0.43139988  0.32198875  0.76398292  1
  O2-  O171  1  0.42537398  0.82039641  0.08840181  1
  O2-  O172  1  0.43166099  0.81779842  0.43451187  1
  O2-  O173  1  0.42593234  0.82030767  0.75749507  1
  O2-  O174  1  0.92910628  0.32734873  0.08751369  1
  O2-  O175  1  0.92821196  0.31477482  0.43403179  1
  O2-  O176  1  0.92749135  0.32210662  0.75830413  1
  O2-  O177  1  0.92622114  0.81722782  0.08702629  1
  O2-  O178  1  0.92658363  0.82227695  0.43093104  1
  O2-  O179  1  0.92876081  0.81886279  0.75944103  1
  O2-  O180  1  0.32401368  0.06947972  0.23461841  1
  O2-  O181  1  0.32433304  0.07056100  0.58057692  1
  O2-  O182  1  0.31683654  0.06483570  0.90780199  1
  O2-  O183  1  0.31724195  0.57025510  0.23246835  1
  O2-  O184  1  0.31736529  0.57399705  0.56833641  1
  O2-  O185  1  0.32200309  0.57864883  0.91171126  1
  O2-  O186  1  0.82001115  0.06651313  0.24365791  1
  O2-  O187  1  0.82399709  0.06635667  0.57811113  1
  O2-  O188  1  0.82821014  0.06654227  0.91308840  1
  O2-  O189  1  0.81797801  0.57317568  0.23448499  1
  O2-  O190  1  0.82285646  0.57925183  0.57993061  1
  O2-  O191  1  0.81958008  0.57375590  0.90812399  1
  O2-  O192  1  0.03679194  0.08358027  0.26503508  1
  O2-  O193  1  0.03132962  0.08319335  0.60146430  1
  O2-  O194  1  0.03633805  0.08216535  0.93149155  1
  O2-  O195  1  0.04747151  0.57981282  0.26408526  1
  O2-  O196  1  0.04782613  0.58703159  0.60783224  1
  O2-  O197  1  0.04218935  0.58726758  0.93348071  1
  O2-  O198  1  0.54316580  0.07793202  0.26851096  1
  O2-  O199  1  0.54891956  0.07615863  0.60289297  1
  O2-  O200  1  0.53817839  0.07995403  0.93233165  1
  O2-  O201  1  0.54576025  0.58465366  0.26998406  1
  O2-  O202  1  0.54291500  0.58440529  0.60033021  1
  O2-  O203  1  0.54866139  0.59013693  0.93801193  1
  O2-  O204  1  0.17268663  0.20086535  0.26827677  1
  O2-  O205  1  0.16742062  0.20051238  0.59862681  1
  O2-  O206  1  0.16550168  0.20879461  0.92961686  1
  O2-  O207  1  0.16744311  0.71113182  0.26135036  1
  O2-  O208  1  0.16357217  0.71038080  0.61030268  1
  O2-  O209  1  0.16312088  0.70680085  0.93354447  1
  O2-  O210  1  0.66948923  0.20221597  0.26500199  1
  O2-  O211  1  0.67457980  0.20243738  0.60492823  1
  O2-  O212  1  0.67551946  0.19558844  0.93867657  1
  O2-  O213  1  0.66484367  0.70375855  0.26988558  1
  O2-  O214  1  0.66649512  0.71382034  0.59762333  1
  O2-  O215  1  0.66283245  0.71531506  0.93626353  1
  O2-  O216  1  0.08546653  0.46078603  0.06568940  1
  O2-  O217  1  0.08278601  0.45001719  0.39392962  1
  O2-  O218  1  0.08323382  0.45493567  0.73198907  1
  O2-  O219  1  0.08215107  0.95173238  0.05912374  1
  O2-  O220  1  0.07685672  0.95475904  0.39656721  1
  O2-  O221  1  0.08121671  0.96087418  0.73751185  1
  O2-  O222  1  0.58931359  0.46127617  0.06160487  1
  O2-  O223  1  0.58456171  0.45932174  0.40159305  1
  O2-  O224  1  0.58761990  0.46526553  0.73789742  1
  O2-  O225  1  0.57870681  0.95529267  0.06618525  1
  O2-  O226  1  0.58600618  0.95320314  0.39877541  1
  O2-  O227  1  0.58388783  0.94812348  0.72692978  1
  O2-  O228  1  0.21028521  0.33068678  0.06456806  1
  O2-  O229  1  0.20084211  0.33188169  0.39443034  1
  O2-  O230  1  0.19899783  0.33057720  0.72378419  1
  O2-  O231  1  0.20427949  0.83439264  0.06034200  1
  O2-  O232  1  0.21029489  0.83424853  0.39772781  1
  O2-  O233  1  0.20980641  0.83681401  0.74061824  1
  O2-  O234  1  0.70460697  0.33520625  0.06001856  1
  O2-  O235  1  0.71117501  0.32756735  0.39939879  1
  O2-  O236  1  0.71370278  0.33392685  0.73932133  1
  O2-  O237  1  0.71392105  0.83691611  0.06939758  1
  O2-  O238  1  0.70526786  0.83549308  0.39635061  1
  O2-  O239  1  0.71220409  0.83840440  0.73046496  1
  O2-  O240  1  0.46117455  0.42137113  0.26322746  1
  O2-  O241  1  0.46141167  0.42137167  0.60148624  1
  O2-  O242  1  0.45560643  0.42545819  0.93382187  1
  O2-  O243  1  0.46166144  0.91353885  0.26496259  1
  O2-  O244  1  0.44683872  0.91589970  0.60759089  1
  O2-  O245  1  0.45504878  0.91106870  0.93456523  1
  O2-  O246  1  0.94543943  0.42259678  0.27053281  1
  O2-  O247  1  0.94725747  0.41957735  0.60884445  1
  O2-  O248  1  0.95380304  0.41914726  0.93543065  1
  O2-  O249  1  0.95410455  0.91765810  0.26042237  1
  O2-  O250  1  0.95643486  0.91178513  0.60775609  1
  O2-  O251  1  0.95426432  0.91055960  0.93457227  1
  O2-  O252  1  0.33059217  0.29940052  0.26497940  1
  O2-  O253  1  0.33063965  0.29999746  0.59756894  1
  O2-  O254  1  0.33452041  0.29076619  0.92962433  1
  O2-  O255  1  0.33486156  0.78769835  0.26441025  1
  O2-  O256  1  0.33112690  0.79153642  0.60837128  1
  O2-  O257  1  0.33499071  0.79311891  0.93486413  1
  O2-  O258  1  0.83521353  0.28415091  0.26372000  1
  O2-  O259  1  0.83650935  0.29207544  0.60714265  1
  O2-  O260  1  0.83475627  0.29966782  0.93669816  1
  O2-  O261  1  0.82756269  0.79355213  0.26286463  1
  O2-  O262  1  0.83818244  0.79413014  0.60547661  1
  O2-  O263  1  0.83701528  0.78823650  0.93444229  1
  O2-  O264  1  0.40819994  0.03750033  0.06050868  1
  O2-  O265  1  0.41780836  0.03510292  0.40395819  1
  O2-  O266  1  0.41495101  0.04487901  0.73396318  1
  O2-  O267  1  0.41956512  0.55617239  0.06133541  1
  O2-  O268  1  0.41688205  0.54275564  0.39949498  1
  O2-  O269  1  0.41782461  0.54326474  0.73582097  1
  O2-  O270  1  0.91361407  0.03598786  0.06636897  1
  O2-  O271  1  0.91011156  0.03764129  0.39724169  1
  O2-  O272  1  0.90804170  0.03406148  0.73460487  1
  O2-  O273  1  0.91488053  0.54994480  0.05876857  1
  O2-  O274  1  0.92465647  0.55203708  0.39977976  1
  O2-  O275  1  0.91775434  0.55264944  0.73094763  1
  O2-  O276  1  0.29166537  0.16117460  0.05784931  1
  O2-  O277  1  0.30385780  0.17465973  0.39919611  1
  O2-  O278  1  0.29688657  0.16891162  0.72887405  1
  O2-  O279  1  0.29224427  0.66722767  0.06277680  1
  O2-  O280  1  0.28746280  0.66582931  0.39983153  1
  O2-  O281  1  0.28720553  0.66341671  0.74026118  1
  O2-  O282  1  0.80898167  0.16897883  0.06155787  1
  O2-  O283  1  0.79306731  0.15915941  0.39739930  1
  O2-  O284  1  0.80054328  0.16203872  0.73224522  1
  O2-  O285  1  0.78932943  0.66197519  0.06105763  1
  O2-  O286  1  0.79364883  0.67083681  0.40121559  1
  O2-  O287  1  0.79323348  0.66788708  0.73249579  1
