# generated using pymatgen
data_Ca2Al2SiO7
_symmetry_space_group_name_H-M   'P 1'
_cell_length_a   15.45992049
_cell_length_b   15.46031522
_cell_length_c   15.28497158
_cell_angle_alpha   90.01678668
_cell_angle_beta   89.98839476
_cell_angle_gamma   89.99062633
_symmetry_Int_Tables_number   1
_chemical_formula_structural   Ca2Al2SiO7
_chemical_formula_sum   'Ca48 Al48 Si24 O168'
_cell_volume   3653.34093055
_cell_formula_units_Z   24
loop_
 _symmetry_equiv_pos_site_id
 _symmetry_equiv_pos_as_xyz
  1  'x, y, z'
loop_
 _atom_type_symbol
 _atom_type_oxidation_number
  Ca2+  2.0
  Al0+  0.0
  Si0+  0.0
  O2-  -2.0
loop_
 _atom_site_type_symbol
 _atom_site_label
 _atom_site_symmetry_multiplicity
 _atom_site_fract_x
 _atom_site_fract_y
 _atom_site_fract_z
 _atom_site_occupancy
  Ca2+  Ca0  1  0.16961520  0.07840664  0.17550673  1
  Ca2+  Ca1  1  0.17582895  0.07152546  0.50803210  1
  Ca2+  Ca2  1  0.16848895  0.08125326  0.83464187  1
  Ca2+  Ca3  1  0.16786032  0.58206221  0.17247212  1
  Ca2+  Ca4  1  0.16630614  0.58171477  0.49931080  1
  Ca2+  Ca5  1  0.16206051  0.58962338  0.83327830  1
  Ca2+  Ca6  1  0.66848467  0.07739567  0.16566747  1
  Ca2+  Ca7  1  0.66581426  0.08442344  0.50497642  1
  Ca2+  Ca8  1  0.66607685  0.08018535  0.83667506  1
  Ca2+  Ca9  1  0.67410752  0.57277546  0.16912014  1
  Ca2+  Ca10  1  0.67317731  0.57718018  0.50646192  1
  Ca2+  Ca11  1  0.68128985  0.57909036  0.84289435  1
  Ca2+  Ca12  1  0.07642425  0.33366651  0.16019543  1
  Ca2+  Ca13  1  0.07266268  0.34040057  0.49431615  1
  Ca2+  Ca14  1  0.07350479  0.32958974  0.83108832  1
  Ca2+  Ca15  1  0.08201946  0.82821989  0.15718626  1
  Ca2+  Ca16  1  0.08924002  0.83288949  0.50002092  1
  Ca2+  Ca17  1  0.07304160  0.82350467  0.82566768  1
  Ca2+  Ca18  1  0.58675193  0.33780231  0.16422272  1
  Ca2+  Ca19  1  0.58135045  0.32940194  0.49830908  1
  Ca2+  Ca20  1  0.58188024  0.32920467  0.82467651  1
  Ca2+  Ca21  1  0.57047915  0.83644426  0.16006763  1
  Ca2+  Ca22  1  0.56913489  0.83263863  0.49582808  1
  Ca2+  Ca23  1  0.57413807  0.84133324  0.82975402  1
  Ca2+  Ca24  1  0.32299985  0.42669042  0.17918366  1
  Ca2+  Ca25  1  0.32935463  0.41896909  0.50448000  1
  Ca2+  Ca26  1  0.33451911  0.41620414  0.83693497  1
  Ca2+  Ca27  1  0.32830882  0.91897305  0.17745328  1
  Ca2+  Ca28  1  0.32826080  0.91957840  0.50587918  1
  Ca2+  Ca29  1  0.33215359  0.91570365  0.83272533  1
  Ca2+  Ca30  1  0.83124410  0.41443125  0.16858596  1
  Ca2+  Ca31  1  0.83336267  0.41707889  0.50604495  1
  Ca2+  Ca32  1  0.83789943  0.42353807  0.83931509  1
  Ca2+  Ca33  1  0.82883066  0.91034179  0.16645176  1
  Ca2+  Ca34  1  0.83281888  0.91673940  0.50930093  1
  Ca2+  Ca35  1  0.82957873  0.90978452  0.84148462  1
  Ca2+  Ca36  1  0.41460093  0.16624127  0.16499650  1
  Ca2+  Ca37  1  0.41656799  0.16195996  0.50220918  1
  Ca2+  Ca38  1  0.42335551  0.17082565  0.82102140  1
  Ca2+  Ca39  1  0.40950971  0.67729219  0.16381064  1
  Ca2+  Ca40  1  0.40621381  0.67737262  0.49536257  1
  Ca2+  Ca41  1  0.41914232  0.67927508  0.82848508  1
  Ca2+  Ca42  1  0.92573924  0.17731610  0.15909307  1
  Ca2+  Ca43  1  0.91577218  0.17965055  0.49443889  1
  Ca2+  Ca44  1  0.91754917  0.17684900  0.83074012  1
  Ca2+  Ca45  1  0.92494112  0.66852172  0.15508544  1
  Ca2+  Ca46  1  0.92028910  0.66684314  0.50444303  1
  Ca2+  Ca47  1  0.92091995  0.66609986  0.82718373  1
  Al0+  Al48  1  0.00175274  -0.00004427  -0.00575037  1
  Al0+  Al49  1  -0.00188270  0.00134370  0.33672054  1
  Al0+  Al50  1  -0.00046443  -0.00012684  0.66930267  1
  Al0+  Al51  1  0.00187558  0.49932135  -0.00269880  1
  Al0+  Al52  1  -0.00173236  0.50255071  0.33111518  1
  Al0+  Al53  1  0.00036113  0.50067357  0.66274951  1
  Al0+  Al54  1  0.49993294  0.00214743  0.00086824  1
  Al0+  Al55  1  0.50100167  -0.00029037  0.33093226  1
  Al0+  Al56  1  0.50003451  0.00051380  0.66179854  1
  Al0+  Al57  1  0.49960149  0.50247114  0.00474176  1
  Al0+  Al58  1  0.50275710  0.50014547  0.34107329  1
  Al0+  Al59  1  0.49943509  0.49873567  0.66502656  1
  Al0+  Al60  1  0.25144394  0.24995246  -0.00232831  1
  Al0+  Al61  1  0.25042929  0.24944413  0.34094364  1
  Al0+  Al62  1  0.25047615  0.24978957  0.66791519  1
  Al0+  Al63  1  0.25029456  0.75219388  -0.00825662  1
  Al0+  Al64  1  0.24841832  0.75043791  0.33435276  1
  Al0+  Al65  1  0.24873022  0.74861321  0.66424352  1
  Al0+  Al66  1  0.74959654  0.24840465  0.00063108  1
  Al0+  Al67  1  0.74963602  0.25024759  0.33091078  1
  Al0+  Al68  1  0.74936077  0.24832285  0.65991190  1
  Al0+  Al69  1  0.74724517  0.74866916  0.00999877  1
  Al0+  Al70  1  0.74865946  0.74870928  0.33342614  1
  Al0+  Al71  1  0.75084369  0.74852973  0.66781773  1
  Al0+  Al72  1  0.43062897  0.82283671  0.98546092  1
  Al0+  Al73  1  0.32098056  0.57169401  0.34822218  1
  Al0+  Al74  1  0.07498706  0.17805533  0.98504808  1
  Al0+  Al75  1  0.32186890  0.07015698  0.68465647  1
  Al0+  Al76  1  0.57043633  0.17922609  0.65064476  1
  Al0+  Al77  1  0.67788355  0.92927602  0.01385656  1
  Al0+  Al78  1  0.42675876  0.32312605  0.65064962  1
  Al0+  Al79  1  0.07034155  0.67927608  0.64752427  1
  Al0+  Al80  1  0.82079226  0.56925093  0.68073708  1
  Al0+  Al81  1  0.92693915  0.82218933  0.65153427  1
  Al0+  Al82  1  0.92955034  0.32192471  0.31764190  1
  Al0+  Al83  1  0.93129527  0.31941203  0.65217427  1
  Al0+  Al84  1  0.67812751  0.42718927  0.01405371  1
  Al0+  Al85  1  0.92801454  0.31993017  0.98449651  1
  Al0+  Al86  1  0.07130502  0.67866065  0.98483261  1
  Al0+  Al87  1  0.42947100  0.81896992  0.31859719  1
  Al0+  Al88  1  0.92526173  0.82057302  0.98770194  1
  Al0+  Al89  1  0.17799616  0.92656461  0.68627934  1
  Al0+  Al90  1  0.17646746  0.92928753  0.34707228  1
  Al0+  Al91  1  0.17632337  0.42929841  0.34780210  1
  Al0+  Al92  1  0.43033359  0.81936409  0.65185359  1
  Al0+  Al93  1  0.68096724  0.42742810  0.35012643  1
  Al0+  Al94  1  0.32408206  0.07134921  0.34875583  1
  Al0+  Al95  1  0.82462677  0.57007739  0.01691309  1
  Si0+  Si96  1  0.81895992  0.07026847  0.34752590  1
  Si0+  Si97  1  0.06877390  0.68186194  0.31747729  1
  Si0+  Si98  1  0.57437672  0.67626484  0.31544940  1
  Si0+  Si99  1  0.17872360  0.42956732  0.68280037  1
  Si0+  Si100  1  0.82389008  0.07150176  0.01630724  1
  Si0+  Si101  1  0.67950900  0.92812633  0.34871174  1
  Si0+  Si102  1  0.32242717  0.57057590  0.68343591  1
  Si0+  Si103  1  0.07314968  0.17666907  0.64884009  1
  Si0+  Si104  1  0.92592476  0.82403715  0.31879729  1
  Si0+  Si105  1  0.56989736  0.17981962  0.98715883  1
  Si0+  Si106  1  0.18029161  0.92922353  0.01339990  1
  Si0+  Si107  1  0.82103395  0.07299554  0.68101135  1
  Si0+  Si108  1  0.68030491  0.92938569  0.67950888  1
  Si0+  Si109  1  0.18176690  0.42758540  0.01290474  1
  Si0+  Si110  1  0.42851341  0.32274146  0.31877364  1
  Si0+  Si111  1  0.07213770  0.17732498  0.31954889  1
  Si0+  Si112  1  0.67830136  0.42620111  0.68274305  1
  Si0+  Si113  1  0.57086493  0.17952864  0.31480811  1
  Si0+  Si114  1  0.42976072  0.32321354  0.98942408  1
  Si0+  Si115  1  0.57027675  0.67653682  0.98523005  1
  Si0+  Si116  1  0.82174008  0.57349550  0.35196205  1
  Si0+  Si117  1  0.32101507  0.07205492  0.01506989  1
  Si0+  Si118  1  0.57315443  0.67683504  0.65138638  1
  Si0+  Si119  1  0.32041506  0.57334970  0.01309825  1
  O2-  O120  1  0.24897062  0.00215723  0.05672593  1
  O2-  O121  1  0.25044625  -0.00012253  0.39597321  1
  O2-  O122  1  0.24976025  -0.00048079  0.73653730  1
  O2-  O123  1  0.24938913  0.50215674  0.05477604  1
  O2-  O124  1  0.25211604  0.49686430  0.39874922  1
  O2-  O125  1  0.25315321  0.49754405  0.72564690  1
  O2-  O126  1  0.75844408  -0.00120611  0.06057176  1
  O2-  O127  1  0.75191413  -0.00349193  0.39174276  1
  O2-  O128  1  0.75420681  -0.00264087  0.72216912  1
  O2-  O129  1  0.75370206  0.49523430  0.06494652  1
  O2-  O130  1  0.75474869  0.50286741  0.39584467  1
  O2-  O131  1  0.74579811  0.49489786  0.72760374  1
  O2-  O132  1  0.00906287  0.25058917  0.27370778  1
  O2-  O133  1  0.00523519  0.24527736  0.60317446  1
  O2-  O134  1  -0.00013356  0.24709748  0.93553115  1
  O2-  O135  1  -0.00116868  0.75501426  0.27706532  1
  O2-  O136  1  0.00156027  0.75517929  0.59833740  1
  O2-  O137  1  -0.00654550  0.74567025  0.93726993  1
  O2-  O138  1  0.49797127  0.25020415  0.27438777  1
  O2-  O139  1  0.49806880  0.25065931  0.60049846  1
  O2-  O140  1  0.50489841  0.25692962  0.94754255  1
  O2-  O141  1  0.50256138  0.74230232  0.27144189  1
  O2-  O142  1  0.50254891  0.74221647  0.60509797  1
  O2-  O143  1  0.50760684  0.74998974  0.93942040  1
  O2-  O144  1  0.07731127  0.18096808  0.09916507  1
  O2-  O145  1  0.06590024  0.17461415  0.42459552  1
  O2-  O146  1  0.07106169  0.17963947  0.75455797  1
  O2-  O147  1  0.07593677  0.68194966  0.09900215  1
  O2-  O148  1  0.06790694  0.67976996  0.42204404  1
  O2-  O149  1  0.06784664  0.67756545  0.76086987  1
  O2-  O150  1  0.56719988  0.17632420  0.09247802  1
  O2-  O151  1  0.57350554  0.17870614  0.41932343  1
  O2-  O152  1  0.57206753  0.18033164  0.76483669  1
  O2-  O153  1  0.56419693  0.67438859  0.09069531  1
  O2-  O154  1  0.57939313  0.68153142  0.42089089  1
  O2-  O155  1  0.57187297  0.67859946  0.75710279  1
  O2-  O156  1  0.17735776  0.43181402  0.23339305  1
  O2-  O157  1  0.17808242  0.43181102  0.57783430  1
  O2-  O158  1  0.18584342  0.42440823  0.90787176  1
  O2-  O159  1  0.17596405  0.93021932  0.23248147  1
  O2-  O160  1  0.18019028  0.92846156  0.57254721  1
  O2-  O161  1  0.18322951  0.92848620  0.90909340  1
  O2-  O162  1  0.68214869  0.42732101  0.23707059  1
  O2-  O163  1  0.68007366  0.42710844  0.57700108  1
  O2-  O164  1  0.67327623  0.42951442  0.90085122  1
  O2-  O165  1  0.67942112  0.93018908  0.24357298  1
  O2-  O166  1  0.68115456  0.93065957  0.57395690  1
  O2-  O167  1  0.67364433  0.93538541  0.90078024  1
  O2-  O168  1  0.42676378  0.32073768  0.09456449  1
  O2-  O169  1  0.43079648  0.32283960  0.42320182  1
  O2-  O170  1  0.43069774  0.32470782  0.76536703  1
  O2-  O171  1  0.42839699  0.82207335  0.09868413  1
  O2-  O172  1  0.43226049  0.81921819  0.43141815  1
  O2-  O173  1  0.43368984  0.81969450  0.76523265  1
  O2-  O174  1  0.93021166  0.31820882  0.09833600  1
  O2-  O175  1  0.92833108  0.31936556  0.43082648  1
  O2-  O176  1  0.93118417  0.31818821  0.76495574  1
  O2-  O177  1  0.93112509  0.82151328  0.10210926  1
  O2-  O178  1  0.92303257  0.82355021  0.42333284  1
  O2-  O179  1  0.92276408  0.81846579  0.76461019  1
  O2-  O180  1  0.32362124  0.07025673  0.23402888  1
  O2-  O181  1  0.32168797  0.06719341  0.57140533  1
  O2-  O182  1  0.32353392  0.07325524  0.91068870  1
  O2-  O183  1  0.31735200  0.57197109  0.23368745  1
  O2-  O184  1  0.32259896  0.57031192  0.57867185  1
  O2-  O185  1  0.32318503  0.57080995  0.90798295  1
  O2-  O186  1  0.81784615  0.06895573  0.24242613  1
  O2-  O187  1  0.81799638  0.07441313  0.57548488  1
  O2-  O188  1  0.81938323  0.07472211  0.91085279  1
  O2-  O189  1  0.82087894  0.57533685  0.24662821  1
  O2-  O190  1  0.81822404  0.56808015  0.56737320  1
  O2-  O191  1  0.82253043  0.56910531  0.90322390  1
  O2-  O192  1  0.04040884  0.08590799  0.27066184  1
  O2-  O193  1  0.04736370  0.08280509  0.60483930  1
  O2-  O194  1  0.05046188  0.07973484  0.93154586  1
  O2-  O195  1  0.03932473  0.59131991  0.26813832  1
  O2-  O196  1  0.03779501  0.58274618  0.59335488  1
  O2-  O197  1  0.05093001  0.57838412  0.93326365  1
  O2-  O198  1  0.54435050  0.08740690  0.26656174  1
  O2-  O199  1  0.54340323  0.08175174  0.59524594  1
  O2-  O200  1  0.53632158  0.09155963  0.93703654  1
  O2-  O201  1  0.55224748  0.58030779  0.27331066  1
  O2-  O202  1  0.55101046  0.58224312  0.60635090  1
  O2-  O203  1  0.53974989  0.58552331  0.93617523  1
  O2-  O204  1  0.16893357  0.19640644  0.27739044  1
  O2-  O205  1  0.16726959  0.20132395  0.60501617  1
  O2-  O206  1  0.17166861  0.21012150  0.92978117  1
  O2-  O207  1  0.16079813  0.70785067  0.26961371  1
  O2-  O208  1  0.17015978  0.70296864  0.59596876  1
  O2-  O209  1  0.16708460  0.71067258  0.92890676  1
  O2-  O210  1  0.66155668  0.20891174  0.26581002  1
  O2-  O211  1  0.66730257  0.20717191  0.59393510  1
  O2-  O212  1  0.66323211  0.20005563  0.94008929  1
  O2-  O213  1  0.66643584  0.70516082  0.26689170  1
  O2-  O214  1  0.66515633  0.70458187  0.60398950  1
  O2-  O215  1  0.66652018  0.69717548  0.94452205  1
  O2-  O216  1  0.08913041  0.45208627  0.05923236  1
  O2-  O217  1  0.07924429  0.46333262  0.40003481  1
  O2-  O218  1  0.08843979  0.46154527  0.73028576  1
  O2-  O219  1  0.08706556  0.95385664  0.05981100  1
  O2-  O220  1  0.07811834  0.95690828  0.40123353  1
  O2-  O221  1  0.07787620  0.95417582  0.73706439  1
  O2-  O222  1  0.58059532  0.45919852  0.06997003  1
  O2-  O223  1  0.58478848  0.45568075  0.40563144  1
  O2-  O224  1  0.58317969  0.44953967  0.72669563  1
  O2-  O225  1  0.58424376  0.96891529  0.07034680  1
  O2-  O226  1  0.58892416  0.95930757  0.39562305  1
  O2-  O227  1  0.58978120  0.96126661  0.72644783  1
  O2-  O228  1  0.21364253  0.33791438  0.06273140  1
  O2-  O229  1  0.19882797  0.33009240  0.40063995  1
  O2-  O230  1  0.20305531  0.33686641  0.73002551  1
  O2-  O231  1  0.21159842  0.83785292  0.06047591  1
  O2-  O232  1  0.20393945  0.83120357  0.39899424  1
  O2-  O233  1  0.20786335  0.82698059  0.73590519  1
  O2-  O234  1  0.70134387  0.32665632  0.06639733  1
  O2-  O235  1  0.71189664  0.32997782  0.40215690  1
  O2-  O236  1  0.70416788  0.33146997  0.72590887  1
  O2-  O237  1  0.69860323  0.83230978  0.07193531  1
  O2-  O238  1  0.70432838  0.83543195  0.39526574  1
  O2-  O239  1  0.70374292  0.83695046  0.72741483  1
  O2-  O240  1  0.45807408  0.41504998  0.27246576  1
  O2-  O241  1  0.45432390  0.42152708  0.59696998  1
  O2-  O242  1  0.45228474  0.41689782  0.94322992  1
  O2-  O243  1  0.46389580  0.91506045  0.26447391  1
  O2-  O244  1  0.46457202  0.91370257  0.59720654  1
  O2-  O245  1  0.46266723  0.91961175  0.93283955  1
  O2-  O246  1  0.95651196  0.42009448  0.26505747  1
  O2-  O247  1  0.96297525  0.41471443  0.59749816  1
  O2-  O248  1  0.95912364  0.41700927  0.93208201  1
  O2-  O249  1  0.94949339  0.91769096  0.27277438  1
  O2-  O250  1  0.94831013  0.92419942  0.60233331  1
  O2-  O251  1  0.95217805  0.91875425  0.93447764  1
  O2-  O252  1  0.33503300  0.29677244  0.27260440  1
  O2-  O253  1  0.32729696  0.29715933  0.59971698  1
  O2-  O254  1  0.34095189  0.29215936  0.93862519  1
  O2-  O255  1  0.33173479  0.78926350  0.26538112  1
  O2-  O256  1  0.33401569  0.78814742  0.59954050  1
  O2-  O257  1  0.33701729  0.78943112  0.92893640  1
  O2-  O258  1  0.83472457  0.28463719  0.26420616  1
  O2-  O259  1  0.83537677  0.28771394  0.59764392  1
  O2-  O260  1  0.82901355  0.29112370  0.93266569  1
  O2-  O261  1  0.83394516  0.79477906  0.27159511  1
  O2-  O262  1  0.82894215  0.79112818  0.59739005  1
  O2-  O263  1  0.82213054  0.79944203  0.94196154  1
  O2-  O264  1  0.41200089  0.04375275  0.06390364  1
  O2-  O265  1  0.42319151  0.04208491  0.39948326  1
  O2-  O266  1  0.42230982  0.04132278  0.73456364  1
  O2-  O267  1  0.41074288  0.54686346  0.06381436  1
  O2-  O268  1  0.42074420  0.54981404  0.40024869  1
  O2-  O269  1  0.41510810  0.54456516  0.73123986  1
  O2-  O270  1  0.91950490  0.05046243  0.06036399  1
  O2-  O271  1  0.91065228  0.04723004  0.39678508  1
  O2-  O272  1  0.91399101  0.05276781  0.72843604  1
  O2-  O273  1  0.92453699  0.54314785  0.06845685  1
  O2-  O274  1  0.91555973  0.54898495  0.39643906  1
  O2-  O275  1  0.91763247  0.53668086  0.73245567  1
  O2-  O276  1  0.29438051  0.16458393  0.06301848  1
  O2-  O277  1  0.30130762  0.17026230  0.40205595  1
  O2-  O278  1  0.29633365  0.17098682  0.73578917  1
  O2-  O279  1  0.29090395  0.66564195  0.05875357  1
  O2-  O280  1  0.28756291  0.66781182  0.40140663  1
  O2-  O281  1  0.29271219  0.66150455  0.73110329  1
  O2-  O282  1  0.79254207  0.16217316  0.06572355  1
  O2-  O283  1  0.78620049  0.16033482  0.39498599  1
  O2-  O284  1  0.78680778  0.16250656  0.72954537  1
  O2-  O285  1  0.79479052  0.66689242  0.07297772  1
  O2-  O286  1  0.79346286  0.66653724  0.39867422  1
  O2-  O287  1  0.78942684  0.66570718  0.73506768  1
