# generated using pymatgen
data_Ca2Al2SiO7
_symmetry_space_group_name_H-M   'P 1'
_cell_length_a   15.45413335
_cell_length_b   15.45440163
_cell_length_c   15.28152323
_cell_angle_alpha   89.99714957
_cell_angle_beta   89.99951696
_cell_angle_gamma   89.99823582
_symmetry_Int_Tables_number   1
_chemical_formula_structural   Ca2Al2SiO7
_chemical_formula_sum   'Ca48 Al48 Si24 O168'
_cell_volume   3649.75317613
_cell_formula_units_Z   24
loop_
 _symmetry_equiv_pos_site_id
 _symmetry_equiv_pos_as_xyz
  1  'x, y, z'
loop_
 _atom_type_symbol
 _atom_type_oxidation_number
  Ca2+  2.0
  Al0+  0.0
  Si0+  0.0
  O2-  -2.0
loop_
 _atom_site_type_symbol
 _atom_site_label
 _atom_site_symmetry_multiplicity
 _atom_site_fract_x
 _atom_site_fract_y
 _atom_site_fract_z
 _atom_site_occupancy
  Ca2+  Ca0  1  0.17881725  0.07885974  0.16924613  1
  Ca2+  Ca1  1  0.16839692  0.07741948  0.50687498  1
  Ca2+  Ca2  1  0.16372177  0.07541051  0.83924826  1
  Ca2+  Ca3  1  0.15681788  0.57593964  0.17070309  1
  Ca2+  Ca4  1  0.17004647  0.58100022  0.50152462  1
  Ca2+  Ca5  1  0.17179128  0.57718297  0.83914252  1
  Ca2+  Ca6  1  0.66681324  0.08002606  0.17184675  1
  Ca2+  Ca7  1  0.67162581  0.08639424  0.50897821  1
  Ca2+  Ca8  1  0.67251278  0.09339279  0.82977910  1
  Ca2+  Ca9  1  0.67807812  0.58203432  0.17619582  1
  Ca2+  Ca10  1  0.66241166  0.57535153  0.50451099  1
  Ca2+  Ca11  1  0.66932368  0.57847299  0.83486856  1
  Ca2+  Ca12  1  0.07999167  0.34290128  0.16359902  1
  Ca2+  Ca13  1  0.07197885  0.33727639  0.49487635  1
  Ca2+  Ca14  1  0.07991984  0.32811227  0.82577214  1
  Ca2+  Ca15  1  0.08106230  0.81947824  0.15720531  1
  Ca2+  Ca16  1  0.08623571  0.82787470  0.49587958  1
  Ca2+  Ca17  1  0.08509862  0.83545742  0.83286324  1
  Ca2+  Ca18  1  0.57643318  0.33674860  0.16396749  1
  Ca2+  Ca19  1  0.58271251  0.33598789  0.50140969  1
  Ca2+  Ca20  1  0.57245130  0.33291392  0.82173709  1
  Ca2+  Ca21  1  0.57954149  0.82929822  0.16870042  1
  Ca2+  Ca22  1  0.57947860  0.81898027  0.49167391  1
  Ca2+  Ca23  1  0.58069075  0.82411442  0.82662101  1
  Ca2+  Ca24  1  0.31973684  0.41065579  0.16899484  1
  Ca2+  Ca25  1  0.33061989  0.42153043  0.50598736  1
  Ca2+  Ca26  1  0.33481334  0.41697103  0.83728507  1
  Ca2+  Ca27  1  0.33679697  0.92515099  0.17268227  1
  Ca2+  Ca28  1  0.33155770  0.91738111  0.50349121  1
  Ca2+  Ca29  1  0.31956892  0.92380317  0.84052047  1
  Ca2+  Ca30  1  0.83173249  0.42805886  0.17802754  1
  Ca2+  Ca31  1  0.82633975  0.41467708  0.50134769  1
  Ca2+  Ca32  1  0.82832778  0.41693378  0.83471301  1
  Ca2+  Ca33  1  0.83686321  0.91403505  0.16630444  1
  Ca2+  Ca34  1  0.83289921  0.92381745  0.50838467  1
  Ca2+  Ca35  1  0.83665117  0.92160387  0.83624700  1
  Ca2+  Ca36  1  0.41159750  0.16844129  0.16004700  1
  Ca2+  Ca37  1  0.41800932  0.16882379  0.49838949  1
  Ca2+  Ca38  1  0.41487607  0.17737974  0.82858969  1
  Ca2+  Ca39  1  0.42192965  0.66729497  0.16756550  1
  Ca2+  Ca40  1  0.42408213  0.66593565  0.49603736  1
  Ca2+  Ca41  1  0.42074647  0.66251599  0.82207256  1
  Ca2+  Ca42  1  0.91817147  0.17633544  0.16526383  1
  Ca2+  Ca43  1  0.91763272  0.17576169  0.50232394  1
  Ca2+  Ca44  1  0.92294159  0.17144507  0.81850593  1
  Ca2+  Ca45  1  0.92317254  0.66225307  0.15949651  1
  Ca2+  Ca46  1  0.92299537  0.66306582  0.49071582  1
  Ca2+  Ca47  1  0.92057206  0.66692028  0.83769212  1
  Al0+  Al48  1  -0.00055029  -0.00043400  0.00410212  1
  Al0+  Al49  1  0.00214372  0.00172330  0.33277896  1
  Al0+  Al50  1  -0.00088305  -0.00033975  0.66986524  1
  Al0+  Al51  1  -0.00061219  0.50143947  -0.00045874  1
  Al0+  Al52  1  -0.00148714  0.49963205  0.33451815  1
  Al0+  Al53  1  -0.00020805  0.50148020  0.66395782  1
  Al0+  Al54  1  0.50328610  -0.00041967  0.00076212  1
  Al0+  Al55  1  0.50093797  0.00095977  0.33513667  1
  Al0+  Al56  1  0.49891949  -0.00046301  0.66594126  1
  Al0+  Al57  1  0.49971842  0.49883377  -0.00329994  1
  Al0+  Al58  1  0.49973501  0.49868563  0.32956560  1
  Al0+  Al59  1  0.50047065  0.50039280  0.66685179  1
  Al0+  Al60  1  0.24981498  0.25058618  0.00252302  1
  Al0+  Al61  1  0.24951940  0.24805184  0.34364344  1
  Al0+  Al62  1  0.24926836  0.24912315  0.65793194  1
  Al0+  Al63  1  0.25091951  0.74876267  -0.00065122  1
  Al0+  Al64  1  0.24958787  0.75073601  0.32344811  1
  Al0+  Al65  1  0.24979423  0.74986251  0.67585080  1
  Al0+  Al66  1  0.74897892  0.24964348  0.00201919  1
  Al0+  Al67  1  0.75015941  0.25071835  0.32996759  1
  Al0+  Al68  1  0.74945701  0.25120757  0.66954560  1
  Al0+  Al69  1  0.75114283  0.75084571  -0.00046698  1
  Al0+  Al70  1  0.75069579  0.75111075  0.33399103  1
  Al0+  Al71  1  0.75087534  0.74968018  0.66303078  1
  Al0+  Al72  1  0.07106960  0.17579100  0.65151670  1
  Al0+  Al73  1  0.81827889  0.56982162  0.01241796  1
  Al0+  Al74  1  0.07278435  0.67704923  0.98155647  1
  Al0+  Al75  1  0.67722282  0.42852010  0.34830932  1
  Al0+  Al76  1  0.32258548  0.06985789  0.35040869  1
  Al0+  Al77  1  0.57174196  0.67962989  0.65361940  1
  Al0+  Al78  1  0.81830340  0.07019195  0.67978082  1
  Al0+  Al79  1  0.68049486  0.43060288  0.68170033  1
  Al0+  Al80  1  0.92975001  0.31889608  0.31794403  1
  Al0+  Al81  1  0.57221136  0.67616631  0.31638313  1
  Al0+  Al82  1  0.57034252  0.17853190  0.65196296  1
  Al0+  Al83  1  0.17815832  0.42965124  0.34851799  1
  Al0+  Al84  1  0.92907672  0.32323083  0.65213389  1
  Al0+  Al85  1  0.42794894  0.32244632  0.64895004  1
  Al0+  Al86  1  0.42855400  0.31903873  0.98773859  1
  Al0+  Al87  1  0.82085626  0.57272980  0.35001594  1
  Al0+  Al88  1  0.17965347  0.92983144  0.68047780  1
  Al0+  Al89  1  0.06943091  0.67932366  0.32047579  1
  Al0+  Al90  1  0.18050452  0.43068218  0.01119371  1
  Al0+  Al91  1  0.32130035  0.06980314  0.01347295  1
  Al0+  Al92  1  0.31991722  0.56847233  0.67862001  1
  Al0+  Al93  1  0.92901630  0.82167801  0.98359741  1
  Al0+  Al94  1  0.43000448  0.82226503  0.31813323  1
  Al0+  Al95  1  0.17704129  0.92669963  0.01873545  1
  Si0+  Si96  1  0.92796355  0.82607515  0.31847485  1
  Si0+  Si97  1  0.57403405  0.17597412  0.98327901  1
  Si0+  Si98  1  0.92727780  0.32168438  0.98549723  1
  Si0+  Si99  1  0.17886100  0.92700417  0.34896111  1
  Si0+  Si100  1  0.82199896  0.07154429  0.34704610  1
  Si0+  Si101  1  0.06918806  0.18040530  0.98807735  1
  Si0+  Si102  1  0.43010104  0.82321229  0.98397208  1
  Si0+  Si103  1  0.57058167  0.68021455  0.98480430  1
  Si0+  Si104  1  0.67649838  0.42685468  0.01681782  1
  Si0+  Si105  1  0.92959044  0.82098143  0.65169854  1
  Si0+  Si106  1  0.67969409  0.93016473  0.34882745  1
  Si0+  Si107  1  0.42632401  0.31992561  0.31831807  1
  Si0+  Si108  1  0.32592890  0.57255489  0.01728370  1
  Si0+  Si109  1  0.68028220  0.92860010  0.01543474  1
  Si0+  Si110  1  0.32161712  0.57338698  0.34683037  1
  Si0+  Si111  1  0.67717538  0.92539023  0.68252695  1
  Si0+  Si112  1  0.82471555  0.57513548  0.68448590  1
  Si0+  Si113  1  0.42587684  0.82079527  0.65295741  1
  Si0+  Si114  1  0.82134936  0.07299762  0.01660175  1
  Si0+  Si115  1  0.32350306  0.07380161  0.68356729  1
  Si0+  Si116  1  0.07251354  0.68029690  0.65261358  1
  Si0+  Si117  1  0.57099664  0.17958626  0.31767532  1
  Si0+  Si118  1  0.17619296  0.42693564  0.68155637  1
  Si0+  Si119  1  0.07391614  0.17714764  0.31499195  1
  O2-  O120  1  0.25374422  -0.00492153  0.06664326  1
  O2-  O121  1  0.24798426  -0.00596492  0.39476417  1
  O2-  O122  1  0.25188774  0.00757160  0.72657313  1
  O2-  O123  1  0.25353974  0.50691246  0.05976345  1
  O2-  O124  1  0.25356461  0.50495177  0.39242848  1
  O2-  O125  1  0.24791531  0.49164542  0.72639278  1
  O2-  O126  1  0.75028907  0.00129670  0.05773656  1
  O2-  O127  1  0.75491603  -0.00281417  0.38943207  1
  O2-  O128  1  0.74181208  -0.00270457  0.72803430  1
  O2-  O129  1  0.74557028  0.49437187  0.06076064  1
  O2-  O130  1  0.74540858  0.50389699  0.39886249  1
  O2-  O131  1  0.75652160  0.50511831  0.72741991  1
  O2-  O132  1  0.00715622  0.24723608  0.26962133  1
  O2-  O133  1  0.00381342  0.25307816  0.60279979  1
  O2-  O134  1  -0.00366322  0.24879723  0.94413097  1
  O2-  O135  1  -0.00624268  0.75454067  0.27576138  1
  O2-  O136  1  -0.00102327  0.74864035  0.60981122  1
  O2-  O137  1  0.00428002  0.75368502  0.93246068  1
  O2-  O138  1  0.49895415  0.24973273  0.27624041  1
  O2-  O139  1  0.49780690  0.24775932  0.59905372  1
  O2-  O140  1  0.50457896  0.24493018  0.94215959  1
  O2-  O141  1  0.49980762  0.74839750  0.26655939  1
  O2-  O142  1  0.49805544  0.75617646  0.60855619  1
  O2-  O143  1  0.49534104  0.74663552  0.94175901  1
  O2-  O144  1  0.06765905  0.18218519  0.09321678  1
  O2-  O145  1  0.06982112  0.17343746  0.42007628  1
  O2-  O146  1  0.06828126  0.17577772  0.76616517  1
  O2-  O147  1  0.06716323  0.67430472  0.09501030  1
  O2-  O148  1  0.07117891  0.68293207  0.43440043  1
  O2-  O149  1  0.07217352  0.67997723  0.75725968  1
  O2-  O150  1  0.57695764  0.17498261  0.08926311  1
  O2-  O151  1  0.57293319  0.17767231  0.42219146  1
  O2-  O152  1  0.56928299  0.18058865  0.76586588  1
  O2-  O153  1  0.57103781  0.68215334  0.08963069  1
  O2-  O154  1  0.57027058  0.67797280  0.42988310  1
  O2-  O155  1  0.57142268  0.68169828  0.76754622  1
  O2-  O156  1  0.17943351  0.42937405  0.23497732  1
  O2-  O157  1  0.17442637  0.43247580  0.57612691  1
  O2-  O158  1  0.18183028  0.42879828  0.89810721  1
  O2-  O159  1  0.17748826  0.92975951  0.24396060  1
  O2-  O160  1  0.18172127  0.92654441  0.56713244  1
  O2-  O161  1  0.17681419  0.93215696  0.90489050  1
  O2-  O162  1  0.67932775  0.42712680  0.23416082  1
  O2-  O163  1  0.68014794  0.43154904  0.56905783  1
  O2-  O164  1  0.67699307  0.42678759  0.91125157  1
  O2-  O165  1  0.67862485  0.93248719  0.24314590  1
  O2-  O166  1  0.68134780  0.92363581  0.57690878  1
  O2-  O167  1  0.67909745  0.92759883  0.91062285  1
  O2-  O168  1  0.42937350  0.31754338  0.10132800  1
  O2-  O169  1  0.42689754  0.31984297  0.42286766  1
  O2-  O170  1  0.42855413  0.32155727  0.76299681  1
  O2-  O171  1  0.43498813  0.82582106  0.08877735  1
  O2-  O172  1  0.43213394  0.82181875  0.43196234  1
  O2-  O173  1  0.42706719  0.81856044  0.75898162  1
  O2-  O174  1  0.92665508  0.31987450  0.09065748  1
  O2-  O175  1  0.92774462  0.31554980  0.43044551  1
  O2-  O176  1  0.93069814  0.32176651  0.76676227  1
  O2-  O177  1  0.92676567  0.81943122  0.09727578  1
  O2-  O178  1  0.93029859  0.83049892  0.42437458  1
  O2-  O179  1  0.92848754  0.82169001  0.75637236  1
  O2-  O180  1  0.32282193  0.07024619  0.23717341  1
  O2-  O181  1  0.32563803  0.06885074  0.57804431  1
  O2-  O182  1  0.31929733  0.07008103  0.90010316  1
  O2-  O183  1  0.32205113  0.57120080  0.24113379  1
  O2-  O184  1  0.31678807  0.57198882  0.56541137  1
  O2-  O185  1  0.32918258  0.56978272  0.91160963  1
  O2-  O186  1  0.81970773  0.07121762  0.24138599  1
  O2-  O187  1  0.81856993  0.06664437  0.56628997  1
  O2-  O188  1  0.82052948  0.07551755  0.91185957  1
  O2-  O189  1  0.82080717  0.57086744  0.23601289  1
  O2-  O190  1  0.82545225  0.57796907  0.57947064  1
  O2-  O191  1  0.81549505  0.56878571  0.89912583  1
  O2-  O192  1  0.04609524  0.08451037  0.26680852  1
  O2-  O193  1  0.03632519  0.07922147  0.59796388  1
  O2-  O194  1  0.04194454  0.08784957  0.94245322  1
  O2-  O195  1  0.03725422  0.58340795  0.26686966  1
  O2-  O196  1  0.04747125  0.58834911  0.60435465  1
  O2-  O197  1  0.03805955  0.58059516  0.92702868  1
  O2-  O198  1  0.54357950  0.08779123  0.26954985  1
  O2-  O199  1  0.54729091  0.07733276  0.60016718  1
  O2-  O200  1  0.55245460  0.08160259  0.93724021  1
  O2-  O201  1  0.54391528  0.57847526  0.26130800  1
  O2-  O202  1  0.53802218  0.58523830  0.59968431  1
  O2-  O203  1  0.54693585  0.58674433  0.93837989  1
  O2-  O204  1  0.16939919  0.20180335  0.27317156  1
  O2-  O205  1  0.17071678  0.19479051  0.59870494  1
  O2-  O206  1  0.15993376  0.20957145  0.94032865  1
  O2-  O207  1  0.16450236  0.70745721  0.26254221  1
  O2-  O208  1  0.16350914  0.71249081  0.60653566  1
  O2-  O209  1  0.17446213  0.69924224  0.93170783  1
  O2-  O210  1  0.66185331  0.20648712  0.26715728  1
  O2-  O211  1  0.66926643  0.20684652  0.60104130  1
  O2-  O212  1  0.66780906  0.20298482  0.93749755  1
  O2-  O213  1  0.67050893  0.70967202  0.26505704  1
  O2-  O214  1  0.66795081  0.70953836  0.59823574  1
  O2-  O215  1  0.66007059  0.71362041  0.93686302  1
  O2-  O216  1  0.08318494  0.46016604  0.06485954  1
  O2-  O217  1  0.08277504  0.46196187  0.40246547  1
  O2-  O218  1  0.08365896  0.45596593  0.72866448  1
  O2-  O219  1  0.07933406  0.95739894  0.07178839  1
  O2-  O220  1  0.08516669  0.95403085  0.39581506  1
  O2-  O221  1  0.08281428  0.95859891  0.73482298  1
  O2-  O222  1  0.58265055  0.45330183  0.06157226  1
  O2-  O223  1  0.57647545  0.45265003  0.39857904  1
  O2-  O224  1  0.58486578  0.46388104  0.73634794  1
  O2-  O225  1  0.58979713  0.95682222  0.06564384  1
  O2-  O226  1  0.59063421  0.96205651  0.39775994  1
  O2-  O227  1  0.58149086  0.94553593  0.72678782  1
  O2-  O228  1  0.21165460  0.33571775  0.06856124  1
  O2-  O229  1  0.20674157  0.33365235  0.40372885  1
  O2-  O230  1  0.19715370  0.33015415  0.72265487  1
  O2-  O231  1  0.20182221  0.82528519  0.06616600  1
  O2-  O232  1  0.20390836  0.83227283  0.39302854  1
  O2-  O233  1  0.21208898  0.83606608  0.73915199  1
  O2-  O234  1  0.69964701  0.33221684  0.06254917  1
  O2-  O235  1  0.70911342  0.32976018  0.39899019  1
  O2-  O236  1  0.71003772  0.33482287  0.73800220  1
  O2-  O237  1  0.71002260  0.83860142  0.06513376  1
  O2-  O238  1  0.70370889  0.83772819  0.39622664  1
  O2-  O239  1  0.70769257  0.83360735  0.73035363  1
  O2-  O240  1  0.45170991  0.41128652  0.26883793  1
  O2-  O241  1  0.45982524  0.41975823  0.59701109  1
  O2-  O242  1  0.45834239  0.41579214  0.93252577  1
  O2-  O243  1  0.46535047  0.91937069  0.26492066  1
  O2-  O244  1  0.44628932  0.91568236  0.60822719  1
  O2-  O245  1  0.46439622  0.91239691  0.93503746  1
  O2-  O246  1  0.96000747  0.41588828  0.26516241  1
  O2-  O247  1  0.95479283  0.42221197  0.59830278  1
  O2-  O248  1  0.95546178  0.41234613  0.93783032  1
  O2-  O249  1  0.95440510  0.91894191  0.27010283  1
  O2-  O250  1  0.95870991  0.91177770  0.60359119  1
  O2-  O251  1  0.95332949  0.92328133  0.93389413  1
  O2-  O252  1  0.33428714  0.28830239  0.27335617  1
  O2-  O253  1  0.32890447  0.29885725  0.59549149  1
  O2-  O254  1  0.33255568  0.28754802  0.93289288  1
  O2-  O255  1  0.33210166  0.79840682  0.26249071  1
  O2-  O256  1  0.33354323  0.79063706  0.60723249  1
  O2-  O257  1  0.33594625  0.80146039  0.93921406  1
  O2-  O258  1  0.83487394  0.28439447  0.26123125  1
  O2-  O259  1  0.83188977  0.29029086  0.60122839  1
  O2-  O260  1  0.83415355  0.29422361  0.94006818  1
  O2-  O261  1  0.83254020  0.80583985  0.27429263  1
  O2-  O262  1  0.83758229  0.79640114  0.60279048  1
  O2-  O263  1  0.83058930  0.79219069  0.92981634  1
  O2-  O264  1  0.42243224  0.04476542  0.06457927  1
  O2-  O265  1  0.41970175  0.03966000  0.40380278  1
  O2-  O266  1  0.41645912  0.04706255  0.73106600  1
  O2-  O267  1  0.41868349  0.54412691  0.06422407  1
  O2-  O268  1  0.41531592  0.54702188  0.39197075  1
  O2-  O269  1  0.41634003  0.54017126  0.73411460  1
  O2-  O270  1  0.91178552  0.04589976  0.06650823  1
  O2-  O271  1  0.91511631  0.04731550  0.39331441  1
  O2-  O272  1  0.91283008  0.03623200  0.73580058  1
  O2-  O273  1  0.91483070  0.53929012  0.06548284  1
  O2-  O274  1  0.91730749  0.54030038  0.40325972  1
  O2-  O275  1  0.91884204  0.54980716  0.73024578  1
  O2-  O276  1  0.28894977  0.16627490  0.06829089  1
  O2-  O277  1  0.29181285  0.16436380  0.40711562  1
  O2-  O278  1  0.30027282  0.16979207  0.72529778  1
  O2-  O279  1  0.30640477  0.66825943  0.06058261  1
  O2-  O280  1  0.29592072  0.66800106  0.39053340  1
  O2-  O281  1  0.28870344  0.66285093  0.73732450  1
  O2-  O282  1  0.79191979  0.16393525  0.06637798  1
  O2-  O283  1  0.78924120  0.16140482  0.39364823  1
  O2-  O284  1  0.78937108  0.16572888  0.73679989  1
  O2-  O285  1  0.78719611  0.66657748  0.06581966  1
  O2-  O286  1  0.80016221  0.67455530  0.40016539  1
  O2-  O287  1  0.79688616  0.66856641  0.73039662  1
