# generated using pymatgen
data_Ca2Al2SiO7
_symmetry_space_group_name_H-M   'P 1'
_cell_length_a   15.46055899
_cell_length_b   15.46160731
_cell_length_c   15.28619303
_cell_angle_alpha   90.01149876
_cell_angle_beta   89.99707086
_cell_angle_gamma   89.97906668
_symmetry_Int_Tables_number   1
_chemical_formula_structural   Ca2Al2SiO7
_chemical_formula_sum   'Ca48 Al48 Si24 O168'
_cell_volume   3654.08909361
_cell_formula_units_Z   24
loop_
 _symmetry_equiv_pos_site_id
 _symmetry_equiv_pos_as_xyz
  1  'x, y, z'
loop_
 _atom_type_symbol
 _atom_type_oxidation_number
  Ca2+  2.0
  Al0+  0.0
  Si0+  0.0
  O2-  -2.0
loop_
 _atom_site_type_symbol
 _atom_site_label
 _atom_site_symmetry_multiplicity
 _atom_site_fract_x
 _atom_site_fract_y
 _atom_site_fract_z
 _atom_site_occupancy
  Ca2+  Ca0  1  0.17239328  0.08140257  0.16790050  1
  Ca2+  Ca1  1  0.16292763  0.08169280  0.50667646  1
  Ca2+  Ca2  1  0.16888211  0.07346001  0.83784198  1
  Ca2+  Ca3  1  0.17639417  0.57875103  0.17448748  1
  Ca2+  Ca4  1  0.17208231  0.58724711  0.50484557  1
  Ca2+  Ca5  1  0.16295904  0.58331256  0.83479181  1
  Ca2+  Ca6  1  0.66917800  0.08131010  0.17793933  1
  Ca2+  Ca7  1  0.67762557  0.08735400  0.50165372  1
  Ca2+  Ca8  1  0.67259953  0.08698092  0.83544602  1
  Ca2+  Ca9  1  0.66043708  0.57767068  0.17866653  1
  Ca2+  Ca10  1  0.65925827  0.57305884  0.50246171  1
  Ca2+  Ca11  1  0.66516486  0.57654431  0.83223341  1
  Ca2+  Ca12  1  0.08540183  0.32516768  0.16670333  1
  Ca2+  Ca13  1  0.07639396  0.32053658  0.49687803  1
  Ca2+  Ca14  1  0.07618483  0.32440664  0.82068380  1
  Ca2+  Ca15  1  0.07179163  0.84049361  0.16266547  1
  Ca2+  Ca16  1  0.07357456  0.83788050  0.50259115  1
  Ca2+  Ca17  1  0.08007723  0.83655610  0.82452222  1
  Ca2+  Ca18  1  0.57858591  0.32550684  0.16623037  1
  Ca2+  Ca19  1  0.58110474  0.33300589  0.49349077  1
  Ca2+  Ca20  1  0.57478180  0.32920910  0.82916383  1
  Ca2+  Ca21  1  0.58529587  0.82871644  0.16320815  1
  Ca2+  Ca22  1  0.58095440  0.83146361  0.49281704  1
  Ca2+  Ca23  1  0.56778267  0.83839787  0.83050421  1
  Ca2+  Ca24  1  0.34362740  0.41939192  0.17438520  1
  Ca2+  Ca25  1  0.34403794  0.42188936  0.50213793  1
  Ca2+  Ca26  1  0.33652552  0.41338693  0.83582302  1
  Ca2+  Ca27  1  0.33210559  0.91829024  0.16561295  1
  Ca2+  Ca28  1  0.32697245  0.91768003  0.51127418  1
  Ca2+  Ca29  1  0.32386185  0.91603704  0.84230131  1
  Ca2+  Ca30  1  0.82389842  0.42167071  0.17665363  1
  Ca2+  Ca31  1  0.82082517  0.40962218  0.50818241  1
  Ca2+  Ca32  1  0.82751293  0.41000855  0.83309027  1
  Ca2+  Ca33  1  0.82879368  0.91872806  0.17819231  1
  Ca2+  Ca34  1  0.83349290  0.92128095  0.50116110  1
  Ca2+  Ca35  1  0.84182989  0.92079198  0.83426470  1
  Ca2+  Ca36  1  0.42861351  0.16975168  0.15746600  1
  Ca2+  Ca37  1  0.42267786  0.18030453  0.49011220  1
  Ca2+  Ca38  1  0.41723253  0.17050387  0.83160505  1
  Ca2+  Ca39  1  0.41988085  0.66952133  0.16860044  1
  Ca2+  Ca40  1  0.41905783  0.67207903  0.49538481  1
  Ca2+  Ca41  1  0.41178180  0.68055598  0.82974282  1
  Ca2+  Ca42  1  0.92088244  0.15787125  0.17024575  1
  Ca2+  Ca43  1  0.92368151  0.15532193  0.49936255  1
  Ca2+  Ca44  1  0.92327702  0.16678651  0.82024899  1
  Ca2+  Ca45  1  0.91164702  0.68185740  0.16278153  1
  Ca2+  Ca46  1  0.91854932  0.67696999  0.49697067  1
  Ca2+  Ca47  1  0.92518901  0.67996634  0.82386699  1
  Al0+  Al48  1  0.00003273  0.00031418  0.00068029  1
  Al0+  Al49  1  0.00055004  -0.00029893  0.32759734  1
  Al0+  Al50  1  0.00058489  -0.00117551  0.66847722  1
  Al0+  Al51  1  -0.00074380  0.50050916  0.00365742  1
  Al0+  Al52  1  0.00157415  0.49993225  0.33306796  1
  Al0+  Al53  1  0.00024195  0.50062942  0.65970923  1
  Al0+  Al54  1  0.50185770  -0.00081771  -0.00481244  1
  Al0+  Al55  1  0.49770533  0.00101988  0.33493108  1
  Al0+  Al56  1  0.50112679  0.00143088  0.66245011  1
  Al0+  Al57  1  0.50050579  0.49808952  -0.00279073  1
  Al0+  Al58  1  0.49939511  0.50377388  0.33526022  1
  Al0+  Al59  1  0.49995130  0.50023350  0.67234957  1
  Al0+  Al60  1  0.24968789  0.24930275  0.00023305  1
  Al0+  Al61  1  0.24735473  0.25101987  0.32611830  1
  Al0+  Al62  1  0.25133263  0.25228434  0.65896006  1
  Al0+  Al63  1  0.24872129  0.74699255  0.00423868  1
  Al0+  Al64  1  0.24878422  0.74862343  0.33756857  1
  Al0+  Al65  1  0.25072677  0.75089897  0.66415121  1
  Al0+  Al66  1  0.74949829  0.25039573  0.00020087  1
  Al0+  Al67  1  0.75136815  0.25031369  0.33767186  1
  Al0+  Al68  1  0.74869129  0.24994786  0.67582509  1
  Al0+  Al69  1  0.75239416  0.74964465  -0.00724225  1
  Al0+  Al70  1  0.74897304  0.75013308  0.32942301  1
  Al0+  Al71  1  0.74840742  0.74853739  0.66654973  1
  Al0+  Al72  1  0.57358650  0.17729150  0.98315028  1
  Al0+  Al73  1  0.81936037  0.06714716  0.68177144  1
  Al0+  Al74  1  0.57305259  0.17779553  0.31984508  1
  Al0+  Al75  1  0.43060457  0.32244615  0.31860401  1
  Al0+  Al76  1  0.07073757  0.17841561  0.65287085  1
  Al0+  Al77  1  0.32272940  0.07137771  0.01474596  1
  Al0+  Al78  1  0.92723499  0.82189798  0.65062054  1
  Al0+  Al79  1  0.42945862  0.82285005  0.65334177  1
  Al0+  Al80  1  0.82188282  0.06944567  0.34845260  1
  Al0+  Al81  1  0.67899401  0.42975458  0.68393709  1
  Al0+  Al82  1  0.43026952  0.32151361  0.65195115  1
  Al0+  Al83  1  0.56902916  0.68244585  0.32192128  1
  Al0+  Al84  1  0.06984768  0.17851489  0.31657839  1
  Al0+  Al85  1  0.93018627  0.82208007  0.98460468  1
  Al0+  Al86  1  0.17816818  0.92740692  0.01720494  1
  Al0+  Al87  1  0.18186738  0.93050062  0.67949360  1
  Al0+  Al88  1  0.67568116  0.92679161  0.34732516  1
  Al0+  Al89  1  0.42833790  0.32074728  0.98374114  1
  Al0+  Al90  1  0.42857781  0.81878017  0.98876888  1
  Al0+  Al91  1  0.31942519  0.56969506  0.34883081  1
  Al0+  Al92  1  0.07274653  0.67856055  0.65122322  1
  Al0+  Al93  1  0.93077496  0.81869547  0.31903684  1
  Al0+  Al94  1  0.68042367  0.43096980  0.34676675  1
  Al0+  Al95  1  0.92563746  0.32110069  0.65264981  1
  Si0+  Si96  1  0.68007872  0.92723860  0.01233381  1
  Si0+  Si97  1  0.17707158  0.42844987  0.01424384  1
  Si0+  Si98  1  0.17621463  0.42572985  0.35193123  1
  Si0+  Si99  1  0.92979647  0.32310369  0.98723825  1
  Si0+  Si100  1  0.67534072  0.92479747  0.68493379  1
  Si0+  Si101  1  0.07386268  0.67629024  0.31477127  1
  Si0+  Si102  1  0.06979786  0.17987119  0.98458846  1
  Si0+  Si103  1  0.07079209  0.67598154  0.98589599  1
  Si0+  Si104  1  0.82080962  0.57128649  0.01471354  1
  Si0+  Si105  1  0.32184349  0.56936576  0.01511483  1
  Si0+  Si106  1  0.56973128  0.67790105  0.65223432  1
  Si0+  Si107  1  0.82422491  0.57335241  0.68400333  1
  Si0+  Si108  1  0.92757691  0.32405400  0.31596868  1
  Si0+  Si109  1  0.32038173  0.07371082  0.34775482  1
  Si0+  Si110  1  0.31999459  0.57045060  0.68408380  1
  Si0+  Si111  1  0.17799036  0.42852410  0.68012152  1
  Si0+  Si112  1  0.82402200  0.57350645  0.34944133  1
  Si0+  Si113  1  0.82068036  0.07167463  0.01530532  1
  Si0+  Si114  1  0.57331124  0.67637539  0.98200973  1
  Si0+  Si115  1  0.67909236  0.43016876  0.01714495  1
  Si0+  Si116  1  0.18007285  0.93037691  0.34846866  1
  Si0+  Si117  1  0.42396260  0.82376328  0.31777922  1
  Si0+  Si118  1  0.57334368  0.17842972  0.64956251  1
  Si0+  Si119  1  0.32409917  0.07541991  0.68065054  1
  O2-  O120  1  0.25235463  -0.00210261  0.06655477  1
  O2-  O121  1  0.25285827  -0.00045631  0.39055401  1
  O2-  O122  1  0.25753059  0.00494578  0.72540024  1
  O2-  O123  1  0.25270395  0.49527288  0.05571050  1
  O2-  O124  1  0.24549318  0.49398357  0.39559677  1
  O2-  O125  1  0.24750872  0.50010486  0.72541375  1
  O2-  O126  1  0.74950237  -0.00025574  0.05511277  1
  O2-  O127  1  0.74589748  0.00065483  0.39721209  1
  O2-  O128  1  0.74625448  -0.00904868  0.72993093  1
  O2-  O129  1  0.74801750  0.50341989  0.05904484  1
  O2-  O130  1  0.75869584  0.50231839  0.39390274  1
  O2-  O131  1  0.75756980  0.50252328  0.72943600  1
  O2-  O132  1  -0.00463959  0.25482304  0.27073272  1
  O2-  O133  1  -0.00404372  0.24789276  0.60281267  1
  O2-  O134  1  -0.00090226  0.25165668  0.94383158  1
  O2-  O135  1  0.00348051  0.74229739  0.27022504  1
  O2-  O136  1  -0.00190269  0.74785451  0.60208686  1
  O2-  O137  1  0.00797802  0.74910596  0.94122368  1
  O2-  O138  1  0.49897578  0.24726532  0.26874720  1
  O2-  O139  1  0.50275990  0.24520551  0.60625241  1
  O2-  O140  1  0.49831351  0.24683399  0.93413889  1
  O2-  O141  1  0.49848204  0.76078428  0.27441023  1
  O2-  O142  1  0.50767321  0.75185145  0.60773790  1
  O2-  O143  1  0.50363818  0.74478708  0.93984293  1
  O2-  O144  1  0.06840446  0.18057692  0.08977786  1
  O2-  O145  1  0.06991648  0.17765177  0.42913195  1
  O2-  O146  1  0.07098087  0.18104024  0.76718015  1
  O2-  O147  1  0.06715255  0.67126852  0.09109397  1
  O2-  O148  1  0.07470609  0.67720858  0.41986530  1
  O2-  O149  1  0.07276747  0.67860657  0.76554553  1
  O2-  O150  1  0.57780927  0.18028744  0.09643378  1
  O2-  O151  1  0.57180865  0.18029535  0.43337553  1
  O2-  O152  1  0.57247598  0.17877300  0.75534101  1
  O2-  O153  1  0.57433892  0.67547869  0.08757678  1
  O2-  O154  1  0.56583399  0.68061027  0.43480954  1
  O2-  O155  1  0.56607597  0.67664194  0.75818630  1
  O2-  O156  1  0.17420004  0.42838591  0.24569197  1
  O2-  O157  1  0.17961170  0.42869276  0.57560241  1
  O2-  O158  1  0.17244440  0.43126454  0.90920488  1
  O2-  O159  1  0.18090519  0.93032584  0.24326974  1
  O2-  O160  1  0.18266350  0.93146629  0.56597300  1
  O2-  O161  1  0.17783741  0.92869606  0.90367714  1
  O2-  O162  1  0.68159477  0.43358647  0.23291215  1
  O2-  O163  1  0.67663455  0.43286850  0.57111230  1
  O2-  O164  1  0.68042775  0.43080413  0.91213310  1
  O2-  O165  1  0.67927481  0.92495937  0.23285948  1
  O2-  O166  1  0.67361500  0.92525487  0.57984199  1
  O2-  O167  1  0.68177207  0.92626194  0.90729539  1
  O2-  O168  1  0.43279377  0.32497613  0.09666157  1
  O2-  O169  1  0.43301714  0.32218419  0.43222291  1
  O2-  O170  1  0.43003082  0.32120374  0.76502006  1
  O2-  O171  1  0.43057691  0.81565987  0.10176059  1
  O2-  O172  1  0.42098165  0.82040982  0.42328876  1
  O2-  O173  1  0.42757428  0.81995668  0.76680715  1
  O2-  O174  1  0.93146454  0.32538359  0.09217185  1
  O2-  O175  1  0.92945752  0.32720680  0.42085632  1
  O2-  O176  1  0.92973029  0.31967431  0.76750052  1
  O2-  O177  1  0.92746608  0.81999159  0.09766482  1
  O2-  O178  1  0.93263825  0.81893491  0.43150665  1
  O2-  O179  1  0.93124186  0.82102142  0.76451133  1
  O2-  O180  1  0.31967814  0.07255262  0.24275201  1
  O2-  O181  1  0.32281121  0.07413494  0.57481776  1
  O2-  O182  1  0.31803063  0.07228140  0.90100711  1
  O2-  O183  1  0.31828940  0.56981489  0.23506145  1
  O2-  O184  1  0.32185619  0.56968912  0.57923671  1
  O2-  O185  1  0.32011448  0.57148514  0.90995239  1
  O2-  O186  1  0.82264597  0.06648221  0.23399172  1
  O2-  O187  1  0.81892481  0.06718946  0.56931891  1
  O2-  O188  1  0.82219109  0.07250294  0.91030927  1
  O2-  O189  1  0.82254291  0.57198502  0.24302010  1
  O2-  O190  1  0.82160787  0.57522644  0.57875664  1
  O2-  O191  1  0.82245271  0.56811662  0.90999693  1
  O2-  O192  1  0.03776127  0.08406163  0.25945466  1
  O2-  O193  1  0.04247588  0.08043560  0.60086146  1
  O2-  O194  1  0.04042150  0.08869710  0.93793672  1
  O2-  O195  1  0.05268098  0.58082941  0.26969345  1
  O2-  O196  1  0.04963820  0.57987038  0.59679022  1
  O2-  O197  1  0.04010225  0.58412389  0.93743483  1
  O2-  O198  1  0.54550752  0.07825143  0.26761252  1
  O2-  O199  1  0.55316300  0.08403092  0.60354316  1
  O2-  O200  1  0.55058560  0.07818927  0.92962598  1
  O2-  O201  1  0.53299978  0.58891095  0.26497345  1
  O2-  O202  1  0.53672869  0.58693680  0.60622345  1
  O2-  O203  1  0.54724248  0.58311060  0.93599748  1
  O2-  O204  1  0.16427831  0.21094090  0.25885879  1
  O2-  O205  1  0.16724281  0.20860625  0.59793111  1
  O2-  O206  1  0.16147138  0.20681146  0.93791604  1
  O2-  O207  1  0.16708473  0.70454335  0.26891144  1
  O2-  O208  1  0.16981890  0.70854880  0.59757544  1
  O2-  O209  1  0.16679541  0.69434761  0.94270654  1
  O2-  O210  1  0.67225800  0.20678479  0.26847792  1
  O2-  O211  1  0.66613965  0.20842782  0.60658053  1
  O2-  O212  1  0.67110902  0.21123299  0.92993944  1
  O2-  O213  1  0.66580930  0.70594561  0.26408081  1
  O2-  O214  1  0.66577419  0.69414869  0.60854685  1
  O2-  O215  1  0.66628989  0.70111434  0.93441521  1
  O2-  O216  1  0.08775223  0.46009212  0.06577368  1
  O2-  O217  1  0.08236383  0.45155807  0.39774398  1
  O2-  O218  1  0.08527727  0.45492967  0.72789809  1
  O2-  O219  1  0.08066391  0.96139016  0.06989433  1
  O2-  O220  1  0.08889792  0.96162316  0.39368426  1
  O2-  O221  1  0.08603601  0.96072419  0.73488427  1
  O2-  O222  1  0.58650294  0.45741880  0.06295448  1
  O2-  O223  1  0.58607576  0.46749448  0.40056391  1
  O2-  O224  1  0.58474254  0.46621256  0.74080339  1
  O2-  O225  1  0.58729863  0.95051288  0.05887597  1
  O2-  O226  1  0.57482315  0.94886914  0.39873364  1
  O2-  O227  1  0.58214234  0.95516668  0.73112310  1
  O2-  O228  1  0.19988082  0.33552523  0.06106757  1
  O2-  O229  1  0.19947128  0.33080055  0.39516308  1
  O2-  O230  1  0.20783890  0.33709814  0.72809443  1
  O2-  O231  1  0.20253813  0.82720850  0.06944413  1
  O2-  O232  1  0.20462759  0.83764162  0.39536249  1
  O2-  O233  1  0.21291390  0.83332246  0.73320872  1
  O2-  O234  1  0.71013841  0.33912991  0.06396847  1
  O2-  O235  1  0.70880361  0.33468582  0.40174983  1
  O2-  O236  1  0.70768350  0.33457834  0.74200460  1
  O2-  O237  1  0.70943327  0.83435687  0.05813255  1
  O2-  O238  1  0.70602089  0.82833910  0.39946668  1
  O2-  O239  1  0.69533928  0.82925742  0.73024340  1
  O2-  O240  1  0.46193753  0.42046638  0.26731496  1
  O2-  O241  1  0.46294185  0.41943613  0.60248003  1
  O2-  O242  1  0.45862250  0.41891337  0.92971216  1
  O2-  O243  1  0.44167236  0.91960306  0.27454239  1
  O2-  O244  1  0.45523404  0.92013092  0.59868336  1
  O2-  O245  1  0.45823933  0.91398325  0.93235499  1
  O2-  O246  1  0.95403182  0.41775177  0.26806268  1
  O2-  O247  1  0.95178078  0.41894523  0.59938504  1
  O2-  O248  1  0.95818732  0.41469032  0.93946686  1
  O2-  O249  1  0.96443286  0.91305902  0.26281546  1
  O2-  O250  1  0.96025127  0.91824329  0.59848245  1
  O2-  O251  1  0.95964138  0.91960786  0.93253921  1
  O2-  O252  1  0.32959722  0.30117651  0.26823475  1
  O2-  O253  1  0.33391488  0.29645283  0.59553245  1
  O2-  O254  1  0.32730241  0.29685495  0.93325721  1
  O2-  O255  1  0.33305724  0.78983779  0.27071859  1
  O2-  O256  1  0.33589706  0.78766147  0.59796226  1
  O2-  O257  1  0.33160597  0.78499634  0.93614424  1
  O2-  O258  1  0.83398009  0.29921783  0.27029277  1
  O2-  O259  1  0.82515985  0.29481439  0.60541384  1
  O2-  O260  1  0.83732201  0.29667518  0.94144499  1
  O2-  O261  1  0.83442646  0.78855855  0.26361762  1
  O2-  O262  1  0.82694350  0.79534951  0.60100394  1
  O2-  O263  1  0.83563866  0.78901975  0.92791979  1
  O2-  O264  1  0.42301533  0.04335799  0.06463798  1
  O2-  O265  1  0.41276401  0.05139431  0.39631109  1
  O2-  O266  1  0.41923033  0.05237511  0.72491718  1
  O2-  O267  1  0.41509428  0.54295699  0.06103858  1
  O2-  O268  1  0.41514849  0.54057814  0.40444192  1
  O2-  O269  1  0.41003969  0.54182236  0.73435489  1
  O2-  O270  1  0.91242469  0.04399020  0.06256409  1
  O2-  O271  1  0.92007868  0.03577032  0.39887031  1
  O2-  O272  1  0.91626854  0.03772921  0.73693311  1
  O2-  O273  1  0.91114443  0.54213096  0.06513124  1
  O2-  O274  1  0.91994562  0.55259741  0.39272403  1
  O2-  O275  1  0.91956320  0.54987916  0.72807498  1
  O2-  O276  1  0.29193682  0.16957503  0.06833525  1
  O2-  O277  1  0.28841958  0.16529016  0.39308416  1
  O2-  O278  1  0.29699217  0.16940792  0.72537846  1
  O2-  O279  1  0.29253351  0.65856979  0.06651181  1
  O2-  O280  1  0.28761799  0.66577038  0.40446916  1
  O2-  O281  1  0.29115680  0.66232242  0.73095673  1
  O2-  O282  1  0.79437508  0.16413573  0.06281226  1
  O2-  O283  1  0.80049412  0.16964329  0.40045131  1
  O2-  O284  1  0.78888584  0.16310556  0.73871336  1
  O2-  O285  1  0.79450904  0.66477051  0.05980090  1
  O2-  O286  1  0.79571318  0.66596807  0.39429982  1
  O2-  O287  1  0.79540139  0.66561312  0.73300717  1
