# generated using pymatgen
data_Ca2Al2SiO7
_symmetry_space_group_name_H-M   'P 1'
_cell_length_a   15.45786897
_cell_length_b   15.45720198
_cell_length_c   15.28346911
_cell_angle_alpha   89.99988089
_cell_angle_beta   90.00253617
_cell_angle_gamma   90.00496453
_symmetry_Int_Tables_number   1
_chemical_formula_structural   Ca2Al2SiO7
_chemical_formula_sum   'Ca48 Al48 Si24 O168'
_cell_volume   3651.76183022
_cell_formula_units_Z   24
loop_
 _symmetry_equiv_pos_site_id
 _symmetry_equiv_pos_as_xyz
  1  'x, y, z'
loop_
 _atom_type_symbol
 _atom_type_oxidation_number
  Ca2+  2.0
  Al0+  0.0
  Si0+  0.0
  O2-  -2.0
loop_
 _atom_site_type_symbol
 _atom_site_label
 _atom_site_symmetry_multiplicity
 _atom_site_fract_x
 _atom_site_fract_y
 _atom_site_fract_z
 _atom_site_occupancy
  Ca2+  Ca0  1  0.17249058  0.08237930  0.17233159  1
  Ca2+  Ca1  1  0.17874648  0.07957241  0.50123759  1
  Ca2+  Ca2  1  0.17927686  0.08227712  0.84330967  1
  Ca2+  Ca3  1  0.16305714  0.57760354  0.16923196  1
  Ca2+  Ca4  1  0.16338591  0.57445858  0.50149822  1
  Ca2+  Ca5  1  0.16646892  0.58479947  0.83985032  1
  Ca2+  Ca6  1  0.66908220  0.07347277  0.16980715  1
  Ca2+  Ca7  1  0.67491441  0.08500467  0.50459402  1
  Ca2+  Ca8  1  0.66689599  0.08554792  0.83933449  1
  Ca2+  Ca9  1  0.65912053  0.57972097  0.16944349  1
  Ca2+  Ca10  1  0.66905889  0.57850979  0.50691119  1
  Ca2+  Ca11  1  0.66815260  0.57197281  0.83998143  1
  Ca2+  Ca12  1  0.07837834  0.32683140  0.15756285  1
  Ca2+  Ca13  1  0.07792063  0.33312975  0.49547289  1
  Ca2+  Ca14  1  0.07129628  0.32693002  0.83235444  1
  Ca2+  Ca15  1  0.08193729  0.83926707  0.16221552  1
  Ca2+  Ca16  1  0.07686169  0.83654947  0.49136714  1
  Ca2+  Ca17  1  0.09192697  0.82877044  0.83339015  1
  Ca2+  Ca18  1  0.57734165  0.32561582  0.15862333  1
  Ca2+  Ca19  1  0.58279595  0.32672345  0.49757597  1
  Ca2+  Ca20  1  0.59198227  0.32340447  0.83016921  1
  Ca2+  Ca21  1  0.59353264  0.82609588  0.16144432  1
  Ca2+  Ca22  1  0.58292550  0.83087944  0.49348239  1
  Ca2+  Ca23  1  0.58129589  0.83431267  0.83076131  1
  Ca2+  Ca24  1  0.32767181  0.41391161  0.17718940  1
  Ca2+  Ca25  1  0.32961781  0.41032305  0.49729493  1
  Ca2+  Ca26  1  0.33294436  0.42016903  0.83817907  1
  Ca2+  Ca27  1  0.32275782  0.92836164  0.17070000  1
  Ca2+  Ca28  1  0.33667584  0.92431807  0.50467920  1
  Ca2+  Ca29  1  0.33459202  0.92453372  0.84042106  1
  Ca2+  Ca30  1  0.82868726  0.41307511  0.16447290  1
  Ca2+  Ca31  1  0.82731697  0.42363320  0.51469780  1
  Ca2+  Ca32  1  0.82669743  0.41218981  0.83457227  1
  Ca2+  Ca33  1  0.82732434  0.91941033  0.17604584  1
  Ca2+  Ca34  1  0.83164332  0.92518250  0.49865657  1
  Ca2+  Ca35  1  0.82591538  0.92440249  0.83855708  1
  Ca2+  Ca36  1  0.41355862  0.16659864  0.16288862  1
  Ca2+  Ca37  1  0.41922078  0.16485999  0.49712171  1
  Ca2+  Ca38  1  0.42791672  0.15460929  0.83048457  1
  Ca2+  Ca39  1  0.42919911  0.66903917  0.16207324  1
  Ca2+  Ca40  1  0.42390107  0.67470674  0.49424392  1
  Ca2+  Ca41  1  0.42328071  0.67568197  0.82935008  1
  Ca2+  Ca42  1  0.92251217  0.16738070  0.15776931  1
  Ca2+  Ca43  1  0.90894057  0.16856072  0.49717875  1
  Ca2+  Ca44  1  0.91270422  0.17554921  0.82804172  1
  Ca2+  Ca45  1  0.92259019  0.67691987  0.16179307  1
  Ca2+  Ca46  1  0.91177845  0.67336164  0.49388935  1
  Ca2+  Ca47  1  0.91947439  0.66501513  0.83151327  1
  Al0+  Al48  1  0.00109153  0.00038923  -0.00420818  1
  Al0+  Al49  1  -0.00016154  0.00136245  0.33623034  1
  Al0+  Al50  1  0.00089143  -0.00114721  0.67149880  1
  Al0+  Al51  1  -0.00087411  0.50246552  -0.00710500  1
  Al0+  Al52  1  -0.00061160  0.49979482  0.33669272  1
  Al0+  Al53  1  -0.00018079  0.49939233  0.66619880  1
  Al0+  Al54  1  0.50009378  0.00059005  0.00685593  1
  Al0+  Al55  1  0.50055136  -0.00153502  0.33827708  1
  Al0+  Al56  1  0.49965631  -0.00025106  0.65997000  1
  Al0+  Al57  1  0.50127175  0.50126228  -0.00034772  1
  Al0+  Al58  1  0.49847396  0.49908827  0.32705812  1
  Al0+  Al59  1  0.49771586  0.49884249  0.67046034  1
  Al0+  Al60  1  0.24901999  0.25262600  -0.00173223  1
  Al0+  Al61  1  0.24856266  0.25109533  0.33869567  1
  Al0+  Al62  1  0.24969730  0.24843349  0.67240054  1
  Al0+  Al63  1  0.25015738  0.75086328  0.00102062  1
  Al0+  Al64  1  0.25115169  0.74786202  0.33506117  1
  Al0+  Al65  1  0.25046577  0.74824915  0.65921852  1
  Al0+  Al66  1  0.74747155  0.25231433  -0.00026549  1
  Al0+  Al67  1  0.74818079  0.25119793  0.33381436  1
  Al0+  Al68  1  0.75014843  0.24993114  0.66383224  1
  Al0+  Al69  1  0.75199206  0.74815172  -0.00331724  1
  Al0+  Al70  1  0.75188290  0.74947320  0.32814628  1
  Al0+  Al71  1  0.75222850  0.74881414  0.67036437  1
  Al0+  Al72  1  0.07140643  0.68168688  0.98705066  1
  Al0+  Al73  1  0.32099726  0.07174604  0.35035769  1
  Al0+  Al74  1  0.32189685  0.06964056  0.68213097  1
  Al0+  Al75  1  0.82114368  0.07060783  0.68144909  1
  Al0+  Al76  1  0.17787919  0.43043030  0.34640459  1
  Al0+  Al77  1  0.68005616  0.92540175  0.34870570  1
  Al0+  Al78  1  0.57049363  0.18030804  0.65201739  1
  Al0+  Al79  1  0.56748146  0.17865609  0.98900332  1
  Al0+  Al80  1  0.67725721  0.42908440  0.68142751  1
  Al0+  Al81  1  0.92794777  0.32034371  0.98490921  1
  Al0+  Al82  1  0.82038158  0.07310828  0.34679669  1
  Al0+  Al83  1  0.32116772  0.07337549  0.01607513  1
  Al0+  Al84  1  0.67900103  0.42943603  0.01669305  1
  Al0+  Al85  1  0.68056691  0.92776063  0.01238718  1
  Al0+  Al86  1  0.17798601  0.92799507  0.01396403  1
  Al0+  Al87  1  0.17825262  0.92697825  0.34918768  1
  Al0+  Al88  1  0.93192872  0.82210194  0.32021136  1
  Al0+  Al89  1  0.42879877  0.31757437  0.32079158  1
  Al0+  Al90  1  0.43005107  0.82025607  0.65253901  1
  Al0+  Al91  1  0.82239836  0.57293139  0.68294421  1
  Al0+  Al92  1  0.07323798  0.17676903  0.98435586  1
  Al0+  Al93  1  0.57069073  0.68064827  0.31999559  1
  Al0+  Al94  1  0.57335349  0.67797808  0.98371883  1
  Al0+  Al95  1  0.93067370  0.31897163  0.65031927  1
  Si0+  Si96  1  0.17842945  0.42899505  0.68371387  1
  Si0+  Si97  1  0.67787431  0.92788944  0.68208598  1
  Si0+  Si98  1  0.07349143  0.17684745  0.64890979  1
  Si0+  Si99  1  0.32163880  0.57182361  0.01489214  1
  Si0+  Si100  1  0.92746197  0.82353759  0.98108514  1
  Si0+  Si101  1  0.42658575  0.32393507  0.98333528  1
  Si0+  Si102  1  0.92893536  0.82191663  0.65204882  1
  Si0+  Si103  1  0.82369895  0.57121510  0.01868014  1
  Si0+  Si104  1  0.31906535  0.57225692  0.68134086  1
  Si0+  Si105  1  0.07247011  0.67562704  0.31825728  1
  Si0+  Si106  1  0.42464691  0.32414903  0.65100375  1
  Si0+  Si107  1  0.92691699  0.32370888  0.31911785  1
  Si0+  Si108  1  0.57231898  0.67644727  0.65195994  1
  Si0+  Si109  1  0.06931589  0.18165400  0.32106726  1
  Si0+  Si110  1  0.32451575  0.57047559  0.35010009  1
  Si0+  Si111  1  0.42992495  0.82055218  0.98599178  1
  Si0+  Si112  1  0.82150465  0.07344636  0.01426431  1
  Si0+  Si113  1  0.17885749  0.92566493  0.68298013  1
  Si0+  Si114  1  0.07136450  0.67878127  0.64907168  1
  Si0+  Si115  1  0.57351506  0.17670132  0.31567427  1
  Si0+  Si116  1  0.17823962  0.43194109  0.01296800  1
  Si0+  Si117  1  0.42631850  0.82396493  0.31469859  1
  Si0+  Si118  1  0.82068198  0.56915441  0.34617734  1
  Si0+  Si119  1  0.67665084  0.42986597  0.34726891  1
  O2-  O120  1  0.24403995  0.00536959  0.06371486  1
  O2-  O121  1  0.25441571  -0.00614880  0.39998616  1
  O2-  O122  1  0.24667431  -0.00536789  0.72704032  1
  O2-  O123  1  0.25202149  0.49915735  0.05681420  1
  O2-  O124  1  0.25185470  0.50567962  0.39445844  1
  O2-  O125  1  0.25059127  0.49949197  0.72518303  1
  O2-  O126  1  0.75759822  0.00059305  0.05855341  1
  O2-  O127  1  0.74717709  0.00241617  0.39781649  1
  O2-  O128  1  0.74549650  -0.00321077  0.72737026  1
  O2-  O129  1  0.75272312  0.50538054  0.06410753  1
  O2-  O130  1  0.74961104  0.49874167  0.38916085  1
  O2-  O131  1  0.74881747  0.50205489  0.73138010  1
  O2-  O132  1  -0.00493416  0.24977827  0.27844907  1
  O2-  O133  1  0.00360332  0.24318790  0.60197422  1
  O2-  O134  1  -0.00332822  0.24469599  0.93524000  1
  O2-  O135  1  0.01117669  0.75074119  0.27462342  1
  O2-  O136  1  -0.00058761  0.74962804  0.60922424  1
  O2-  O137  1  0.00046561  0.75832472  0.93772680  1
  O2-  O138  1  0.50038651  0.24141304  0.27247225  1
  O2-  O139  1  0.49478754  0.25646986  0.60833670  1
  O2-  O140  1  0.49227497  0.25242625  0.94014672  1
  O2-  O141  1  0.49856414  0.75784705  0.27190800  1
  O2-  O142  1  0.50674090  0.74680344  0.60635957  1
  O2-  O143  1  0.50106689  0.75544239  0.93900599  1
  O2-  O144  1  0.07301215  0.18102594  0.09882744  1
  O2-  O145  1  0.07009087  0.18461863  0.42620751  1
  O2-  O146  1  0.07389503  0.18073991  0.75410549  1
  O2-  O147  1  0.06874489  0.67792199  0.09989533  1
  O2-  O148  1  0.06715367  0.67123069  0.42395987  1
  O2-  O149  1  0.07539287  0.67965674  0.75408922  1
  O2-  O150  1  0.56785245  0.18038130  0.10201043  1
  O2-  O151  1  0.57699154  0.18173006  0.42122334  1
  O2-  O152  1  0.56950880  0.17874461  0.76527532  1
  O2-  O153  1  0.56984222  0.67714595  0.09692215  1
  O2-  O154  1  0.56889780  0.67852636  0.43349348  1
  O2-  O155  1  0.56916996  0.67683445  0.75734867  1
  O2-  O156  1  0.17658939  0.43191139  0.23310945  1
  O2-  O157  1  0.17810328  0.43044984  0.57839184  1
  O2-  O158  1  0.17982992  0.43472043  0.90764197  1
  O2-  O159  1  0.17768868  0.93068172  0.23602805  1
  O2-  O160  1  0.17828920  0.92557033  0.57748989  1
  O2-  O161  1  0.18561743  0.92322012  0.90033105  1
  O2-  O162  1  0.67764350  0.42969959  0.24228817  1
  O2-  O163  1  0.67725700  0.43233394  0.56685466  1
  O2-  O164  1  0.67899316  0.42935473  0.90407336  1
  O2-  O165  1  0.68441448  0.92480724  0.23499954  1
  O2-  O166  1  0.68091500  0.92568447  0.57674078  1
  O2-  O167  1  0.68032482  0.92937735  0.89895638  1
  O2-  O168  1  0.42652459  0.32575766  0.08910385  1
  O2-  O169  1  0.43187251  0.31970979  0.43393438  1
  O2-  O170  1  0.42240205  0.32707018  0.75631767  1
  O2-  O171  1  0.42877176  0.81614852  0.09125006  1
  O2-  O172  1  0.42553919  0.81976850  0.42054931  1
  O2-  O173  1  0.42901320  0.81757778  0.76583945  1
  O2-  O174  1  0.93111042  0.32114558  0.09944205  1
  O2-  O175  1  0.92848341  0.32637718  0.42402776  1
  O2-  O176  1  0.93240744  0.31947213  0.76294779  1
  O2-  O177  1  0.92595399  0.82088945  0.08670581  1
  O2-  O178  1  0.93077734  0.81814434  0.43381853  1
  O2-  O179  1  0.93028736  0.82159386  0.75689388  1
  O2-  O180  1  0.31614280  0.07516893  0.23716943  1
  O2-  O181  1  0.32003759  0.07014801  0.56928662  1
  O2-  O182  1  0.32396825  0.06900175  0.90238641  1
  O2-  O183  1  0.32515577  0.56801162  0.24438679  1
  O2-  O184  1  0.31729568  0.57287183  0.57644548  1
  O2-  O185  1  0.31988467  0.57148697  0.90922654  1
  O2-  O186  1  0.82109891  0.07405313  0.23305913  1
  O2-  O187  1  0.82092549  0.06850370  0.56854017  1
  O2-  O188  1  0.81807666  0.07322000  0.90843329  1
  O2-  O189  1  0.82368951  0.56663247  0.24138915  1
  O2-  O190  1  0.82098402  0.57345482  0.56842634  1
  O2-  O191  1  0.82409445  0.56982166  0.91333745  1
  O2-  O192  1  0.04426057  0.08954590  0.27388461  1
  O2-  O193  1  0.05081749  0.08075992  0.60701755  1
  O2-  O194  1  0.05357662  0.07669474  0.93134658  1
  O2-  O195  1  0.03947101  0.58460261  0.27018568  1
  O2-  O196  1  0.04399034  0.58646245  0.60245599  1
  O2-  O197  1  0.03962785  0.58738153  0.92854684  1
  O2-  O198  1  0.55306142  0.07993464  0.27481496  1
  O2-  O199  1  0.54021857  0.08489016  0.59590047  1
  O2-  O200  1  0.53870374  0.08122315  0.93481752  1
  O2-  O201  1  0.53591377  0.58570607  0.26404226  1
  O2-  O202  1  0.54285620  0.58347841  0.60617268  1
  O2-  O203  1  0.53769469  0.58302113  0.92953888  1
  O2-  O204  1  0.15915247  0.21450234  0.27340906  1
  O2-  O205  1  0.16665459  0.20679443  0.60364666  1
  O2-  O206  1  0.16911412  0.21205649  0.92960444  1
  O2-  O207  1  0.16991201  0.69025380  0.27639995  1
  O2-  O208  1  0.16205365  0.70481385  0.59828980  1
  O2-  O209  1  0.16922767  0.70882392  0.93160606  1
  O2-  O210  1  0.66483881  0.20814130  0.26764746  1
  O2-  O211  1  0.66549892  0.21240172  0.59580722  1
  O2-  O212  1  0.66333213  0.21116970  0.93484607  1
  O2-  O213  1  0.66765165  0.70652473  0.26441196  1
  O2-  O214  1  0.66808180  0.69893672  0.60875872  1
  O2-  O215  1  0.67108830  0.70374700  0.93047272  1
  O2-  O216  1  0.08732259  0.46388526  0.05942926  1
  O2-  O217  1  0.08267905  0.46258636  0.40412108  1
  O2-  O218  1  0.08818145  0.46035516  0.73091084  1
  O2-  O219  1  0.07570084  0.94852473  0.06234061  1
  O2-  O220  1  0.08174864  0.95936522  0.40334743  1
  O2-  O221  1  0.08514016  0.94751623  0.73007854  1
  O2-  O222  1  0.58164776  0.46122028  0.06960853  1
  O2-  O223  1  0.58546378  0.46020348  0.39357157  1
  O2-  O224  1  0.57776006  0.45370780  0.73475302  1
  O2-  O225  1  0.58547097  0.95756617  0.06886005  1
  O2-  O226  1  0.57926104  0.94551993  0.39921080  1
  O2-  O227  1  0.58345827  0.95289190  0.72531330  1
  O2-  O228  1  0.20231816  0.33956140  0.06037944  1
  O2-  O229  1  0.20920217  0.33666263  0.40459252  1
  O2-  O230  1  0.20472605  0.33761853  0.73182101  1
  O2-  O231  1  0.20889953  0.83063040  0.06901223  1
  O2-  O232  1  0.19850927  0.82436363  0.39852361  1
  O2-  O233  1  0.20582006  0.83041148  0.72533740  1
  O2-  O234  1  0.71053865  0.33363821  0.07240310  1
  O2-  O235  1  0.70237312  0.33779806  0.39453759  1
  O2-  O236  1  0.70946548  0.33151403  0.73232347  1
  O2-  O237  1  0.71094772  0.82960474  0.06378429  1
  O2-  O238  1  0.71354442  0.82793375  0.40118598  1
  O2-  O239  1  0.70355408  0.83434383  0.72880978  1
  O2-  O240  1  0.45843151  0.41349374  0.26441888  1
  O2-  O241  1  0.44682471  0.41910002  0.60474750  1
  O2-  O242  1  0.45413373  0.41698140  0.93708475  1
  O2-  O243  1  0.44727648  0.91958541  0.27174869  1
  O2-  O244  1  0.45970846  0.91478421  0.59526350  1
  O2-  O245  1  0.45448108  0.91505346  0.94218644  1
  O2-  O246  1  0.95850424  0.41416504  0.27120342  1
  O2-  O247  1  0.96361519  0.41639096  0.59726796  1
  O2-  O248  1  0.96015849  0.41702860  0.93094824  1
  O2-  O249  1  0.95888728  0.91985079  0.26659514  1
  O2-  O250  1  0.95804644  0.91349285  0.60462278  1
  O2-  O251  1  0.94685166  0.91829310  0.93530876  1
  O2-  O252  1  0.32958168  0.29144438  0.26861664  1
  O2-  O253  1  0.33079859  0.29644653  0.60576311  1
  O2-  O254  1  0.33158728  0.30507184  0.93766140  1
  O2-  O255  1  0.33350585  0.79408177  0.26877246  1
  O2-  O256  1  0.33549452  0.78572395  0.59543182  1
  O2-  O257  1  0.33838581  0.79057607  0.93806771  1
  O2-  O258  1  0.83353995  0.29983924  0.27276944  1
  O2-  O259  1  0.83383140  0.29100859  0.59593080  1
  O2-  O260  1  0.82897653  0.29448128  0.93296086  1
  O2-  O261  1  0.83886629  0.78574679  0.26321719  1
  O2-  O262  1  0.83687781  0.79384261  0.60470444  1
  O2-  O263  1  0.83701720  0.79216550  0.93192698  1
  O2-  O264  1  0.41679556  0.04191435  0.07208995  1
  O2-  O265  1  0.42152168  0.04889390  0.40116065  1
  O2-  O266  1  0.41906367  0.03584496  0.73281754  1
  O2-  O267  1  0.41347417  0.54527098  0.06205935  1
  O2-  O268  1  0.41567224  0.53927945  0.39801500  1
  O2-  O269  1  0.41077539  0.54729790  0.73049044  1
  O2-  O270  1  0.91789976  0.05261935  0.05612993  1
  O2-  O271  1  0.91790956  0.04556555  0.40138991  1
  O2-  O272  1  0.91780188  0.04030876  0.73617684  1
  O2-  O273  1  0.91707557  0.54303013  0.06430362  1
  O2-  O274  1  0.91124150  0.54210812  0.39682797  1
  O2-  O275  1  0.92175854  0.54426652  0.73370527  1
  O2-  O276  1  0.29557488  0.17475288  0.06505826  1
  O2-  O277  1  0.28681936  0.16767721  0.40520495  1
  O2-  O278  1  0.29287875  0.16650791  0.73683089  1
  O2-  O279  1  0.29215395  0.66187267  0.06350631  1
  O2-  O280  1  0.30376839  0.66510625  0.39577918  1
  O2-  O281  1  0.28758780  0.66287239  0.72921517  1
  O2-  O282  1  0.79352216  0.16551546  0.06118484  1
  O2-  O283  1  0.79191356  0.17233486  0.40042732  1
  O2-  O284  1  0.79006135  0.16750825  0.73290346  1
  O2-  O285  1  0.80104228  0.66628795  0.06244900  1
  O2-  O286  1  0.79280748  0.66093416  0.39271063  1
  O2-  O287  1  0.79889820  0.67174882  0.73751849  1
