# generated using pymatgen
data_Ca2Al2SiO7
_symmetry_space_group_name_H-M   'P 1'
_cell_length_a   15.46458853
_cell_length_b   15.46486317
_cell_length_c   15.28804664
_cell_angle_alpha   89.99632158
_cell_angle_beta   89.98861871
_cell_angle_gamma   89.99617746
_symmetry_Int_Tables_number   1
_chemical_formula_structural   Ca2Al2SiO7
_chemical_formula_sum   'Ca48 Al48 Si24 O168'
_cell_volume   3656.25468005
_cell_formula_units_Z   24
loop_
 _symmetry_equiv_pos_site_id
 _symmetry_equiv_pos_as_xyz
  1  'x, y, z'
loop_
 _atom_type_symbol
 _atom_type_oxidation_number
  Ca2+  2.0
  Al0+  0.0
  Si0+  0.0
  O2-  -2.0
loop_
 _atom_site_type_symbol
 _atom_site_label
 _atom_site_symmetry_multiplicity
 _atom_site_fract_x
 _atom_site_fract_y
 _atom_site_fract_z
 _atom_site_occupancy
  Ca2+  Ca0  1  0.17569046  0.07796249  0.17270203  1
  Ca2+  Ca1  1  0.16882311  0.07750825  0.49638545  1
  Ca2+  Ca2  1  0.17389148  0.08201266  0.84011161  1
  Ca2+  Ca3  1  0.17157645  0.58867779  0.17203051  1
  Ca2+  Ca4  1  0.17898884  0.59196969  0.50101088  1
  Ca2+  Ca5  1  0.17696829  0.58130689  0.84479832  1
  Ca2+  Ca6  1  0.67439419  0.07619648  0.17161931  1
  Ca2+  Ca7  1  0.67583582  0.08863546  0.50236507  1
  Ca2+  Ca8  1  0.67719354  0.07337791  0.84419161  1
  Ca2+  Ca9  1  0.66381274  0.58675668  0.17013272  1
  Ca2+  Ca10  1  0.65788104  0.57972469  0.50690700  1
  Ca2+  Ca11  1  0.65878454  0.57999458  0.83532018  1
  Ca2+  Ca12  1  0.07927173  0.33377316  0.15658808  1
  Ca2+  Ca13  1  0.08102192  0.32999557  0.49569537  1
  Ca2+  Ca14  1  0.07983912  0.33683835  0.83730486  1
  Ca2+  Ca15  1  0.08056583  0.83079129  0.16468306  1
  Ca2+  Ca16  1  0.07545767  0.83386097  0.49018794  1
  Ca2+  Ca17  1  0.07455883  0.83339559  0.83217745  1
  Ca2+  Ca18  1  0.57701531  0.32419239  0.16979883  1
  Ca2+  Ca19  1  0.57436749  0.33331136  0.49436852  1
  Ca2+  Ca20  1  0.57647132  0.33383325  0.82481405  1
  Ca2+  Ca21  1  0.58704862  0.82408965  0.15949847  1
  Ca2+  Ca22  1  0.58391258  0.81949092  0.49482121  1
  Ca2+  Ca23  1  0.58773031  0.82369149  0.83370441  1
  Ca2+  Ca24  1  0.32965269  0.42590268  0.16911226  1
  Ca2+  Ca25  1  0.34342081  0.42420793  0.50242116  1
  Ca2+  Ca26  1  0.33038840  0.42410544  0.83852907  1
  Ca2+  Ca27  1  0.33068177  0.92679506  0.17531893  1
  Ca2+  Ca28  1  0.32783405  0.91561521  0.49738292  1
  Ca2+  Ca29  1  0.33398471  0.92403881  0.84206719  1
  Ca2+  Ca30  1  0.83496149  0.41790695  0.16935672  1
  Ca2+  Ca31  1  0.82199045  0.42171088  0.50711766  1
  Ca2+  Ca32  1  0.82530192  0.41445359  0.83958164  1
  Ca2+  Ca33  1  0.83853355  0.92033799  0.16990497  1
  Ca2+  Ca34  1  0.84046874  0.92365537  0.50353726  1
  Ca2+  Ca35  1  0.83486803  0.92026480  0.84067745  1
  Ca2+  Ca36  1  0.41079918  0.16754685  0.16292452  1
  Ca2+  Ca37  1  0.42050663  0.17932470  0.48662553  1
  Ca2+  Ca38  1  0.41532471  0.17290296  0.82584547  1
  Ca2+  Ca39  1  0.42340830  0.65895474  0.16360868  1
  Ca2+  Ca40  1  0.42379578  0.65736997  0.49553989  1
  Ca2+  Ca41  1  0.42352345  0.65533726  0.83097979  1
  Ca2+  Ca42  1  0.91158768  0.16891088  0.16114450  1
  Ca2+  Ca43  1  0.91183336  0.16339541  0.49529476  1
  Ca2+  Ca44  1  0.90985372  0.16660041  0.83338428  1
  Ca2+  Ca45  1  0.92993375  0.67825562  0.15858424  1
  Ca2+  Ca46  1  0.92149664  0.68172124  0.48904081  1
  Ca2+  Ca47  1  0.92104916  0.67868000  0.83124597  1
  Al0+  Al48  1  0.00148523  0.00245428  -0.00067115  1
  Al0+  Al49  1  -0.00042899  0.00274806  0.33697896  1
  Al0+  Al50  1  0.00097531  0.00096160  0.66809347  1
  Al0+  Al51  1  -0.00187184  0.49816751  -0.00719570  1
  Al0+  Al52  1  -0.00066879  0.50124027  0.33320489  1
  Al0+  Al53  1  0.00057486  0.49953520  0.66479137  1
  Al0+  Al54  1  0.50315605  -0.00126663  0.00691552  1
  Al0+  Al55  1  0.50372589  -0.00036081  0.33700583  1
  Al0+  Al56  1  0.50117824  -0.00139902  0.66544505  1
  Al0+  Al57  1  0.49878562  0.49714766  0.00118221  1
  Al0+  Al58  1  0.49858836  0.49700190  0.32712929  1
  Al0+  Al59  1  0.49923029  0.49832566  0.66813237  1
  Al0+  Al60  1  0.24873767  0.25213717  0.00512152  1
  Al0+  Al61  1  0.24821645  0.25252910  0.33237741  1
  Al0+  Al62  1  0.24816239  0.25127328  0.66105322  1
  Al0+  Al63  1  0.25275670  0.75067289  -0.00025589  1
  Al0+  Al64  1  0.25126522  0.74974547  0.33981706  1
  Al0+  Al65  1  0.25097584  0.75081388  0.67388451  1
  Al0+  Al66  1  0.74836195  0.24918216  -0.00038403  1
  Al0+  Al67  1  0.74722323  0.25080422  0.33440295  1
  Al0+  Al68  1  0.75021230  0.25054224  0.67519239  1
  Al0+  Al69  1  0.74938576  0.74729927  -0.00613194  1
  Al0+  Al70  1  0.75102188  0.75136011  0.32614088  1
  Al0+  Al71  1  0.75082533  0.75039223  0.65721864  1
  Al0+  Al72  1  0.07326372  0.67904877  0.31974108  1
  Al0+  Al73  1  0.17641676  0.43103415  0.01472517  1
  Al0+  Al74  1  0.81790793  0.07089542  0.34787475  1
  Al0+  Al75  1  0.42678454  0.31961068  0.31438865  1
  Al0+  Al76  1  0.07490615  0.67804720  0.98356248  1
  Al0+  Al77  1  0.82075310  0.06922006  0.68245677  1
  Al0+  Al78  1  0.82173746  0.07082650  0.01658396  1
  Al0+  Al79  1  0.93032958  0.82471488  0.31658939  1
  Al0+  Al80  1  0.57250923  0.17755819  0.31865764  1
  Al0+  Al81  1  0.67986959  0.43174628  0.68053340  1
  Al0+  Al82  1  0.32214213  0.07132032  0.01133422  1
  Al0+  Al83  1  0.32420714  0.07405730  0.34976675  1
  Al0+  Al84  1  0.32165963  0.57162139  0.01685907  1
  Al0+  Al85  1  0.93153045  0.82144106  0.65113105  1
  Al0+  Al86  1  0.92634281  0.32003288  0.98597238  1
  Al0+  Al87  1  0.56936508  0.67870497  0.31904790  1
  Al0+  Al88  1  0.56751612  0.68020862  0.65338343  1
  Al0+  Al89  1  0.68126401  0.92475431  0.01556117  1
  Al0+  Al90  1  0.42893721  0.31882016  0.65362914  1
  Al0+  Al91  1  0.18004346  0.92995141  0.34830768  1
  Al0+  Al92  1  0.93045876  0.82248160  0.98396744  1
  Al0+  Al93  1  0.32098914  0.56836502  0.34804261  1
  Al0+  Al94  1  0.56879308  0.67704205  0.98489401  1
  Al0+  Al95  1  0.31952939  0.56914231  0.68134062  1
  Si0+  Si96  1  0.06999012  0.17982661  0.65072831  1
  Si0+  Si97  1  0.32117882  0.07275142  0.67860968  1
  Si0+  Si98  1  0.42865997  0.31771201  0.98393261  1
  Si0+  Si99  1  0.07002305  0.18058090  0.31863480  1
  Si0+  Si100  1  0.42959620  0.82471897  0.98479406  1
  Si0+  Si101  1  0.67844708  0.92359010  0.35246568  1
  Si0+  Si102  1  0.81984033  0.56922008  0.01298499  1
  Si0+  Si103  1  0.57321383  0.17679764  0.65264298  1
  Si0+  Si104  1  0.82362305  0.57389296  0.68184407  1
  Si0+  Si105  1  0.07416239  0.67737692  0.65044012  1
  Si0+  Si106  1  0.17359221  0.42859324  0.35156285  1
  Si0+  Si107  1  0.17495024  0.42504553  0.68358290  1
  Si0+  Si108  1  0.82211575  0.57282135  0.34654780  1
  Si0+  Si109  1  0.68057090  0.43161699  0.34697172  1
  Si0+  Si110  1  0.67737599  0.42762311  0.01706195  1
  Si0+  Si111  1  0.07338271  0.18004734  0.98333471  1
  Si0+  Si112  1  0.57062210  0.17715832  0.98432492  1
  Si0+  Si113  1  0.42509920  0.82538654  0.64992961  1
  Si0+  Si114  1  0.67704854  0.92490107  0.68232189  1
  Si0+  Si115  1  0.92641766  0.32133501  0.65110284  1
  Si0+  Si116  1  0.42810956  0.82279358  0.31851537  1
  Si0+  Si117  1  0.92764911  0.32141987  0.32124985  1
  Si0+  Si118  1  0.17833031  0.92813965  0.01517276  1
  Si0+  Si119  1  0.17993366  0.93083407  0.68320356  1
  O2-  O120  1  0.25002141  -0.00549379  0.05746790  1
  O2-  O121  1  0.25390639  0.00031792  0.39991986  1
  O2-  O122  1  0.25492421  -0.00104106  0.72376597  1
  O2-  O123  1  0.24253160  0.50704890  0.06603412  1
  O2-  O124  1  0.24358020  0.49590261  0.39533349  1
  O2-  O125  1  0.24070527  0.49718866  0.72539281  1
  O2-  O126  1  0.75510682  -0.00560205  0.06628799  1
  O2-  O127  1  0.74498695  -0.00482833  0.39604537  1
  O2-  O128  1  0.74506202  -0.00552558  0.72632918  1
  O2-  O129  1  0.74867940  0.49886593  0.05778966  1
  O2-  O130  1  0.74792385  0.50571109  0.39017580  1
  O2-  O131  1  0.75524719  0.50564566  0.72786282  1
  O2-  O132  1  0.00007515  0.25314974  0.27820178  1
  O2-  O133  1  -0.00239711  0.25055413  0.60893491  1
  O2-  O134  1  0.00117055  0.24521049  0.93888591  1
  O2-  O135  1  0.00262306  0.75174089  0.26966231  1
  O2-  O136  1  0.00393148  0.74376334  0.60560073  1
  O2-  O137  1  0.00418965  0.75178342  0.93374421  1
  O2-  O138  1  0.49210512  0.23952573  0.26684363  1
  O2-  O139  1  0.50145047  0.24144574  0.60797141  1
  O2-  O140  1  0.49717759  0.24486004  0.94046442  1
  O2-  O141  1  0.49691051  0.75531209  0.27279219  1
  O2-  O142  1  0.49327078  0.75556151  0.60703522  1
  O2-  O143  1  0.49333403  0.75175661  0.93943803  1
  O2-  O144  1  0.07519767  0.18166734  0.08870497  1
  O2-  O145  1  0.06918872  0.18147057  0.42444410  1
  O2-  O146  1  0.07328975  0.17993705  0.75553354  1
  O2-  O147  1  0.07241127  0.67897458  0.09691104  1
  O2-  O148  1  0.06923211  0.67857719  0.43383686  1
  O2-  O149  1  0.07323610  0.67899826  0.75575317  1
  O2-  O150  1  0.57124870  0.18022693  0.08890353  1
  O2-  O151  1  0.57687647  0.18670099  0.43250904  1
  O2-  O152  1  0.57048867  0.17728819  0.75853379  1
  O2-  O153  1  0.56812655  0.67580939  0.09782416  1
  O2-  O154  1  0.56822269  0.67659117  0.43243075  1
  O2-  O155  1  0.56652923  0.67983965  0.76624723  1
  O2-  O156  1  0.16967478  0.42879996  0.24657192  1
  O2-  O157  1  0.17258530  0.42164242  0.57829773  1
  O2-  O158  1  0.18171188  0.42739511  0.90076169  1
  O2-  O159  1  0.18068010  0.93289349  0.23477632  1
  O2-  O160  1  0.17885896  0.93197515  0.57855131  1
  O2-  O161  1  0.17895783  0.93177544  0.90877478  1
  O2-  O162  1  0.68403259  0.43003845  0.24183665  1
  O2-  O163  1  0.68104716  0.43170557  0.56702591  1
  O2-  O164  1  0.67656957  0.42740020  0.91170044  1
  O2-  O165  1  0.68006112  0.92137268  0.24728987  1
  O2-  O166  1  0.67604694  0.92550233  0.57698499  1
  O2-  O167  1  0.67989574  0.92808284  0.90132117  1
  O2-  O168  1  0.43016501  0.31728685  0.08848836  1
  O2-  O169  1  0.43225909  0.32332546  0.42826629  1
  O2-  O170  1  0.42900195  0.31614497  0.76721599  1
  O2-  O171  1  0.43156889  0.82770383  0.08994564  1
  O2-  O172  1  0.42957429  0.82047187  0.42455451  1
  O2-  O173  1  0.42500928  0.83062858  0.75518288  1
  O2-  O174  1  0.92543574  0.31890665  0.09948765  1
  O2-  O175  1  0.92750176  0.32072907  0.42684062  1
  O2-  O176  1  0.92624984  0.32115143  0.75576076  1
  O2-  O177  1  0.93256601  0.82190448  0.09695492  1
  O2-  O178  1  0.93122238  0.82359620  0.43070656  1
  O2-  O179  1  0.93350269  0.82237427  0.76395989  1
  O2-  O180  1  0.31900883  0.07245410  0.23616497  1
  O2-  O181  1  0.31830239  0.07334734  0.57433309  1
  O2-  O182  1  0.32029572  0.07173695  0.89703642  1
  O2-  O183  1  0.32239338  0.56679822  0.23562054  1
  O2-  O184  1  0.32039103  0.56772229  0.56822675  1
  O2-  O185  1  0.32487324  0.56492501  0.90311438  1
  O2-  O186  1  0.81790762  0.07401350  0.23564956  1
  O2-  O187  1  0.82038417  0.07114384  0.56923906  1
  O2-  O188  1  0.81816657  0.07151117  0.90275540  1
  O2-  O189  1  0.82359223  0.56819443  0.24156183  1
  O2-  O190  1  0.82343415  0.57011317  0.57591477  1
  O2-  O191  1  0.81778703  0.56727313  0.90765242  1
  O2-  O192  1  0.04071811  0.09021185  0.27138499  1
  O2-  O193  1  0.04180090  0.08863306  0.60302556  1
  O2-  O194  1  0.05235829  0.08597309  0.93630502  1
  O2-  O195  1  0.04277638  0.58060714  0.26755356  1
  O2-  O196  1  0.05344486  0.58171352  0.60571895  1
  O2-  O197  1  0.04412153  0.58055373  0.92991409  1
  O2-  O198  1  0.55841462  0.07420988  0.27194717  1
  O2-  O199  1  0.55386964  0.08158086  0.60719970  1
  O2-  O200  1  0.54628076  0.08370553  0.93869579  1
  O2-  O201  1  0.53903073  0.58281434  0.26446270  1
  O2-  O202  1  0.53519266  0.58350866  0.60057205  1
  O2-  O203  1  0.53725300  0.57906214  0.93218798  1
  O2-  O204  1  0.16135645  0.20670733  0.27043893  1
  O2-  O205  1  0.15977951  0.20876137  0.59954622  1
  O2-  O206  1  0.16525787  0.21065920  0.93482400  1
  O2-  O207  1  0.17314712  0.70573477  0.27039863  1
  O2-  O208  1  0.16828854  0.70647814  0.60735096  1
  O2-  O209  1  0.17480667  0.70452439  0.93155914  1
  O2-  O210  1  0.66600713  0.21831855  0.26299325  1
  O2-  O211  1  0.66654938  0.20732103  0.60918303  1
  O2-  O212  1  0.66042753  0.20893052  0.93545210  1
  O2-  O213  1  0.66692367  0.70593190  0.26536175  1
  O2-  O214  1  0.66467486  0.70641203  0.59732588  1
  O2-  O215  1  0.66509631  0.70489510  0.92870110  1
  O2-  O216  1  0.07357189  0.44945581  0.06219579  1
  O2-  O217  1  0.07991958  0.45319713  0.40010035  1
  O2-  O218  1  0.07950551  0.44691932  0.72859942  1
  O2-  O219  1  0.08687998  0.95767900  0.06193197  1
  O2-  O220  1  0.08413053  0.96482043  0.40356477  1
  O2-  O221  1  0.09115549  0.96498540  0.73222399  1
  O2-  O222  1  0.58647000  0.45539069  0.06501023  1
  O2-  O223  1  0.58780699  0.45776002  0.39237100  1
  O2-  O224  1  0.58450374  0.46243080  0.73635278  1
  O2-  O225  1  0.58485854  0.95534826  0.07094814  1
  O2-  O226  1  0.58402161  0.94409052  0.39924426  1
  O2-  O227  1  0.58232379  0.94823769  0.72879491  1
  O2-  O228  1  0.20790352  0.33457667  0.06989294  1
  O2-  O229  1  0.19735078  0.33401704  0.39666893  1
  O2-  O230  1  0.20371226  0.33204368  0.72980167  1
  O2-  O231  1  0.20057846  0.83398590  0.05971137  1
  O2-  O232  1  0.20685607  0.83264423  0.40500343  1
  O2-  O233  1  0.20417493  0.83923364  0.73247746  1
  O2-  O234  1  0.70639002  0.33641216  0.06399868  1
  O2-  O235  1  0.71206018  0.34246643  0.39721551  1
  O2-  O236  1  0.70997204  0.33632200  0.73755972  1
  O2-  O237  1  0.70495765  0.82385442  0.06464376  1
  O2-  O238  1  0.70719438  0.83030490  0.39872521  1
  O2-  O239  1  0.70435078  0.83082159  0.72620061  1
  O2-  O240  1  0.46481129  0.41297270  0.25864259  1
  O2-  O241  1  0.46509919  0.41319435  0.59986869  1
  O2-  O242  1  0.46105079  0.40800122  0.93658601  1
  O2-  O243  1  0.45114986  0.91786674  0.27465905  1
  O2-  O244  1  0.45014646  0.91848533  0.60126752  1
  O2-  O245  1  0.45992030  0.91683405  0.93628621  1
  O2-  O246  1  0.95276909  0.41366775  0.27374970  1
  O2-  O247  1  0.95262881  0.41359078  0.60258165  1
  O2-  O248  1  0.95421922  0.41484146  0.92698504  1
  O2-  O249  1  0.95975252  0.92376161  0.26669444  1
  O2-  O250  1  0.96648346  0.91801214  0.59911116  1
  O2-  O251  1  0.95882955  0.92210051  0.93176966  1
  O2-  O252  1  0.32534501  0.29948278  0.26453249  1
  O2-  O253  1  0.33198467  0.29219896  0.59811971  1
  O2-  O254  1  0.33575627  0.29163417  0.93785517  1
  O2-  O255  1  0.33403987  0.79823150  0.27453462  1
  O2-  O256  1  0.33044621  0.79975578  0.60629414  1
  O2-  O257  1  0.33430656  0.80616360  0.93904566  1
  O2-  O258  1  0.83690422  0.29257587  0.27358706  1
  O2-  O259  1  0.83421145  0.29257170  0.60475942  1
  O2-  O260  1  0.82981072  0.28876177  0.93054984  1
  O2-  O261  1  0.83276225  0.79617234  0.26379521  1
  O2-  O262  1  0.83488594  0.79453720  0.59530447  1
  O2-  O263  1  0.83339955  0.79007738  0.93020537  1
  O2-  O264  1  0.41828811  0.04410289  0.06637060  1
  O2-  O265  1  0.42445654  0.05015282  0.40126663  1
  O2-  O266  1  0.41518726  0.04932901  0.72459345  1
  O2-  O267  1  0.41726292  0.53348468  0.06979599  1
  O2-  O268  1  0.41764871  0.53201261  0.40021609  1
  O2-  O269  1  0.41372786  0.53251468  0.73557693  1
  O2-  O270  1  0.92373890  0.05109889  0.06525417  1
  O2-  O271  1  0.91544096  0.04424289  0.40257024  1
  O2-  O272  1  0.91859198  0.04036127  0.73504553  1
  O2-  O273  1  0.91097962  0.53937631  0.05954454  1
  O2-  O274  1  0.91148849  0.54186035  0.39730689  1
  O2-  O275  1  0.91781875  0.54833556  0.72674565  1
  O2-  O276  1  0.28843597  0.16577064  0.06615991  1
  O2-  O277  1  0.29122299  0.17257715  0.40057075  1
  O2-  O278  1  0.28849669  0.16347128  0.72599629  1
  O2-  O279  1  0.30399620  0.67407078  0.06522396  1
  O2-  O280  1  0.29508537  0.66539535  0.40418280  1
  O2-  O281  1  0.29536828  0.66755957  0.73596579  1
  O2-  O282  1  0.78825919  0.16875090  0.06757158  1
  O2-  O283  1  0.78563709  0.16806433  0.40264200  1
  O2-  O284  1  0.79213641  0.16605623  0.73710398  1
  O2-  O285  1  0.79206254  0.66050653  0.05986925  1
  O2-  O286  1  0.79722134  0.66623892  0.39135978  1
  O2-  O287  1  0.79786509  0.66843460  0.72460269  1
