# generated using pymatgen
data_Ca2Al2SiO7
_symmetry_space_group_name_H-M   'P 1'
_cell_length_a   15.45577870
_cell_length_b   15.45548380
_cell_length_c   15.28234323
_cell_angle_alpha   90.00336413
_cell_angle_beta   90.00386599
_cell_angle_gamma   90.00536604
_symmetry_Int_Tables_number   1
_chemical_formula_structural   Ca2Al2SiO7
_chemical_formula_sum   'Ca48 Al48 Si24 O168'
_cell_volume   3650.59319953
_cell_formula_units_Z   24
loop_
 _symmetry_equiv_pos_site_id
 _symmetry_equiv_pos_as_xyz
  1  'x, y, z'
loop_
 _atom_type_symbol
 _atom_type_oxidation_number
  Ca2+  2.0
  Al0+  0.0
  Si0+  0.0
  O2-  -2.0
loop_
 _atom_site_type_symbol
 _atom_site_label
 _atom_site_symmetry_multiplicity
 _atom_site_fract_x
 _atom_site_fract_y
 _atom_site_fract_z
 _atom_site_occupancy
  Ca2+  Ca0  1  0.17632352  0.07612052  0.17902422  1
  Ca2+  Ca1  1  0.16723101  0.07589587  0.50288572  1
  Ca2+  Ca2  1  0.16220983  0.08047898  0.83297411  1
  Ca2+  Ca3  1  0.17270401  0.57272830  0.17740130  1
  Ca2+  Ca4  1  0.17724684  0.58651369  0.50024156  1
  Ca2+  Ca5  1  0.17453326  0.57698497  0.83811742  1
  Ca2+  Ca6  1  0.66896697  0.08530036  0.17090599  1
  Ca2+  Ca7  1  0.67003676  0.07962239  0.50742061  1
  Ca2+  Ca8  1  0.65572635  0.08192839  0.83447223  1
  Ca2+  Ca9  1  0.67036798  0.58477357  0.16693397  1
  Ca2+  Ca10  1  0.67047042  0.57875188  0.50817544  1
  Ca2+  Ca11  1  0.66566811  0.57438347  0.83948763  1
  Ca2+  Ca12  1  0.08781317  0.33824891  0.16290331  1
  Ca2+  Ca13  1  0.08232068  0.33225695  0.49698548  1
  Ca2+  Ca14  1  0.07784183  0.33209611  0.82586947  1
  Ca2+  Ca15  1  0.08364071  0.82825240  0.17065182  1
  Ca2+  Ca16  1  0.08359025  0.83151681  0.48943007  1
  Ca2+  Ca17  1  0.08172617  0.83335737  0.82648857  1
  Ca2+  Ca18  1  0.57031790  0.33168376  0.15806445  1
  Ca2+  Ca19  1  0.58006099  0.33207185  0.49753279  1
  Ca2+  Ca20  1  0.58937668  0.32863860  0.82797636  1
  Ca2+  Ca21  1  0.57469208  0.82656324  0.15603123  1
  Ca2+  Ca22  1  0.58888050  0.82705484  0.49980930  1
  Ca2+  Ca23  1  0.58022422  0.82253736  0.82803082  1
  Ca2+  Ca24  1  0.32819622  0.41318871  0.17490719  1
  Ca2+  Ca25  1  0.33430288  0.42377006  0.49843535  1
  Ca2+  Ca26  1  0.33274455  0.41846174  0.83782188  1
  Ca2+  Ca27  1  0.33360428  0.92169936  0.17582563  1
  Ca2+  Ca28  1  0.32187863  0.91843453  0.50353408  1
  Ca2+  Ca29  1  0.33205974  0.91543435  0.83520628  1
  Ca2+  Ca30  1  0.82544446  0.42841914  0.16911441  1
  Ca2+  Ca31  1  0.83119153  0.42098535  0.50555096  1
  Ca2+  Ca32  1  0.82361090  0.41645364  0.83918934  1
  Ca2+  Ca33  1  0.83209964  0.92194762  0.17647609  1
  Ca2+  Ca34  1  0.83386259  0.92056087  0.50184324  1
  Ca2+  Ca35  1  0.82399378  0.91711318  0.83291592  1
  Ca2+  Ca36  1  0.41573828  0.17491404  0.16074722  1
  Ca2+  Ca37  1  0.42031730  0.16927418  0.49297140  1
  Ca2+  Ca38  1  0.42643017  0.17614501  0.83136512  1
  Ca2+  Ca39  1  0.41794600  0.67070880  0.16049448  1
  Ca2+  Ca40  1  0.42008874  0.65716094  0.49746570  1
  Ca2+  Ca41  1  0.42654021  0.66281853  0.82926956  1
  Ca2+  Ca42  1  0.91729306  0.16614859  0.16580163  1
  Ca2+  Ca43  1  0.91787878  0.17052123  0.49904138  1
  Ca2+  Ca44  1  0.92290276  0.17682222  0.82125334  1
  Ca2+  Ca45  1  0.91683753  0.66240579  0.16889171  1
  Ca2+  Ca46  1  0.92250519  0.67381759  0.48527207  1
  Ca2+  Ca47  1  0.91568080  0.66274525  0.83150804  1
  Al0+  Al48  1  -0.00067153  -0.00181297  -0.00011809  1
  Al0+  Al49  1  -0.00234728  0.00063109  0.33575158  1
  Al0+  Al50  1  0.00053764  0.00062564  0.66840394  1
  Al0+  Al51  1  0.00060462  0.50036447  0.00608695  1
  Al0+  Al52  1  -0.00125216  0.49946907  0.33631846  1
  Al0+  Al53  1  0.00187620  0.50180590  0.66147169  1
  Al0+  Al54  1  0.49821231  0.00026070  -0.00580169  1
  Al0+  Al55  1  0.50194114  -0.00151864  0.33720951  1
  Al0+  Al56  1  0.49865336  0.00010220  0.66643389  1
  Al0+  Al57  1  0.49890991  0.50076837  -0.00236136  1
  Al0+  Al58  1  0.49967053  0.49684189  0.32999710  1
  Al0+  Al59  1  0.50183292  0.50112416  0.67044168  1
  Al0+  Al60  1  0.25017054  0.24731643  -0.00235356  1
  Al0+  Al61  1  0.25020326  0.24951921  0.33793807  1
  Al0+  Al62  1  0.24982209  0.24948876  0.66249735  1
  Al0+  Al63  1  0.24627834  0.75001846  -0.00372493  1
  Al0+  Al64  1  0.25075560  0.74842057  0.33472416  1
  Al0+  Al65  1  0.25074932  0.75121201  0.67723425  1
  Al0+  Al66  1  0.75102980  0.25039521  0.00173267  1
  Al0+  Al67  1  0.75102804  0.24849865  0.33603371  1
  Al0+  Al68  1  0.75076881  0.25131527  0.66088355  1
  Al0+  Al69  1  0.75102644  0.75246135  0.00012230  1
  Al0+  Al70  1  0.75086858  0.74959555  0.33166287  1
  Al0+  Al71  1  0.74951752  0.75173071  0.66664278  1
  Al0+  Al72  1  0.07193524  0.17783033  0.64965196  1
  Al0+  Al73  1  0.57316164  0.18092257  0.98569541  1
  Al0+  Al74  1  0.68163253  0.42914615  0.67908741  1
  Al0+  Al75  1  0.67613135  0.42698492  0.01655571  1
  Al0+  Al76  1  0.56999776  0.17811984  0.65068555  1
  Al0+  Al77  1  0.42630226  0.32191899  0.98408369  1
  Al0+  Al78  1  0.18137980  0.42781199  0.01188778  1
  Al0+  Al79  1  0.82027844  0.07200550  0.34792404  1
  Al0+  Al80  1  0.17743270  0.42747621  0.35005908  1
  Al0+  Al81  1  0.42915095  0.31870307  0.32011529  1
  Al0+  Al82  1  0.32325126  0.57068494  0.34639732  1
  Al0+  Al83  1  0.32399785  0.07187687  0.34863945  1
  Al0+  Al84  1  0.17978907  0.92888236  0.34664996  1
  Al0+  Al85  1  0.57266912  0.67961466  0.98454306  1
  Al0+  Al86  1  0.92854070  0.82226980  0.31709795  1
  Al0+  Al87  1  0.92922068  0.32344176  0.65043677  1
  Al0+  Al88  1  0.67807115  0.92922050  0.68116574  1
  Al0+  Al89  1  0.32120339  0.56987102  0.68269633  1
  Al0+  Al90  1  0.57038506  0.67937293  0.65148573  1
  Al0+  Al91  1  0.17895132  0.93103627  0.68259098  1
  Al0+  Al92  1  0.42577598  0.82152250  0.98426362  1
  Al0+  Al93  1  0.81893196  0.57161670  0.34847175  1
  Al0+  Al94  1  0.82075764  0.57283406  0.01539818  1
  Al0+  Al95  1  0.07271128  0.67744830  0.31757148  1
  Si0+  Si96  1  0.42820349  0.32349285  0.64907654  1
  Si0+  Si97  1  0.67807311  0.93114255  0.01405161  1
  Si0+  Si98  1  0.67811866  0.42821558  0.34987178  1
  Si0+  Si99  1  0.93105640  0.32159294  0.98816292  1
  Si0+  Si100  1  0.32252091  0.07415044  0.68561851  1
  Si0+  Si101  1  0.82082856  0.07191440  0.68423748  1
  Si0+  Si102  1  0.82287637  0.07042225  0.01353887  1
  Si0+  Si103  1  0.57318820  0.17603198  0.31772962  1
  Si0+  Si104  1  0.92898169  0.82026492  0.65277236  1
  Si0+  Si105  1  0.17726102  0.42746986  0.68256205  1
  Si0+  Si106  1  0.06846474  0.67803985  0.98410966  1
  Si0+  Si107  1  0.31986713  0.06811921  0.01341178  1
  Si0+  Si108  1  0.17580903  0.92792330  0.01637664  1
  Si0+  Si109  1  0.06970768  0.17972809  0.31780873  1
  Si0+  Si110  1  0.67804342  0.92693736  0.34927479  1
  Si0+  Si111  1  0.42658333  0.82098700  0.64870014  1
  Si0+  Si112  1  0.07336711  0.68089719  0.65328041  1
  Si0+  Si113  1  0.42975064  0.82133761  0.32133060  1
  Si0+  Si114  1  0.57136848  0.67779228  0.31891266  1
  Si0+  Si115  1  0.32105438  0.57356555  0.01574168  1
  Si0+  Si116  1  0.07021410  0.17651167  0.98693097  1
  Si0+  Si117  1  0.92721803  0.32131831  0.31582653  1
  Si0+  Si118  1  0.92987142  0.82379674  0.98283290  1
  Si0+  Si119  1  0.82402903  0.57344023  0.68122110  1
  O2-  O120  1  0.25098508  -0.00507911  0.05653386  1
  O2-  O121  1  0.25157206  0.00009606  0.39782823  1
  O2-  O122  1  0.25184006  0.00707599  0.73042875  1
  O2-  O123  1  0.25838806  0.49936292  0.05936084  1
  O2-  O124  1  0.24873312  0.50157117  0.39735950  1
  O2-  O125  1  0.24731192  0.49345155  0.72828792  1
  O2-  O126  1  0.74761478  0.00386294  0.05584018  1
  O2-  O127  1  0.74574621  -0.00321163  0.39275832  1
  O2-  O128  1  0.74920899  0.00701336  0.72999700  1
  O2-  O129  1  0.74494556  0.50379108  0.06446112  1
  O2-  O130  1  0.74543425  0.49713743  0.39567698  1
  O2-  O131  1  0.75823751  0.50262934  0.72543725  1
  O2-  O132  1  0.00127615  0.25269977  0.27341961  1
  O2-  O133  1  0.00207600  0.25202962  0.60020207  1
  O2-  O134  1  0.00119803  0.24963062  0.94552138  1
  O2-  O135  1  -0.00032464  0.74923147  0.26677962  1
  O2-  O136  1  -0.00007911  0.74933348  0.61146985  1
  O2-  O137  1  -0.00228976  0.74955325  0.94105498  1
  O2-  O138  1  0.50209598  0.24155643  0.27369362  1
  O2-  O139  1  0.49460036  0.25217317  0.60498952  1
  O2-  O140  1  0.50607568  0.25745708  0.93518375  1
  O2-  O141  1  0.49951767  0.74917909  0.27862356  1
  O2-  O142  1  0.49567985  0.75354707  0.60289616  1
  O2-  O143  1  0.49680083  0.74837249  0.93481002  1
  O2-  O144  1  0.06876596  0.17324489  0.09200088  1
  O2-  O145  1  0.06698495  0.17901595  0.42236763  1
  O2-  O146  1  0.06859714  0.17818499  0.76443564  1
  O2-  O147  1  0.07009807  0.67973626  0.08850800  1
  O2-  O148  1  0.07207374  0.68128212  0.43169944  1
  O2-  O149  1  0.07060908  0.68079082  0.75902100  1
  O2-  O150  1  0.57052203  0.17715754  0.09943811  1
  O2-  O151  1  0.57386934  0.17717127  0.42322343  1
  O2-  O152  1  0.56872507  0.17959465  0.76372031  1
  O2-  O153  1  0.57296452  0.68479234  0.09886304  1
  O2-  O154  1  0.57236530  0.67824882  0.42408827  1
  O2-  O155  1  0.57111492  0.68002915  0.76406652  1
  O2-  O156  1  0.18057687  0.42680335  0.23590903  1
  O2-  O157  1  0.17635778  0.42993049  0.57760097  1
  O2-  O158  1  0.17780293  0.43053489  0.89863544  1
  O2-  O159  1  0.18237521  0.93086965  0.23227372  1
  O2-  O160  1  0.17935570  0.92918147  0.57011301  1
  O2-  O161  1  0.17141003  0.93125304  0.91138957  1
  O2-  O162  1  0.67906974  0.42846443  0.24439139  1
  O2-  O163  1  0.68093789  0.43200160  0.56578644  1
  O2-  O164  1  0.68304798  0.42367484  0.90303614  1
  O2-  O165  1  0.67628455  0.92822416  0.24325553  1
  O2-  O166  1  0.68329036  0.92775789  0.56818371  1
  O2-  O167  1  0.68067239  0.93068810  0.90905913  1
  O2-  O168  1  0.42205281  0.31502099  0.09751153  1
  O2-  O169  1  0.43387319  0.32079913  0.43316292  1
  O2-  O170  1  0.42768852  0.32206286  0.75471777  1
  O2-  O171  1  0.42760423  0.82305903  0.09873896  1
  O2-  O172  1  0.43158675  0.82313382  0.42606829  1
  O2-  O173  1  0.42793358  0.81913650  0.75434789  1
  O2-  O174  1  0.93192067  0.31947392  0.09335360  1
  O2-  O175  1  0.92511708  0.31901254  0.42048463  1
  O2-  O176  1  0.93084686  0.32254649  0.76513697  1
  O2-  O177  1  0.93218666  0.83089217  0.08695477  1
  O2-  O178  1  0.92830742  0.82136798  0.43112361  1
  O2-  O179  1  0.92902137  0.81959295  0.75858046  1
  O2-  O180  1  0.32302923  0.06957683  0.23409764  1
  O2-  O181  1  0.32305959  0.07157323  0.58030189  1
  O2-  O182  1  0.31685397  0.06856805  0.90852071  1
  O2-  O183  1  0.32471544  0.57068249  0.23278900  1
  O2-  O184  1  0.31968759  0.57046455  0.56984651  1
  O2-  O185  1  0.31588888  0.57547952  0.91005247  1
  O2-  O186  1  0.81837991  0.07237780  0.23384638  1
  O2-  O187  1  0.82165422  0.06834465  0.57878906  1
  O2-  O188  1  0.82846120  0.06717086  0.90898490  1
  O2-  O189  1  0.81558977  0.57099492  0.23552507  1
  O2-  O190  1  0.82196226  0.57451988  0.57575575  1
  O2-  O191  1  0.82481768  0.56910185  0.90157671  1
  O2-  O192  1  0.03879984  0.08906957  0.26935160  1
  O2-  O193  1  0.04007655  0.07961849  0.59828214  1
  O2-  O194  1  0.03907165  0.08598619  0.93780762  1
  O2-  O195  1  0.04250629  0.57840226  0.26623367  1
  O2-  O196  1  0.05153067  0.58863522  0.60493048  1
  O2-  O197  1  0.03920240  0.58646494  0.93651731  1
  O2-  O198  1  0.55198667  0.08015150  0.27352707  1
  O2-  O199  1  0.54085688  0.08033895  0.59754908  1
  O2-  O200  1  0.54014819  0.08414135  0.93180583  1
  O2-  O201  1  0.54442967  0.58642163  0.27079952  1
  O2-  O202  1  0.53959567  0.58253108  0.59820739  1
  O2-  O203  1  0.54856857  0.57986766  0.93304672  1
  O2-  O204  1  0.16300048  0.20457091  0.27171134  1
  O2-  O205  1  0.17151932  0.20137482  0.59739611  1
  O2-  O206  1  0.16160260  0.20104962  0.93814751  1
  O2-  O207  1  0.17123844  0.70660451  0.26389727  1
  O2-  O208  1  0.16476951  0.71320519  0.60904216  1
  O2-  O209  1  0.15896287  0.70629828  0.93399846  1
  O2-  O210  1  0.66679047  0.20330991  0.27193803  1
  O2-  O211  1  0.66705515  0.20705622  0.59740095  1
  O2-  O212  1  0.67456866  0.20183316  0.93402196  1
  O2-  O213  1  0.66185777  0.70760599  0.27054449  1
  O2-  O214  1  0.66720770  0.71269447  0.59809248  1
  O2-  O215  1  0.67056851  0.71220037  0.93213239  1
  O2-  O216  1  0.08652012  0.46044710  0.06793076  1
  O2-  O217  1  0.07794400  0.45185413  0.40133383  1
  O2-  O218  1  0.08391668  0.45629807  0.72875199  1
  O2-  O219  1  0.08578939  0.96007322  0.06486142  1
  O2-  O220  1  0.08146732  0.95766195  0.39813842  1
  O2-  O221  1  0.08178651  0.96087975  0.73819839  1
  O2-  O222  1  0.57542268  0.45195193  0.06652079  1
  O2-  O223  1  0.58463725  0.45362949  0.39495037  1
  O2-  O224  1  0.58648920  0.46027271  0.73454482  1
  O2-  O225  1  0.58518513  0.95747825  0.06030879  1
  O2-  O226  1  0.58558734  0.95001597  0.39839038  1
  O2-  O227  1  0.57994055  0.95633467  0.73373183  1
  O2-  O228  1  0.20660048  0.32842411  0.06390665  1
  O2-  O229  1  0.20581445  0.33010998  0.40368931  1
  O2-  O230  1  0.19910844  0.33165322  0.72619337  1
  O2-  O231  1  0.19834178  0.83358572  0.06039717  1
  O2-  O232  1  0.20764701  0.83103131  0.39962422  1
  O2-  O233  1  0.20993672  0.83649635  0.74112351  1
  O2-  O234  1  0.70942044  0.32988338  0.07079022  1
  O2-  O235  1  0.70497681  0.33471720  0.39506007  1
  O2-  O236  1  0.71237508  0.33178199  0.73195698  1
  O2-  O237  1  0.70842413  0.84117176  0.06297574  1
  O2-  O238  1  0.70538384  0.83412404  0.39520614  1
  O2-  O239  1  0.71407580  0.83462788  0.73694427  1
  O2-  O240  1  0.46131321  0.41370320  0.26283846  1
  O2-  O241  1  0.45830096  0.41596630  0.60439967  1
  O2-  O242  1  0.44365871  0.42379857  0.93558849  1
  O2-  O243  1  0.45949686  0.91256997  0.27204046  1
  O2-  O244  1  0.44951597  0.91567068  0.60458773  1
  O2-  O245  1  0.45484756  0.91860617  0.92954975  1
  O2-  O246  1  0.95220706  0.41394527  0.26946429  1
  O2-  O247  1  0.95633836  0.42220357  0.59664363  1
  O2-  O248  1  0.96031600  0.41277152  0.94081014  1
  O2-  O249  1  0.95603330  0.92164619  0.26451280  1
  O2-  O250  1  0.95662041  0.91269085  0.60767559  1
  O2-  O251  1  0.96202230  0.91312408  0.93158830  1
  O2-  O252  1  0.33117406  0.28903743  0.26767015  1
  O2-  O253  1  0.33352469  0.30122765  0.60394047  1
  O2-  O254  1  0.33116237  0.28473737  0.92796618  1
  O2-  O255  1  0.33821049  0.79589235  0.27264938  1
  O2-  O256  1  0.33182762  0.79370738  0.60639602  1
  O2-  O257  1  0.32529946  0.79779245  0.93253029  1
  O2-  O258  1  0.83659457  0.28861129  0.26796484  1
  O2-  O259  1  0.83284222  0.29373810  0.59486768  1
  O2-  O260  1  0.83988701  0.29328222  0.94029991  1
  O2-  O261  1  0.82961319  0.79436079  0.26348427  1
  O2-  O262  1  0.83777544  0.79410757  0.60431894  1
  O2-  O263  1  0.83707275  0.79920826  0.93606934  1
  O2-  O264  1  0.41220399  0.04196114  0.06064261  1
  O2-  O265  1  0.42228597  0.04377505  0.40163141  1
  O2-  O266  1  0.41486739  0.04585467  0.73252356  1
  O2-  O267  1  0.41761505  0.55777433  0.05781197  1
  O2-  O268  1  0.42074835  0.53815033  0.39991570  1
  O2-  O269  1  0.41727168  0.53944147  0.73704273  1
  O2-  O270  1  0.91238780  0.03737204  0.06380663  1
  O2-  O271  1  0.91542390  0.04145324  0.40329877  1
  O2-  O272  1  0.91289155  0.04262555  0.73182336  1
  O2-  O273  1  0.91709599  0.54022568  0.07055009  1
  O2-  O274  1  0.91564829  0.54247668  0.40143491  1
  O2-  O275  1  0.91986030  0.55146216  0.72507505  1
  O2-  O276  1  0.28881874  0.15837585  0.06176398  1
  O2-  O277  1  0.29534908  0.16834991  0.40274979  1
  O2-  O278  1  0.29775740  0.16888539  0.73025099  1
  O2-  O279  1  0.28867345  0.66594273  0.06156805  1
  O2-  O280  1  0.29846914  0.66923032  0.40053790  1
  O2-  O281  1  0.28886524  0.66452786  0.73953713  1
  O2-  O282  1  0.80043534  0.16305320  0.06147898  1
  O2-  O283  1  0.79043562  0.16747347  0.40427004  1
  O2-  O284  1  0.79920502  0.16754669  0.72660885  1
  O2-  O285  1  0.79775513  0.67395610  0.06630641  1
  O2-  O286  1  0.78981085  0.66908764  0.40143847  1
  O2-  O287  1  0.79758920  0.66656278  0.72773962  1
