# generated using pymatgen
data_Ca2Al2SiO7
_symmetry_space_group_name_H-M   'P 1'
_cell_length_a   15.45837174
_cell_length_b   15.45915449
_cell_length_c   15.28340608
_cell_angle_alpha   89.99293590
_cell_angle_beta   90.00098672
_cell_angle_gamma   90.00305125
_symmetry_Int_Tables_number   1
_chemical_formula_structural   Ca2Al2SiO7
_chemical_formula_sum   'Ca48 Al48 Si24 O168'
_cell_volume   3652.32682142
_cell_formula_units_Z   24
loop_
 _symmetry_equiv_pos_site_id
 _symmetry_equiv_pos_as_xyz
  1  'x, y, z'
loop_
 _atom_type_symbol
 _atom_type_oxidation_number
  Ca2+  2.0
  Al0+  0.0
  Si0+  0.0
  O2-  -2.0
loop_
 _atom_site_type_symbol
 _atom_site_label
 _atom_site_symmetry_multiplicity
 _atom_site_fract_x
 _atom_site_fract_y
 _atom_site_fract_z
 _atom_site_occupancy
  Ca2+  Ca0  1  0.16875782  0.07510178  0.17745982  1
  Ca2+  Ca1  1  0.16578255  0.07567830  0.49843376  1
  Ca2+  Ca2  1  0.16769326  0.07075729  0.83705477  1
  Ca2+  Ca3  1  0.17049420  0.58085137  0.16950270  1
  Ca2+  Ca4  1  0.17303130  0.58800888  0.50647005  1
  Ca2+  Ca5  1  0.18194791  0.57839130  0.84051967  1
  Ca2+  Ca6  1  0.67259903  0.08838145  0.17302321  1
  Ca2+  Ca7  1  0.66915158  0.08535341  0.50324127  1
  Ca2+  Ca8  1  0.67905136  0.08763082  0.83709676  1
  Ca2+  Ca9  1  0.66044593  0.57674463  0.17082573  1
  Ca2+  Ca10  1  0.66671176  0.58326549  0.50369239  1
  Ca2+  Ca11  1  0.67273182  0.58397036  0.84049396  1
  Ca2+  Ca12  1  0.08984792  0.32618920  0.16174359  1
  Ca2+  Ca13  1  0.07339540  0.32984898  0.49268716  1
  Ca2+  Ca14  1  0.07707369  0.33683689  0.82725055  1
  Ca2+  Ca15  1  0.08358827  0.83572794  0.16867227  1
  Ca2+  Ca16  1  0.08073726  0.83252949  0.49138653  1
  Ca2+  Ca17  1  0.08642857  0.83563107  0.83058472  1
  Ca2+  Ca18  1  0.58354119  0.33644265  0.16907396  1
  Ca2+  Ca19  1  0.57295071  0.33200163  0.49093703  1
  Ca2+  Ca20  1  0.58125831  0.33770229  0.82973708  1
  Ca2+  Ca21  1  0.58428593  0.81977428  0.16015495  1
  Ca2+  Ca22  1  0.58177413  0.82109061  0.49552300  1
  Ca2+  Ca23  1  0.57559926  0.81930093  0.82428486  1
  Ca2+  Ca24  1  0.33491852  0.41996169  0.16770641  1
  Ca2+  Ca25  1  0.33705474  0.41793355  0.50436804  1
  Ca2+  Ca26  1  0.33576865  0.42524258  0.83701364  1
  Ca2+  Ca27  1  0.32280105  0.92115704  0.17668943  1
  Ca2+  Ca28  1  0.32338751  0.91372362  0.50583732  1
  Ca2+  Ca29  1  0.32376994  0.90616865  0.83469686  1
  Ca2+  Ca30  1  0.82060924  0.42301857  0.16901741  1
  Ca2+  Ca31  1  0.82644103  0.41965141  0.50743971  1
  Ca2+  Ca32  1  0.82988810  0.42670306  0.83954880  1
  Ca2+  Ca33  1  0.83613411  0.91942674  0.17010843  1
  Ca2+  Ca34  1  0.83561624  0.92052799  0.50419780  1
  Ca2+  Ca35  1  0.83383103  0.92968745  0.83685786  1
  Ca2+  Ca36  1  0.41619705  0.16860135  0.16865404  1
  Ca2+  Ca37  1  0.41575832  0.17699611  0.48858747  1
  Ca2+  Ca38  1  0.41862801  0.17646064  0.82524485  1
  Ca2+  Ca39  1  0.42608834  0.65959184  0.16207351  1
  Ca2+  Ca40  1  0.42384106  0.66633393  0.50044833  1
  Ca2+  Ca41  1  0.42449962  0.66026367  0.82597221  1
  Ca2+  Ca42  1  0.92209282  0.16424817  0.16382434  1
  Ca2+  Ca43  1  0.91891090  0.16918949  0.49753516  1
  Ca2+  Ca44  1  0.91353407  0.17179206  0.82619184  1
  Ca2+  Ca45  1  0.91948058  0.66995201  0.16474214  1
  Ca2+  Ca46  1  0.92322946  0.67088558  0.49016772  1
  Ca2+  Ca47  1  0.91615250  0.66172471  0.82824683  1
  Al0+  Al48  1  0.00107392  0.00032124  0.00557455  1
  Al0+  Al49  1  -0.00051181  0.00140100  0.33037820  1
  Al0+  Al50  1  0.00018416  -0.00048065  0.67505032  1
  Al0+  Al51  1  -0.00006233  0.49962880  0.00636430  1
  Al0+  Al52  1  -0.00074435  0.50172661  0.32867423  1
  Al0+  Al53  1  -0.00157768  0.49874833  0.66389581  1
  Al0+  Al54  1  0.50073161  0.00011247  -0.00453270  1
  Al0+  Al55  1  0.50135294  0.00221908  0.33395172  1
  Al0+  Al56  1  0.49810048  -0.00140916  0.66497769  1
  Al0+  Al57  1  0.50052705  0.49905180  0.00136578  1
  Al0+  Al58  1  0.49952514  0.49894380  0.33155065  1
  Al0+  Al59  1  0.50023957  0.49802152  0.66199239  1
  Al0+  Al60  1  0.25075690  0.24798963  -0.00240897  1
  Al0+  Al61  1  0.24847143  0.25146384  0.32922645  1
  Al0+  Al62  1  0.24857038  0.24633133  0.66288473  1
  Al0+  Al63  1  0.24898147  0.74970503  0.00932317  1
  Al0+  Al64  1  0.24927731  0.74907983  0.33401943  1
  Al0+  Al65  1  0.25047018  0.74781357  0.67258808  1
  Al0+  Al66  1  0.75180987  0.25085852  0.00711210  1
  Al0+  Al67  1  0.74779438  0.25232458  0.33604043  1
  Al0+  Al68  1  0.75110943  0.25058641  0.66645902  1
  Al0+  Al69  1  0.75206078  0.75249520  -0.00418795  1
  Al0+  Al70  1  0.75047739  0.75127895  0.32534802  1
  Al0+  Al71  1  0.75068209  0.75060508  0.66745041  1
  Al0+  Al72  1  0.56924129  0.68038442  0.31854728  1
  Al0+  Al73  1  0.32163406  0.56990266  0.01646720  1
  Al0+  Al74  1  0.32099465  0.56740440  0.67860543  1
  Al0+  Al75  1  0.92899649  0.32181079  0.65351776  1
  Al0+  Al76  1  0.42550424  0.82031507  0.65173966  1
  Al0+  Al77  1  0.57064835  0.67831970  0.98461870  1
  Al0+  Al78  1  0.18059781  0.92981429  0.01654936  1
  Al0+  Al79  1  0.18073959  0.92913264  0.68127277  1
  Al0+  Al80  1  0.92943550  0.82202879  0.31821644  1
  Al0+  Al81  1  0.82236201  0.57533090  0.01642470  1
  Al0+  Al82  1  0.17889701  0.92906607  0.35076803  1
  Al0+  Al83  1  0.57291932  0.67867031  0.65065287  1
  Al0+  Al84  1  0.67891890  0.43088883  0.35071947  1
  Al0+  Al85  1  0.17880582  0.42671747  0.01368294  1
  Al0+  Al86  1  0.67913697  0.43043790  0.01517947  1
  Al0+  Al87  1  0.81873102  0.07047337  0.67920017  1
  Al0+  Al88  1  0.81991597  0.07087400  0.01581301  1
  Al0+  Al89  1  0.57204378  0.17812717  0.31815448  1
  Al0+  Al90  1  0.42781408  0.32123606  0.31529846  1
  Al0+  Al91  1  0.42845673  0.31930390  0.65352324  1
  Al0+  Al92  1  0.07357373  0.67769335  0.31730825  1
  Al0+  Al93  1  0.06831092  0.18170583  0.31983450  1
  Al0+  Al94  1  0.82203535  0.57240386  0.67788485  1
  Al0+  Al95  1  0.32222904  0.07298112  0.34876377  1
  Si0+  Si96  1  0.57406468  0.17823352  0.98411981  1
  Si0+  Si97  1  0.32036566  0.56944443  0.34965667  1
  Si0+  Si98  1  0.42650302  0.82251689  0.98475769  1
  Si0+  Si99  1  0.32343158  0.07371744  0.68373704  1
  Si0+  Si100  1  0.07134721  0.17777057  0.98300873  1
  Si0+  Si101  1  0.57314847  0.17710627  0.65209251  1
  Si0+  Si102  1  0.67894783  0.42914988  0.68209930  1
  Si0+  Si103  1  0.07130356  0.67805855  0.98423039  1
  Si0+  Si104  1  0.06976099  0.17501696  0.65103640  1
  Si0+  Si105  1  0.67759342  0.92964885  0.01509301  1
  Si0+  Si106  1  0.67540907  0.92664335  0.68312175  1
  Si0+  Si107  1  0.07014889  0.67874899  0.65578510  1
  Si0+  Si108  1  0.82032452  0.07119765  0.34903757  1
  Si0+  Si109  1  0.93155867  0.82304221  0.98185420  1
  Si0+  Si110  1  0.93048166  0.82285094  0.65526447  1
  Si0+  Si111  1  0.67905725  0.92701120  0.34725558  1
  Si0+  Si112  1  0.92567096  0.32359984  0.31481870  1
  Si0+  Si113  1  0.42931642  0.31886293  0.98336925  1
  Si0+  Si114  1  0.42739490  0.82335163  0.31756922  1
  Si0+  Si115  1  0.92948395  0.32011277  0.98604353  1
  Si0+  Si116  1  0.17641382  0.42469172  0.67925432  1
  Si0+  Si117  1  0.82160296  0.57385798  0.34974612  1
  Si0+  Si118  1  0.32474241  0.07276981  0.01471831  1
  Si0+  Si119  1  0.17621522  0.42887513  0.34867704  1
  O2-  O120  1  0.25878865  0.00213977  0.05905234  1
  O2-  O121  1  0.25365192  -0.00160608  0.40049952  1
  O2-  O122  1  0.25832124  0.00145836  0.72811392  1
  O2-  O123  1  0.24900085  0.49838504  0.06636236  1
  O2-  O124  1  0.24532361  0.50157860  0.39121467  1
  O2-  O125  1  0.24829338  0.48956875  0.72375094  1
  O2-  O126  1  0.74348282  -0.00119804  0.06292419  1
  O2-  O127  1  0.74867113  -0.00000102  0.38990067  1
  O2-  O128  1  0.74109567  -0.00098137  0.72676113  1
  O2-  O129  1  0.74616239  0.50746727  0.06519392  1
  O2-  O130  1  0.75450001  0.50523373  0.39632265  1
  O2-  O131  1  0.74609668  0.49958052  0.72558938  1
  O2-  O132  1  -0.00401704  0.25716387  0.26982958  1
  O2-  O133  1  0.00481519  0.24777508  0.60763538  1
  O2-  O134  1  0.00262325  0.25149109  0.94154459  1
  O2-  O135  1  0.00181857  0.75042816  0.26796462  1
  O2-  O136  1  -0.00244541  0.74828523  0.61389566  1
  O2-  O137  1  -0.00009185  0.74865842  0.94010902  1
  O2-  O138  1  0.49863972  0.24725752  0.26614926  1
  O2-  O139  1  0.50032196  0.24122975  0.60855866  1
  O2-  O140  1  0.50183619  0.24814884  0.94187079  1
  O2-  O141  1  0.49573270  0.75581988  0.27107903  1
  O2-  O142  1  0.50142805  0.75239341  0.60189024  1
  O2-  O143  1  0.49428600  0.75292128  0.94021437  1
  O2-  O144  1  0.07044245  0.17774615  0.08790481  1
  O2-  O145  1  0.06455409  0.18203507  0.43325842  1
  O2-  O146  1  0.06812840  0.17450946  0.75703391  1
  O2-  O147  1  0.07047105  0.67943719  0.08880344  1
  O2-  O148  1  0.07202960  0.67669926  0.43190855  1
  O2-  O149  1  0.06974157  0.67843826  0.76109742  1
  O2-  O150  1  0.57366960  0.17613576  0.08839976  1
  O2-  O151  1  0.57467981  0.18083445  0.43192891  1
  O2-  O152  1  0.57462978  0.18017887  0.75837249  1
  O2-  O153  1  0.56896287  0.68013122  0.09782173  1
  O2-  O154  1  0.57004432  0.68124515  0.43145423  1
  O2-  O155  1  0.57277483  0.67849575  0.76437261  1
  O2-  O156  1  0.17710223  0.42894202  0.24379563  1
  O2-  O157  1  0.17447451  0.42732971  0.57363324  1
  O2-  O158  1  0.17946517  0.42780845  0.89945365  1
  O2-  O159  1  0.17938521  0.93194316  0.23723785  1
  O2-  O160  1  0.17666403  0.93047030  0.56902299  1
  O2-  O161  1  0.17975776  0.93064424  0.90291464  1
  O2-  O162  1  0.68019264  0.43197530  0.23790079  1
  O2-  O163  1  0.68087390  0.42832699  0.57670166  1
  O2-  O164  1  0.68149093  0.42763992  0.90108500  1
  O2-  O165  1  0.68070136  0.92645777  0.24219970  1
  O2-  O166  1  0.67859806  0.92541318  0.57740416  1
  O2-  O167  1  0.68013506  0.93272019  0.90940652  1
  O2-  O168  1  0.42685532  0.31680234  0.08771801  1
  O2-  O169  1  0.42923733  0.32177647  0.42921741  1
  O2-  O170  1  0.43051443  0.31946948  0.76726167  1
  O2-  O171  1  0.43029085  0.82583579  0.09012948  1
  O2-  O172  1  0.42870649  0.82036398  0.42313315  1
  O2-  O173  1  0.42582738  0.81650091  0.76567055  1
  O2-  O174  1  0.92940977  0.31631711  0.09082156  1
  O2-  O175  1  0.92731431  0.32208516  0.42091519  1
  O2-  O176  1  0.92995535  0.32176383  0.76705012  1
  O2-  O177  1  0.93266637  0.82563566  0.08643670  1
  O2-  O178  1  0.92874209  0.82151514  0.43273155  1
  O2-  O179  1  0.93297480  0.82479402  0.76052198  1
  O2-  O180  1  0.31953285  0.07035213  0.23457433  1
  O2-  O181  1  0.32102155  0.07701672  0.57893390  1
  O2-  O182  1  0.32275833  0.07519239  0.90885611  1
  O2-  O183  1  0.32107323  0.56783023  0.24472436  1
  O2-  O184  1  0.31819944  0.56848595  0.56542940  1
  O2-  O185  1  0.32195104  0.56795874  0.90240554  1
  O2-  O186  1  0.82011589  0.07071593  0.24386715  1
  O2-  O187  1  0.82001656  0.06795793  0.56606072  1
  O2-  O188  1  0.81990661  0.07153122  0.90239557  1
  O2-  O189  1  0.82043332  0.57276360  0.24442094  1
  O2-  O190  1  0.82459767  0.57135287  0.56509328  1
  O2-  O191  1  0.82352118  0.57104685  0.90226577  1
  O2-  O192  1  0.03568585  0.08690956  0.26399655  1
  O2-  O193  1  0.03697685  0.08347221  0.60524831  1
  O2-  O194  1  0.03913548  0.08671121  0.93641945  1
  O2-  O195  1  0.04539858  0.57979090  0.26251816  1
  O2-  O196  1  0.04504536  0.58742387  0.60624397  1
  O2-  O197  1  0.04439596  0.58506800  0.93808455  1
  O2-  O198  1  0.54993405  0.07798469  0.26466487  1
  O2-  O199  1  0.55481769  0.08105694  0.60884554  1
  O2-  O200  1  0.54890327  0.08634962  0.93404308  1
  O2-  O201  1  0.53553855  0.58486034  0.26587088  1
  O2-  O202  1  0.54334670  0.58099756  0.59795930  1
  O2-  O203  1  0.54076282  0.58069450  0.93198970  1
  O2-  O204  1  0.16378095  0.21121253  0.26376860  1
  O2-  O205  1  0.16437236  0.19405733  0.60540794  1
  O2-  O206  1  0.16421936  0.20136137  0.93495087  1
  O2-  O207  1  0.17227783  0.70433135  0.26437025  1
  O2-  O208  1  0.16109573  0.70838698  0.60879385  1
  O2-  O209  1  0.16427086  0.70750485  0.93907538  1
  O2-  O210  1  0.67014219  0.21001471  0.26546283  1
  O2-  O211  1  0.66538495  0.20521016  0.60517163  1
  O2-  O212  1  0.66617629  0.20917039  0.93820777  1
  O2-  O213  1  0.66489828  0.71071616  0.26323815  1
  O2-  O214  1  0.67181111  0.70855945  0.59811389  1
  O2-  O215  1  0.66779866  0.71086933  0.93154905  1
  O2-  O216  1  0.08089136  0.45131773  0.06805597  1
  O2-  O217  1  0.08236159  0.45413623  0.39440099  1
  O2-  O218  1  0.08424838  0.45375573  0.72634304  1
  O2-  O219  1  0.08596452  0.96458181  0.07038720  1
  O2-  O220  1  0.07981832  0.96165342  0.40074055  1
  O2-  O221  1  0.08644378  0.96284150  0.73903999  1
  O2-  O222  1  0.57998732  0.45351600  0.06750754  1
  O2-  O223  1  0.58153757  0.46216932  0.40261851  1
  O2-  O224  1  0.58461436  0.45227664  0.72695891  1
  O2-  O225  1  0.58246649  0.95169309  0.05910040  1
  O2-  O226  1  0.58743881  0.95262985  0.39577788  1
  O2-  O227  1  0.58017705  0.94721018  0.72819436  1
  O2-  O228  1  0.20763492  0.32717010  0.06417064  1
  O2-  O229  1  0.20426341  0.33762122  0.39628707  1
  O2-  O230  1  0.19613450  0.32889569  0.72339687  1
  O2-  O231  1  0.20583192  0.83329254  0.07187423  1
  O2-  O232  1  0.20418648  0.82849937  0.40150865  1
  O2-  O233  1  0.20962280  0.83277988  0.73758373  1
  O2-  O234  1  0.71181918  0.33448224  0.07032458  1
  O2-  O235  1  0.70995691  0.33432074  0.40520320  1
  O2-  O236  1  0.70591619  0.33610284  0.72876541  1
  O2-  O237  1  0.70621577  0.83681296  0.06019477  1
  O2-  O238  1  0.71023185  0.83627833  0.39539182  1
  O2-  O239  1  0.70581164  0.83563375  0.73173416  1
  O2-  O240  1  0.46020549  0.41791941  0.26214476  1
  O2-  O241  1  0.46036460  0.41351611  0.59682201  1
  O2-  O242  1  0.45795946  0.41060715  0.93659121  1
  O2-  O243  1  0.45146761  0.91766012  0.27320162  1
  O2-  O244  1  0.44629135  0.92176433  0.60141388  1
  O2-  O245  1  0.45072917  0.91601763  0.93562009  1
  O2-  O246  1  0.94776028  0.41792726  0.27001948  1
  O2-  O247  1  0.95923301  0.41673686  0.59547817  1
  O2-  O248  1  0.95547460  0.41342534  0.94009070  1
  O2-  O249  1  0.95672470  0.92003589  0.26407959  1
  O2-  O250  1  0.96200750  0.91329434  0.60739001  1
  O2-  O251  1  0.96431226  0.91439359  0.93499583  1
  O2-  O252  1  0.32897547  0.29598119  0.26239484  1
  O2-  O253  1  0.33032230  0.29213341  0.60003277  1
  O2-  O254  1  0.33848233  0.28965672  0.93346655  1
  O2-  O255  1  0.33371224  0.79750007  0.27256250  1
  O2-  O256  1  0.32807869  0.78707536  0.59958107  1
  O2-  O257  1  0.33102809  0.79666409  0.94268435  1
  O2-  O258  1  0.83303791  0.29442812  0.27046826  1
  O2-  O259  1  0.83351574  0.28909042  0.59841602  1
  O2-  O260  1  0.83842490  0.28887343  0.93863274  1
  O2-  O261  1  0.83255263  0.79506793  0.26127738  1
  O2-  O262  1  0.83718456  0.80103426  0.60880991  1
  O2-  O263  1  0.83867957  0.80118034  0.93344472  1
  O2-  O264  1  0.42024782  0.05095806  0.05832422  1
  O2-  O265  1  0.42358587  0.05200547  0.39924208  1
  O2-  O266  1  0.41914470  0.05406303  0.72870409  1
  O2-  O267  1  0.41848954  0.53846445  0.06915713  1
  O2-  O268  1  0.41057016  0.53773040  0.39729453  1
  O2-  O269  1  0.41800096  0.53618614  0.73172634  1
  O2-  O270  1  0.91533243  0.03789397  0.06948899  1
  O2-  O271  1  0.91139790  0.04223889  0.39651602  1
  O2-  O272  1  0.91267475  0.03718182  0.73708828  1
  O2-  O273  1  0.91865369  0.54378515  0.07057677  1
  O2-  O274  1  0.91702667  0.54972572  0.39346444  1
  O2-  O275  1  0.91805145  0.53922601  0.73296363  1
  O2-  O276  1  0.29700127  0.16507754  0.06101918  1
  O2-  O277  1  0.28928011  0.17154509  0.39913289  1
  O2-  O278  1  0.29310906  0.16554787  0.73272478  1
  O2-  O279  1  0.29497471  0.66739853  0.07087250  1
  O2-  O280  1  0.29540634  0.66224562  0.39631979  1
  O2-  O281  1  0.28756078  0.66090845  0.73644841  1
  O2-  O282  1  0.79149668  0.16631780  0.07167532  1
  O2-  O283  1  0.79292054  0.16304139  0.39643257  1
  O2-  O284  1  0.78985582  0.16760321  0.73448788  1
  O2-  O285  1  0.80133453  0.67742625  0.06376308  1
  O2-  O286  1  0.79544912  0.66863505  0.39307507  1
  O2-  O287  1  0.79619664  0.67003318  0.73294779  1
