# generated using pymatgen
data_Ca2Al2SiO7
_symmetry_space_group_name_H-M   'P 1'
_cell_length_a   15.45989753
_cell_length_b   15.45967538
_cell_length_c   15.28481847
_cell_angle_alpha   89.99100267
_cell_angle_beta   89.99208554
_cell_angle_gamma   89.98110290
_symmetry_Int_Tables_number   1
_chemical_formula_structural   Ca2Al2SiO7
_chemical_formula_sum   'Ca48 Al48 Si24 O168'
_cell_volume   3653.14771713
_cell_formula_units_Z   24
loop_
 _symmetry_equiv_pos_site_id
 _symmetry_equiv_pos_as_xyz
  1  'x, y, z'
loop_
 _atom_type_symbol
 _atom_type_oxidation_number
  Ca2+  2.0
  Al0+  0.0
  Si0+  0.0
  O2-  -2.0
loop_
 _atom_site_type_symbol
 _atom_site_label
 _atom_site_symmetry_multiplicity
 _atom_site_fract_x
 _atom_site_fract_y
 _atom_site_fract_z
 _atom_site_occupancy
  Ca2+  Ca0  1  0.17407605  0.09949539  0.17030418  1
  Ca2+  Ca1  1  0.17270595  0.09040618  0.49912797  1
  Ca2+  Ca2  1  0.17310426  0.08259096  0.84251013  1
  Ca2+  Ca3  1  0.16795238  0.58836681  0.16882626  1
  Ca2+  Ca4  1  0.16267531  0.58355605  0.50075306  1
  Ca2+  Ca5  1  0.17314212  0.58443566  0.84563089  1
  Ca2+  Ca6  1  0.66666326  0.07824238  0.17012708  1
  Ca2+  Ca7  1  0.68012363  0.08051929  0.51012551  1
  Ca2+  Ca8  1  0.66095111  0.07478503  0.83791043  1
  Ca2+  Ca9  1  0.66967545  0.57667263  0.16756518  1
  Ca2+  Ca10  1  0.66110453  0.58501905  0.50283355  1
  Ca2+  Ca11  1  0.66918525  0.57785961  0.84495200  1
  Ca2+  Ca12  1  0.07240492  0.32441618  0.16246539  1
  Ca2+  Ca13  1  0.07388520  0.32628417  0.48890298  1
  Ca2+  Ca14  1  0.07903992  0.32941274  0.83911210  1
  Ca2+  Ca15  1  0.07774342  0.82784972  0.16528583  1
  Ca2+  Ca16  1  0.07062639  0.83220321  0.49277725  1
  Ca2+  Ca17  1  0.07758700  0.82765665  0.82974789  1
  Ca2+  Ca18  1  0.57550952  0.32664361  0.15694798  1
  Ca2+  Ca19  1  0.57908867  0.32529450  0.49577872  1
  Ca2+  Ca20  1  0.58688163  0.32372710  0.83615832  1
  Ca2+  Ca21  1  0.58869402  0.82924009  0.16304596  1
  Ca2+  Ca22  1  0.58909762  0.82664396  0.50251695  1
  Ca2+  Ca23  1  0.58258156  0.83241646  0.82420178  1
  Ca2+  Ca24  1  0.33884708  0.41690882  0.16989744  1
  Ca2+  Ca25  1  0.33360124  0.41492807  0.49993207  1
  Ca2+  Ca26  1  0.33556808  0.42368291  0.84454082  1
  Ca2+  Ca27  1  0.32966799  0.93226324  0.17106784  1
  Ca2+  Ca28  1  0.33374409  0.91846086  0.50208305  1
  Ca2+  Ca29  1  0.33667713  0.92038265  0.84184679  1
  Ca2+  Ca30  1  0.83490867  0.41324653  0.16653174  1
  Ca2+  Ca31  1  0.83501813  0.41820655  0.50224274  1
  Ca2+  Ca32  1  0.82723919  0.42262460  0.84694668  1
  Ca2+  Ca33  1  0.83022413  0.92033070  0.17192820  1
  Ca2+  Ca34  1  0.83656228  0.92403893  0.50731847  1
  Ca2+  Ca35  1  0.82274674  0.91693761  0.83433051  1
  Ca2+  Ca36  1  0.41392147  0.17436040  0.15696347  1
  Ca2+  Ca37  1  0.42400975  0.16669812  0.49339589  1
  Ca2+  Ca38  1  0.42850083  0.16349420  0.83561434  1
  Ca2+  Ca39  1  0.42146553  0.66535893  0.16268373  1
  Ca2+  Ca40  1  0.42809873  0.67369801  0.49766081  1
  Ca2+  Ca41  1  0.42198027  0.67191750  0.82616467  1
  Ca2+  Ca42  1  0.92007493  0.17120750  0.16065497  1
  Ca2+  Ca43  1  0.91802505  0.16526568  0.48750268  1
  Ca2+  Ca44  1  0.91403709  0.16780324  0.83243409  1
  Ca2+  Ca45  1  0.92445847  0.66747111  0.16143141  1
  Ca2+  Ca46  1  0.91617679  0.68306805  0.49180529  1
  Ca2+  Ca47  1  0.91585819  0.66918417  0.83264384  1
  Al0+  Al48  1  -0.00117599  -0.00247680  -0.00511326  1
  Al0+  Al49  1  0.00167716  -0.00106227  0.32804632  1
  Al0+  Al50  1  0.00305481  0.00084653  0.66850117  1
  Al0+  Al51  1  0.00186524  0.50099493  -0.00447816  1
  Al0+  Al52  1  -0.00018791  0.50007861  0.32998584  1
  Al0+  Al53  1  0.00104229  0.49719112  0.66921364  1
  Al0+  Al54  1  0.49818221  -0.00052114  0.00790302  1
  Al0+  Al55  1  0.49967906  -0.00215897  0.34055571  1
  Al0+  Al56  1  0.50070381  0.00119688  0.66014334  1
  Al0+  Al57  1  0.50052113  0.50044265  0.00446814  1
  Al0+  Al58  1  0.50023001  0.50064326  0.32920202  1
  Al0+  Al59  1  0.49879740  0.49936912  0.66460195  1
  Al0+  Al60  1  0.24896579  0.25257542  -0.00547019  1
  Al0+  Al61  1  0.25026667  0.25308167  0.33466630  1
  Al0+  Al62  1  0.24832544  0.25111840  0.66950571  1
  Al0+  Al63  1  0.24910628  0.75054668  0.00198930  1
  Al0+  Al64  1  0.25203581  0.75120441  0.33362315  1
  Al0+  Al65  1  0.25100455  0.74948877  0.66286167  1
  Al0+  Al66  1  0.74890352  0.24874830  -0.00385487  1
  Al0+  Al67  1  0.74728008  0.25000668  0.33530420  1
  Al0+  Al68  1  0.75089850  0.25218197  0.66596518  1
  Al0+  Al69  1  0.75033291  0.74968039  0.00816189  1
  Al0+  Al70  1  0.74923232  0.74794206  0.32573797  1
  Al0+  Al71  1  0.75215145  0.75053244  0.66226718  1
  Al0+  Al72  1  0.07125968  0.17879183  0.32012814  1
  Al0+  Al73  1  0.32110615  0.57247490  0.01439223  1
  Al0+  Al74  1  0.67910490  0.42623138  0.01612260  1
  Al0+  Al75  1  0.92761420  0.32054005  0.98318271  1
  Al0+  Al76  1  0.67980911  0.92934162  0.68051635  1
  Al0+  Al77  1  0.82013703  0.06998251  0.34431704  1
  Al0+  Al78  1  0.43030455  0.31922299  0.32108318  1
  Al0+  Al79  1  0.92781147  0.82286572  0.31610025  1
  Al0+  Al80  1  0.31765849  0.07140368  0.01233607  1
  Al0+  Al81  1  0.82416913  0.07334672  0.68291544  1
  Al0+  Al82  1  0.42924144  0.32358333  0.98394471  1
  Al0+  Al83  1  0.57012919  0.17548247  0.98693890  1
  Al0+  Al84  1  0.42734663  0.82319657  0.65174765  1
  Al0+  Al85  1  0.67777620  0.92951406  0.01444991  1
  Al0+  Al86  1  0.56970067  0.67969113  0.31645923  1
  Al0+  Al87  1  0.93112348  0.82093937  0.65453221  1
  Al0+  Al88  1  0.82310697  0.57041523  0.01630152  1
  Al0+  Al89  1  0.92501022  0.32081186  0.31933411  1
  Al0+  Al90  1  0.07093822  0.17697206  0.98273543  1
  Al0+  Al91  1  0.57199801  0.67744338  0.65427843  1
  Al0+  Al92  1  0.31984350  0.07370218  0.34865283  1
  Al0+  Al93  1  0.57216021  0.17972320  0.65170533  1
  Al0+  Al94  1  0.07217910  0.67888987  0.31936353  1
  Al0+  Al95  1  0.07149477  0.68085215  0.98534044  1
  Si0+  Si96  1  0.17877534  0.43160258  0.34901408  1
  Si0+  Si97  1  0.18027725  0.92783654  0.68114424  1
  Si0+  Si98  1  0.82152977  0.57009972  0.34921235  1
  Si0+  Si99  1  0.57166651  0.68021211  0.98673905  1
  Si0+  Si100  1  0.17938447  0.92644835  0.35100892  1
  Si0+  Si101  1  0.17579101  0.92729320  0.01617640  1
  Si0+  Si102  1  0.92997460  0.32172207  0.65150901  1
  Si0+  Si103  1  0.82321660  0.07102106  0.01546791  1
  Si0+  Si104  1  0.67716252  0.43026416  0.35017924  1
  Si0+  Si105  1  0.17876388  0.42912972  0.01822889  1
  Si0+  Si106  1  0.42638327  0.32142528  0.65028250  1
  Si0+  Si107  1  0.57119421  0.17569387  0.31836587  1
  Si0+  Si108  1  0.67838391  0.92437357  0.35216645  1
  Si0+  Si109  1  0.42800254  0.82359363  0.31448847  1
  Si0+  Si110  1  0.32100963  0.07167745  0.68158663  1
  Si0+  Si111  1  0.82201618  0.57047901  0.67927196  1
  Si0+  Si112  1  0.17807528  0.42866045  0.68369371  1
  Si0+  Si113  1  0.32022671  0.57018012  0.68009022  1
  Si0+  Si114  1  0.67760160  0.43007418  0.68062144  1
  Si0+  Si115  1  0.07252505  0.67570864  0.65100844  1
  Si0+  Si116  1  0.92493363  0.82095881  0.98116428  1
  Si0+  Si117  1  0.07230456  0.18000707  0.65127049  1
  Si0+  Si118  1  0.32292661  0.57236821  0.35078233  1
  Si0+  Si119  1  0.42968425  0.82023430  0.98865126  1
  O2-  O120  1  0.23730394  0.00280126  0.05966062  1
  O2-  O121  1  0.24526638  -0.00166629  0.39574151  1
  O2-  O122  1  0.25445703  -0.00409574  0.72308793  1
  O2-  O123  1  0.24878307  0.49634753  0.06269856  1
  O2-  O124  1  0.24850355  0.50429824  0.39297260  1
  O2-  O125  1  0.24837206  0.50114942  0.72385039  1
  O2-  O126  1  0.75252963  0.00461972  0.05984021  1
  O2-  O127  1  0.74752678  -0.00598758  0.39394434  1
  O2-  O128  1  0.74933353  0.00326351  0.73177234  1
  O2-  O129  1  0.75421537  0.49519650  0.06640169  1
  O2-  O130  1  0.75083951  0.49898304  0.39329457  1
  O2-  O131  1  0.74728024  0.50327437  0.72098521  1
  O2-  O132  1  -0.00674480  0.24458758  0.27152171  1
  O2-  O133  1  -0.00347428  0.24632548  0.60987418  1
  O2-  O134  1  -0.00380931  0.24556472  0.93143057  1
  O2-  O135  1  -0.00007152  0.74945606  0.26870372  1
  O2-  O136  1  0.00450762  0.74454829  0.60745536  1
  O2-  O137  1  -0.00497798  0.75278361  0.93771178  1
  O2-  O138  1  0.49864556  0.23980359  0.27432293  1
  O2-  O139  1  0.49478662  0.25286585  0.60598880  1
  O2-  O140  1  0.50087792  0.25045223  0.93568499  1
  O2-  O141  1  0.49801779  0.75699337  0.26968169  1
  O2-  O142  1  0.50197956  0.75200103  0.60433684  1
  O2-  O143  1  0.50055859  0.75043532  0.94426878  1
  O2-  O144  1  0.07082173  0.18037567  0.09586880  1
  O2-  O145  1  0.07184607  0.18297851  0.43471688  1
  O2-  O146  1  0.07660053  0.18266887  0.75573055  1
  O2-  O147  1  0.07326144  0.68460337  0.09790488  1
  O2-  O148  1  0.06921362  0.67950385  0.43376258  1
  O2-  O149  1  0.07390369  0.67578628  0.75637324  1
  O2-  O150  1  0.56647080  0.17387273  0.10056369  1
  O2-  O151  1  0.57183936  0.18010541  0.42433052  1
  O2-  O152  1  0.56984435  0.17960050  0.76433536  1
  O2-  O153  1  0.57001616  0.68140488  0.09172392  1
  O2-  O154  1  0.56784977  0.67825883  0.42972899  1
  O2-  O155  1  0.56886963  0.67380845  0.76786208  1
  O2-  O156  1  0.17996014  0.43121125  0.24474487  1
  O2-  O157  1  0.17638632  0.42804745  0.57846522  1
  O2-  O158  1  0.18003460  0.43186948  0.91174539  1
  O2-  O159  1  0.18363927  0.92147314  0.24597076  1
  O2-  O160  1  0.17896726  0.92954825  0.57620197  1
  O2-  O161  1  0.18090584  0.92424477  0.91003837  1
  O2-  O162  1  0.67540231  0.43131082  0.24599258  1
  O2-  O163  1  0.67793026  0.42989323  0.57505388  1
  O2-  O164  1  0.67818835  0.43147699  0.90154994  1
  O2-  O165  1  0.67687265  0.92624618  0.24643880  1
  O2-  O166  1  0.68379678  0.92893883  0.56706431  1
  O2-  O167  1  0.67652019  0.92660824  0.90145845  1
  O2-  O168  1  0.42940095  0.32154793  0.09762699  1
  O2-  O169  1  0.43259065  0.32010111  0.43496467  1
  O2-  O170  1  0.42547075  0.32371153  0.75515417  1
  O2-  O171  1  0.43015462  0.81896870  0.09355590  1
  O2-  O172  1  0.42663406  0.82108715  0.42018177  1
  O2-  O173  1  0.42404569  0.81953773  0.76578148  1
  O2-  O174  1  0.92983519  0.31925848  0.09650101  1
  O2-  O175  1  0.92883336  0.32318657  0.43390824  1
  O2-  O176  1  0.93273340  0.32634782  0.75580802  1
  O2-  O177  1  0.92600338  0.82163148  0.08640073  1
  O2-  O178  1  0.92859548  0.82196576  0.43041044  1
  O2-  O179  1  0.93237633  0.81721282  0.76739938  1
  O2-  O180  1  0.31862501  0.07399909  0.23580954  1
  O2-  O181  1  0.31675192  0.07552066  0.57649173  1
  O2-  O182  1  0.32025993  0.06566766  0.89865638  1
  O2-  O183  1  0.32379585  0.57129513  0.24611056  1
  O2-  O184  1  0.31983393  0.56813394  0.57484500  1
  O2-  O185  1  0.31959849  0.57381355  0.90042981  1
  O2-  O186  1  0.81601177  0.07050571  0.23148568  1
  O2-  O187  1  0.82568229  0.07240448  0.56888514  1
  O2-  O188  1  0.82401739  0.06747999  0.90993205  1
  O2-  O189  1  0.82156594  0.56885467  0.24489568  1
  O2-  O190  1  0.82539927  0.56674946  0.57399394  1
  O2-  O191  1  0.81801162  0.57291952  0.90153129  1
  O2-  O192  1  0.05589995  0.07825056  0.26884700  1
  O2-  O193  1  0.05159437  0.08609121  0.60584483  1
  O2-  O194  1  0.04824588  0.07621764  0.93069374  1
  O2-  O195  1  0.04594733  0.58070375  0.26666342  1
  O2-  O196  1  0.04683445  0.58106615  0.60671751  1
  O2-  O197  1  0.04597624  0.58396270  0.92979196  1
  O2-  O198  1  0.55076612  0.07898037  0.27810038  1
  O2-  O199  1  0.54311677  0.08465779  0.59494784  1
  O2-  O200  1  0.53466611  0.07831004  0.93411562  1
  O2-  O201  1  0.53505428  0.58504741  0.26233730  1
  O2-  O202  1  0.53949623  0.58065412  0.59826918  1
  O2-  O203  1  0.54411951  0.58825999  0.94061581  1
  O2-  O204  1  0.16661676  0.21664518  0.26841798  1
  O2-  O205  1  0.16230119  0.21390013  0.60268958  1
  O2-  O206  1  0.16726033  0.20979519  0.92740538  1
  O2-  O207  1  0.17221785  0.70566126  0.26952435  1
  O2-  O208  1  0.16612653  0.69929571  0.60444110  1
  O2-  O209  1  0.16762225  0.71468657  0.93039031  1
  O2-  O210  1  0.66234757  0.20577592  0.27174705  1
  O2-  O211  1  0.66794661  0.21451901  0.59746719  1
  O2-  O212  1  0.66861373  0.19918365  0.93266530  1
  O2-  O213  1  0.66627666  0.70532138  0.26140947  1
  O2-  O214  1  0.67034330  0.70254574  0.59937892  1
  O2-  O215  1  0.66405440  0.70807708  0.94126238  1
  O2-  O216  1  0.08576148  0.45669102  0.06272626  1
  O2-  O217  1  0.08682769  0.45904241  0.39833026  1
  O2-  O218  1  0.08692151  0.45562802  0.73322014  1
  O2-  O219  1  0.07892606  0.94405788  0.05777804  1
  O2-  O220  1  0.08417867  0.94909360  0.39470207  1
  O2-  O221  1  0.09112561  0.95805109  0.73191654  1
  O2-  O222  1  0.58293368  0.45925172  0.07045827  1
  O2-  O223  1  0.58675961  0.46310513  0.39876208  1
  O2-  O224  1  0.58475552  0.45530912  0.72718281  1
  O2-  O225  1  0.58268504  0.95857567  0.07257255  1
  O2-  O226  1  0.58405591  0.94643498  0.39852943  1
  O2-  O227  1  0.57834768  0.95531081  0.72959840  1
  O2-  O228  1  0.20262393  0.33480323  0.06223814  1
  O2-  O229  1  0.20938435  0.34215610  0.40039753  1
  O2-  O230  1  0.20678695  0.33784259  0.73251612  1
  O2-  O231  1  0.20888111  0.83786023  0.06548904  1
  O2-  O232  1  0.20894905  0.83473291  0.40101514  1
  O2-  O233  1  0.20433352  0.83373988  0.72689677  1
  O2-  O234  1  0.70217424  0.32552742  0.06640551  1
  O2-  O235  1  0.70173963  0.33786262  0.39890545  1
  O2-  O236  1  0.70775910  0.33973047  0.72847740  1
  O2-  O237  1  0.70942554  0.83459922  0.07096110  1
  O2-  O238  1  0.70406053  0.82911801  0.39473847  1
  O2-  O239  1  0.70913420  0.82960325  0.73198040  1
  O2-  O240  1  0.46258212  0.41450703  0.26731981  1
  O2-  O241  1  0.45193649  0.41456779  0.60275925  1
  O2-  O242  1  0.45890499  0.42278426  0.93231916  1
  O2-  O243  1  0.45193877  0.91884815  0.27143244  1
  O2-  O244  1  0.45082170  0.92127139  0.59701860  1
  O2-  O245  1  0.45732340  0.91189173  0.94168655  1
  O2-  O246  1  0.95713429  0.41750405  0.26700939  1
  O2-  O247  1  0.96336023  0.41176250  0.60221130  1
  O2-  O248  1  0.96014603  0.41791547  0.92951126  1
  O2-  O249  1  0.95774635  0.91883429  0.26056883  1
  O2-  O250  1  0.96579008  0.91700137  0.60129620  1
  O2-  O251  1  0.94916251  0.91379149  0.93346771  1
  O2-  O252  1  0.33221835  0.29522583  0.26888849  1
  O2-  O253  1  0.33174375  0.29592994  0.60520347  1
  O2-  O254  1  0.33040808  0.29928945  0.93071593  1
  O2-  O255  1  0.33536418  0.79630113  0.26875878  1
  O2-  O256  1  0.33053995  0.79145755  0.59551211  1
  O2-  O257  1  0.33806733  0.79313265  0.94068536  1
  O2-  O258  1  0.82470128  0.29792713  0.26934200  1
  O2-  O259  1  0.83645770  0.30156681  0.60472425  1
  O2-  O260  1  0.82836451  0.29676765  0.92980940  1
  O2-  O261  1  0.83037790  0.79418583  0.26342879  1
  O2-  O262  1  0.83662474  0.79062792  0.59698921  1
  O2-  O263  1  0.83169655  0.79111083  0.93662799  1
  O2-  O264  1  0.41011913  0.03602381  0.07052657  1
  O2-  O265  1  0.41631749  0.04200784  0.40396914  1
  O2-  O266  1  0.41463651  0.04737332  0.72562398  1
  O2-  O267  1  0.41739921  0.54423470  0.06935186  1
  O2-  O268  1  0.41316188  0.53892132  0.39849393  1
  O2-  O269  1  0.41158441  0.54132579  0.72803906  1
  O2-  O270  1  0.91672051  0.04304815  0.06106164  1
  O2-  O271  1  0.91978418  0.04241666  0.39556949  1
  O2-  O272  1  0.92310639  0.04471326  0.73491388  1
  O2-  O273  1  0.92392684  0.54578909  0.06497358  1
  O2-  O274  1  0.91352511  0.54307097  0.39766705  1
  O2-  O275  1  0.91251929  0.53923269  0.72832400  1
  O2-  O276  1  0.29018483  0.17058357  0.06253305  1
  O2-  O277  1  0.28851823  0.16990860  0.40471108  1
  O2-  O278  1  0.28846317  0.16194980  0.72954270  1
  O2-  O279  1  0.28843853  0.66802737  0.06963357  1
  O2-  O280  1  0.29816853  0.66520010  0.39816461  1
  O2-  O281  1  0.29458557  0.66311464  0.72656674  1
  O2-  O282  1  0.80126502  0.16624037  0.05816783  1
  O2-  O283  1  0.78912155  0.16667550  0.40074808  1
  O2-  O284  1  0.79852235  0.17431573  0.73182812  1
  O2-  O285  1  0.79233998  0.66653605  0.07156834  1
  O2-  O286  1  0.79123710  0.66252379  0.39479667  1
  O2-  O287  1  0.79925626  0.66368147  0.72476189  1
