# generated using pymatgen
data_Ca2Al2SiO7
_symmetry_space_group_name_H-M   'P 1'
_cell_length_a   15.46718646
_cell_length_b   15.46949458
_cell_length_c   15.29121102
_cell_angle_alpha   90.00449407
_cell_angle_beta   89.99583271
_cell_angle_gamma   89.98369618
_symmetry_Int_Tables_number   1
_chemical_formula_structural   Ca2Al2SiO7
_chemical_formula_sum   'Ca48 Al48 Si24 O168'
_cell_volume   3658.72112029
_cell_formula_units_Z   24
loop_
 _symmetry_equiv_pos_site_id
 _symmetry_equiv_pos_as_xyz
  1  'x, y, z'
loop_
 _atom_type_symbol
 _atom_type_oxidation_number
  Ca2+  2.0
  Al0+  0.0
  Si0+  0.0
  O2-  -2.0
loop_
 _atom_site_type_symbol
 _atom_site_label
 _atom_site_symmetry_multiplicity
 _atom_site_fract_x
 _atom_site_fract_y
 _atom_site_fract_z
 _atom_site_occupancy
  Ca2+  Ca0  1  0.17748851  0.07565660  0.17501759  1
  Ca2+  Ca1  1  0.16876575  0.07282636  0.50863278  1
  Ca2+  Ca2  1  0.17189998  0.08130368  0.83341532  1
  Ca2+  Ca3  1  0.16539812  0.58351778  0.16646353  1
  Ca2+  Ca4  1  0.16635958  0.58844540  0.50636651  1
  Ca2+  Ca5  1  0.17301798  0.58595958  0.83652329  1
  Ca2+  Ca6  1  0.66596428  0.07629707  0.17025510  1
  Ca2+  Ca7  1  0.66903046  0.08460291  0.50230293  1
  Ca2+  Ca8  1  0.67174134  0.07301820  0.84070220  1
  Ca2+  Ca9  1  0.67518491  0.58890223  0.17074936  1
  Ca2+  Ca10  1  0.66480634  0.58761873  0.50554259  1
  Ca2+  Ca11  1  0.67308373  0.58709948  0.83802428  1
  Ca2+  Ca12  1  0.07754402  0.33700398  0.15915336  1
  Ca2+  Ca13  1  0.07545975  0.33011864  0.49834411  1
  Ca2+  Ca14  1  0.07986655  0.33337507  0.82868210  1
  Ca2+  Ca15  1  0.07829970  0.83499393  0.16570345  1
  Ca2+  Ca16  1  0.08700043  0.82983338  0.49487716  1
  Ca2+  Ca17  1  0.07382038  0.83255030  0.82225368  1
  Ca2+  Ca18  1  0.58091531  0.32468517  0.16671348  1
  Ca2+  Ca19  1  0.57789148  0.32551458  0.49264604  1
  Ca2+  Ca20  1  0.58005194  0.33116296  0.82979271  1
  Ca2+  Ca21  1  0.57891362  0.83130200  0.15972097  1
  Ca2+  Ca22  1  0.57484959  0.82336379  0.50057686  1
  Ca2+  Ca23  1  0.57223906  0.83150275  0.83052148  1
  Ca2+  Ca24  1  0.32655255  0.42221285  0.16519555  1
  Ca2+  Ca25  1  0.33113236  0.42548911  0.50839949  1
  Ca2+  Ca26  1  0.32691260  0.43260162  0.84064021  1
  Ca2+  Ca27  1  0.33276333  0.92234512  0.17193940  1
  Ca2+  Ca28  1  0.32322156  0.92132133  0.50740295  1
  Ca2+  Ca29  1  0.33178032  0.91903722  0.83542733  1
  Ca2+  Ca30  1  0.84261611  0.42237229  0.16903875  1
  Ca2+  Ca31  1  0.83483793  0.41256178  0.50423220  1
  Ca2+  Ca32  1  0.83926845  0.42211630  0.84134762  1
  Ca2+  Ca33  1  0.82970905  0.90581010  0.16920036  1
  Ca2+  Ca34  1  0.83321114  0.90506408  0.50452380  1
  Ca2+  Ca35  1  0.82776062  0.90535888  0.84028432  1
  Ca2+  Ca36  1  0.41899016  0.15408637  0.16328211  1
  Ca2+  Ca37  1  0.41825479  0.15692289  0.49527657  1
  Ca2+  Ca38  1  0.41148730  0.16205198  0.82986142  1
  Ca2+  Ca39  1  0.42060018  0.67203054  0.15835062  1
  Ca2+  Ca40  1  0.42013014  0.66814351  0.49859716  1
  Ca2+  Ca41  1  0.41437701  0.67457429  0.82445475  1
  Ca2+  Ca42  1  0.91707119  0.17953392  0.16116707  1
  Ca2+  Ca43  1  0.92491650  0.17261809  0.49932671  1
  Ca2+  Ca44  1  0.92592577  0.17872554  0.82551127  1
  Ca2+  Ca45  1  0.92157998  0.67432514  0.16281571  1
  Ca2+  Ca46  1  0.93175930  0.67798715  0.49768682  1
  Ca2+  Ca47  1  0.92186217  0.67130270  0.82950946  1
  Al0+  Al48  1  -0.00077924  0.00255625  -0.00443593  1
  Al0+  Al49  1  -0.00102872  0.00213728  0.33249968  1
  Al0+  Al50  1  -0.00308177  0.00430063  0.66462857  1
  Al0+  Al51  1  -0.00100262  0.50088276  0.00351840  1
  Al0+  Al52  1  -0.00046587  0.50270671  0.32943658  1
  Al0+  Al53  1  -0.00283397  0.50218466  0.65991042  1
  Al0+  Al54  1  0.50276596  -0.00317412  0.00248060  1
  Al0+  Al55  1  0.50337883  -0.00130615  0.33426117  1
  Al0+  Al56  1  0.50204611  -0.00153829  0.66606454  1
  Al0+  Al57  1  0.50144234  0.49708130  0.00386347  1
  Al0+  Al58  1  0.50197876  0.49781500  0.32845947  1
  Al0+  Al59  1  0.50053520  0.49758726  0.66882902  1
  Al0+  Al60  1  0.25199993  0.24993472  0.00810398  1
  Al0+  Al61  1  0.25068761  0.25344904  0.33792541  1
  Al0+  Al62  1  0.24939930  0.25045436  0.66583274  1
  Al0+  Al63  1  0.25060048  0.75143700  0.00068759  1
  Al0+  Al64  1  0.25111101  0.74962991  0.33184267  1
  Al0+  Al65  1  0.24969638  0.75236536  0.66790716  1
  Al0+  Al66  1  0.74996617  0.24914159  -0.00459923  1
  Al0+  Al67  1  0.74723472  0.25004272  0.32555370  1
  Al0+  Al68  1  0.74702383  0.24995928  0.66598374  1
  Al0+  Al69  1  0.74989804  0.74803974  0.00594084  1
  Al0+  Al70  1  0.75010960  0.74853466  0.33102348  1
  Al0+  Al71  1  0.74902506  0.74736858  0.66241104  1
  Al0+  Al72  1  0.32260720  0.07075400  0.68250564  1
  Al0+  Al73  1  0.92982928  0.31942004  0.31862661  1
  Al0+  Al74  1  0.17784276  0.92891084  0.34809530  1
  Al0+  Al75  1  0.07350293  0.17984211  0.65110007  1
  Al0+  Al76  1  0.92729840  0.82267992  0.65420363  1
  Al0+  Al77  1  0.17538526  0.92904810  0.68307656  1
  Al0+  Al78  1  0.68226127  0.92934190  0.01396558  1
  Al0+  Al79  1  0.07258390  0.68089172  0.65407375  1
  Al0+  Al80  1  0.57048336  0.67678321  0.31827221  1
  Al0+  Al81  1  0.17936065  0.43071196  0.01408590  1
  Al0+  Al82  1  0.07412239  0.68000023  0.31576000  1
  Al0+  Al83  1  0.81912472  0.56899106  0.01451910  1
  Al0+  Al84  1  0.92964168  0.82336054  0.31778585  1
  Al0+  Al85  1  0.32075903  0.06832575  0.01363617  1
  Al0+  Al86  1  0.92867090  0.82100553  0.98610988  1
  Al0+  Al87  1  0.92711482  0.32223003  0.65201154  1
  Al0+  Al88  1  0.42926190  0.82073775  0.98669519  1
  Al0+  Al89  1  0.32293558  0.57471863  0.01593636  1
  Al0+  Al90  1  0.32165206  0.57148221  0.67821561  1
  Al0+  Al91  1  0.32338825  0.07134101  0.34900879  1
  Al0+  Al92  1  0.56918371  0.67629029  0.65401851  1
  Al0+  Al93  1  0.93035300  0.32209267  0.98558276  1
  Al0+  Al94  1  0.42810199  0.82290131  0.65127062  1
  Al0+  Al95  1  0.56801563  0.17793713  0.31902719  1
  Si0+  Si96  1  0.67804408  0.42630008  0.68209898  1
  Si0+  Si97  1  0.17380784  0.92838839  0.01566703  1
  Si0+  Si98  1  0.17624980  0.43110539  0.35021533  1
  Si0+  Si99  1  0.67995566  0.42841320  0.34875218  1
  Si0+  Si100  1  0.42866321  0.32055180  0.98465019  1
  Si0+  Si101  1  0.82253659  0.07405063  0.01628848  1
  Si0+  Si102  1  0.07181937  0.67876482  0.98336887  1
  Si0+  Si103  1  0.82060887  0.57106033  0.35173108  1
  Si0+  Si104  1  0.81912835  0.07556749  0.68159363  1
  Si0+  Si105  1  0.32315695  0.56869679  0.34733400  1
  Si0+  Si106  1  0.43044450  0.82025891  0.31655130  1
  Si0+  Si107  1  0.17561646  0.42962461  0.68061475  1
  Si0+  Si108  1  0.07538534  0.17945051  0.98439069  1
  Si0+  Si109  1  0.56990670  0.17768132  0.98353467  1
  Si0+  Si110  1  0.68174426  0.92716313  0.35107133  1
  Si0+  Si111  1  0.57162834  0.67580342  0.98483312  1
  Si0+  Si112  1  0.68268389  0.92779308  0.68088816  1
  Si0+  Si113  1  0.81891688  0.56940769  0.68051560  1
  Si0+  Si114  1  0.07435227  0.17928806  0.31575408  1
  Si0+  Si115  1  0.42908803  0.32087889  0.65389551  1
  Si0+  Si116  1  0.56974503  0.17863445  0.65309943  1
  Si0+  Si117  1  0.42651188  0.32291976  0.31557942  1
  Si0+  Si118  1  0.67727205  0.42334676  0.01876361  1
  Si0+  Si119  1  0.81872682  0.07449917  0.34726647  1
  O2-  O120  1  0.24533020  -0.00539150  0.05937039  1
  O2-  O121  1  0.24814903  0.00311946  0.39791278  1
  O2-  O122  1  0.25005860  -0.00042184  0.73247767  1
  O2-  O123  1  0.24926186  0.50428630  0.06582429  1
  O2-  O124  1  0.24911913  0.50119712  0.39081285  1
  O2-  O125  1  0.24276359  0.50013250  0.72389875  1
  O2-  O126  1  0.75965332  0.00096874  0.06185983  1
  O2-  O127  1  0.75487048  -0.00270460  0.39167434  1
  O2-  O128  1  0.75620248  -0.00334521  0.72300339  1
  O2-  O129  1  0.74545818  0.49250103  0.06212745  1
  O2-  O130  1  0.74969751  0.49888456  0.39349877  1
  O2-  O131  1  0.74983353  0.49625446  0.72349560  1
  O2-  O132  1  0.00653916  0.24812226  0.27006698  1
  O2-  O133  1  0.00083662  0.25250386  0.60242828  1
  O2-  O134  1  0.00621164  0.24845190  0.94069103  1
  O2-  O135  1  0.00410391  0.75461185  0.26742979  1
  O2-  O136  1  0.00716618  0.75974508  0.60494510  1
  O2-  O137  1  0.00704670  0.75110876  0.93937096  1
  O2-  O138  1  0.48722249  0.24617612  0.27249700  1
  O2-  O139  1  0.49436752  0.24477161  0.61124202  1
  O2-  O140  1  0.49911164  0.24888152  0.94132764  1
  O2-  O141  1  0.49660820  0.75022713  0.27061935  1
  O2-  O142  1  0.49480997  0.74466913  0.60298150  1
  O2-  O143  1  0.49789199  0.73878429  0.94156944  1
  O2-  O144  1  0.07367181  0.17939674  0.09007152  1
  O2-  O145  1  0.07216575  0.18142297  0.42107135  1
  O2-  O146  1  0.07274034  0.18324029  0.76509437  1
  O2-  O147  1  0.06951448  0.67839345  0.08886953  1
  O2-  O148  1  0.07240438  0.67731314  0.42909199  1
  O2-  O149  1  0.06723679  0.67481860  0.76748620  1
  O2-  O150  1  0.56991785  0.17849534  0.08858181  1
  O2-  O151  1  0.57158458  0.18185825  0.43242470  1
  O2-  O152  1  0.57308911  0.18089407  0.75815870  1
  O2-  O153  1  0.57230714  0.67834988  0.09061830  1
  O2-  O154  1  0.56818771  0.67672836  0.43118755  1
  O2-  O155  1  0.57261058  0.67803288  0.76742789  1
  O2-  O156  1  0.17670731  0.42972696  0.24537313  1
  O2-  O157  1  0.17825014  0.42932850  0.57465186  1
  O2-  O158  1  0.18142529  0.43052250  0.90028936  1
  O2-  O159  1  0.17953600  0.93059406  0.23398396  1
  O2-  O160  1  0.17647715  0.93079033  0.56962081  1
  O2-  O161  1  0.17141560  0.93035163  0.91052712  1
  O2-  O162  1  0.68014352  0.42779695  0.24392183  1
  O2-  O163  1  0.67664311  0.42298302  0.57706795  1
  O2-  O164  1  0.67598282  0.42201352  0.91292768  1
  O2-  O165  1  0.68022933  0.92813413  0.24599066  1
  O2-  O166  1  0.68231965  0.92935781  0.57559712  1
  O2-  O167  1  0.68164452  0.93154678  0.90046944  1
  O2-  O168  1  0.43087780  0.32098956  0.08961142  1
  O2-  O169  1  0.43201824  0.32907093  0.42114817  1
  O2-  O170  1  0.43363756  0.32306279  0.75890640  1
  O2-  O171  1  0.43404553  0.82249711  0.09995660  1
  O2-  O172  1  0.43245711  0.81919455  0.42186981  1
  O2-  O173  1  0.43345393  0.82476359  0.76496229  1
  O2-  O174  1  0.92981976  0.31920961  0.09876162  1
  O2-  O175  1  0.92861333  0.31684063  0.43146839  1
  O2-  O176  1  0.92646711  0.32139711  0.76552941  1
  O2-  O177  1  0.92893512  0.81906591  0.09875184  1
  O2-  O178  1  0.92667280  0.81877029  0.43095985  1
  O2-  O179  1  0.92293512  0.81516517  0.76769238  1
  O2-  O180  1  0.32358309  0.06714258  0.23520241  1
  O2-  O181  1  0.32457020  0.06960686  0.56941083  1
  O2-  O182  1  0.32068182  0.06929181  0.90100026  1
  O2-  O183  1  0.32472724  0.56505758  0.24258114  1
  O2-  O184  1  0.32581744  0.56500279  0.56479240  1
  O2-  O185  1  0.32393684  0.57172164  0.90234840  1
  O2-  O186  1  0.81379325  0.07758654  0.24236745  1
  O2-  O187  1  0.81233952  0.08240936  0.57672753  1
  O2-  O188  1  0.81761191  0.07737440  0.91080145  1
  O2-  O189  1  0.81905409  0.56980128  0.24658888  1
  O2-  O190  1  0.81618433  0.56854456  0.57555671  1
  O2-  O191  1  0.81722049  0.56861576  0.90093351  1
  O2-  O192  1  0.04852938  0.08620717  0.26971139  1
  O2-  O193  1  0.04028995  0.08416911  0.59607575  1
  O2-  O194  1  0.04917236  0.08722860  0.93618127  1
  O2-  O195  1  0.04074129  0.58324546  0.26234101  1
  O2-  O196  1  0.03817022  0.58586021  0.59693973  1
  O2-  O197  1  0.04119865  0.58656667  0.93828041  1
  O2-  O198  1  0.54439470  0.07956526  0.26486887  1
  O2-  O199  1  0.54831229  0.08616468  0.60486059  1
  O2-  O200  1  0.54260949  0.08607115  0.93666577  1
  O2-  O201  1  0.54398085  0.57955704  0.26353976  1
  O2-  O202  1  0.54589484  0.57591383  0.60176923  1
  O2-  O203  1  0.55475559  0.57844378  0.94283516  1
  O2-  O204  1  0.16922372  0.20543286  0.27242090  1
  O2-  O205  1  0.17124438  0.20770119  0.59646726  1
  O2-  O206  1  0.16920708  0.20663392  0.94026056  1
  O2-  O207  1  0.17390153  0.70328988  0.26321347  1
  O2-  O208  1  0.17237779  0.70129187  0.60176312  1
  O2-  O209  1  0.16765571  0.69885786  0.94034824  1
  O2-  O210  1  0.66023877  0.21511152  0.26096254  1
  O2-  O211  1  0.65826010  0.21204001  0.60266124  1
  O2-  O212  1  0.66103073  0.20581177  0.93460278  1
  O2-  O213  1  0.66666408  0.70876956  0.26561741  1
  O2-  O214  1  0.66488425  0.70864089  0.59810030  1
  O2-  O215  1  0.66358699  0.70713514  0.93964706  1
  O2-  O216  1  0.08143797  0.45763112  0.06836556  1
  O2-  O217  1  0.08474616  0.46044885  0.39719904  1
  O2-  O218  1  0.08038697  0.45366844  0.72384395  1
  O2-  O219  1  0.08115044  0.95755641  0.06266991  1
  O2-  O220  1  0.07750995  0.95539508  0.39878819  1
  O2-  O221  1  0.07554759  0.95968686  0.73374248  1
  O2-  O222  1  0.58366698  0.44597267  0.06591380  1
  O2-  O223  1  0.58714063  0.45507763  0.39574959  1
  O2-  O224  1  0.58769243  0.45395669  0.73254854  1
  O2-  O225  1  0.58878386  0.96484429  0.07071945  1
  O2-  O226  1  0.59130774  0.95787959  0.39905566  1
  O2-  O227  1  0.59253651  0.95971878  0.72879487  1
  O2-  O228  1  0.21045308  0.33443743  0.07095613  1
  O2-  O229  1  0.20275549  0.33949608  0.39913906  1
  O2-  O230  1  0.20283056  0.33693917  0.72689114  1
  O2-  O231  1  0.19665816  0.83387139  0.06016539  1
  O2-  O232  1  0.20856671  0.82981436  0.39908344  1
  O2-  O233  1  0.20054621  0.83002124  0.73586017  1
  O2-  O234  1  0.70319811  0.32914886  0.06355142  1
  O2-  O235  1  0.70820874  0.33594354  0.39536830  1
  O2-  O236  1  0.70363696  0.33450948  0.73159899  1
  O2-  O237  1  0.70914036  0.83317199  0.07008951  1
  O2-  O238  1  0.70868210  0.83493045  0.39831510  1
  O2-  O239  1  0.70900005  0.83539453  0.72784922  1
  O2-  O240  1  0.46251317  0.41070481  0.26459008  1
  O2-  O241  1  0.46374484  0.40869952  0.60307769  1
  O2-  O242  1  0.45870631  0.41182733  0.93649638  1
  O2-  O243  1  0.46103623  0.91269398  0.27129777  1
  O2-  O244  1  0.46602024  0.91749001  0.59623914  1
  O2-  O245  1  0.46951138  0.91391223  0.93223152  1
  O2-  O246  1  0.95841547  0.41728006  0.26724022  1
  O2-  O247  1  0.95163668  0.42002615  0.59698534  1
  O2-  O248  1  0.95955648  0.41953037  0.93335088  1
  O2-  O249  1  0.94923275  0.92476936  0.26634603  1
  O2-  O250  1  0.93851584  0.92621154  0.60742939  1
  O2-  O251  1  0.95060842  0.92096495  0.93393828  1
  O2-  O252  1  0.32968025  0.30742652  0.27325992  1
  O2-  O253  1  0.33594848  0.30132722  0.60656755  1
  O2-  O254  1  0.33669243  0.29271724  0.93886217  1
  O2-  O255  1  0.33679928  0.79704038  0.27070341  1
  O2-  O256  1  0.32872930  0.79985279  0.60054582  1
  O2-  O257  1  0.33021406  0.79769184  0.93424611  1
  O2-  O258  1  0.83404448  0.28785703  0.26364982  1
  O2-  O259  1  0.82820065  0.29105596  0.60058025  1
  O2-  O260  1  0.83286347  0.29192359  0.93221629  1
  O2-  O261  1  0.83209072  0.78932434  0.26595296  1
  O2-  O262  1  0.83315023  0.78517394  0.59826959  1
  O2-  O263  1  0.83157791  0.78535883  0.93568156  1
  O2-  O264  1  0.41747499  0.03581398  0.06649279  1
  O2-  O265  1  0.42286194  0.04169401  0.39991619  1
  O2-  O266  1  0.42341423  0.04394495  0.73349164  1
  O2-  O267  1  0.42102153  0.54201905  0.06830396  1
  O2-  O268  1  0.41434375  0.53585088  0.39391272  1
  O2-  O269  1  0.41603074  0.53469339  0.73402383  1
  O2-  O270  1  0.91874508  0.05606788  0.05914956  1
  O2-  O271  1  0.91344015  0.05590174  0.39182550  1
  O2-  O272  1  0.91347022  0.05914748  0.72682245  1
  O2-  O273  1  0.91448024  0.53893092  0.07047936  1
  O2-  O274  1  0.91296740  0.54279044  0.39712402  1
  O2-  O275  1  0.91111092  0.54275423  0.72765500  1
  O2-  O276  1  0.29555232  0.16535681  0.06971710  1
  O2-  O277  1  0.30406952  0.17439942  0.39708404  1
  O2-  O278  1  0.29644587  0.17196419  0.73275112  1
  O2-  O279  1  0.29757898  0.67364868  0.06903586  1
  O2-  O280  1  0.29986701  0.66223371  0.39237186  1
  O2-  O281  1  0.29630169  0.66883996  0.73168120  1
  O2-  O282  1  0.79001994  0.16550924  0.06352901  1
  O2-  O283  1  0.78146984  0.16313080  0.39553327  1
  O2-  O284  1  0.78159403  0.16273565  0.73294812  1
  O2-  O285  1  0.78612284  0.66273054  0.07242498  1
  O2-  O286  1  0.78931478  0.66191911  0.39847775  1
  O2-  O287  1  0.78743743  0.65974749  0.72891626  1
