# generated using pymatgen
data_Ca2Al2SiO7
_symmetry_space_group_name_H-M   'P 1'
_cell_length_a   15.45607187
_cell_length_b   15.45593570
_cell_length_c   15.28170663
_cell_angle_alpha   90.00670275
_cell_angle_beta   90.00710279
_cell_angle_gamma   89.99201088
_symmetry_Int_Tables_number   1
_chemical_formula_structural   Ca2Al2SiO7
_chemical_formula_sum   'Ca48 Al48 Si24 O168'
_cell_volume   3650.61705483
_cell_formula_units_Z   24
loop_
 _symmetry_equiv_pos_site_id
 _symmetry_equiv_pos_as_xyz
  1  'x, y, z'
loop_
 _atom_type_symbol
 _atom_type_oxidation_number
  Ca2+  2.0
  Al0+  0.0
  Si0+  0.0
  O2-  -2.0
loop_
 _atom_site_type_symbol
 _atom_site_label
 _atom_site_symmetry_multiplicity
 _atom_site_fract_x
 _atom_site_fract_y
 _atom_site_fract_z
 _atom_site_occupancy
  Ca2+  Ca0  1  0.15725373  0.07690364  0.16941527  1
  Ca2+  Ca1  1  0.16857090  0.08489753  0.49902723  1
  Ca2+  Ca2  1  0.17018768  0.08056458  0.84055900  1
  Ca2+  Ca3  1  0.16891505  0.58418431  0.16414880  1
  Ca2+  Ca4  1  0.16880304  0.57988266  0.50386277  1
  Ca2+  Ca5  1  0.16942895  0.57974757  0.84916492  1
  Ca2+  Ca6  1  0.67279761  0.07190863  0.16877786  1
  Ca2+  Ca7  1  0.66241674  0.06998973  0.50767796  1
  Ca2+  Ca8  1  0.66985266  0.07348536  0.84125498  1
  Ca2+  Ca9  1  0.66352806  0.58267070  0.17379778  1
  Ca2+  Ca10  1  0.66132698  0.57972479  0.50003750  1
  Ca2+  Ca11  1  0.66501307  0.58628119  0.83657346  1
  Ca2+  Ca12  1  0.07703144  0.32301153  0.15648693  1
  Ca2+  Ca13  1  0.07307528  0.32659029  0.49116561  1
  Ca2+  Ca14  1  0.07476151  0.33367009  0.83406510  1
  Ca2+  Ca15  1  0.08093734  0.83677525  0.15970771  1
  Ca2+  Ca16  1  0.07134676  0.84180471  0.49395435  1
  Ca2+  Ca17  1  0.08250680  0.83276780  0.83419994  1
  Ca2+  Ca18  1  0.57882548  0.34013632  0.16649853  1
  Ca2+  Ca19  1  0.58067492  0.32516414  0.49188539  1
  Ca2+  Ca20  1  0.58262269  0.32193435  0.82737113  1
  Ca2+  Ca21  1  0.58367916  0.82758029  0.15879478  1
  Ca2+  Ca22  1  0.59365530  0.82431475  0.49516917  1
  Ca2+  Ca23  1  0.58724285  0.82848010  0.83058418  1
  Ca2+  Ca24  1  0.33139647  0.42063813  0.16909087  1
  Ca2+  Ca25  1  0.33565043  0.41380970  0.50112165  1
  Ca2+  Ca26  1  0.32452521  0.42524024  0.84539535  1
  Ca2+  Ca27  1  0.32100043  0.90717748  0.16708962  1
  Ca2+  Ca28  1  0.32509786  0.92280842  0.50459087  1
  Ca2+  Ca29  1  0.33274218  0.92060818  0.84189058  1
  Ca2+  Ca30  1  0.83211035  0.41562126  0.17253950  1
  Ca2+  Ca31  1  0.83271227  0.41236820  0.50113291  1
  Ca2+  Ca32  1  0.83615675  0.41353289  0.83904525  1
  Ca2+  Ca33  1  0.82826298  0.91776747  0.17244959  1
  Ca2+  Ca34  1  0.82760787  0.91133484  0.50380894  1
  Ca2+  Ca35  1  0.82420531  0.91723485  0.84018545  1
  Ca2+  Ca36  1  0.41576674  0.17301149  0.16573066  1
  Ca2+  Ca37  1  0.41919586  0.16594704  0.49905172  1
  Ca2+  Ca38  1  0.42121689  0.16133394  0.82633299  1
  Ca2+  Ca39  1  0.42663702  0.67009748  0.15634373  1
  Ca2+  Ca40  1  0.42898057  0.66793082  0.49504556  1
  Ca2+  Ca41  1  0.42232637  0.67211266  0.83581723  1
  Ca2+  Ca42  1  0.92183361  0.17175269  0.15978657  1
  Ca2+  Ca43  1  0.91958305  0.17575855  0.49129741  1
  Ca2+  Ca44  1  0.91518120  0.17185753  0.83473728  1
  Ca2+  Ca45  1  0.92099758  0.67412469  0.16348590  1
  Ca2+  Ca46  1  0.91461118  0.67963514  0.49753474  1
  Ca2+  Ca47  1  0.92402228  0.67212855  0.83105616  1
  Al0+  Al48  1  -0.00002200  0.00350685  0.00084219  1
  Al0+  Al49  1  -0.00103841  0.00005418  0.33166296  1
  Al0+  Al50  1  -0.00031555  0.00105693  0.66381818  1
  Al0+  Al51  1  -0.00108251  0.50064861  -0.00180937  1
  Al0+  Al52  1  0.00067178  0.50166540  0.33385902  1
  Al0+  Al53  1  -0.00092225  0.49988251  0.66213438  1
  Al0+  Al54  1  0.49975804  0.00031650  0.00309686  1
  Al0+  Al55  1  0.49906292  -0.00104138  0.33743561  1
  Al0+  Al56  1  0.49820465  -0.00172269  0.67010154  1
  Al0+  Al57  1  0.49992783  0.50098499  -0.00239742  1
  Al0+  Al58  1  0.50164300  0.49964543  0.33161347  1
  Al0+  Al59  1  0.49990370  0.50040539  0.66560442  1
  Al0+  Al60  1  0.24816775  0.25065415  -0.00058496  1
  Al0+  Al61  1  0.25136364  0.25059086  0.32687998  1
  Al0+  Al62  1  0.24919765  0.25044666  0.67236787  1
  Al0+  Al63  1  0.25241459  0.75067218  -0.00050798  1
  Al0+  Al64  1  0.25100649  0.75015152  0.34333127  1
  Al0+  Al65  1  0.25099645  0.74866145  0.66627030  1
  Al0+  Al66  1  0.74921265  0.25011648  0.00145913  1
  Al0+  Al67  1  0.74886236  0.24967839  0.33409776  1
  Al0+  Al68  1  0.74860218  0.24884254  0.65801561  1
  Al0+  Al69  1  0.74955314  0.74765354  0.00029037  1
  Al0+  Al70  1  0.75225704  0.74872764  0.32841471  1
  Al0+  Al71  1  0.75103927  0.74755892  0.66447852  1
  Al0+  Al72  1  0.67924023  0.42944288  0.34758021  1
  Al0+  Al73  1  0.17667469  0.42905881  0.01669540  1
  Al0+  Al74  1  0.56995695  0.67951404  0.65109092  1
  Al0+  Al75  1  0.93064025  0.81970274  0.31859649  1
  Al0+  Al76  1  0.32202616  0.57119228  0.01613925  1
  Al0+  Al77  1  0.68114455  0.92668158  0.68096580  1
  Al0+  Al78  1  0.56978829  0.68115449  0.31936989  1
  Al0+  Al79  1  0.31923951  0.07022239  0.68045599  1
  Al0+  Al80  1  0.56957066  0.17624701  0.65367400  1
  Al0+  Al81  1  0.82056957  0.07262284  0.01513617  1
  Al0+  Al82  1  0.43133268  0.32033900  0.31964244  1
  Al0+  Al83  1  0.92723602  0.32095667  0.98461206  1
  Al0+  Al84  1  0.07086813  0.17980662  0.31737225  1
  Al0+  Al85  1  0.92673420  0.32310968  0.31709312  1
  Al0+  Al86  1  0.67962959  0.92763643  0.34789776  1
  Al0+  Al87  1  0.18049780  0.93047696  0.01163780  1
  Al0+  Al88  1  0.57276696  0.67818460  0.98297824  1
  Al0+  Al89  1  0.67890157  0.92674033  0.01616091  1
  Al0+  Al90  1  0.07185812  0.17716876  0.98144175  1
  Al0+  Al91  1  0.93084105  0.82093002  0.65517314  1
  Al0+  Al92  1  0.07093999  0.68103116  0.98897320  1
  Al0+  Al93  1  0.42953669  0.82290650  0.98542056  1
  Al0+  Al94  1  0.17764392  0.92917167  0.34823720  1
  Al0+  Al95  1  0.92914928  0.32117519  0.65054291  1
  Si0+  Si96  1  0.82095851  0.07132351  0.35166524  1
  Si0+  Si97  1  0.56964893  0.18009359  0.98718959  1
  Si0+  Si98  1  0.82394255  0.57184650  0.35133323  1
  Si0+  Si99  1  0.17585285  0.92750259  0.68344188  1
  Si0+  Si100  1  0.82091510  0.56916583  0.68174157  1
  Si0+  Si101  1  0.07610520  0.67808807  0.31862275  1
  Si0+  Si102  1  0.82152357  0.57098258  0.01421258  1
  Si0+  Si103  1  0.82214482  0.07403469  0.68160607  1
  Si0+  Si104  1  0.42771862  0.32141792  0.65273041  1
  Si0+  Si105  1  0.17980881  0.42836171  0.34856544  1
  Si0+  Si106  1  0.67882032  0.42892022  0.01261373  1
  Si0+  Si107  1  0.67872113  0.42762861  0.68087876  1
  Si0+  Si108  1  0.42590246  0.82309769  0.31924853  1
  Si0+  Si109  1  0.92766169  0.82343558  0.98434788  1
  Si0+  Si110  1  0.57192465  0.17429716  0.31605879  1
  Si0+  Si111  1  0.42838841  0.32191318  0.98429106  1
  Si0+  Si112  1  0.32240844  0.56981849  0.35060699  1
  Si0+  Si113  1  0.07414813  0.17900521  0.64966210  1
  Si0+  Si114  1  0.32249641  0.57062131  0.68210549  1
  Si0+  Si115  1  0.42581261  0.82220147  0.64798285  1
  Si0+  Si116  1  0.17763443  0.43113143  0.68129069  1
  Si0+  Si117  1  0.07389007  0.67766974  0.64973468  1
  Si0+  Si118  1  0.32175726  0.07453790  0.34971285  1
  Si0+  Si119  1  0.32370671  0.07416472  0.01826925  1
  O2-  O120  1  0.25386284  0.00602977  0.06060997  1
  O2-  O121  1  0.25284320  0.00500639  0.39278971  1
  O2-  O122  1  0.24535085  -0.00491661  0.72717017  1
  O2-  O123  1  0.25014999  0.49956267  0.06736027  1
  O2-  O124  1  0.24946327  0.50017573  0.39334813  1
  O2-  O125  1  0.24816199  0.50275215  0.72333571  1
  O2-  O126  1  0.75369840  -0.00404802  0.06556968  1
  O2-  O127  1  0.75104164  0.00435442  0.39707996  1
  O2-  O128  1  0.75523001  0.00336548  0.72574640  1
  O2-  O129  1  0.74874846  0.50082188  0.05424931  1
  O2-  O130  1  0.75767034  0.50007669  0.39540017  1
  O2-  O131  1  0.75116565  0.49649918  0.72417138  1
  O2-  O132  1  -0.00085178  0.25221521  0.26796395  1
  O2-  O133  1  0.00286686  0.24498154  0.60561314  1
  O2-  O134  1  -0.00039085  0.25013588  0.93321805  1
  O2-  O135  1  0.00971641  0.74835173  0.27459995  1
  O2-  O136  1  0.00994646  0.75078939  0.60673546  1
  O2-  O137  1  -0.00135686  0.75684903  0.94016275  1
  O2-  O138  1  0.50544951  0.24550632  0.27190403  1
  O2-  O139  1  0.49456164  0.25167076  0.60801592  1
  O2-  O140  1  0.49602700  0.24779574  0.94260263  1
  O2-  O141  1  0.49747493  0.75828977  0.27471110  1
  O2-  O142  1  0.49679077  0.75564783  0.60398197  1
  O2-  O143  1  0.50431900  0.75410801  0.93422436  1
  O2-  O144  1  0.07142833  0.17807228  0.09460523  1
  O2-  O145  1  0.07167418  0.18302598  0.43197907  1
  O2-  O146  1  0.07613828  0.18031038  0.75460438  1
  O2-  O147  1  0.06781187  0.68158591  0.10204274  1
  O2-  O148  1  0.07521691  0.67654474  0.42475293  1
  O2-  O149  1  0.07344405  0.67460748  0.75510322  1
  O2-  O150  1  0.56884823  0.18299421  0.09213154  1
  O2-  O151  1  0.56878701  0.17420032  0.42199144  1
  O2-  O152  1  0.56973598  0.17966824  0.76718560  1
  O2-  O153  1  0.57152040  0.67562281  0.09636949  1
  O2-  O154  1  0.56792126  0.67987834  0.43296621  1
  O2-  O155  1  0.56810140  0.67689167  0.76343757  1
  O2-  O156  1  0.18081416  0.42985269  0.24437958  1
  O2-  O157  1  0.17923891  0.43149163  0.57568886  1
  O2-  O158  1  0.17843081  0.43192762  0.90203643  1
  O2-  O159  1  0.17986540  0.92612079  0.23555931  1
  O2-  O160  1  0.17636740  0.92831628  0.57772318  1
  O2-  O161  1  0.18239033  0.93106269  0.89811630  1
  O2-  O162  1  0.67669615  0.43416352  0.23434379  1
  O2-  O163  1  0.67718272  0.42959644  0.57598881  1
  O2-  O164  1  0.67886667  0.42698348  0.90696433  1
  O2-  O165  1  0.68047853  0.92842556  0.23539243  1
  O2-  O166  1  0.68352456  0.92616000  0.56764467  1
  O2-  O167  1  0.67998665  0.92839724  0.90202216  1
  O2-  O168  1  0.43113711  0.32315753  0.08940027  1
  O2-  O169  1  0.43118555  0.31935971  0.43326830  1
  O2-  O170  1  0.42963380  0.32291707  0.75827666  1
  O2-  O171  1  0.42908191  0.82027335  0.09928756  1
  O2-  O172  1  0.42408183  0.82014403  0.42515400  1
  O2-  O173  1  0.42220070  0.81977379  0.75304216  1
  O2-  O174  1  0.92565198  0.32080333  0.09749094  1
  O2-  O175  1  0.93008729  0.32147823  0.43132411  1
  O2-  O176  1  0.93029781  0.32392230  0.76304320  1
  O2-  O177  1  0.92760580  0.82053179  0.08991701  1
  O2-  O178  1  0.92999009  0.81749280  0.43221202  1
  O2-  O179  1  0.93169981  0.81713799  0.76813526  1
  O2-  O180  1  0.32396715  0.07601968  0.24472456  1
  O2-  O181  1  0.31671015  0.07158585  0.56719898  1
  O2-  O182  1  0.32491621  0.07363501  0.91231856  1
  O2-  O183  1  0.32218010  0.57027815  0.24628324  1
  O2-  O184  1  0.32254747  0.56825910  0.57653642  1
  O2-  O185  1  0.32146863  0.56766984  0.90176773  1
  O2-  O186  1  0.81968811  0.06972221  0.24638451  1
  O2-  O187  1  0.82119865  0.07408504  0.57602894  1
  O2-  O188  1  0.81549433  0.07411594  0.90088762  1
  O2-  O189  1  0.82430333  0.57276526  0.24579800  1
  O2-  O190  1  0.82114318  0.56915391  0.57676562  1
  O2-  O191  1  0.82221778  0.57153259  0.90860037  1
  O2-  O192  1  0.04218259  0.08140325  0.26661781  1
  O2-  O193  1  0.05246724  0.08415755  0.60438035  1
  O2-  O194  1  0.04323945  0.07927342  0.92706882  1
  O2-  O195  1  0.04975774  0.58504678  0.27262125  1
  O2-  O196  1  0.04354255  0.58651132  0.60082697  1
  O2-  O197  1  0.03752924  0.58634606  0.93233344  1
  O2-  O198  1  0.54310438  0.08168156  0.26989620  1
  O2-  O199  1  0.53659910  0.08034704  0.59968884  1
  O2-  O200  1  0.54450876  0.08766111  0.94010064  1
  O2-  O201  1  0.53635281  0.58555639  0.26638525  1
  O2-  O202  1  0.53665898  0.58264101  0.59723326  1
  O2-  O203  1  0.54147279  0.58038022  0.92883590  1
  O2-  O204  1  0.16939749  0.20607098  0.26489630  1
  O2-  O205  1  0.16676098  0.20941172  0.60330695  1
  O2-  O206  1  0.17138156  0.20581646  0.92954868  1
  O2-  O207  1  0.17162561  0.70126286  0.27651213  1
  O2-  O208  1  0.16953785  0.69697206  0.60437348  1
  O2-  O209  1  0.16750075  0.70857728  0.93380558  1
  O2-  O210  1  0.66608048  0.19826759  0.27220159  1
  O2-  O211  1  0.66352001  0.20733226  0.59561122  1
  O2-  O212  1  0.65904986  0.21207414  0.93801568  1
  O2-  O213  1  0.66733050  0.70651534  0.26619819  1
  O2-  O214  1  0.66755715  0.70691950  0.59791924  1
  O2-  O215  1  0.67277477  0.70245946  0.93048331  1
  O2-  O216  1  0.07862732  0.45967396  0.06808344  1
  O2-  O217  1  0.08809299  0.45652104  0.39750587  1
  O2-  O218  1  0.08554256  0.46002382  0.72720278  1
  O2-  O219  1  0.08300982  0.95845714  0.06482746  1
  O2-  O220  1  0.08130001  0.96143432  0.40240191  1
  O2-  O221  1  0.08211372  0.95300494  0.72895208  1
  O2-  O222  1  0.58685338  0.45640583  0.05954814  1
  O2-  O223  1  0.58376855  0.46370307  0.40321223  1
  O2-  O224  1  0.58688382  0.45621761  0.72860583  1
  O2-  O225  1  0.58139261  0.95853244  0.06892377  1
  O2-  O226  1  0.58124278  0.95488338  0.40203916  1
  O2-  O227  1  0.58287000  0.95479563  0.73218648  1
  O2-  O228  1  0.20581728  0.33024858  0.06752369  1
  O2-  O229  1  0.21084824  0.33723581  0.39592480  1
  O2-  O230  1  0.20479284  0.34006631  0.72977615  1
  O2-  O231  1  0.21167591  0.83461750  0.06653418  1
  O2-  O232  1  0.20801782  0.83376254  0.40700399  1
  O2-  O233  1  0.20006181  0.83160277  0.72605398  1
  O2-  O234  1  0.70534482  0.33851803  0.06256355  1
  O2-  O235  1  0.70352331  0.33040492  0.40116596  1
  O2-  O236  1  0.70516150  0.33432258  0.72612965  1
  O2-  O237  1  0.70489109  0.82668473  0.06656147  1
  O2-  O238  1  0.71492975  0.83071196  0.39917707  1
  O2-  O239  1  0.71432749  0.83010810  0.73393650  1
  O2-  O240  1  0.46406645  0.41538985  0.26452688  1
  O2-  O241  1  0.45435754  0.41401907  0.60507273  1
  O2-  O242  1  0.45941380  0.41154247  0.93478374  1
  O2-  O243  1  0.44566322  0.91858727  0.27574962  1
  O2-  O244  1  0.44789467  0.91694183  0.60405021  1
  O2-  O245  1  0.45385669  0.92351788  0.93405297  1
  O2-  O246  1  0.95271022  0.42407366  0.26915392  1
  O2-  O247  1  0.96094742  0.41748204  0.59539694  1
  O2-  O248  1  0.95497277  0.41970737  0.93138438  1
  O2-  O249  1  0.95770189  0.91674208  0.26578215  1
  O2-  O250  1  0.95635990  0.91853335  0.59938363  1
  O2-  O251  1  0.95029958  0.91755707  0.93946217  1
  O2-  O252  1  0.33586941  0.29204577  0.26305167  1
  O2-  O253  1  0.33294587  0.29720231  0.60790440  1
  O2-  O254  1  0.33543799  0.29829995  0.93778232  1
  O2-  O255  1  0.33275494  0.79256514  0.27507838  1
  O2-  O256  1  0.33288381  0.79349473  0.60010244  1
  O2-  O257  1  0.33334334  0.79152708  0.92962323  1
  O2-  O258  1  0.82640648  0.29726632  0.26766227  1
  O2-  O259  1  0.83230303  0.29298802  0.59597699  1
  O2-  O260  1  0.82812785  0.29177310  0.93127472  1
  O2-  O261  1  0.83766057  0.78406133  0.26173409  1
  O2-  O262  1  0.83757942  0.78318630  0.59921144  1
  O2-  O263  1  0.83579422  0.79256064  0.93816595  1
  O2-  O264  1  0.41692442  0.05069889  0.06574299  1
  O2-  O265  1  0.41455576  0.04858862  0.39839895  1
  O2-  O266  1  0.41510215  0.04020043  0.73631481  1
  O2-  O267  1  0.42026760  0.53932880  0.06800026  1
  O2-  O268  1  0.41239721  0.53703597  0.39885613  1
  O2-  O269  1  0.41282868  0.53971206  0.73022469  1
  O2-  O270  1  0.92034801  0.05013954  0.06627093  1
  O2-  O271  1  0.91420287  0.04470322  0.39787358  1
  O2-  O272  1  0.91755398  0.05175210  0.72581643  1
  O2-  O273  1  0.91175251  0.54293158  0.06359569  1
  O2-  O274  1  0.91861082  0.55085378  0.39914441  1
  O2-  O275  1  0.91400790  0.54247411  0.72816314  1
  O2-  O276  1  0.29978932  0.16894281  0.06219710  1
  O2-  O277  1  0.29533980  0.16825959  0.39656131  1
  O2-  O278  1  0.29184262  0.16759897  0.73633716  1
  O2-  O279  1  0.29453723  0.66925368  0.06846550  1
  O2-  O280  1  0.29661721  0.66052523  0.40235600  1
  O2-  O281  1  0.29834083  0.66406926  0.72775139  1
  O2-  O282  1  0.78592253  0.16857649  0.06996290  1
  O2-  O283  1  0.79722812  0.16602138  0.39687527  1
  O2-  O284  1  0.79352395  0.16763217  0.72640540  1
  O2-  O285  1  0.79493002  0.66193874  0.06372993  1
  O2-  O286  1  0.79332690  0.66385107  0.39779467  1
  O2-  O287  1  0.79136023  0.65929686  0.73063831  1
