# generated using pymatgen
data_Ca2Al2SiO7
_symmetry_space_group_name_H-M   'P 1'
_cell_length_a   15.45413033
_cell_length_b   15.45506217
_cell_length_c   15.28121891
_cell_angle_alpha   90.00121199
_cell_angle_beta   90.00285477
_cell_angle_gamma   89.99576208
_symmetry_Int_Tables_number   1
_chemical_formula_structural   Ca2Al2SiO7
_chemical_formula_sum   'Ca48 Al48 Si24 O168'
_cell_volume   3649.83576487
_cell_formula_units_Z   24
loop_
 _symmetry_equiv_pos_site_id
 _symmetry_equiv_pos_as_xyz
  1  'x, y, z'
loop_
 _atom_type_symbol
 _atom_type_oxidation_number
  Ca2+  2.0
  Al0+  0.0
  Si0+  0.0
  O2-  -2.0
loop_
 _atom_site_type_symbol
 _atom_site_label
 _atom_site_symmetry_multiplicity
 _atom_site_fract_x
 _atom_site_fract_y
 _atom_site_fract_z
 _atom_site_occupancy
  Ca2+  Ca0  1  0.17855011  0.09149626  0.17255035  1
  Ca2+  Ca1  1  0.16868334  0.08526036  0.50595646  1
  Ca2+  Ca2  1  0.16663517  0.07842212  0.83425985  1
  Ca2+  Ca3  1  0.17718631  0.57405188  0.17873450  1
  Ca2+  Ca4  1  0.16148033  0.57470878  0.50632995  1
  Ca2+  Ca5  1  0.16280620  0.58022765  0.83279455  1
  Ca2+  Ca6  1  0.67271193  0.09148695  0.16631035  1
  Ca2+  Ca7  1  0.67690936  0.07928987  0.51476254  1
  Ca2+  Ca8  1  0.67166270  0.08501294  0.83411400  1
  Ca2+  Ca9  1  0.66173768  0.57754644  0.17694831  1
  Ca2+  Ca10  1  0.66308147  0.57335714  0.50188431  1
  Ca2+  Ca11  1  0.66424392  0.57974484  0.83489560  1
  Ca2+  Ca12  1  0.07757411  0.33468892  0.16646933  1
  Ca2+  Ca13  1  0.08533516  0.32610452  0.49347081  1
  Ca2+  Ca14  1  0.07754405  0.32717349  0.82463828  1
  Ca2+  Ca15  1  0.07820148  0.83548266  0.16856038  1
  Ca2+  Ca16  1  0.07351920  0.83841602  0.50022601  1
  Ca2+  Ca17  1  0.08114535  0.83025109  0.81755258  1
  Ca2+  Ca18  1  0.57571605  0.33056828  0.15748747  1
  Ca2+  Ca19  1  0.59081057  0.32984360  0.49831534  1
  Ca2+  Ca20  1  0.57953299  0.32310066  0.82930959  1
  Ca2+  Ca21  1  0.58388136  0.81864825  0.16295991  1
  Ca2+  Ca22  1  0.57919000  0.83332487  0.49665024  1
  Ca2+  Ca23  1  0.57966187  0.83409523  0.82570447  1
  Ca2+  Ca24  1  0.33000562  0.41641900  0.17777547  1
  Ca2+  Ca25  1  0.32201150  0.42314800  0.50168845  1
  Ca2+  Ca26  1  0.32705019  0.40935479  0.83414305  1
  Ca2+  Ca27  1  0.33670684  0.93155104  0.17048751  1
  Ca2+  Ca28  1  0.32990756  0.92044679  0.50766747  1
  Ca2+  Ca29  1  0.33028881  0.91825063  0.83450101  1
  Ca2+  Ca30  1  0.82905963  0.41176458  0.17331697  1
  Ca2+  Ca31  1  0.82469388  0.40947463  0.50360695  1
  Ca2+  Ca32  1  0.82697138  0.41108909  0.83601581  1
  Ca2+  Ca33  1  0.83453375  0.92274362  0.16995675  1
  Ca2+  Ca34  1  0.83157624  0.91756292  0.51080846  1
  Ca2+  Ca35  1  0.83724063  0.92986862  0.83280712  1
  Ca2+  Ca36  1  0.41817192  0.17008952  0.15710578  1
  Ca2+  Ca37  1  0.42349743  0.16289142  0.49697339  1
  Ca2+  Ca38  1  0.42526704  0.16248072  0.83140846  1
  Ca2+  Ca39  1  0.42751053  0.65593251  0.16511226  1
  Ca2+  Ca40  1  0.41757124  0.67069231  0.49632451  1
  Ca2+  Ca41  1  0.42263960  0.67310770  0.82708215  1
  Ca2+  Ca42  1  0.91982525  0.17802874  0.16350054  1
  Ca2+  Ca43  1  0.92937574  0.16508737  0.49509087  1
  Ca2+  Ca44  1  0.91469462  0.16686824  0.82761744  1
  Ca2+  Ca45  1  0.91406401  0.67410230  0.16561945  1
  Ca2+  Ca46  1  0.91727810  0.67767894  0.49957844  1
  Ca2+  Ca47  1  0.92352443  0.67581300  0.82251545  1
  Al0+  Al48  1  -0.00203907  0.00015950  0.00715791  1
  Al0+  Al49  1  0.00179785  0.00121752  0.32211156  1
  Al0+  Al50  1  0.00185756  0.00148719  0.66740844  1
  Al0+  Al51  1  -0.00203396  0.50018554  -0.00245216  1
  Al0+  Al52  1  -0.00190998  0.50178563  0.33354694  1
  Al0+  Al53  1  -0.00071443  0.50021194  0.66796184  1
  Al0+  Al54  1  0.49961371  -0.00296629  0.00237083  1
  Al0+  Al55  1  0.50100875  -0.00097202  0.33492112  1
  Al0+  Al56  1  0.50174307  0.00031229  0.66115620  1
  Al0+  Al57  1  0.49868094  0.49942637  -0.01033799  1
  Al0+  Al58  1  0.50027899  0.49920701  0.34006841  1
  Al0+  Al59  1  0.49878715  0.49955710  0.67204837  1
  Al0+  Al60  1  0.24752434  0.24897749  0.00035640  1
  Al0+  Al61  1  0.25263939  0.24958307  0.33930252  1
  Al0+  Al62  1  0.25072986  0.25265105  0.66772607  1
  Al0+  Al63  1  0.24938890  0.74771462  0.00436620  1
  Al0+  Al64  1  0.25040758  0.75383340  0.33378914  1
  Al0+  Al65  1  0.25187263  0.74961852  0.66236395  1
  Al0+  Al66  1  0.74984203  0.24991022  -0.00169035  1
  Al0+  Al67  1  0.75216751  0.24864389  0.33466181  1
  Al0+  Al68  1  0.74821991  0.25070646  0.67168921  1
  Al0+  Al69  1  0.75109914  0.74958163  -0.00503047  1
  Al0+  Al70  1  0.74904925  0.74966601  0.32490005  1
  Al0+  Al71  1  0.74866962  0.74864657  0.66730150  1
  Al0+  Al72  1  0.92877105  0.82067390  0.31751655  1
  Al0+  Al73  1  0.67820960  0.42919474  0.68359247  1
  Al0+  Al74  1  0.68086358  0.42784575  0.34541813  1
  Al0+  Al75  1  0.82264159  0.07021425  0.68043149  1
  Al0+  Al76  1  0.92873178  0.82232446  0.65348508  1
  Al0+  Al77  1  0.56692116  0.67903256  0.32167849  1
  Al0+  Al78  1  0.17777557  0.42909172  0.68243084  1
  Al0+  Al79  1  0.17673737  0.43005566  0.34855346  1
  Al0+  Al80  1  0.07188556  0.18017339  0.65480548  1
  Al0+  Al81  1  0.81961360  0.07213846  0.01745523  1
  Al0+  Al82  1  0.57075338  0.17704944  0.98578377  1
  Al0+  Al83  1  0.07473114  0.18041010  0.31631397  1
  Al0+  Al84  1  0.32279574  0.07089878  0.34906419  1
  Al0+  Al85  1  0.57063020  0.18086821  0.65160099  1
  Al0+  Al86  1  0.57183383  0.67827649  0.98427595  1
  Al0+  Al87  1  0.92777317  0.32194737  0.31984099  1
  Al0+  Al88  1  0.32038546  0.06953215  0.01219578  1
  Al0+  Al89  1  0.43026462  0.82139422  0.65280955  1
  Al0+  Al90  1  0.32274403  0.57300929  0.34859795  1
  Al0+  Al91  1  0.18089860  0.92960651  0.67787770  1
  Al0+  Al92  1  0.07204513  0.67719426  0.65116423  1
  Al0+  Al93  1  0.42517395  0.32090880  0.98487007  1
  Al0+  Al94  1  0.67705778  0.92693774  0.68067179  1
  Al0+  Al95  1  0.92969639  0.32150281  0.98474312  1
  Si0+  Si96  1  0.82151260  0.06971051  0.34714334  1
  Si0+  Si97  1  0.92693107  0.32197808  0.65117638  1
  Si0+  Si98  1  0.67872539  0.43153474  0.01411559  1
  Si0+  Si99  1  0.42667371  0.82472632  0.31447363  1
  Si0+  Si100  1  0.17707556  0.42970765  0.01443432  1
  Si0+  Si101  1  0.32105886  0.57239787  0.68589775  1
  Si0+  Si102  1  0.32344576  0.07287985  0.68291030  1
  Si0+  Si103  1  0.42681986  0.82040492  0.98506914  1
  Si0+  Si104  1  0.82086641  0.57556145  0.34886744  1
  Si0+  Si105  1  0.82146014  0.57204429  0.01509918  1
  Si0+  Si106  1  0.57172779  0.67567981  0.64925202  1
  Si0+  Si107  1  0.17631221  0.93002452  0.35003448  1
  Si0+  Si108  1  0.67821451  0.92528857  0.01815951  1
  Si0+  Si109  1  0.68138462  0.92712810  0.34609190  1
  Si0+  Si110  1  0.17688550  0.92535276  0.01827669  1
  Si0+  Si111  1  0.43215751  0.31936938  0.32222459  1
  Si0+  Si112  1  0.07104367  0.17714479  0.98308983  1
  Si0+  Si113  1  0.57262100  0.17686928  0.31938178  1
  Si0+  Si114  1  0.07360395  0.67782451  0.31593683  1
  Si0+  Si115  1  0.07121568  0.67959708  0.98685928  1
  Si0+  Si116  1  0.42782916  0.32339883  0.64738558  1
  Si0+  Si117  1  0.82163341  0.57221729  0.68419738  1
  Si0+  Si118  1  0.93053227  0.82220606  0.98385168  1
  Si0+  Si119  1  0.32104900  0.57049192  0.01404135  1
  O2-  O120  1  0.24539408  -0.00477596  0.06069668  1
  O2-  O121  1  0.24654736  -0.00284180  0.39364184  1
  O2-  O122  1  0.25464944  0.00414043  0.72690284  1
  O2-  O123  1  0.25230597  0.49695783  0.05610868  1
  O2-  O124  1  0.24366972  0.50808618  0.39726199  1
  O2-  O125  1  0.25130071  0.50472991  0.73058410  1
  O2-  O126  1  0.74312545  -0.00245371  0.06341098  1
  O2-  O127  1  0.75171780  -0.00208606  0.38906282  1
  O2-  O128  1  0.75045922  -0.00252291  0.73046217  1
  O2-  O129  1  0.74835382  0.50331915  0.05793345  1
  O2-  O130  1  0.75785382  0.50101703  0.39180281  1
  O2-  O131  1  0.75325725  0.50381877  0.72998362  1
  O2-  O132  1  0.00342128  0.25452272  0.26822839  1
  O2-  O133  1  -0.00264394  0.25501270  0.60780137  1
  O2-  O134  1  0.00196413  0.24484821  0.93831098  1
  O2-  O135  1  0.00409523  0.74564172  0.27060106  1
  O2-  O136  1  0.00084137  0.75067431  0.60260884  1
  O2-  O137  1  0.00503250  0.75434122  0.94355453  1
  O2-  O138  1  0.50161861  0.24785336  0.27775916  1
  O2-  O139  1  0.49700666  0.25550596  0.60252351  1
  O2-  O140  1  0.49582079  0.24667557  0.93650137  1
  O2-  O141  1  0.49012548  0.75031863  0.27143587  1
  O2-  O142  1  0.50651350  0.74789403  0.60602445  1
  O2-  O143  1  0.49723435  0.75397669  0.94027957  1
  O2-  O144  1  0.07257465  0.18058639  0.08857417  1
  O2-  O145  1  0.07243178  0.17801949  0.42989033  1
  O2-  O146  1  0.07189889  0.18080413  0.76819758  1
  O2-  O147  1  0.06961717  0.67916715  0.09193792  1
  O2-  O148  1  0.07252307  0.67849426  0.42083178  1
  O2-  O149  1  0.07019690  0.67912256  0.76593993  1
  O2-  O150  1  0.57066575  0.18212942  0.10034402  1
  O2-  O151  1  0.57326380  0.17680126  0.42423526  1
  O2-  O152  1  0.56906497  0.18060254  0.76449952  1
  O2-  O153  1  0.57023951  0.67589055  0.09778599  1
  O2-  O154  1  0.56809427  0.68187657  0.43419494  1
  O2-  O155  1  0.56878075  0.67519980  0.75514510  1
  O2-  O156  1  0.18048883  0.43010731  0.23386130  1
  O2-  O157  1  0.17931001  0.42907057  0.56979967  1
  O2-  O158  1  0.17601351  0.43256848  0.90950005  1
  O2-  O159  1  0.17779519  0.92975274  0.24387591  1
  O2-  O160  1  0.18108982  0.93193570  0.56501979  1
  O2-  O161  1  0.17674105  0.92233300  0.91283178  1
  O2-  O162  1  0.67817216  0.42912247  0.23175048  1
  O2-  O163  1  0.67976229  0.42991287  0.57017048  1
  O2-  O164  1  0.68085120  0.43334096  0.90923561  1
  O2-  O165  1  0.68183096  0.92744047  0.24075954  1
  O2-  O166  1  0.67824946  0.92885337  0.56629181  1
  O2-  O167  1  0.68023366  0.92302655  0.91313080  1
  O2-  O168  1  0.42742174  0.32380431  0.09935241  1
  O2-  O169  1  0.43407827  0.31870073  0.42700145  1
  O2-  O170  1  0.42798143  0.32116484  0.75309690  1
  O2-  O171  1  0.42664808  0.81880573  0.09072740  1
  O2-  O172  1  0.43016335  0.82803454  0.41964575  1
  O2-  O173  1  0.42977714  0.81890398  0.76651320  1
  O2-  O174  1  0.93156108  0.32426044  0.09763723  1
  O2-  O175  1  0.92305539  0.31546867  0.43284309  1
  O2-  O176  1  0.92855121  0.32107826  0.75728351  1
  O2-  O177  1  0.92963609  0.81975485  0.08928516  1
  O2-  O178  1  0.92699381  0.82105125  0.42995487  1
  O2-  O179  1  0.93177440  0.82112451  0.76759690  1
  O2-  O180  1  0.32505841  0.07046245  0.23546336  1
  O2-  O181  1  0.32275078  0.07171681  0.57720392  1
  O2-  O182  1  0.31951091  0.06623005  0.89935319  1
  O2-  O183  1  0.32466947  0.56585952  0.23403573  1
  O2-  O184  1  0.32307475  0.57044661  0.58060253  1
  O2-  O185  1  0.31719659  0.57594714  0.90955658  1
  O2-  O186  1  0.81746385  0.07067870  0.24181412  1
  O2-  O187  1  0.82232726  0.06955882  0.56622654  1
  O2-  O188  1  0.82333911  0.06943268  0.90511138  1
  O2-  O189  1  0.81707254  0.57807397  0.24269003  1
  O2-  O190  1  0.82080212  0.57278237  0.57862643  1
  O2-  O191  1  0.82290261  0.57195464  0.91038625  1
  O2-  O192  1  0.04652203  0.08384330  0.25964675  1
  O2-  O193  1  0.04217636  0.08449664  0.59961260  1
  O2-  O194  1  0.04575180  0.08130778  0.94188123  1
  O2-  O195  1  0.04912181  0.58426254  0.26873259  1
  O2-  O196  1  0.04030938  0.57958014  0.59883249  1
  O2-  O197  1  0.03963635  0.58979436  0.93799041  1
  O2-  O198  1  0.54556739  0.08495796  0.27174745  1
  O2-  O199  1  0.54177188  0.08500611  0.59548591  1
  O2-  O200  1  0.54564572  0.07621362  0.93655618  1
  O2-  O201  1  0.53702018  0.58103714  0.26809256  1
  O2-  O202  1  0.54116647  0.58283109  0.60451462  1
  O2-  O203  1  0.53954835  0.58449498  0.92702007  1
  O2-  O204  1  0.17475001  0.20944825  0.26628786  1
  O2-  O205  1  0.16884861  0.21105324  0.60140167  1
  O2-  O206  1  0.16398847  0.20214825  0.93641548  1
  O2-  O207  1  0.16723947  0.70511717  0.26893066  1
  O2-  O208  1  0.17113732  0.70090889  0.59974489  1
  O2-  O209  1  0.16508885  0.70234836  0.94099767  1
  O2-  O210  1  0.66426191  0.20529962  0.27240719  1
  O2-  O211  1  0.66774083  0.21335006  0.59897517  1
  O2-  O212  1  0.66762983  0.20828238  0.93284304  1
  O2-  O213  1  0.66146106  0.71098082  0.26331127  1
  O2-  O214  1  0.66710788  0.69489865  0.60539687  1
  O2-  O215  1  0.66896161  0.70699835  0.93048628  1
  O2-  O216  1  0.08673688  0.46293766  0.06200268  1
  O2-  O217  1  0.07595269  0.45307244  0.39934535  1
  O2-  O218  1  0.08066041  0.45875071  0.73682130  1
  O2-  O219  1  0.08353148  0.95014202  0.06527325  1
  O2-  O220  1  0.08189853  0.95753608  0.39289918  1
  O2-  O221  1  0.08588243  0.96015107  0.73488929  1
  O2-  O222  1  0.58476373  0.45900910  0.05787777  1
  O2-  O223  1  0.58695412  0.46026180  0.40270602  1
  O2-  O224  1  0.58171632  0.45976202  0.73815426  1
  O2-  O225  1  0.58272217  0.94380870  0.06360002  1
  O2-  O226  1  0.58892273  0.95309072  0.39256512  1
  O2-  O227  1  0.57901689  0.95786897  0.73311444  1
  O2-  O228  1  0.19989371  0.33639455  0.06069185  1
  O2-  O229  1  0.21168380  0.33449411  0.40214178  1
  O2-  O230  1  0.21155261  0.33378957  0.73834720  1
  O2-  O231  1  0.20257542  0.83200973  0.06640207  1
  O2-  O232  1  0.19814148  0.83540021  0.39491659  1
  O2-  O233  1  0.21177088  0.83228792  0.73163836  1
  O2-  O234  1  0.70655579  0.33963486  0.06073082  1
  O2-  O235  1  0.71127456  0.33129573  0.40071071  1
  O2-  O236  1  0.70945417  0.33419211  0.73974973  1
  O2-  O237  1  0.71040583  0.83254833  0.06434288  1
  O2-  O238  1  0.70961343  0.83521252  0.39217887  1
  O2-  O239  1  0.69913740  0.82647041  0.73233526  1
  O2-  O240  1  0.46064610  0.41086115  0.27459763  1
  O2-  O241  1  0.45332530  0.41826365  0.60473971  1
  O2-  O242  1  0.45328207  0.41724556  0.92800615  1
  O2-  O243  1  0.46080081  0.91542180  0.26605119  1
  O2-  O244  1  0.45897601  0.91693775  0.59595396  1
  O2-  O245  1  0.45003232  0.91402009  0.93903774  1
  O2-  O246  1  0.94754983  0.42382913  0.26861002  1
  O2-  O247  1  0.94901093  0.41667144  0.60715016  1
  O2-  O248  1  0.95997006  0.41815341  0.92996482  1
  O2-  O249  1  0.96083820  0.91503237  0.25922453  1
  O2-  O250  1  0.95873021  0.91953491  0.60019917  1
  O2-  O251  1  0.95591205  0.91593801  0.94021181  1
  O2-  O252  1  0.34024450  0.29278154  0.27483921  1
  O2-  O253  1  0.33428564  0.29815015  0.60189617  1
  O2-  O254  1  0.32569803  0.29449634  0.93315298  1
  O2-  O255  1  0.33062566  0.80807048  0.27010453  1
  O2-  O256  1  0.33576045  0.78962603  0.59592189  1
  O2-  O257  1  0.33294426  0.79206095  0.94022517  1
  O2-  O258  1  0.83126212  0.28750767  0.26376142  1
  O2-  O259  1  0.83286797  0.29625115  0.60765073  1
  O2-  O260  1  0.83261944  0.29204547  0.93244049  1
  O2-  O261  1  0.83431390  0.78799515  0.25929926  1
  O2-  O262  1  0.82975570  0.79264086  0.60149313  1
  O2-  O263  1  0.84035473  0.79180171  0.93595062  1
  O2-  O264  1  0.41667580  0.03880606  0.06891729  1
  O2-  O265  1  0.41947066  0.03796275  0.40264213  1
  O2-  O266  1  0.41684319  0.04483584  0.72697589  1
  O2-  O267  1  0.41481734  0.54307714  0.05779820  1
  O2-  O268  1  0.41681396  0.53891342  0.40561853  1
  O2-  O269  1  0.41357387  0.54548707  0.73416294  1
  O2-  O270  1  0.91521269  0.03967399  0.07383995  1
  O2-  O271  1  0.91575788  0.04240444  0.38834048  1
  O2-  O272  1  0.91981193  0.04194732  0.73597744  1
  O2-  O273  1  0.91270909  0.54309679  0.06386347  1
  O2-  O274  1  0.91676150  0.55891899  0.39231375  1
  O2-  O275  1  0.91500551  0.54769458  0.73147652  1
  O2-  O276  1  0.28946653  0.16665276  0.06709162  1
  O2-  O277  1  0.29603916  0.16692001  0.40478786  1
  O2-  O278  1  0.29917277  0.16681810  0.72809676  1
  O2-  O279  1  0.29280610  0.66044152  0.06602664  1
  O2-  O280  1  0.30367351  0.67615570  0.39483736  1
  O2-  O281  1  0.29666160  0.66638666  0.73152267  1
  O2-  O282  1  0.78792310  0.16931357  0.07111152  1
  O2-  O283  1  0.79320882  0.15997350  0.39610956  1
  O2-  O284  1  0.79205811  0.16741428  0.73434167  1
  O2-  O285  1  0.79584200  0.66532899  0.06143532  1
  O2-  O286  1  0.78776341  0.66668977  0.39547218  1
  O2-  O287  1  0.79582816  0.66514696  0.73228558  1
