# generated using pymatgen
data_Ca2Al2SiO7
_symmetry_space_group_name_H-M   'P 1'
_cell_length_a   15.45519655
_cell_length_b   15.45507210
_cell_length_c   15.28160835
_cell_angle_alpha   90.00139452
_cell_angle_beta   90.00570676
_cell_angle_gamma   89.99961063
_symmetry_Int_Tables_number   1
_chemical_formula_structural   Ca2Al2SiO7
_chemical_formula_sum   'Ca48 Al48 Si24 O168'
_cell_volume   3650.18293660
_cell_formula_units_Z   24
loop_
 _symmetry_equiv_pos_site_id
 _symmetry_equiv_pos_as_xyz
  1  'x, y, z'
loop_
 _atom_type_symbol
 _atom_type_oxidation_number
  Ca2+  2.0
  Al0+  0.0
  Si0+  0.0
  O2-  -2.0
loop_
 _atom_site_type_symbol
 _atom_site_label
 _atom_site_symmetry_multiplicity
 _atom_site_fract_x
 _atom_site_fract_y
 _atom_site_fract_z
 _atom_site_occupancy
  Ca2+  Ca0  1  0.16141525  0.07656282  0.17295293  1
  Ca2+  Ca1  1  0.16869002  0.08210049  0.50196357  1
  Ca2+  Ca2  1  0.17446837  0.08099286  0.84576960  1
  Ca2+  Ca3  1  0.15998269  0.57885135  0.17488794  1
  Ca2+  Ca4  1  0.16560149  0.58273210  0.50169002  1
  Ca2+  Ca5  1  0.16547953  0.58999348  0.83338617  1
  Ca2+  Ca6  1  0.66583911  0.08286955  0.16790795  1
  Ca2+  Ca7  1  0.66117149  0.08089251  0.49826387  1
  Ca2+  Ca8  1  0.67539740  0.07910069  0.84722164  1
  Ca2+  Ca9  1  0.66837694  0.57615545  0.16934145  1
  Ca2+  Ca10  1  0.67563414  0.57346660  0.51223501  1
  Ca2+  Ca11  1  0.67446293  0.57150190  0.83663192  1
  Ca2+  Ca12  1  0.08344145  0.32283455  0.16662960  1
  Ca2+  Ca13  1  0.07494957  0.33346058  0.48929423  1
  Ca2+  Ca14  1  0.07717475  0.32464815  0.82894488  1
  Ca2+  Ca15  1  0.09576697  0.82504133  0.16085137  1
  Ca2+  Ca16  1  0.08376011  0.82369722  0.49567256  1
  Ca2+  Ca17  1  0.08142812  0.82800865  0.82855463  1
  Ca2+  Ca18  1  0.58096702  0.32367560  0.16167968  1
  Ca2+  Ca19  1  0.57775957  0.32948678  0.49111368  1
  Ca2+  Ca20  1  0.59107728  0.33023262  0.83259415  1
  Ca2+  Ca21  1  0.57908242  0.84542137  0.16562520  1
  Ca2+  Ca22  1  0.57606847  0.83333022  0.48913420  1
  Ca2+  Ca23  1  0.58523417  0.83556293  0.83157197  1
  Ca2+  Ca24  1  0.32756448  0.41651183  0.17485813  1
  Ca2+  Ca25  1  0.32597881  0.41606609  0.50298211  1
  Ca2+  Ca26  1  0.33326076  0.42633270  0.83515144  1
  Ca2+  Ca27  1  0.32512905  0.92202425  0.17044129  1
  Ca2+  Ca28  1  0.32878697  0.91971357  0.50087356  1
  Ca2+  Ca29  1  0.32658451  0.92813994  0.84008898  1
  Ca2+  Ca30  1  0.83218889  0.41160957  0.16929546  1
  Ca2+  Ca31  1  0.83415361  0.41712551  0.50879304  1
  Ca2+  Ca32  1  0.82920939  0.41419595  0.83258270  1
  Ca2+  Ca33  1  0.82471255  0.92339717  0.16998340  1
  Ca2+  Ca34  1  0.82944174  0.91369951  0.50218478  1
  Ca2+  Ca35  1  0.83245306  0.92011380  0.84239507  1
  Ca2+  Ca36  1  0.42405850  0.16545741  0.16266664  1
  Ca2+  Ca37  1  0.41997492  0.17084982  0.49120907  1
  Ca2+  Ca38  1  0.42084927  0.15794174  0.83282026  1
  Ca2+  Ca39  1  0.41305372  0.67781416  0.16535343  1
  Ca2+  Ca40  1  0.41456548  0.67002927  0.49487130  1
  Ca2+  Ca41  1  0.41670966  0.66777927  0.82743511  1
  Ca2+  Ca42  1  0.92366604  0.16546993  0.16420968  1
  Ca2+  Ca43  1  0.92031734  0.18079907  0.49245424  1
  Ca2+  Ca44  1  0.91943392  0.16506520  0.83150618  1
  Ca2+  Ca45  1  0.92916485  0.66866309  0.16273601  1
  Ca2+  Ca46  1  0.92310123  0.66637366  0.49895547  1
  Ca2+  Ca47  1  0.92496443  0.67210299  0.82293373  1
  Al0+  Al48  1  0.00015555  -0.00107711  0.00376482  1
  Al0+  Al49  1  -0.00214836  -0.00081220  0.33893166  1
  Al0+  Al50  1  -0.00122957  -0.00225721  0.66178208  1
  Al0+  Al51  1  0.00056577  0.50128877  -0.00642962  1
  Al0+  Al52  1  0.00013711  0.50118487  0.32945946  1
  Al0+  Al53  1  0.00000275  0.49912927  0.66496879  1
  Al0+  Al54  1  0.49814838  0.00176398  -0.00005869  1
  Al0+  Al55  1  0.49996134  -0.00093797  0.33061916  1
  Al0+  Al56  1  0.49917108  -0.00035958  0.66970130  1
  Al0+  Al57  1  0.50053957  0.50159316  0.00452031  1
  Al0+  Al58  1  0.50107021  0.50116759  0.33049563  1
  Al0+  Al59  1  0.49837723  0.49808284  0.67399710  1
  Al0+  Al60  1  0.25066343  0.25393463  -0.00246872  1
  Al0+  Al61  1  0.24906274  0.25156414  0.33242133  1
  Al0+  Al62  1  0.25298379  0.24942445  0.67207456  1
  Al0+  Al63  1  0.25247926  0.75070697  -0.00400884  1
  Al0+  Al64  1  0.25124119  0.75157776  0.32986508  1
  Al0+  Al65  1  0.25056194  0.75046224  0.66698578  1
  Al0+  Al66  1  0.74834975  0.25069046  0.00402569  1
  Al0+  Al67  1  0.74996405  0.25026845  0.32777392  1
  Al0+  Al68  1  0.74993876  0.24599666  0.66498579  1
  Al0+  Al69  1  0.74967379  0.74822113  0.00411357  1
  Al0+  Al70  1  0.75077205  0.74995073  0.33759109  1
  Al0+  Al71  1  0.74943288  0.74769631  0.66675181  1
  Al0+  Al72  1  0.43001282  0.81965677  0.31961938  1
  Al0+  Al73  1  0.06978168  0.68259835  0.31909700  1
  Al0+  Al74  1  0.07137003  0.17745564  0.98640863  1
  Al0+  Al75  1  0.67957678  0.42991581  0.01654038  1
  Al0+  Al76  1  0.92929219  0.31739033  0.65443124  1
  Al0+  Al77  1  0.67892104  0.42560303  0.68080033  1
  Al0+  Al78  1  0.18000792  0.92906889  0.01411455  1
  Al0+  Al79  1  0.07100602  0.17661970  0.32053973  1
  Al0+  Al80  1  0.32030288  0.07488421  0.01713776  1
  Al0+  Al81  1  0.17911984  0.42915171  0.34574259  1
  Al0+  Al82  1  0.31933056  0.57152017  0.67931630  1
  Al0+  Al83  1  0.67838126  0.92709171  0.01443681  1
  Al0+  Al84  1  0.56905227  0.18028431  0.98385486  1
  Al0+  Al85  1  0.32096316  0.07103710  0.68010648  1
  Al0+  Al86  1  0.92913723  0.32311438  0.31680679  1
  Al0+  Al87  1  0.07208154  0.67929782  0.98405046  1
  Al0+  Al88  1  0.17754580  0.92734604  0.34906272  1
  Al0+  Al89  1  0.56964700  0.17891644  0.31773218  1
  Al0+  Al90  1  0.82279399  0.07209831  0.01591315  1
  Al0+  Al91  1  0.42737197  0.32422609  0.31905744  1
  Al0+  Al92  1  0.82333258  0.57121282  0.68245370  1
  Al0+  Al93  1  0.67874511  0.93051781  0.34890631  1
  Al0+  Al94  1  0.92580629  0.82223196  0.65041760  1
  Al0+  Al95  1  0.07273523  0.67976084  0.64948771  1
  Si0+  Si96  1  0.57172314  0.67718203  0.98444882  1
  Si0+  Si97  1  0.82076658  0.06927509  0.67936698  1
  Si0+  Si98  1  0.42831853  0.32585619  0.98060791  1
  Si0+  Si99  1  0.82383282  0.57120316  0.01776762  1
  Si0+  Si100  1  0.82128416  0.07390831  0.35345293  1
  Si0+  Si101  1  0.43093954  0.82062254  0.98228490  1
  Si0+  Si102  1  0.82123717  0.57040596  0.34845171  1
  Si0+  Si103  1  0.07566345  0.17744645  0.65135079  1
  Si0+  Si104  1  0.32110431  0.07159442  0.34932054  1
  Si0+  Si105  1  0.17787860  0.43162133  0.01344182  1
  Si0+  Si106  1  0.17707829  0.42697157  0.68429837  1
  Si0+  Si107  1  0.56957346  0.67631481  0.65375581  1
  Si0+  Si108  1  0.42884583  0.32250286  0.65317015  1
  Si0+  Si109  1  0.32285556  0.57266760  0.34801626  1
  Si0+  Si110  1  0.67887715  0.42862616  0.34797319  1
  Si0+  Si111  1  0.32139594  0.57191448  0.01594706  1
  Si0+  Si112  1  0.92785669  0.32140633  0.98219361  1
  Si0+  Si113  1  0.92492237  0.82225527  0.31591332  1
  Si0+  Si114  1  0.67795228  0.92852590  0.68013192  1
  Si0+  Si115  1  0.56965650  0.17774665  0.65252184  1
  Si0+  Si116  1  0.43174296  0.82150650  0.65251172  1
  Si0+  Si117  1  0.17718212  0.92880566  0.68250188  1
  Si0+  Si118  1  0.92601438  0.82049733  0.98588837  1
  Si0+  Si119  1  0.57508022  0.67803412  0.31724820  1
  O2-  O120  1  0.24471719  0.00662100  0.06626839  1
  O2-  O121  1  0.24936866  0.00600987  0.39450262  1
  O2-  O122  1  0.24091484  0.00218016  0.72625781  1
  O2-  O123  1  0.24854840  0.50293694  0.05660099  1
  O2-  O124  1  0.25711454  0.50134947  0.39204316  1
  O2-  O125  1  0.24312223  0.49926097  0.72781385  1
  O2-  O126  1  0.74926175  0.00002482  0.06389951  1
  O2-  O127  1  0.75232149  0.00483263  0.39803396  1
  O2-  O128  1  0.75403028  -0.00614755  0.72114978  1
  O2-  O129  1  0.75650085  0.50210333  0.06367777  1
  O2-  O130  1  0.74997547  0.49899061  0.39031311  1
  O2-  O131  1  0.75216125  0.49697318  0.73059603  1
  O2-  O132  1  -0.00056506  0.24849491  0.26938468  1
  O2-  O133  1  0.00778066  0.24685679  0.60756619  1
  O2-  O134  1  -0.00563409  0.24988032  0.93871169  1
  O2-  O135  1  -0.00084571  0.76034852  0.27068844  1
  O2-  O136  1  -0.00153636  0.75040406  0.60086176  1
  O2-  O137  1  -0.00328354  0.75440128  0.94050653  1
  O2-  O138  1  0.49803999  0.25179475  0.26857282  1
  O2-  O139  1  0.49981840  0.25075766  0.61181716  1
  O2-  O140  1  0.49447909  0.25490759  0.93536083  1
  O2-  O141  1  0.50653199  0.74647164  0.27241294  1
  O2-  O142  1  0.50074929  0.74861513  0.60987390  1
  O2-  O143  1  0.50532594  0.75209102  0.94084961  1
  O2-  O144  1  0.07171293  0.18026051  0.09887810  1
  O2-  O145  1  0.06992946  0.17947700  0.43475507  1
  O2-  O146  1  0.07453348  0.17783545  0.75721541  1
  O2-  O147  1  0.07168098  0.67761135  0.09718288  1
  O2-  O148  1  0.06875763  0.68084399  0.43176140  1
  O2-  O149  1  0.07361498  0.68495261  0.76322871  1
  O2-  O150  1  0.56786209  0.18132167  0.09626929  1
  O2-  O151  1  0.56797916  0.18024625  0.43265196  1
  O2-  O152  1  0.56991664  0.17581903  0.75729461  1
  O2-  O153  1  0.56833042  0.67404058  0.08930877  1
  O2-  O154  1  0.57371041  0.67763864  0.42331458  1
  O2-  O155  1  0.56832413  0.67841722  0.75905180  1
  O2-  O156  1  0.17876240  0.43251975  0.23230685  1
  O2-  O157  1  0.17992748  0.42399339  0.57889861  1
  O2-  O158  1  0.17933803  0.43258393  0.90813869  1
  O2-  O159  1  0.18176732  0.92483978  0.23644391  1
  O2-  O160  1  0.18069676  0.92792237  0.57685494  1
  O2-  O161  1  0.18336193  0.92742308  0.90002199  1
  O2-  O162  1  0.67846000  0.43153281  0.24298413  1
  O2-  O163  1  0.67685587  0.42755866  0.56686565  1
  O2-  O164  1  0.68017300  0.43169253  0.90345115  1
  O2-  O165  1  0.68067102  0.93025960  0.23653633  1
  O2-  O166  1  0.67321665  0.93149115  0.57529406  1
  O2-  O167  1  0.68123009  0.92665159  0.89984040  1
  O2-  O168  1  0.43014364  0.32863277  0.08578502  1
  O2-  O169  1  0.43022425  0.32473486  0.43363137  1
  O2-  O170  1  0.42820252  0.32409459  0.75795241  1
  O2-  O171  1  0.42896505  0.81751377  0.08719064  1
  O2-  O172  1  0.43090439  0.81771303  0.43354761  1
  O2-  O173  1  0.43461082  0.82203420  0.75768514  1
  O2-  O174  1  0.93159309  0.32480041  0.08737346  1
  O2-  O175  1  0.92887788  0.32348173  0.43088728  1
  O2-  O176  1  0.92845989  0.31242251  0.76757901  1
  O2-  O177  1  0.92289193  0.81639239  0.09124805  1
  O2-  O178  1  0.92211225  0.81651701  0.42134478  1
  O2-  O179  1  0.92620534  0.82440918  0.76426073  1
  O2-  O180  1  0.32237581  0.06922092  0.24426406  1
  O2-  O181  1  0.32456406  0.06894752  0.56707624  1
  O2-  O182  1  0.32071094  0.06918793  0.90293938  1
  O2-  O183  1  0.32187563  0.57356351  0.24215252  1
  O2-  O184  1  0.32225801  0.56956431  0.56656868  1
  O2-  O185  1  0.32317004  0.57137837  0.91061793  1
  O2-  O186  1  0.82178525  0.07285833  0.24823580  1
  O2-  O187  1  0.81713895  0.07243409  0.57470661  1
  O2-  O188  1  0.82150597  0.07012098  0.90100168  1
  O2-  O189  1  0.81923659  0.57139599  0.24312334  1
  O2-  O190  1  0.81934317  0.57045168  0.56838117  1
  O2-  O191  1  0.82184216  0.57181770  0.91254083  1
  O2-  O192  1  0.04208485  0.07707332  0.27011685  1
  O2-  O193  1  0.05090625  0.08347340  0.60643286  1
  O2-  O194  1  0.04333627  0.07930901  0.93306493  1
  O2-  O195  1  0.03525498  0.58798562  0.26386769  1
  O2-  O196  1  0.04816973  0.57903823  0.60010842  1
  O2-  O197  1  0.04173037  0.58351848  0.92785540  1
  O2-  O198  1  0.54191465  0.08096077  0.26535791  1
  O2-  O199  1  0.53836571  0.08662796  0.60484371  1
  O2-  O200  1  0.53871934  0.08295590  0.92920480  1
  O2-  O201  1  0.55033613  0.58505041  0.26978772  1
  O2-  O202  1  0.53927054  0.58477859  0.60729913  1
  O2-  O203  1  0.53845368  0.58762155  0.93548052  1
  O2-  O204  1  0.16912103  0.20407028  0.26800057  1
  O2-  O205  1  0.17061819  0.20221891  0.60767282  1
  O2-  O206  1  0.16698602  0.21283373  0.93125725  1
  O2-  O207  1  0.16751531  0.70902584  0.26554825  1
  O2-  O208  1  0.17170344  0.70962314  0.59715658  1
  O2-  O209  1  0.16958729  0.70934265  0.93081177  1
  O2-  O210  1  0.66762042  0.20648367  0.26515458  1
  O2-  O211  1  0.66120757  0.20255943  0.60360510  1
  O2-  O212  1  0.66716802  0.21152520  0.93175035  1
  O2-  O213  1  0.66867724  0.70315386  0.27171836  1
  O2-  O214  1  0.66169152  0.70082954  0.60601163  1
  O2-  O215  1  0.66535458  0.70116545  0.93849449  1
  O2-  O216  1  0.08590367  0.46012273  0.05950963  1
  O2-  O217  1  0.08326655  0.46408279  0.39927170  1
  O2-  O218  1  0.08297751  0.44911420  0.72989955  1
  O2-  O219  1  0.07953906  0.94674990  0.06559753  1
  O2-  O220  1  0.07934706  0.95191516  0.40339924  1
  O2-  O221  1  0.08092236  0.94838130  0.72546961  1
  O2-  O222  1  0.58440796  0.46537226  0.07086751  1
  O2-  O223  1  0.58668067  0.45712061  0.39514988  1
  O2-  O224  1  0.58206117  0.45521536  0.73616440  1
  O2-  O225  1  0.57917843  0.95554137  0.06371839  1
  O2-  O226  1  0.58119753  0.96049333  0.40294474  1
  O2-  O227  1  0.58879359  0.96053863  0.73055032  1
  O2-  O228  1  0.20603684  0.34043627  0.06089642  1
  O2-  O229  1  0.20695651  0.33276194  0.40243722  1
  O2-  O230  1  0.20701727  0.33540519  0.73290567  1
  O2-  O231  1  0.21762136  0.83204503  0.06535998  1
  O2-  O232  1  0.21582019  0.83259691  0.40283918  1
  O2-  O233  1  0.20863570  0.83751890  0.72942894  1
  O2-  O234  1  0.70739802  0.33376153  0.07092142  1
  O2-  O235  1  0.70492695  0.33575397  0.39377684  1
  O2-  O236  1  0.70809728  0.32655980  0.73255295  1
  O2-  O237  1  0.70262481  0.82772944  0.06814204  1
  O2-  O238  1  0.70823001  0.83265058  0.40312499  1
  O2-  O239  1  0.69845564  0.83412230  0.72521655  1
  O2-  O240  1  0.45500332  0.42277217  0.26508155  1
  O2-  O241  1  0.45636637  0.41416699  0.60545364  1
  O2-  O242  1  0.45826933  0.41953433  0.93540774  1
  O2-  O243  1  0.46051935  0.91486175  0.26451197  1
  O2-  O244  1  0.46282796  0.91187371  0.60390317  1
  O2-  O245  1  0.45631028  0.91274138  0.93466424  1
  O2-  O246  1  0.95783022  0.42010267  0.26232935  1
  O2-  O247  1  0.95493694  0.41565342  0.60197198  1
  O2-  O248  1  0.95639994  0.41363226  0.93402160  1
  O2-  O249  1  0.94246895  0.91934882  0.27643145  1
  O2-  O250  1  0.95113460  0.92079425  0.59488144  1
  O2-  O251  1  0.94883538  0.91514851  0.94137991  1
  O2-  O252  1  0.32838328  0.29963424  0.26719176  1
  O2-  O253  1  0.33680263  0.29421274  0.60591539  1
  O2-  O254  1  0.33342910  0.30595623  0.93451440  1
  O2-  O255  1  0.33649895  0.78651580  0.26189316  1
  O2-  O256  1  0.33925923  0.79551014  0.60651223  1
  O2-  O257  1  0.34232845  0.78766267  0.93155081  1
  O2-  O258  1  0.83073492  0.29603490  0.26421864  1
  O2-  O259  1  0.83393720  0.28346001  0.59851138  1
  O2-  O260  1  0.83278797  0.29800973  0.93903650  1
  O2-  O261  1  0.83353250  0.79036603  0.26873655  1
  O2-  O262  1  0.82637142  0.79361261  0.59804339  1
  O2-  O263  1  0.83286363  0.79264393  0.93841937  1
  O2-  O264  1  0.41715666  0.04121820  0.06841112  1
  O2-  O265  1  0.41336866  0.04124370  0.39599371  1
  O2-  O266  1  0.41513716  0.03370311  0.73634566  1
  O2-  O267  1  0.41196950  0.54424798  0.06518667  1
  O2-  O268  1  0.41869980  0.55193589  0.39275316  1
  O2-  O269  1  0.41363857  0.53914919  0.73811061  1
  O2-  O270  1  0.91965815  0.04332710  0.07052765  1
  O2-  O271  1  0.91373277  0.04884008  0.40216450  1
  O2-  O272  1  0.91462729  0.04575148  0.72543045  1
  O2-  O273  1  0.91842601  0.54516092  0.06171315  1
  O2-  O274  1  0.91260083  0.54179305  0.39521766  1
  O2-  O275  1  0.92232787  0.54493301  0.73453150  1
  O2-  O276  1  0.30064404  0.17750137  0.06355937  1
  O2-  O277  1  0.29898136  0.16646983  0.39480066  1
  O2-  O278  1  0.29875093  0.16878573  0.73606601  1
  O2-  O279  1  0.29565550  0.66484117  0.06118852  1
  O2-  O280  1  0.29472643  0.66508796  0.39458130  1
  O2-  O281  1  0.29296413  0.66918865  0.73490266  1
  O2-  O282  1  0.79473459  0.17002453  0.06820283  1
  O2-  O283  1  0.79302354  0.16812360  0.39791487  1
  O2-  O284  1  0.78871831  0.15799602  0.72981332  1
  O2-  O285  1  0.79664862  0.66331524  0.06586111  1
  O2-  O286  1  0.79355464  0.66130889  0.39766597  1
  O2-  O287  1  0.79130102  0.66876322  0.73616087  1
