# generated using pymatgen
data_Ca2Al2SiO7
_symmetry_space_group_name_H-M   'P 1'
_cell_length_a   15.45690271
_cell_length_b   15.45648780
_cell_length_c   15.28256107
_cell_angle_alpha   90.00230910
_cell_angle_beta   90.00417748
_cell_angle_gamma   90.00003805
_symmetry_Int_Tables_number   1
_chemical_formula_structural   Ca2Al2SiO7
_chemical_formula_sum   'Ca48 Al48 Si24 O168'
_cell_volume   3651.14791338
_cell_formula_units_Z   24
loop_
 _symmetry_equiv_pos_site_id
 _symmetry_equiv_pos_as_xyz
  1  'x, y, z'
loop_
 _atom_type_symbol
 _atom_type_oxidation_number
  Ca2+  2.0
  Al0+  0.0
  Si0+  0.0
  O2-  -2.0
loop_
 _atom_site_type_symbol
 _atom_site_label
 _atom_site_symmetry_multiplicity
 _atom_site_fract_x
 _atom_site_fract_y
 _atom_site_fract_z
 _atom_site_occupancy
  Ca2+  Ca0  1  0.15667670  0.07522754  0.17085881  1
  Ca2+  Ca1  1  0.16843144  0.08582932  0.50348450  1
  Ca2+  Ca2  1  0.16778284  0.08462036  0.83540928  1
  Ca2+  Ca3  1  0.17303851  0.57637440  0.17571319  1
  Ca2+  Ca4  1  0.17497066  0.57689617  0.50449648  1
  Ca2+  Ca5  1  0.16118431  0.56849637  0.83634817  1
  Ca2+  Ca6  1  0.67501223  0.08159134  0.17519328  1
  Ca2+  Ca7  1  0.67867809  0.08079915  0.51000885  1
  Ca2+  Ca8  1  0.67370084  0.07702409  0.83100344  1
  Ca2+  Ca9  1  0.66640526  0.58398090  0.17144111  1
  Ca2+  Ca10  1  0.66540002  0.58267339  0.50312401  1
  Ca2+  Ca11  1  0.65971225  0.57651152  0.83511162  1
  Ca2+  Ca12  1  0.08048220  0.32355127  0.16107962  1
  Ca2+  Ca13  1  0.07660574  0.32409086  0.49561169  1
  Ca2+  Ca14  1  0.08252306  0.32733094  0.82251676  1
  Ca2+  Ca15  1  0.08690792  0.83671304  0.16388915  1
  Ca2+  Ca16  1  0.07829434  0.84027253  0.49679630  1
  Ca2+  Ca17  1  0.08047199  0.83495617  0.82919901  1
  Ca2+  Ca18  1  0.57678719  0.34134224  0.16555674  1
  Ca2+  Ca19  1  0.58029652  0.33518026  0.49557401  1
  Ca2+  Ca20  1  0.58519919  0.33705259  0.82834873  1
  Ca2+  Ca21  1  0.57966977  0.82084732  0.16344292  1
  Ca2+  Ca22  1  0.57625887  0.82980255  0.49607497  1
  Ca2+  Ca23  1  0.58332912  0.82273162  0.81935830  1
  Ca2+  Ca24  1  0.32952045  0.41945221  0.17359770  1
  Ca2+  Ca25  1  0.33353607  0.42017427  0.50427180  1
  Ca2+  Ca26  1  0.31922160  0.41494088  0.83612351  1
  Ca2+  Ca27  1  0.32185171  0.91194346  0.17462635  1
  Ca2+  Ca28  1  0.33195858  0.91648108  0.50582041  1
  Ca2+  Ca29  1  0.33333275  0.92114584  0.83371978  1
  Ca2+  Ca30  1  0.82773413  0.41998344  0.17546592  1
  Ca2+  Ca31  1  0.83480766  0.41871975  0.50675784  1
  Ca2+  Ca32  1  0.82267630  0.40918693  0.83344064  1
  Ca2+  Ca33  1  0.83212556  0.92440578  0.17606180  1
  Ca2+  Ca34  1  0.83222743  0.92769292  0.50876816  1
  Ca2+  Ca35  1  0.83577996  0.91772813  0.82816676  1
  Ca2+  Ca36  1  0.41471007  0.17400548  0.16787164  1
  Ca2+  Ca37  1  0.41513933  0.17078183  0.49663967  1
  Ca2+  Ca38  1  0.41567366  0.16560646  0.82646364  1
  Ca2+  Ca39  1  0.42266907  0.66450536  0.16740192  1
  Ca2+  Ca40  1  0.42552774  0.67290637  0.49201279  1
  Ca2+  Ca41  1  0.42649449  0.67285758  0.82520344  1
  Ca2+  Ca42  1  0.92424588  0.16656603  0.16821819  1
  Ca2+  Ca43  1  0.91830265  0.17312742  0.49418628  1
  Ca2+  Ca44  1  0.92906899  0.16956148  0.82193946  1
  Ca2+  Ca45  1  0.91376774  0.66635717  0.16753657  1
  Ca2+  Ca46  1  0.91303571  0.67131855  0.49727625  1
  Ca2+  Ca47  1  0.91815789  0.67384515  0.82550821  1
  Al0+  Al48  1  0.00112828  0.00193930  -0.00115675  1
  Al0+  Al49  1  -0.00110637  0.00024347  0.33824242  1
  Al0+  Al50  1  0.00253076  -0.00063634  0.66346636  1
  Al0+  Al51  1  -0.00198644  0.50028827  0.00400971  1
  Al0+  Al52  1  -0.00234024  0.49993862  0.33430110  1
  Al0+  Al53  1  0.00021270  0.49965692  0.66780760  1
  Al0+  Al54  1  0.50072067  0.00149081  0.00215477  1
  Al0+  Al55  1  0.49722891  -0.00087189  0.32665261  1
  Al0+  Al56  1  0.50012523  0.00004547  0.67143798  1
  Al0+  Al57  1  0.50007640  0.50040785  -0.00164998  1
  Al0+  Al58  1  0.49883924  0.49995884  0.32951539  1
  Al0+  Al59  1  0.50051425  0.50116820  0.66802841  1
  Al0+  Al60  1  0.25020697  0.24993075  0.00111800  1
  Al0+  Al61  1  0.24904150  0.24691295  0.32383540  1
  Al0+  Al62  1  0.25041839  0.24924095  0.67067188  1
  Al0+  Al63  1  0.24978120  0.75111144  0.00056710  1
  Al0+  Al64  1  0.24910799  0.74898069  0.33992494  1
  Al0+  Al65  1  0.25199407  0.74972476  0.66572985  1
  Al0+  Al66  1  0.74859642  0.25097874  0.00604405  1
  Al0+  Al67  1  0.75048245  0.25027822  0.33294761  1
  Al0+  Al68  1  0.75113161  0.25079191  0.67235769  1
  Al0+  Al69  1  0.74913514  0.75047072  -0.00453907  1
  Al0+  Al70  1  0.74946408  0.74856687  0.33249013  1
  Al0+  Al71  1  0.75183407  0.74930234  0.66147555  1
  Al0+  Al72  1  0.17981676  0.42997423  0.67791239  1
  Al0+  Al73  1  0.07386052  0.17937170  0.65046883  1
  Al0+  Al74  1  0.18002491  0.93093206  0.01281598  1
  Al0+  Al75  1  0.82426910  0.07169647  0.68321259  1
  Al0+  Al76  1  0.17959284  0.92938485  0.34895876  1
  Al0+  Al77  1  0.67857026  0.42981361  0.01586968  1
  Al0+  Al78  1  0.57131149  0.67980118  0.31620391  1
  Al0+  Al79  1  0.32138333  0.56895461  0.34763075  1
  Al0+  Al80  1  0.42938448  0.32038014  0.32075226  1
  Al0+  Al81  1  0.57127016  0.67704572  0.64924912  1
  Al0+  Al82  1  0.57035196  0.67990975  0.98311628  1
  Al0+  Al83  1  0.81926665  0.07121205  0.34760230  1
  Al0+  Al84  1  0.67871878  0.43026149  0.67915812  1
  Al0+  Al85  1  0.32087326  0.07070593  0.67921598  1
  Al0+  Al86  1  0.42531250  0.82195417  0.31633037  1
  Al0+  Al87  1  0.06940467  0.17779035  0.31649643  1
  Al0+  Al88  1  0.68007080  0.92789955  0.68023720  1
  Al0+  Al89  1  0.92722898  0.32358669  0.31655230  1
  Al0+  Al90  1  0.82133096  0.57137675  0.34807133  1
  Al0+  Al91  1  0.93158277  0.82021507  0.65202820  1
  Al0+  Al92  1  0.06978287  0.18021565  0.98373515  1
  Al0+  Al93  1  0.42900624  0.82361032  0.65158303  1
  Al0+  Al94  1  0.92727725  0.32114188  0.65251881  1
  Al0+  Al95  1  0.17698822  0.42753891  0.01578308  1
  Si0+  Si96  1  0.57291779  0.17809223  0.98450524  1
  Si0+  Si97  1  0.42922864  0.32029211  0.65496352  1
  Si0+  Si98  1  0.07118757  0.67839558  0.31978146  1
  Si0+  Si99  1  0.67882093  0.92758704  0.01524316  1
  Si0+  Si100  1  0.07195456  0.67778967  0.98722672  1
  Si0+  Si101  1  0.07341062  0.67591361  0.65013437  1
  Si0+  Si102  1  0.17864865  0.92600373  0.68357684  1
  Si0+  Si103  1  0.93009024  0.82046195  0.31847324  1
  Si0+  Si104  1  0.67611881  0.92783488  0.34741090  1
  Si0+  Si105  1  0.42700468  0.82339445  0.98276303  1
  Si0+  Si106  1  0.32268969  0.57271790  0.68472698  1
  Si0+  Si107  1  0.31995005  0.57072213  0.01544282  1
  Si0+  Si108  1  0.82313559  0.57249681  0.68384343  1
  Si0+  Si109  1  0.92643513  0.32349247  0.98362576  1
  Si0+  Si110  1  0.17795720  0.42534076  0.34875673  1
  Si0+  Si111  1  0.43035546  0.31999898  0.98340216  1
  Si0+  Si112  1  0.82086484  0.57515127  0.01615905  1
  Si0+  Si113  1  0.32459310  0.07279519  0.01931656  1
  Si0+  Si114  1  0.67774193  0.42906539  0.34950507  1
  Si0+  Si115  1  0.57178180  0.17934715  0.65511418  1
  Si0+  Si116  1  0.82055852  0.06940136  0.01526284  1
  Si0+  Si117  1  0.57311027  0.17726076  0.31754735  1
  Si0+  Si118  1  0.92991035  0.82156027  0.98667731  1
  Si0+  Si119  1  0.32287162  0.07296498  0.34836287  1
  O2-  O120  1  0.25618243  0.00311355  0.06151209  1
  O2-  O121  1  0.25706354  0.00230755  0.39274465  1
  O2-  O122  1  0.24779845  -0.00536377  0.72672324  1
  O2-  O123  1  0.24988726  0.50437027  0.06147121  1
  O2-  O124  1  0.24831453  0.49198664  0.39368503  1
  O2-  O125  1  0.25123369  0.50669909  0.72844000  1
  O2-  O126  1  0.74881458  -0.00104375  0.05832479  1
  O2-  O127  1  0.74037733  -0.00003862  0.39183914  1
  O2-  O128  1  0.75348297  -0.00236740  0.73309221  1
  O2-  O129  1  0.75374939  0.50488894  0.05994512  1
  O2-  O130  1  0.74829942  0.49502273  0.39385513  1
  O2-  O131  1  0.75392116  0.50416041  0.72758192  1
  O2-  O132  1  -0.00008531  0.25257368  0.26623195  1
  O2-  O133  1  -0.00234958  0.24788306  0.60255772  1
  O2-  O134  1  -0.00189391  0.25868101  0.93868287  1
  O2-  O135  1  0.00058941  0.74939510  0.27524299  1
  O2-  O136  1  0.00748443  0.74662679  0.60524142  1
  O2-  O137  1  0.00037005  0.74883559  0.94591298  1
  O2-  O138  1  0.50464583  0.24620943  0.27283565  1
  O2-  O139  1  0.50208972  0.25141556  0.61267867  1
  O2-  O140  1  0.50094924  0.24802373  0.94165458  1
  O2-  O141  1  0.49869503  0.75153860  0.26594990  1
  O2-  O142  1  0.50033187  0.75120000  0.60187594  1
  O2-  O143  1  0.49746248  0.75721287  0.93823629  1
  O2-  O144  1  0.06494872  0.17692117  0.09636982  1
  O2-  O145  1  0.07042845  0.17901609  0.42941896  1
  O2-  O146  1  0.07468395  0.18231572  0.76465471  1
  O2-  O147  1  0.07265369  0.67802804  0.09230923  1
  O2-  O148  1  0.06995471  0.67862447  0.42461808  1
  O2-  O149  1  0.07118696  0.67547520  0.75655972  1
  O2-  O150  1  0.57285366  0.17703563  0.08953287  1
  O2-  O151  1  0.57295045  0.17722410  0.42314986  1
  O2-  O152  1  0.57020893  0.18040668  0.76074266  1
  O2-  O153  1  0.57079571  0.68103650  0.09584894  1
  O2-  O154  1  0.57137663  0.68027018  0.42904689  1
  O2-  O155  1  0.56764991  0.67598945  0.76347957  1
  O2-  O156  1  0.17947891  0.42920488  0.24270241  1
  O2-  O157  1  0.18438206  0.43111029  0.56505527  1
  O2-  O158  1  0.17843196  0.42856836  0.90247560  1
  O2-  O159  1  0.17782527  0.92993717  0.23525621  1
  O2-  O160  1  0.17929702  0.92510104  0.57831432  1
  O2-  O161  1  0.17941537  0.93050539  0.90012540  1
  O2-  O162  1  0.67782379  0.43082109  0.24351292  1
  O2-  O163  1  0.67592697  0.42974400  0.56655923  1
  O2-  O164  1  0.67904675  0.42887390  0.90291826  1
  O2-  O165  1  0.68075155  0.92871535  0.24074218  1
  O2-  O166  1  0.67961194  0.93268419  0.56674562  1
  O2-  O167  1  0.67941387  0.92784514  0.91060839  1
  O2-  O168  1  0.43138275  0.31986494  0.08854291  1
  O2-  O169  1  0.43050735  0.31924414  0.43426294  1
  O2-  O170  1  0.42929312  0.31895790  0.76047556  1
  O2-  O171  1  0.42624227  0.82163750  0.08805748  1
  O2-  O172  1  0.42753286  0.82268125  0.42938846  1
  O2-  O173  1  0.42896407  0.82160729  0.76593753  1
  O2-  O174  1  0.92622479  0.32214633  0.08901281  1
  O2-  O175  1  0.92747384  0.32344732  0.42971028  1
  O2-  O176  1  0.92824874  0.32069789  0.76673958  1
  O2-  O177  1  0.92888148  0.82181505  0.09197152  1
  O2-  O178  1  0.93060796  0.82000009  0.42309989  1
  O2-  O179  1  0.93386908  0.81831851  0.76628181  1
  O2-  O180  1  0.32281555  0.07364529  0.24268948  1
  O2-  O181  1  0.32090073  0.07373393  0.56644436  1
  O2-  O182  1  0.32687053  0.07244080  0.91370960  1
  O2-  O183  1  0.31857157  0.56750621  0.23387510  1
  O2-  O184  1  0.32328687  0.57014636  0.57926393  1
  O2-  O185  1  0.31805484  0.56890704  0.90982651  1
  O2-  O186  1  0.81898089  0.06699680  0.23335594  1
  O2-  O187  1  0.82041656  0.07216415  0.56983830  1
  O2-  O188  1  0.81997891  0.06783579  0.91062296  1
  O2-  O189  1  0.81974954  0.57295029  0.23450036  1
  O2-  O190  1  0.82422060  0.57125471  0.57844175  1
  O2-  O191  1  0.82232925  0.57842153  0.91093640  1
  O2-  O192  1  0.03404562  0.07987310  0.26488864  1
  O2-  O193  1  0.05274208  0.07866356  0.60129945  1
  O2-  O194  1  0.03659461  0.08413896  0.92951757  1
  O2-  O195  1  0.04321867  0.58722987  0.27085357  1
  O2-  O196  1  0.04625688  0.58376294  0.60300910  1
  O2-  O197  1  0.04290369  0.58624666  0.93904733  1
  O2-  O198  1  0.54821961  0.08466624  0.26808636  1
  O2-  O199  1  0.54295932  0.08870283  0.60759246  1
  O2-  O200  1  0.54631471  0.08544748  0.93714464  1
  O2-  O201  1  0.54150358  0.58171350  0.26321254  1
  O2-  O202  1  0.53974534  0.57910735  0.59699320  1
  O2-  O203  1  0.53765321  0.58312320  0.93047752  1
  O2-  O204  1  0.16796434  0.20050982  0.26068652  1
  O2-  O205  1  0.17136865  0.21251260  0.59854548  1
  O2-  O206  1  0.16979126  0.20667902  0.93438421  1
  O2-  O207  1  0.16247509  0.70629875  0.27211063  1
  O2-  O208  1  0.16866477  0.69769408  0.60653593  1
  O2-  O209  1  0.16284623  0.70564111  0.93796296  1
  O2-  O210  1  0.66586755  0.20261270  0.26969581  1
  O2-  O211  1  0.66329409  0.20710639  0.60830068  1
  O2-  O212  1  0.66475447  0.20737620  0.93816918  1
  O2-  O213  1  0.66970235  0.70956420  0.26188784  1
  O2-  O214  1  0.67103181  0.70111400  0.59909501  1
  O2-  O215  1  0.66757828  0.70969835  0.92935246  1
  O2-  O216  1  0.07979394  0.45719519  0.06898024  1
  O2-  O217  1  0.08509493  0.45361072  0.39350865  1
  O2-  O218  1  0.08373059  0.46026635  0.73453845  1
  O2-  O219  1  0.08297710  0.96209767  0.06708873  1
  O2-  O220  1  0.08375779  0.96117343  0.40287055  1
  O2-  O221  1  0.08534274  0.95130706  0.72979498  1
  O2-  O222  1  0.58100660  0.46092858  0.06801964  1
  O2-  O223  1  0.58417579  0.45559432  0.39424873  1
  O2-  O224  1  0.58219188  0.46032592  0.73580709  1
  O2-  O225  1  0.58683299  0.95502561  0.06297799  1
  O2-  O226  1  0.57988192  0.94953196  0.38852347  1
  O2-  O227  1  0.58385690  0.95854878  0.73674151  1
  O2-  O228  1  0.21145259  0.33213881  0.06928904  1
  O2-  O229  1  0.20301943  0.32996782  0.38967437  1
  O2-  O230  1  0.21483127  0.33648139  0.73531960  1
  O2-  O231  1  0.20711614  0.83246840  0.06687731  1
  O2-  O232  1  0.20519161  0.83233034  0.40383714  1
  O2-  O233  1  0.20265576  0.83146453  0.73035202  1
  O2-  O234  1  0.70600329  0.33283002  0.07176645  1
  O2-  O235  1  0.69853700  0.33348515  0.39302791  1
  O2-  O236  1  0.70736986  0.33443264  0.73704662  1
  O2-  O237  1  0.70888054  0.83634727  0.06242983  1
  O2-  O238  1  0.70511697  0.83571274  0.39240668  1
  O2-  O239  1  0.70984114  0.82878745  0.73187600  1
  O2-  O240  1  0.46024953  0.41490832  0.26271157  1
  O2-  O241  1  0.45524762  0.41253784  0.60839774  1
  O2-  O242  1  0.45828919  0.41129134  0.93569931  1
  O2-  O243  1  0.44916466  0.92110948  0.26103094  1
  O2-  O244  1  0.45679633  0.92291035  0.60057866  1
  O2-  O245  1  0.45101342  0.91939258  0.94058885  1
  O2-  O246  1  0.95312556  0.42326361  0.26396894  1
  O2-  O247  1  0.95590801  0.42033393  0.60168299  1
  O2-  O248  1  0.94637178  0.41989316  0.94040074  1
  O2-  O249  1  0.95880765  0.91163630  0.27065471  1
  O2-  O250  1  0.96161739  0.91596526  0.59690182  1
  O2-  O251  1  0.96010611  0.91170586  0.93815340  1
  O2-  O252  1  0.33501598  0.28939587  0.26190360  1
  O2-  O253  1  0.33951851  0.28986524  0.60666430  1
  O2-  O254  1  0.33830150  0.29191971  0.93663479  1
  O2-  O255  1  0.32643824  0.78926980  0.26628671  1
  O2-  O256  1  0.32952821  0.79653084  0.60017299  1
  O2-  O257  1  0.33360823  0.79664022  0.93615580  1
  O2-  O258  1  0.82832683  0.29438957  0.26384805  1
  O2-  O259  1  0.82741130  0.29512521  0.60146404  1
  O2-  O260  1  0.83229725  0.29391011  0.94033715  1
  O2-  O261  1  0.83860057  0.79274105  0.26972682  1
  O2-  O262  1  0.83636117  0.79001648  0.59628008  1
  O2-  O263  1  0.83874166  0.79467283  0.93749944  1
  O2-  O264  1  0.41923195  0.05027607  0.06599233  1
  O2-  O265  1  0.41880316  0.05191990  0.39223204  1
  O2-  O266  1  0.41666649  0.04267582  0.73745575  1
  O2-  O267  1  0.41270318  0.54176712  0.06085117  1
  O2-  O268  1  0.41786459  0.53747901  0.40072266  1
  O2-  O269  1  0.41410782  0.54304668  0.73249976  1
  O2-  O270  1  0.91114468  0.03854093  0.06270594  1
  O2-  O271  1  0.91257402  0.03568915  0.40261341  1
  O2-  O272  1  0.92302770  0.04076134  0.73446836  1
  O2-  O273  1  0.91496127  0.55261563  0.06325180  1
  O2-  O274  1  0.91888280  0.54502774  0.40271893  1
  O2-  O275  1  0.91683263  0.54870441  0.73137522  1
  O2-  O276  1  0.29900896  0.16664404  0.06403821  1
  O2-  O277  1  0.29527448  0.16665848  0.39354536  1
  O2-  O278  1  0.29032597  0.16561301  0.73776359  1
  O2-  O279  1  0.29641045  0.66525856  0.06050610  1
  O2-  O280  1  0.28832841  0.66305020  0.40384617  1
  O2-  O281  1  0.29982565  0.66725158  0.73046746  1
  O2-  O282  1  0.79182432  0.16055169  0.06337692  1
  O2-  O283  1  0.79089925  0.16880053  0.40026667  1
  O2-  O284  1  0.79240357  0.16772333  0.73872546  1
  O2-  O285  1  0.79371597  0.66864648  0.06295527  1
  O2-  O286  1  0.79072270  0.66849538  0.40142840  1
  O2-  O287  1  0.79900332  0.66667352  0.72907250  1
