# generated using pymatgen
data_Ca2Al2SiO7
_symmetry_space_group_name_H-M   'P 1'
_cell_length_a   15.46756144
_cell_length_b   15.46538405
_cell_length_c   15.29014947
_cell_angle_alpha   89.99923246
_cell_angle_beta   90.00127080
_cell_angle_gamma   89.99367816
_symmetry_Int_Tables_number   1
_chemical_formula_structural   Ca2Al2SiO7
_chemical_formula_sum   'Ca48 Al48 Si24 O168'
_cell_volume   3657.58381737
_cell_formula_units_Z   24
loop_
 _symmetry_equiv_pos_site_id
 _symmetry_equiv_pos_as_xyz
  1  'x, y, z'
loop_
 _atom_type_symbol
 _atom_type_oxidation_number
  Ca2+  2.0
  Al0+  0.0
  Si0+  0.0
  O2-  -2.0
loop_
 _atom_site_type_symbol
 _atom_site_label
 _atom_site_symmetry_multiplicity
 _atom_site_fract_x
 _atom_site_fract_y
 _atom_site_fract_z
 _atom_site_occupancy
  Ca2+  Ca0  1  0.17247804  0.08705851  0.17819087  1
  Ca2+  Ca1  1  0.17708384  0.08732977  0.50747323  1
  Ca2+  Ca2  1  0.17307018  0.07988348  0.82912003  1
  Ca2+  Ca3  1  0.16936654  0.58313450  0.17081464  1
  Ca2+  Ca4  1  0.16881516  0.57587869  0.50869008  1
  Ca2+  Ca5  1  0.16748186  0.57863148  0.83027614  1
  Ca2+  Ca6  1  0.66449226  0.07894626  0.17262151  1
  Ca2+  Ca7  1  0.66730235  0.08445926  0.50532934  1
  Ca2+  Ca8  1  0.65520844  0.07339623  0.83474609  1
  Ca2+  Ca9  1  0.67471845  0.57429247  0.17512984  1
  Ca2+  Ca10  1  0.67167667  0.58278855  0.50240565  1
  Ca2+  Ca11  1  0.67513383  0.58278457  0.83820693  1
  Ca2+  Ca12  1  0.07588510  0.32845628  0.16947408  1
  Ca2+  Ca13  1  0.07290901  0.33402896  0.49615940  1
  Ca2+  Ca14  1  0.07693516  0.33566006  0.82287998  1
  Ca2+  Ca15  1  0.07222455  0.83209295  0.15940063  1
  Ca2+  Ca16  1  0.07806968  0.84128269  0.50132435  1
  Ca2+  Ca17  1  0.07030933  0.83519587  0.82504188  1
  Ca2+  Ca18  1  0.59864124  0.32268165  0.16511405  1
  Ca2+  Ca19  1  0.58405007  0.32250635  0.49448669  1
  Ca2+  Ca20  1  0.58530099  0.32282130  0.82616961  1
  Ca2+  Ca21  1  0.59136575  0.82764834  0.16462357  1
  Ca2+  Ca22  1  0.58903067  0.82488361  0.50467160  1
  Ca2+  Ca23  1  0.58678781  0.83051889  0.82021306  1
  Ca2+  Ca24  1  0.33094358  0.41519530  0.17115407  1
  Ca2+  Ca25  1  0.32649437  0.40923456  0.50974519  1
  Ca2+  Ca26  1  0.32874479  0.40616339  0.82956467  1
  Ca2+  Ca27  1  0.32928747  0.92486190  0.17569762  1
  Ca2+  Ca28  1  0.33096118  0.92651697  0.51192328  1
  Ca2+  Ca29  1  0.33825354  0.91999080  0.83014951  1
  Ca2+  Ca30  1  0.82415419  0.42202395  0.17562978  1
  Ca2+  Ca31  1  0.83578616  0.42375294  0.50464004  1
  Ca2+  Ca32  1  0.82926238  0.42655447  0.83705720  1
  Ca2+  Ca33  1  0.82938916  0.92067095  0.16852505  1
  Ca2+  Ca34  1  0.83019260  0.92441026  0.50731820  1
  Ca2+  Ca35  1  0.82330793  0.91049358  0.83598619  1
  Ca2+  Ca36  1  0.42743495  0.16404029  0.16660080  1
  Ca2+  Ca37  1  0.42420519  0.16090438  0.50011103  1
  Ca2+  Ca38  1  0.42730385  0.16840956  0.82408218  1
  Ca2+  Ca39  1  0.42650344  0.66565973  0.16579822  1
  Ca2+  Ca40  1  0.43044678  0.66950823  0.49680065  1
  Ca2+  Ca41  1  0.42852077  0.67510395  0.81967388  1
  Ca2+  Ca42  1  0.91077575  0.16971717  0.17136909  1
  Ca2+  Ca43  1  0.91727482  0.17866448  0.48914019  1
  Ca2+  Ca44  1  0.91665790  0.17704205  0.82396019  1
  Ca2+  Ca45  1  0.90678402  0.66925930  0.16238023  1
  Ca2+  Ca46  1  0.90777979  0.66990112  0.50092020  1
  Ca2+  Ca47  1  0.90610531  0.67390819  0.82729031  1
  Al0+  Al48  1  0.00087484  -0.00108649  -0.00534241  1
  Al0+  Al49  1  -0.00143074  -0.00036353  0.33168323  1
  Al0+  Al50  1  0.00125264  0.00101006  0.66707298  1
  Al0+  Al51  1  0.00332689  0.50048926  0.00443486  1
  Al0+  Al52  1  -0.00000396  0.50174503  0.33093596  1
  Al0+  Al53  1  0.00015152  0.50171110  0.67223637  1
  Al0+  Al54  1  0.49915397  0.00028462  0.00342202  1
  Al0+  Al55  1  0.49657424  -0.00071320  0.33388406  1
  Al0+  Al56  1  0.50075090  -0.00071407  0.66699868  1
  Al0+  Al57  1  0.49797975  0.49869755  0.00236771  1
  Al0+  Al58  1  0.49974577  0.50126085  0.33145376  1
  Al0+  Al59  1  0.50063205  0.49823785  0.65992015  1
  Al0+  Al60  1  0.25021657  0.24945565  0.00128877  1
  Al0+  Al61  1  0.24995037  0.24944457  0.33370115  1
  Al0+  Al62  1  0.25033517  0.24918167  0.67561830  1
  Al0+  Al63  1  0.24894679  0.74975339  0.00106399  1
  Al0+  Al64  1  0.24846094  0.75027031  0.33242137  1
  Al0+  Al65  1  0.24881429  0.74966687  0.66809648  1
  Al0+  Al66  1  0.75208359  0.24855230  -0.00476120  1
  Al0+  Al67  1  0.74868300  0.24920752  0.33139601  1
  Al0+  Al68  1  0.75171338  0.25240455  0.65898677  1
  Al0+  Al69  1  0.74950082  0.75160680  0.00388517  1
  Al0+  Al70  1  0.74895371  0.74868527  0.33122489  1
  Al0+  Al71  1  0.75235570  0.75172545  0.66454174  1
  Al0+  Al72  1  0.67810785  0.93110102  0.01420268  1
  Al0+  Al73  1  0.32001115  0.07098975  0.34816167  1
  Al0+  Al74  1  0.42732766  0.82143125  0.65208473  1
  Al0+  Al75  1  0.92797652  0.32335153  0.31631803  1
  Al0+  Al76  1  0.57140769  0.17891666  0.98639710  1
  Al0+  Al77  1  0.82093427  0.57101551  0.01536328  1
  Al0+  Al78  1  0.56993329  0.17781527  0.31856382  1
  Al0+  Al79  1  0.68254201  0.93205256  0.67811455  1
  Al0+  Al80  1  0.07107824  0.17894509  0.31976187  1
  Al0+  Al81  1  0.92873968  0.81886325  0.98540341  1
  Al0+  Al82  1  0.67792918  0.42628572  0.01335703  1
  Al0+  Al83  1  0.18032941  0.43020341  0.67986798  1
  Al0+  Al84  1  0.32207479  0.07006860  0.68481749  1
  Al0+  Al85  1  0.57425466  0.67787638  0.65252233  1
  Al0+  Al86  1  0.82186522  0.57118217  0.35075683  1
  Al0+  Al87  1  0.57094481  0.67949020  0.31665788  1
  Al0+  Al88  1  0.93006516  0.82218438  0.65182250  1
  Al0+  Al89  1  0.81856905  0.57035330  0.68081240  1
  Al0+  Al90  1  0.82028083  0.06964480  0.34614216  1
  Al0+  Al91  1  0.67723743  0.42778103  0.35035286  1
  Al0+  Al92  1  0.42710066  0.32005373  0.65260290  1
  Al0+  Al93  1  0.93043988  0.32390348  0.65401503  1
  Al0+  Al94  1  0.17680122  0.92659038  0.68320038  1
  Al0+  Al95  1  0.57152083  0.17853528  0.65062742  1
  Si0+  Si96  1  0.42548329  0.82019204  0.31540662  1
  Si0+  Si97  1  0.32075032  0.57306599  0.34796771  1
  Si0+  Si98  1  0.18055125  0.43034253  0.34714749  1
  Si0+  Si99  1  0.32044894  0.57285109  0.01544688  1
  Si0+  Si100  1  0.93181981  0.32162033  0.98479527  1
  Si0+  Si101  1  0.07286490  0.67940843  0.31811158  1
  Si0+  Si102  1  0.18026467  0.42787208  0.01769959  1
  Si0+  Si103  1  0.67698417  0.92740329  0.35031667  1
  Si0+  Si104  1  0.07462103  0.67684872  0.98205134  1
  Si0+  Si105  1  0.17783829  0.92878817  0.01577810  1
  Si0+  Si106  1  0.42709470  0.32241321  0.31635060  1
  Si0+  Si107  1  0.92887849  0.82084529  0.31773720  1
  Si0+  Si108  1  0.42544935  0.32207382  0.98391375  1
  Si0+  Si109  1  0.17679786  0.92677952  0.34862756  1
  Si0+  Si110  1  0.07435207  0.17943228  0.98349454  1
  Si0+  Si111  1  0.32515859  0.57240472  0.68211134  1
  Si0+  Si112  1  0.07155388  0.17889624  0.65224579  1
  Si0+  Si113  1  0.07140515  0.67775914  0.65071477  1
  Si0+  Si114  1  0.82573448  0.07210652  0.01429622  1
  Si0+  Si115  1  0.82309719  0.07586616  0.68214131  1
  Si0+  Si116  1  0.42700617  0.82044323  0.98711520  1
  Si0+  Si117  1  0.56926688  0.67934080  0.98642057  1
  Si0+  Si118  1  0.67643105  0.42584217  0.68202773  1
  Si0+  Si119  1  0.31919370  0.07006597  0.01725000  1
  O2-  O120  1  0.24705228  0.00012400  0.05998569  1
  O2-  O121  1  0.24367516  -0.00327573  0.39180458  1
  O2-  O122  1  0.25187500  -0.00504541  0.73430130  1
  O2-  O123  1  0.25123416  0.49977978  0.05848228  1
  O2-  O124  1  0.25253331  0.49984912  0.38979200  1
  O2-  O125  1  0.25872024  0.50148989  0.72748420  1
  O2-  O126  1  0.75344763  0.00660964  0.05800067  1
  O2-  O127  1  0.74290729  -0.00126199  0.39365642  1
  O2-  O128  1  0.75420652  0.00848425  0.72762371  1
  O2-  O129  1  0.74995624  0.49791044  0.06443665  1
  O2-  O130  1  0.75167539  0.49749435  0.40011674  1
  O2-  O131  1  0.74186510  0.49746884  0.72669606  1
  O2-  O132  1  -0.00246528  0.24765630  0.26667080  1
  O2-  O133  1  0.00188191  0.24583951  0.60824099  1
  O2-  O134  1  0.00203784  0.24934752  0.94216365  1
  O2-  O135  1  -0.00026855  0.74841590  0.27662053  1
  O2-  O136  1  0.00773051  0.75017204  0.60529296  1
  O2-  O137  1  0.00151053  0.74101577  0.93967611  1
  O2-  O138  1  0.49833080  0.25667241  0.27180409  1
  O2-  O139  1  0.49966871  0.25095234  0.60079671  1
  O2-  O140  1  0.49971365  0.25839407  0.94271352  1
  O2-  O141  1  0.49650402  0.75501887  0.26928082  1
  O2-  O142  1  0.49801078  0.74729735  0.60387555  1
  O2-  O143  1  0.49879192  0.75088314  0.94474176  1
  O2-  O144  1  0.07852140  0.18095596  0.08817129  1
  O2-  O145  1  0.07248858  0.18286464  0.43277149  1
  O2-  O146  1  0.06942237  0.18067044  0.75880773  1
  O2-  O147  1  0.08023312  0.68006204  0.08782634  1
  O2-  O148  1  0.07884718  0.67956537  0.42232684  1
  O2-  O149  1  0.06939507  0.67577652  0.75644054  1
  O2-  O150  1  0.56786498  0.17659435  0.09952049  1
  O2-  O151  1  0.56741146  0.17507144  0.43069085  1
  O2-  O152  1  0.57093031  0.17926475  0.76475015  1
  O2-  O153  1  0.56652197  0.68021467  0.09158168  1
  O2-  O154  1  0.57009282  0.68091350  0.42905156  1
  O2-  O155  1  0.57358996  0.67968044  0.76714947  1
  O2-  O156  1  0.18272966  0.43225290  0.24134890  1
  O2-  O157  1  0.17916103  0.43255483  0.56663578  1
  O2-  O158  1  0.17959164  0.42690582  0.91299104  1
  O2-  O159  1  0.17914792  0.92460863  0.24223798  1
  O2-  O160  1  0.17562928  0.93080266  0.56952446  1
  O2-  O161  1  0.17897396  0.92847362  0.91161860  1
  O2-  O162  1  0.67884927  0.43021803  0.23625692  1
  O2-  O163  1  0.67856276  0.42414990  0.57699543  1
  O2-  O164  1  0.67852202  0.42790839  0.89971951  1
  O2-  O165  1  0.67945725  0.92732175  0.24403749  1
  O2-  O166  1  0.68553710  0.93082135  0.56519007  1
  O2-  O167  1  0.67680794  0.92918067  0.90148331  1
  O2-  O168  1  0.41676009  0.31944438  0.08900267  1
  O2-  O169  1  0.42316726  0.32130805  0.42112992  1
  O2-  O170  1  0.42839047  0.31818391  0.76679471  1
  O2-  O171  1  0.42411914  0.81772499  0.09225769  1
  O2-  O172  1  0.42062636  0.81607456  0.41998086  1
  O2-  O173  1  0.43051279  0.81908358  0.76683066  1
  O2-  O174  1  0.93374367  0.32093857  0.08943201  1
  O2-  O175  1  0.93351238  0.32600835  0.42952359  1
  O2-  O176  1  0.93244018  0.32302577  0.76802892  1
  O2-  O177  1  0.93251335  0.82060713  0.09899499  1
  O2-  O178  1  0.93039835  0.82224048  0.42244032  1
  O2-  O179  1  0.92859659  0.81926514  0.76498047  1
  O2-  O180  1  0.31860683  0.06882684  0.23396622  1
  O2-  O181  1  0.31884156  0.07118864  0.57143377  1
  O2-  O182  1  0.31903597  0.06956109  0.91287641  1
  O2-  O183  1  0.31733324  0.57385859  0.24212610  1
  O2-  O184  1  0.32094967  0.57340791  0.57654792  1
  O2-  O185  1  0.31942944  0.57570228  0.91112237  1
  O2-  O186  1  0.82131284  0.06475202  0.23252499  1
  O2-  O187  1  0.82355506  0.07386533  0.57660259  1
  O2-  O188  1  0.82943568  0.07177306  0.90896860  1
  O2-  O189  1  0.82064541  0.57225472  0.23703371  1
  O2-  O190  1  0.82035606  0.56942244  0.56826375  1
  O2-  O191  1  0.81953872  0.57070376  0.90178253  1
  O2-  O192  1  0.04606044  0.07919117  0.26605606  1
  O2-  O193  1  0.05069759  0.08497323  0.60653864  1
  O2-  O194  1  0.04934176  0.08671354  0.93717920  1
  O2-  O195  1  0.04855680  0.58775036  0.26850000  1
  O2-  O196  1  0.04147722  0.58616619  0.60365777  1
  O2-  O197  1  0.05561597  0.58015896  0.93981797  1
  O2-  O198  1  0.53488198  0.08135344  0.26451210  1
  O2-  O199  1  0.54323184  0.08021789  0.59928851  1
  O2-  O200  1  0.53421606  0.08300100  0.93426998  1
  O2-  O201  1  0.53625313  0.58425076  0.26125240  1
  O2-  O202  1  0.54936302  0.57945078  0.59880742  1
  O2-  O203  1  0.54041617  0.58714317  0.94043739  1
  O2-  O204  1  0.16803620  0.21194642  0.26423344  1
  O2-  O205  1  0.16537988  0.20668861  0.61017248  1
  O2-  O206  1  0.16501776  0.21010829  0.93513585  1
  O2-  O207  1  0.16301036  0.70911086  0.26614173  1
  O2-  O208  1  0.16699681  0.69638297  0.60612562  1
  O2-  O209  1  0.16680183  0.70614877  0.93460164  1
  O2-  O210  1  0.66713410  0.20409436  0.26329086  1
  O2-  O211  1  0.66981465  0.20602882  0.59758151  1
  O2-  O212  1  0.66961373  0.20261318  0.93196954  1
  O2-  O213  1  0.66676588  0.71153515  0.26110668  1
  O2-  O214  1  0.66871834  0.71340703  0.59759644  1
  O2-  O215  1  0.66128467  0.70785353  0.94152200  1
  O2-  O216  1  0.09013053  0.45598953  0.06790261  1
  O2-  O217  1  0.08953382  0.46066928  0.39294451  1
  O2-  O218  1  0.08748172  0.46619725  0.73848676  1
  O2-  O219  1  0.08548383  0.95607141  0.06253648  1
  O2-  O220  1  0.08223306  0.94934149  0.39211398  1
  O2-  O221  1  0.07991549  0.96005213  0.73831960  1
  O2-  O222  1  0.57734682  0.45040275  0.06504986  1
  O2-  O223  1  0.57771557  0.45781941  0.39975015  1
  O2-  O224  1  0.58059539  0.44656689  0.72569364  1
  O2-  O225  1  0.58149241  0.95966638  0.07064536  1
  O2-  O226  1  0.58116344  0.94804370  0.39209745  1
  O2-  O227  1  0.58524440  0.95804120  0.73307050  1
  O2-  O228  1  0.20977500  0.33660844  0.06581015  1
  O2-  O229  1  0.20723460  0.33884072  0.39398485  1
  O2-  O230  1  0.20736076  0.33499660  0.73909763  1
  O2-  O231  1  0.20583531  0.83669461  0.06389068  1
  O2-  O232  1  0.20266898  0.83330637  0.39466562  1
  O2-  O233  1  0.19832462  0.82585033  0.73519784  1
  O2-  O234  1  0.70956901  0.32732754  0.06396252  1
  O2-  O235  1  0.70074105  0.32701788  0.39846777  1
  O2-  O236  1  0.70743893  0.33363376  0.72863031  1
  O2-  O237  1  0.71062287  0.83601341  0.07021390  1
  O2-  O238  1  0.70676142  0.83486109  0.39449990  1
  O2-  O239  1  0.71626008  0.83659263  0.73289216  1
  O2-  O240  1  0.44655460  0.41797827  0.27085097  1
  O2-  O241  1  0.44596760  0.42026852  0.59990091  1
  O2-  O242  1  0.44275361  0.41870215  0.94066085  1
  O2-  O243  1  0.44841791  0.91471119  0.27029924  1
  O2-  O244  1  0.45668781  0.91850089  0.59962255  1
  O2-  O245  1  0.45273161  0.91351543  0.94276713  1
  O2-  O246  1  0.96268874  0.41985167  0.26180088  1
  O2-  O247  1  0.96722668  0.41874337  0.60160897  1
  O2-  O248  1  0.96360270  0.41357706  0.93963661  1
  O2-  O249  1  0.95812422  0.91081233  0.26725832  1
  O2-  O250  1  0.95999974  0.91969954  0.59857713  1
  O2-  O251  1  0.96200461  0.91442764  0.93069082  1
  O2-  O252  1  0.33465901  0.29365395  0.26801957  1
  O2-  O253  1  0.32677985  0.29153808  0.60365110  1
  O2-  O254  1  0.33375207  0.29057570  0.93580364  1
  O2-  O255  1  0.33273505  0.79181154  0.26644938  1
  O2-  O256  1  0.32694678  0.79667984  0.60169546  1
  O2-  O257  1  0.33543133  0.79181958  0.93944995  1
  O2-  O258  1  0.83008783  0.29408485  0.26362895  1
  O2-  O259  1  0.83515903  0.29735288  0.59749140  1
  O2-  O260  1  0.84087639  0.29522857  0.93548827  1
  O2-  O261  1  0.83756800  0.79295203  0.26964899  1
  O2-  O262  1  0.83649931  0.78900375  0.59549663  1
  O2-  O263  1  0.83068997  0.78989131  0.93338202  1
  O2-  O264  1  0.40941933  0.04016876  0.06622713  1
  O2-  O265  1  0.41508211  0.03784388  0.40231466  1
  O2-  O266  1  0.42008525  0.04080776  0.73788231  1
  O2-  O267  1  0.41159576  0.54624079  0.06501094  1
  O2-  O268  1  0.41348367  0.54965437  0.39312227  1
  O2-  O269  1  0.41993263  0.54977141  0.72698670  1
  O2-  O270  1  0.91844002  0.04292955  0.06140531  1
  O2-  O271  1  0.91668041  0.03751701  0.40004200  1
  O2-  O272  1  0.91702930  0.05146819  0.72772249  1
  O2-  O273  1  0.92267068  0.54822714  0.06544341  1
  O2-  O274  1  0.92345152  0.54768603  0.39974702  1
  O2-  O275  1  0.91438189  0.53972511  0.73658891  1
  O2-  O276  1  0.29056218  0.16219129  0.06395580  1
  O2-  O277  1  0.28951703  0.16778034  0.40094142  1
  O2-  O278  1  0.28977304  0.16554055  0.74214767  1
  O2-  O279  1  0.28955313  0.66286851  0.06616453  1
  O2-  O280  1  0.28888533  0.66338177  0.39513753  1
  O2-  O281  1  0.29663457  0.66411265  0.73093210  1
  O2-  O282  1  0.80339184  0.16689340  0.05855222  1
  O2-  O283  1  0.79490597  0.16793168  0.39736885  1
  O2-  O284  1  0.79925832  0.17082374  0.72649002  1
  O2-  O285  1  0.79104454  0.66870687  0.06836063  1
  O2-  O286  1  0.79138649  0.67051103  0.40054450  1
  O2-  O287  1  0.78812307  0.66744006  0.73357509  1
