# generated using pymatgen
data_Ca2Al2SiO7
_symmetry_space_group_name_H-M   'P 1'
_cell_length_a   15.46938114
_cell_length_b   15.47180824
_cell_length_c   15.29287253
_cell_angle_alpha   90.01276999
_cell_angle_beta   89.99925418
_cell_angle_gamma   90.02208845
_symmetry_Int_Tables_number   1
_chemical_formula_structural   Ca2Al2SiO7
_chemical_formula_sum   'Ca48 Al48 Si24 O168'
_cell_volume   3660.18502139
_cell_formula_units_Z   24
loop_
 _symmetry_equiv_pos_site_id
 _symmetry_equiv_pos_as_xyz
  1  'x, y, z'
loop_
 _atom_type_symbol
 _atom_type_oxidation_number
  Ca2+  2.0
  Al0+  0.0
  Si0+  0.0
  O2-  -2.0
loop_
 _atom_site_type_symbol
 _atom_site_label
 _atom_site_symmetry_multiplicity
 _atom_site_fract_x
 _atom_site_fract_y
 _atom_site_fract_z
 _atom_site_occupancy
  Ca2+  Ca0  1  0.16778546  0.07146736  0.16881514  1
  Ca2+  Ca1  1  0.17204736  0.06909796  0.50568516  1
  Ca2+  Ca2  1  0.17733790  0.07061052  0.83649451  1
  Ca2+  Ca3  1  0.17352778  0.58155372  0.17986391  1
  Ca2+  Ca4  1  0.17285740  0.58389803  0.50476466  1
  Ca2+  Ca5  1  0.17027782  0.58687024  0.82807481  1
  Ca2+  Ca6  1  0.66953944  0.07748071  0.16490175  1
  Ca2+  Ca7  1  0.66880892  0.08200204  0.50175803  1
  Ca2+  Ca8  1  0.67186539  0.07488326  0.84293179  1
  Ca2+  Ca9  1  0.66689620  0.57647377  0.17475768  1
  Ca2+  Ca10  1  0.66711826  0.58733396  0.50243336  1
  Ca2+  Ca11  1  0.67740315  0.58868848  0.83863469  1
  Ca2+  Ca12  1  0.07665213  0.34068028  0.16487488  1
  Ca2+  Ca13  1  0.08250099  0.33872949  0.49106132  1
  Ca2+  Ca14  1  0.08420908  0.33248819  0.82485285  1
  Ca2+  Ca15  1  0.08640411  0.83254249  0.16840723  1
  Ca2+  Ca16  1  0.08664436  0.82473953  0.49208005  1
  Ca2+  Ca17  1  0.08356310  0.83271855  0.82728159  1
  Ca2+  Ca18  1  0.57939100  0.34216778  0.16545907  1
  Ca2+  Ca19  1  0.57714964  0.33303173  0.48857497  1
  Ca2+  Ca20  1  0.58690712  0.33184489  0.83341849  1
  Ca2+  Ca21  1  0.57946955  0.83081548  0.16597910  1
  Ca2+  Ca22  1  0.56886331  0.82037963  0.49576996  1
  Ca2+  Ca23  1  0.57890985  0.83253085  0.82307200  1
  Ca2+  Ca24  1  0.32905365  0.42264665  0.18084659  1
  Ca2+  Ca25  1  0.32754695  0.42759345  0.50039263  1
  Ca2+  Ca26  1  0.32950257  0.42325520  0.83033865  1
  Ca2+  Ca27  1  0.32497731  0.91554868  0.17425978  1
  Ca2+  Ca28  1  0.32758636  0.91063348  0.50613951  1
  Ca2+  Ca29  1  0.32655743  0.91637129  0.83712763  1
  Ca2+  Ca30  1  0.82358784  0.41921588  0.17122591  1
  Ca2+  Ca31  1  0.82967630  0.42158594  0.50203323  1
  Ca2+  Ca32  1  0.82710423  0.43144582  0.83863454  1
  Ca2+  Ca33  1  0.83399286  0.91728186  0.17005431  1
  Ca2+  Ca34  1  0.83477057  0.90894956  0.49899491  1
  Ca2+  Ca35  1  0.82508843  0.92012051  0.84475021  1
  Ca2+  Ca36  1  0.40882000  0.17472114  0.16340366  1
  Ca2+  Ca37  1  0.41095842  0.17283763  0.49634869  1
  Ca2+  Ca38  1  0.41071324  0.16297158  0.82920569  1
  Ca2+  Ca39  1  0.41772717  0.66712348  0.17100748  1
  Ca2+  Ca40  1  0.41773323  0.66706711  0.49237645  1
  Ca2+  Ca41  1  0.42514092  0.67369195  0.81979337  1
  Ca2+  Ca42  1  0.91373404  0.17158484  0.16401998  1
  Ca2+  Ca43  1  0.92158130  0.17651111  0.48912286  1
  Ca2+  Ca44  1  0.91540358  0.16673713  0.83085121  1
  Ca2+  Ca45  1  0.92351839  0.66536925  0.16681611  1
  Ca2+  Ca46  1  0.92993569  0.66497026  0.49498898  1
  Ca2+  Ca47  1  0.91989197  0.66170240  0.82509770  1
  Al0+  Al48  1  0.00151279  0.00079298  0.00444947  1
  Al0+  Al49  1  0.00075365  0.00136775  0.33491351  1
  Al0+  Al50  1  0.00046498  0.00300326  0.66872741  1
  Al0+  Al51  1  -0.00092866  0.50012565  -0.00096790  1
  Al0+  Al52  1  -0.00252549  0.49912265  0.32547193  1
  Al0+  Al53  1  -0.00371117  0.49995396  0.67015794  1
  Al0+  Al54  1  0.49957204  0.00338712  0.00606141  1
  Al0+  Al55  1  0.50265519  -0.00035322  0.33099134  1
  Al0+  Al56  1  0.50226587  0.00155646  0.66392102  1
  Al0+  Al57  1  0.49853586  0.50070397  -0.00192883  1
  Al0+  Al58  1  0.50042082  0.49727234  0.33348183  1
  Al0+  Al59  1  0.49994365  0.49606133  0.66769937  1
  Al0+  Al60  1  0.24827774  0.25028519  -0.00076473  1
  Al0+  Al61  1  0.25027659  0.24790361  0.33103060  1
  Al0+  Al62  1  0.24892423  0.24791521  0.67201116  1
  Al0+  Al63  1  0.25026271  0.74907669  0.00104123  1
  Al0+  Al64  1  0.25091298  0.75039609  0.33264375  1
  Al0+  Al65  1  0.24831099  0.74887717  0.66930513  1
  Al0+  Al66  1  0.74829064  0.25139824  0.00318261  1
  Al0+  Al67  1  0.75139047  0.24962066  0.33306987  1
  Al0+  Al68  1  0.74979217  0.25060514  0.66579507  1
  Al0+  Al69  1  0.75211457  0.75005128  0.00770711  1
  Al0+  Al70  1  0.75043367  0.75066132  0.32769212  1
  Al0+  Al71  1  0.74966165  0.75056222  0.66726903  1
  Al0+  Al72  1  0.42956018  0.31778402  0.32028857  1
  Al0+  Al73  1  0.81757592  0.57092564  0.67770540  1
  Al0+  Al74  1  0.32066125  0.57074866  0.34766492  1
  Al0+  Al75  1  0.17767357  0.92628772  0.68161544  1
  Al0+  Al76  1  0.67744764  0.43203553  0.01476187  1
  Al0+  Al77  1  0.17722408  0.42964493  0.68088124  1
  Al0+  Al78  1  0.42825329  0.82194315  0.31713904  1
  Al0+  Al79  1  0.67764959  0.92763580  0.01611096  1
  Al0+  Al80  1  0.92878473  0.32127276  0.31807375  1
  Al0+  Al81  1  0.82198941  0.07148367  0.01523714  1
  Al0+  Al82  1  0.06866340  0.67890772  0.65472986  1
  Al0+  Al83  1  0.17590177  0.42719739  0.34509540  1
  Al0+  Al84  1  0.82393905  0.57226091  0.01803704  1
  Al0+  Al85  1  0.32361608  0.57175601  0.68240484  1
  Al0+  Al86  1  0.32087421  0.07331633  0.01676328  1
  Al0+  Al87  1  0.93008366  0.82284014  0.31784783  1
  Al0+  Al88  1  0.32292169  0.06977453  0.68014815  1
  Al0+  Al89  1  0.57313362  0.67646401  0.65364886  1
  Al0+  Al90  1  0.07189341  0.67866297  0.31804800  1
  Al0+  Al91  1  0.57054447  0.67698438  0.31724809  1
  Al0+  Al92  1  0.42864616  0.82163183  0.65399729  1
  Al0+  Al93  1  0.18086383  0.92675686  0.01714803  1
  Al0+  Al94  1  0.17973240  0.93021009  0.34865081  1
  Al0+  Al95  1  0.68020673  0.42891114  0.34859036  1
  Si0+  Si96  1  0.07062557  0.17926569  0.98250917  1
  Si0+  Si97  1  0.57472109  0.17713548  0.31470101  1
  Si0+  Si98  1  0.42672613  0.31904992  0.65234502  1
  Si0+  Si99  1  0.82108216  0.07467240  0.67977957  1
  Si0+  Si100  1  0.57071022  0.17992466  0.98430935  1
  Si0+  Si101  1  0.57112548  0.67907545  0.98584565  1
  Si0+  Si102  1  0.57325828  0.18020411  0.65171062  1
  Si0+  Si103  1  0.92769353  0.32066635  0.98176065  1
  Si0+  Si104  1  0.82011342  0.07013438  0.34988623  1
  Si0+  Si105  1  0.82113922  0.57371595  0.35042302  1
  Si0+  Si106  1  0.17916808  0.42897544  0.01310226  1
  Si0+  Si107  1  0.07124105  0.67820187  0.98310036  1
  Si0+  Si108  1  0.32016836  0.57012955  0.01399909  1
  Si0+  Si109  1  0.32501558  0.07154631  0.34970588  1
  Si0+  Si110  1  0.68189094  0.93135049  0.67867390  1
  Si0+  Si111  1  0.92758632  0.82587575  0.65336254  1
  Si0+  Si112  1  0.67836000  0.92717227  0.35113203  1
  Si0+  Si113  1  0.67725306  0.42410563  0.68271481  1
  Si0+  Si114  1  0.42709215  0.32186375  0.98220703  1
  Si0+  Si115  1  0.92880564  0.31953499  0.65218224  1
  Si0+  Si116  1  0.07126392  0.17915313  0.65123080  1
  Si0+  Si117  1  0.43002390  0.82188897  0.98609412  1
  Si0+  Si118  1  0.07171071  0.17812738  0.31544073  1
  Si0+  Si119  1  0.92994793  0.82216182  0.98543605  1
  O2-  O120  1  0.25413327  -0.00241135  0.06684501  1
  O2-  O121  1  0.25980194  0.00020462  0.39382975  1
  O2-  O122  1  0.25513960  -0.00607852  0.72989674  1
  O2-  O123  1  0.24865242  0.49989959  0.05540990  1
  O2-  O124  1  0.24426866  0.50165565  0.39544537  1
  O2-  O125  1  0.24888536  0.50137971  0.73242199  1
  O2-  O126  1  0.75303768  -0.00289735  0.06542731  1
  O2-  O127  1  0.75104156  -0.00229533  0.39300310  1
  O2-  O128  1  0.75491947  -0.00010960  0.72175710  1
  O2-  O129  1  0.74793611  0.50395313  0.06613755  1
  O2-  O130  1  0.75202268  0.50573948  0.39562247  1
  O2-  O131  1  0.73834534  0.50037328  0.72447752  1
  O2-  O132  1  0.00778093  0.25119657  0.27067204  1
  O2-  O133  1  0.00189084  0.25154483  0.60877963  1
  O2-  O134  1  -0.00153044  0.24944129  0.93876361  1
  O2-  O135  1  0.00115890  0.75138438  0.26633362  1
  O2-  O136  1  -0.00127159  0.75960232  0.61073609  1
  O2-  O137  1  -0.00081557  0.74973267  0.94230501  1
  O2-  O138  1  0.50357529  0.24326860  0.27104638  1
  O2-  O139  1  0.50061054  0.24972464  0.61110615  1
  O2-  O140  1  0.49827610  0.24971760  0.94124996  1
  O2-  O141  1  0.49982903  0.74977354  0.26625210  1
  O2-  O142  1  0.49383488  0.74180119  0.60574179  1
  O2-  O143  1  0.50451762  0.75435484  0.94344135  1
  O2-  O144  1  0.07108320  0.18261417  0.08728223  1
  O2-  O145  1  0.06766936  0.17706952  0.42132191  1
  O2-  O146  1  0.06751219  0.17891591  0.75652941  1
  O2-  O147  1  0.07231131  0.67619415  0.08754470  1
  O2-  O148  1  0.07003481  0.67767505  0.43172382  1
  O2-  O149  1  0.06428670  0.67793889  0.76841101  1
  O2-  O150  1  0.57262191  0.18111751  0.08886249  1
  O2-  O151  1  0.57629846  0.17823620  0.42087638  1
  O2-  O152  1  0.57875873  0.18125357  0.75663695  1
  O2-  O153  1  0.56649514  0.67582454  0.09027640  1
  O2-  O154  1  0.57088972  0.67961796  0.43083765  1
  O2-  O155  1  0.57700164  0.68372866  0.76798096  1
  O2-  O156  1  0.17970889  0.42781113  0.23074288  1
  O2-  O157  1  0.17737448  0.42800922  0.56811641  1
  O2-  O158  1  0.18006025  0.42821083  0.90791239  1
  O2-  O159  1  0.17842020  0.93391810  0.23571661  1
  O2-  O160  1  0.17307067  0.93094536  0.56856166  1
  O2-  O161  1  0.18085802  0.92626556  0.90363824  1
  O2-  O162  1  0.68191511  0.42820695  0.23576065  1
  O2-  O163  1  0.68212684  0.41516246  0.57798725  1
  O2-  O164  1  0.67868538  0.43244312  0.90062301  1
  O2-  O165  1  0.67750795  0.92989874  0.24634178  1
  O2-  O166  1  0.68332538  0.93397590  0.57372781  1
  O2-  O167  1  0.67851433  0.92989397  0.90139300  1
  O2-  O168  1  0.42613072  0.32268122  0.08705271  1
  O2-  O169  1  0.43054103  0.31546360  0.43363803  1
  O2-  O170  1  0.42738112  0.31791863  0.75786541  1
  O2-  O171  1  0.42885897  0.81871430  0.09070004  1
  O2-  O172  1  0.43054688  0.82368430  0.43047247  1
  O2-  O173  1  0.43519034  0.82479980  0.76846417  1
  O2-  O174  1  0.92936560  0.32029777  0.08653454  1
  O2-  O175  1  0.92609869  0.31734362  0.43169665  1
  O2-  O176  1  0.92655003  0.31543224  0.75743736  1
  O2-  O177  1  0.93188226  0.82344004  0.08984472  1
  O2-  O178  1  0.93095904  0.82163238  0.43195387  1
  O2-  O179  1  0.92492981  0.82721901  0.75921462  1
  O2-  O180  1  0.32249144  0.07289392  0.24428790  1
  O2-  O181  1  0.31967922  0.07347950  0.56697771  1
  O2-  O182  1  0.31919536  0.07234001  0.90329972  1
  O2-  O183  1  0.32073584  0.56730620  0.23313424  1
  O2-  O184  1  0.32523225  0.56848035  0.56977672  1
  O2-  O185  1  0.32064564  0.57000393  0.90890315  1
  O2-  O186  1  0.81838327  0.07129840  0.24513964  1
  O2-  O187  1  0.81855695  0.07931724  0.57497863  1
  O2-  O188  1  0.81949271  0.07030670  0.90063747  1
  O2-  O189  1  0.82020696  0.57137883  0.24497170  1
  O2-  O190  1  0.82005906  0.56761384  0.56521438  1
  O2-  O191  1  0.82403618  0.57059688  0.90377198  1
  O2-  O192  1  0.03832801  0.08791234  0.26790532  1
  O2-  O193  1  0.04076299  0.08878047  0.60225520  1
  O2-  O194  1  0.04304386  0.08682851  0.93587173  1
  O2-  O195  1  0.04260318  0.58155203  0.26211066  1
  O2-  O196  1  0.03161107  0.58367011  0.60191141  1
  O2-  O197  1  0.04280092  0.58626285  0.93527549  1
  O2-  O198  1  0.55323284  0.08263554  0.26972005  1
  O2-  O199  1  0.54927442  0.08872730  0.60214967  1
  O2-  O200  1  0.54487943  0.08742216  0.93619459  1
  O2-  O201  1  0.54191726  0.57863704  0.26485837  1
  O2-  O202  1  0.55547486  0.57308358  0.60724206  1
  O2-  O203  1  0.53982670  0.58920588  0.93583927  1
  O2-  O204  1  0.16672497  0.19651530  0.27028721  1
  O2-  O205  1  0.16378579  0.20481741  0.60549324  1
  O2-  O206  1  0.16124759  0.20992569  0.93363824  1
  O2-  O207  1  0.16996463  0.70617111  0.26488422  1
  O2-  O208  1  0.16748329  0.70217570  0.60326093  1
  O2-  O209  1  0.16370022  0.70619077  0.93624122  1
  O2-  O210  1  0.66726139  0.20462588  0.26863727  1
  O2-  O211  1  0.66396270  0.20950210  0.60148106  1
  O2-  O212  1  0.66204456  0.20950705  0.93504429  1
  O2-  O213  1  0.66870367  0.70563540  0.26433429  1
  O2-  O214  1  0.66890245  0.71147896  0.59905994  1
  O2-  O215  1  0.66658942  0.70273271  0.94341275  1
  O2-  O216  1  0.08618534  0.45471513  0.05782780  1
  O2-  O217  1  0.07391501  0.44908198  0.39258159  1
  O2-  O218  1  0.07853287  0.45552534  0.73522601  1
  O2-  O219  1  0.08332735  0.95815201  0.06862257  1
  O2-  O220  1  0.08451407  0.96603906  0.40258274  1
  O2-  O221  1  0.08059192  0.96206176  0.73590229  1
  O2-  O222  1  0.57744077  0.45829662  0.06531764  1
  O2-  O223  1  0.58297059  0.45538568  0.40190745  1
  O2-  O224  1  0.58100387  0.43808313  0.72626339  1
  O2-  O225  1  0.58215624  0.96097811  0.07034432  1
  O2-  O226  1  0.58800875  0.95845613  0.39948553  1
  O2-  O227  1  0.59208998  0.96290570  0.72713727  1
  O2-  O228  1  0.20544465  0.33741455  0.06000698  1
  O2-  O229  1  0.20492077  0.32797296  0.39613406  1
  O2-  O230  1  0.20663595  0.33162836  0.73541214  1
  O2-  O231  1  0.20844873  0.82782634  0.06895939  1
  O2-  O232  1  0.20710628  0.83236150  0.39965534  1
  O2-  O233  1  0.19887754  0.82751263  0.73563030  1
  O2-  O234  1  0.70453325  0.33333096  0.06607769  1
  O2-  O235  1  0.71272698  0.33172191  0.40136319  1
  O2-  O236  1  0.71177524  0.33431466  0.73323119  1
  O2-  O237  1  0.70281210  0.82994358  0.06965753  1
  O2-  O238  1  0.70754298  0.83563461  0.39738168  1
  O2-  O239  1  0.70705952  0.84017937  0.72801652  1
  O2-  O240  1  0.46134285  0.41283975  0.26478112  1
  O2-  O241  1  0.45211226  0.41081375  0.60489585  1
  O2-  O242  1  0.45633135  0.41293644  0.93340587  1
  O2-  O243  1  0.45875312  0.92055790  0.26438909  1
  O2-  O244  1  0.46384575  0.91772725  0.59959962  1
  O2-  O245  1  0.45449829  0.91639873  0.94255168  1
  O2-  O246  1  0.95264899  0.41676847  0.25966180  1
  O2-  O247  1  0.95328113  0.41188550  0.60618691  1
  O2-  O248  1  0.95721834  0.41232581  0.93425420  1
  O2-  O249  1  0.95692799  0.92272474  0.26689259  1
  O2-  O250  1  0.94809055  0.92135035  0.60790410  1
  O2-  O251  1  0.95747508  0.91467756  0.93789314  1
  O2-  O252  1  0.33345579  0.28742704  0.26347341  1
  O2-  O253  1  0.33594930  0.28729114  0.60588945  1
  O2-  O254  1  0.33523582  0.29351862  0.93472588  1
  O2-  O255  1  0.33076836  0.79411858  0.26336993  1
  O2-  O256  1  0.32699644  0.80139932  0.60677487  1
  O2-  O257  1  0.33911142  0.79011390  0.93847429  1
  O2-  O258  1  0.83488957  0.28268682  0.26348316  1
  O2-  O259  1  0.83830226  0.28803123  0.60376110  1
  O2-  O260  1  0.83531329  0.29238200  0.93545662  1
  O2-  O261  1  0.83109656  0.79837871  0.26483619  1
  O2-  O262  1  0.83491312  0.79848801  0.60678091  1
  O2-  O263  1  0.83582486  0.79737579  0.93974731  1
  O2-  O264  1  0.42151612  0.05575377  0.06754518  1
  O2-  O265  1  0.42146469  0.05249271  0.39283313  1
  O2-  O266  1  0.42502048  0.04985297  0.73031079  1
  O2-  O267  1  0.41122640  0.54090656  0.06050489  1
  O2-  O268  1  0.41709176  0.53686881  0.39984522  1
  O2-  O269  1  0.42120115  0.53937037  0.73741076  1
  O2-  O270  1  0.92075095  0.04807107  0.06774056  1
  O2-  O271  1  0.91210435  0.04534536  0.39806584  1
  O2-  O272  1  0.91392544  0.05282090  0.72696383  1
  O2-  O273  1  0.92102560  0.53838369  0.06943337  1
  O2-  O274  1  0.91478895  0.54460911  0.39344587  1
  O2-  O275  1  0.90984462  0.53453918  0.73657421  1
  O2-  O276  1  0.28719151  0.17111587  0.06830369  1
  O2-  O277  1  0.29563978  0.16396483  0.39593072  1
  O2-  O278  1  0.28983574  0.16517873  0.73691718  1
  O2-  O279  1  0.29312567  0.66134717  0.06143099  1
  O2-  O280  1  0.29673924  0.67004263  0.39873744  1
  O2-  O281  1  0.29625558  0.66946701  0.73696644  1
  O2-  O282  1  0.79067916  0.16879622  0.06732747  1
  O2-  O283  1  0.78942934  0.16043841  0.39892337  1
  O2-  O284  1  0.78889258  0.16387857  0.73018209  1
  O2-  O285  1  0.80381327  0.67192038  0.06914942  1
  O2-  O286  1  0.79723780  0.66834042  0.39472531  1
  O2-  O287  1  0.79144716  0.66855380  0.73400834  1
