# generated using pymatgen
data_Ca2Al2SiO7
_symmetry_space_group_name_H-M   'P 1'
_cell_length_a   15.46326749
_cell_length_b   15.46316253
_cell_length_c   15.28697867
_cell_angle_alpha   90.00475485
_cell_angle_beta   89.99775687
_cell_angle_gamma   89.99252891
_symmetry_Int_Tables_number   1
_chemical_formula_structural   Ca2Al2SiO7
_chemical_formula_sum   'Ca48 Al48 Si24 O168'
_cell_volume   3655.28499289
_cell_formula_units_Z   24
loop_
 _symmetry_equiv_pos_site_id
 _symmetry_equiv_pos_as_xyz
  1  'x, y, z'
loop_
 _atom_type_symbol
 _atom_type_oxidation_number
  Ca2+  2.0
  Al0+  0.0
  Si0+  0.0
  O2-  -2.0
loop_
 _atom_site_type_symbol
 _atom_site_label
 _atom_site_symmetry_multiplicity
 _atom_site_fract_x
 _atom_site_fract_y
 _atom_site_fract_z
 _atom_site_occupancy
  Ca2+  Ca0  1  0.16673956  0.06924415  0.16965425  1
  Ca2+  Ca1  1  0.16190646  0.07704595  0.50590268  1
  Ca2+  Ca2  1  0.16637048  0.07822728  0.84145528  1
  Ca2+  Ca3  1  0.16482137  0.58716935  0.16461726  1
  Ca2+  Ca4  1  0.17018328  0.58534291  0.50980830  1
  Ca2+  Ca5  1  0.17058687  0.59690628  0.83536914  1
  Ca2+  Ca6  1  0.66385559  0.07702133  0.16864098  1
  Ca2+  Ca7  1  0.67201641  0.07536116  0.51019274  1
  Ca2+  Ca8  1  0.66278570  0.08228031  0.83133960  1
  Ca2+  Ca9  1  0.67868063  0.58741630  0.16645032  1
  Ca2+  Ca10  1  0.68248432  0.57778366  0.51034527  1
  Ca2+  Ca11  1  0.67499149  0.57715571  0.84308757  1
  Ca2+  Ca12  1  0.07013281  0.33502402  0.16116356  1
  Ca2+  Ca13  1  0.07728007  0.32509989  0.49583895  1
  Ca2+  Ca14  1  0.07445326  0.32943374  0.82832891  1
  Ca2+  Ca15  1  0.07462677  0.83311594  0.15861883  1
  Ca2+  Ca16  1  0.07405903  0.82885094  0.49549929  1
  Ca2+  Ca17  1  0.07826762  0.82693973  0.83450177  1
  Ca2+  Ca18  1  0.58228678  0.32700633  0.15142442  1
  Ca2+  Ca19  1  0.59587242  0.32841548  0.50345813  1
  Ca2+  Ca20  1  0.59384570  0.32804353  0.83078033  1
  Ca2+  Ca21  1  0.58155689  0.82785643  0.15634969  1
  Ca2+  Ca22  1  0.58088076  0.84255829  0.49879081  1
  Ca2+  Ca23  1  0.57470107  0.83243341  0.82860214  1
  Ca2+  Ca24  1  0.33477320  0.41530020  0.16673816  1
  Ca2+  Ca25  1  0.32979867  0.42544858  0.50934322  1
  Ca2+  Ca26  1  0.33291015  0.41914240  0.83765632  1
  Ca2+  Ca27  1  0.32115809  0.90620740  0.16634818  1
  Ca2+  Ca28  1  0.32644508  0.91270707  0.50591503  1
  Ca2+  Ca29  1  0.32911130  0.90867535  0.84075990  1
  Ca2+  Ca30  1  0.83713020  0.42566482  0.16646877  1
  Ca2+  Ca31  1  0.83553433  0.42504205  0.50569482  1
  Ca2+  Ca32  1  0.82741651  0.42391622  0.83964720  1
  Ca2+  Ca33  1  0.83084498  0.91192346  0.17354405  1
  Ca2+  Ca34  1  0.82245246  0.91580257  0.50616478  1
  Ca2+  Ca35  1  0.83701803  0.92455634  0.83640565  1
  Ca2+  Ca36  1  0.42450036  0.17255275  0.15596576  1
  Ca2+  Ca37  1  0.42460881  0.16629437  0.50078680  1
  Ca2+  Ca38  1  0.42952834  0.17192974  0.83187612  1
  Ca2+  Ca39  1  0.42817309  0.67226054  0.15478495  1
  Ca2+  Ca40  1  0.41714571  0.66944062  0.50388365  1
  Ca2+  Ca41  1  0.42049661  0.67339326  0.82960550  1
  Ca2+  Ca42  1  0.91137567  0.18046211  0.16146822  1
  Ca2+  Ca43  1  0.91362819  0.16888936  0.50030816  1
  Ca2+  Ca44  1  0.91535196  0.17158774  0.82639348  1
  Ca2+  Ca45  1  0.91563540  0.67507628  0.15801213  1
  Ca2+  Ca46  1  0.91676429  0.66439091  0.49504363  1
  Ca2+  Ca47  1  0.92290318  0.66152142  0.83124481  1
  Al0+  Al48  1  0.00038861  -0.00032082  0.00438466  1
  Al0+  Al49  1  0.00064128  -0.00055980  0.33487856  1
  Al0+  Al50  1  -0.00068756  -0.00131438  0.66590519  1
  Al0+  Al51  1  0.00179986  0.49978858  -0.00402703  1
  Al0+  Al52  1  0.00239284  0.49822619  0.33345020  1
  Al0+  Al53  1  0.00179489  0.49898046  0.66471830  1
  Al0+  Al54  1  0.49908323  0.00280436  -0.00513919  1
  Al0+  Al55  1  0.49759819  0.00065002  0.33455111  1
  Al0+  Al56  1  0.49734310  0.00220223  0.66049915  1
  Al0+  Al57  1  0.49938324  0.49935957  -0.00179945  1
  Al0+  Al58  1  0.50038709  0.49969180  0.33415553  1
  Al0+  Al59  1  0.49786373  0.50161820  0.67315762  1
  Al0+  Al60  1  0.25188371  0.24926051  0.00031200  1
  Al0+  Al61  1  0.25157852  0.24948259  0.33342522  1
  Al0+  Al62  1  0.24933895  0.24909212  0.66146725  1
  Al0+  Al63  1  0.24859470  0.75000364  0.00183528  1
  Al0+  Al64  1  0.25062830  0.74987599  0.33847168  1
  Al0+  Al65  1  0.24905806  0.74979574  0.66154773  1
  Al0+  Al66  1  0.75115765  0.24994511  -0.00387667  1
  Al0+  Al67  1  0.74974838  0.24938752  0.32708389  1
  Al0+  Al68  1  0.75069230  0.24906091  0.66622356  1
  Al0+  Al69  1  0.75048023  0.75227575  -0.00479501  1
  Al0+  Al70  1  0.74996556  0.74888122  0.33950169  1
  Al0+  Al71  1  0.74794458  0.74985009  0.67541058  1
  Al0+  Al72  1  0.57357787  0.67810737  0.98472303  1
  Al0+  Al73  1  0.67924628  0.42807909  0.01638951  1
  Al0+  Al74  1  0.17930958  0.92842452  0.01372465  1
  Al0+  Al75  1  0.43000582  0.82045497  0.65093710  1
  Al0+  Al76  1  0.57265654  0.17974083  0.98354670  1
  Al0+  Al77  1  0.82182172  0.56954093  0.34644672  1
  Al0+  Al78  1  0.17841102  0.92870501  0.35010011  1
  Al0+  Al79  1  0.92796248  0.81953348  0.32215098  1
  Al0+  Al80  1  0.06965135  0.67951594  0.98637300  1
  Al0+  Al81  1  0.57109582  0.18149181  0.64992316  1
  Al0+  Al82  1  0.06865537  0.67980737  0.65164375  1
  Al0+  Al83  1  0.82491638  0.57194471  0.68327924  1
  Al0+  Al84  1  0.67964234  0.42900766  0.68108369  1
  Al0+  Al85  1  0.31816965  0.57222676  0.68179329  1
  Al0+  Al86  1  0.67813790  0.92908388  0.34494492  1
  Al0+  Al87  1  0.67448835  0.92960583  0.68361197  1
  Al0+  Al88  1  0.82177104  0.06860359  0.68146085  1
  Al0+  Al89  1  0.82334305  0.57221928  0.01625180  1
  Al0+  Al90  1  0.92711142  0.82459902  0.98497530  1
  Al0+  Al91  1  0.07169810  0.17672652  0.65371500  1
  Al0+  Al92  1  0.42689246  0.32251690  0.98475050  1
  Al0+  Al93  1  0.93027034  0.32038248  0.31899304  1
  Al0+  Al94  1  0.93012161  0.32142698  0.98478464  1
  Al0+  Al95  1  0.42895709  0.82062530  0.98716405  1
  Si0+  Si96  1  0.18031764  0.42801414  0.34814017  1
  Si0+  Si97  1  0.92905708  0.32044907  0.64886770  1
  Si0+  Si98  1  0.31966234  0.07287988  0.68142631  1
  Si0+  Si99  1  0.32241921  0.07250985  0.01704234  1
  Si0+  Si100  1  0.18006347  0.42587921  0.01536144  1
  Si0+  Si101  1  0.07393474  0.67794957  0.31740567  1
  Si0+  Si102  1  0.07471482  0.17708434  0.31522338  1
  Si0+  Si103  1  0.17987762  0.92949251  0.68180014  1
  Si0+  Si104  1  0.67705861  0.93117174  0.01343414  1
  Si0+  Si105  1  0.07165563  0.17793079  0.98684136  1
  Si0+  Si106  1  0.82238917  0.07091725  0.01644308  1
  Si0+  Si107  1  0.57029875  0.67851498  0.32101038  1
  Si0+  Si108  1  0.92559253  0.82203145  0.65018838  1
  Si0+  Si109  1  0.56929279  0.17899584  0.31790740  1
  Si0+  Si110  1  0.42706147  0.32399632  0.64840218  1
  Si0+  Si111  1  0.32029211  0.57125275  0.01609964  1
  Si0+  Si112  1  0.42847256  0.32236989  0.31932105  1
  Si0+  Si113  1  0.32076526  0.07318012  0.35209893  1
  Si0+  Si114  1  0.42806965  0.82094657  0.31852738  1
  Si0+  Si115  1  0.57238162  0.67664610  0.64947472  1
  Si0+  Si116  1  0.67681547  0.42669571  0.34815652  1
  Si0+  Si117  1  0.17921779  0.42570800  0.68299049  1
  Si0+  Si118  1  0.82082710  0.07440031  0.34779406  1
  Si0+  Si119  1  0.32284741  0.57012398  0.34849903  1
  O2-  O120  1  0.25564305  0.00197282  0.06130440  1
  O2-  O121  1  0.25151276  0.00542342  0.39692653  1
  O2-  O122  1  0.24879292  0.00238113  0.72396607  1
  O2-  O123  1  0.25131599  0.49732080  0.05806855  1
  O2-  O124  1  0.25051589  0.49989558  0.38987760  1
  O2-  O125  1  0.24494301  0.49614381  0.72838323  1
  O2-  O126  1  0.75090585  -0.00083103  0.05700462  1
  O2-  O127  1  0.75484912  0.00254982  0.39038785  1
  O2-  O128  1  0.74999859  -0.00211474  0.73379265  1
  O2-  O129  1  0.74949343  0.50157158  0.06733935  1
  O2-  O130  1  0.74780735  0.49295134  0.39137371  1
  O2-  O131  1  0.74919148  0.50288339  0.73084690  1
  O2-  O132  1  0.00393643  0.24379617  0.27182406  1
  O2-  O133  1  -0.00271301  0.25046162  0.60534930  1
  O2-  O134  1  0.00448932  0.24560529  0.94005131  1
  O2-  O135  1  0.00438019  0.74616342  0.27503142  1
  O2-  O136  1  -0.01138950  0.74818448  0.60489257  1
  O2-  O137  1  -0.00570117  0.74761042  0.93645729  1
  O2-  O138  1  0.50055833  0.25288203  0.27724122  1
  O2-  O139  1  0.49914751  0.25960404  0.60259661  1
  O2-  O140  1  0.50415212  0.25655991  0.93563499  1
  O2-  O141  1  0.50126313  0.75192166  0.27789368  1
  O2-  O142  1  0.50824649  0.74936942  0.60292837  1
  O2-  O143  1  0.50165688  0.75098611  0.93615273  1
  O2-  O144  1  0.07021849  0.17976727  0.09274592  1
  O2-  O145  1  0.07685995  0.17968628  0.42077075  1
  O2-  O146  1  0.07312138  0.17948531  0.76668402  1
  O2-  O147  1  0.07216541  0.68161441  0.10055799  1
  O2-  O148  1  0.07525253  0.67787887  0.42296736  1
  O2-  O149  1  0.07232560  0.68430092  0.76387666  1
  O2-  O150  1  0.56909684  0.17686311  0.09827048  1
  O2-  O151  1  0.56915779  0.17921596  0.42283558  1
  O2-  O152  1  0.56797351  0.18102276  0.76201690  1
  O2-  O153  1  0.57191039  0.68133603  0.09995464  1
  O2-  O154  1  0.56670253  0.67583968  0.42573169  1
  O2-  O155  1  0.56759662  0.67570880  0.75442639  1
  O2-  O156  1  0.18163333  0.42696293  0.24294554  1
  O2-  O157  1  0.18193097  0.42530441  0.57670702  1
  O2-  O158  1  0.18140266  0.42145931  0.91076129  1
  O2-  O159  1  0.18177159  0.92764554  0.23717567  1
  O2-  O160  1  0.18125663  0.93075998  0.57624763  1
  O2-  O161  1  0.18015427  0.93092439  0.90054403  1
  O2-  O162  1  0.67264504  0.42785644  0.24323062  1
  O2-  O163  1  0.68330350  0.42995174  0.56620701  1
  O2-  O164  1  0.68277011  0.42765923  0.90342679  1
  O2-  O165  1  0.67570412  0.93090340  0.23156554  1
  O2-  O166  1  0.67608638  0.93334872  0.56917346  1
  O2-  O167  1  0.67405278  0.93479249  0.90911729  1
  O2-  O168  1  0.42454015  0.31752207  0.09946144  1
  O2-  O169  1  0.42610679  0.32292717  0.42402841  1
  O2-  O170  1  0.42157830  0.31983799  0.75311984  1
  O2-  O171  1  0.42983717  0.81790905  0.10182962  1
  O2-  O172  1  0.42690508  0.81996432  0.42354057  1
  O2-  O173  1  0.42692054  0.81857881  0.76343827  1
  O2-  O174  1  0.93247584  0.32050861  0.09851352  1
  O2-  O175  1  0.93268115  0.31945772  0.43190673  1
  O2-  O176  1  0.93120967  0.32014343  0.75426910  1
  O2-  O177  1  0.92946117  0.82564785  0.09927836  1
  O2-  O178  1  0.92820038  0.81753452  0.43513804  1
  O2-  O179  1  0.93195473  0.82719839  0.75510794  1
  O2-  O180  1  0.32129305  0.07478853  0.24680313  1
  O2-  O181  1  0.31801121  0.07252745  0.57578479  1
  O2-  O182  1  0.31968618  0.07499942  0.91169145  1
  O2-  O183  1  0.32468423  0.56952242  0.24346990  1
  O2-  O184  1  0.31630583  0.57003304  0.56756368  1
  O2-  O185  1  0.31657565  0.57385631  0.91146675  1
  O2-  O186  1  0.81746503  0.07753474  0.24210836  1
  O2-  O187  1  0.82126805  0.06786835  0.56708826  1
  O2-  O188  1  0.82643442  0.07050653  0.91185111  1
  O2-  O189  1  0.82132021  0.57158513  0.23391568  1
  O2-  O190  1  0.82538031  0.56844916  0.56867354  1
  O2-  O191  1  0.82482046  0.56839033  0.90347775  1
  O2-  O192  1  0.05172797  0.08215187  0.27166718  1
  O2-  O193  1  0.04125623  0.08052727  0.59813447  1
  O2-  O194  1  0.04663651  0.08443559  0.94205216  1
  O2-  O195  1  0.05216897  0.58285469  0.27315915  1
  O2-  O196  1  0.04685205  0.57987039  0.59825956  1
  O2-  O197  1  0.05073224  0.57983614  0.93291875  1
  O2-  O198  1  0.53704085  0.08839837  0.27012403  1
  O2-  O199  1  0.53482498  0.08774747  0.59320611  1
  O2-  O200  1  0.53849956  0.08470824  0.92838773  1
  O2-  O201  1  0.53967479  0.58784592  0.27209715  1
  O2-  O202  1  0.54039704  0.58462839  0.60253935  1
  O2-  O203  1  0.54390033  0.58040932  0.93388316  1
  O2-  O204  1  0.16817293  0.20473937  0.26937519  1
  O2-  O205  1  0.16682028  0.20805592  0.59531283  1
  O2-  O206  1  0.16593265  0.20152316  0.94223743  1
  O2-  O207  1  0.16865545  0.70379677  0.27301285  1
  O2-  O208  1  0.16295380  0.71477359  0.59490216  1
  O2-  O209  1  0.16661524  0.71280918  0.93391715  1
  O2-  O210  1  0.66127012  0.20249775  0.26924689  1
  O2-  O211  1  0.66852197  0.20993187  0.59487891  1
  O2-  O212  1  0.67148301  0.20285013  0.93113888  1
  O2-  O213  1  0.66231026  0.70585651  0.27507484  1
  O2-  O214  1  0.66882423  0.69741300  0.60690341  1
  O2-  O215  1  0.67057903  0.70501339  0.93112245  1
  O2-  O216  1  0.08925422  0.45582111  0.06337294  1
  O2-  O217  1  0.08956330  0.45436684  0.39744373  1
  O2-  O218  1  0.08459776  0.44768323  0.72646940  1
  O2-  O219  1  0.08483325  0.96219708  0.07136544  1
  O2-  O220  1  0.08150467  0.95850279  0.40448778  1
  O2-  O221  1  0.08760324  0.95529821  0.72762579  1
  O2-  O222  1  0.57703279  0.45079198  0.06598114  1
  O2-  O223  1  0.58361922  0.45245544  0.39617011  1
  O2-  O224  1  0.57876215  0.45020508  0.73094440  1
  O2-  O225  1  0.58588130  0.96224173  0.06212533  1
  O2-  O226  1  0.58125951  0.96123101  0.39843032  1
  O2-  O227  1  0.57597149  0.96357248  0.73242331  1
  O2-  O228  1  0.20843353  0.33523577  0.06627534  1
  O2-  O229  1  0.20924301  0.33636423  0.39605899  1
  O2-  O230  1  0.20709138  0.33249165  0.72840608  1
  O2-  O231  1  0.21134950  0.83328721  0.07099965  1
  O2-  O232  1  0.21177934  0.83285806  0.40484482  1
  O2-  O233  1  0.21209463  0.83883586  0.72678777  1
  O2-  O234  1  0.70921647  0.32840222  0.06769197  1
  O2-  O235  1  0.70185965  0.33141553  0.39133788  1
  O2-  O236  1  0.70912519  0.33065676  0.73159544  1
  O2-  O237  1  0.70137142  0.83816776  0.06011590  1
  O2-  O238  1  0.70583591  0.83346614  0.40189104  1
  O2-  O239  1  0.69307373  0.82886547  0.73363942  1
  O2-  O240  1  0.45359255  0.41497502  0.27181190  1
  O2-  O241  1  0.44807984  0.42004788  0.60520811  1
  O2-  O242  1  0.44386973  0.42358897  0.93545658  1
  O2-  O243  1  0.45101486  0.91463790  0.27304054  1
  O2-  O244  1  0.45504836  0.91796312  0.59496609  1
  O2-  O245  1  0.45159993  0.92002741  0.93549361  1
  O2-  O246  1  0.96603347  0.41540388  0.26447974  1
  O2-  O247  1  0.95798002  0.41252528  0.60143493  1
  O2-  O248  1  0.96440188  0.41503182  0.92960113  1
  O2-  O249  1  0.95573133  0.91830461  0.26997326  1
  O2-  O250  1  0.95749532  0.91266999  0.60102790  1
  O2-  O251  1  0.96300275  0.92116331  0.93274534  1
  O2-  O252  1  0.33695238  0.29399934  0.27080277  1
  O2-  O253  1  0.33563241  0.29370197  0.59873849  1
  O2-  O254  1  0.33025303  0.28945962  0.93076180  1
  O2-  O255  1  0.33690045  0.78897848  0.27215321  1
  O2-  O256  1  0.33542150  0.78477643  0.59454773  1
  O2-  O257  1  0.33125602  0.78989870  0.93597880  1
  O2-  O258  1  0.83365252  0.29092703  0.26357465  1
  O2-  O259  1  0.83656511  0.29436856  0.60156878  1
  O2-  O260  1  0.83550440  0.28927527  0.93075727  1
  O2-  O261  1  0.83057147  0.78889427  0.26901294  1
  O2-  O262  1  0.82827016  0.80243439  0.60959085  1
  O2-  O263  1  0.82726667  0.80725573  0.93334756  1
  O2-  O264  1  0.41663820  0.04855057  0.06292266  1
  O2-  O265  1  0.41365186  0.04572556  0.39878674  1
  O2-  O266  1  0.41153950  0.04569588  0.72663956  1
  O2-  O267  1  0.41227434  0.54591364  0.06460013  1
  O2-  O268  1  0.41326409  0.54023380  0.39806150  1
  O2-  O269  1  0.41421935  0.54498558  0.73661544  1
  O2-  O270  1  0.91308891  0.04447804  0.06726319  1
  O2-  O271  1  0.91664837  0.05453292  0.39101864  1
  O2-  O272  1  0.92052248  0.04089148  0.73521294  1
  O2-  O273  1  0.92275753  0.54098442  0.06745131  1
  O2-  O274  1  0.91960877  0.53870877  0.39902518  1
  O2-  O275  1  0.92351517  0.54046658  0.73346861  1
  O2-  O276  1  0.29467712  0.16471221  0.06656335  1
  O2-  O277  1  0.29765369  0.16766229  0.39870878  1
  O2-  O278  1  0.29151608  0.16477784  0.72780597  1
  O2-  O279  1  0.28897628  0.66056841  0.06706367  1
  O2-  O280  1  0.29610998  0.66151190  0.39704538  1
  O2-  O281  1  0.28369778  0.66832013  0.73363728  1
  O2-  O282  1  0.79275825  0.16238049  0.06338789  1
  O2-  O283  1  0.79126562  0.16655201  0.39539995  1
  O2-  O284  1  0.79567002  0.16808650  0.73153673  1
  O2-  O285  1  0.79457112  0.67338292  0.06579797  1
  O2-  O286  1  0.78898083  0.66348624  0.40389299  1
  O2-  O287  1  0.80273945  0.67165715  0.73434857  1
