# generated using pymatgen
data_Ca2Al2SiO7
_symmetry_space_group_name_H-M   'P 1'
_cell_length_a   15.46397051
_cell_length_b   15.46273304
_cell_length_c   15.28723714
_cell_angle_alpha   89.99855700
_cell_angle_beta   89.98150811
_cell_angle_gamma   90.01158432
_symmetry_Int_Tables_number   1
_chemical_formula_structural   Ca2Al2SiO7
_chemical_formula_sum   'Ca48 Al48 Si24 O168'
_cell_volume   3655.41123186
_cell_formula_units_Z   24
loop_
 _symmetry_equiv_pos_site_id
 _symmetry_equiv_pos_as_xyz
  1  'x, y, z'
loop_
 _atom_type_symbol
 _atom_type_oxidation_number
  Ca2+  2.0
  Al0+  0.0
  Si0+  0.0
  O2-  -2.0
loop_
 _atom_site_type_symbol
 _atom_site_label
 _atom_site_symmetry_multiplicity
 _atom_site_fract_x
 _atom_site_fract_y
 _atom_site_fract_z
 _atom_site_occupancy
  Ca2+  Ca0  1  0.16687698  0.08236023  0.16431896  1
  Ca2+  Ca1  1  0.17130950  0.08733096  0.50533647  1
  Ca2+  Ca2  1  0.18183453  0.07642505  0.84154162  1
  Ca2+  Ca3  1  0.17913014  0.57576455  0.16374131  1
  Ca2+  Ca4  1  0.17778362  0.58034194  0.50313185  1
  Ca2+  Ca5  1  0.17758243  0.58172722  0.84041176  1
  Ca2+  Ca6  1  0.66142302  0.08542754  0.16403513  1
  Ca2+  Ca7  1  0.67194766  0.08040432  0.51587418  1
  Ca2+  Ca8  1  0.66296479  0.08358533  0.83400198  1
  Ca2+  Ca9  1  0.67134181  0.58054984  0.16585371  1
  Ca2+  Ca10  1  0.67110043  0.57316822  0.50521150  1
  Ca2+  Ca11  1  0.66824703  0.57289093  0.84236602  1
  Ca2+  Ca12  1  0.07341767  0.34345498  0.16169351  1
  Ca2+  Ca13  1  0.07591725  0.32473895  0.48809876  1
  Ca2+  Ca14  1  0.07781319  0.34380355  0.83517641  1
  Ca2+  Ca15  1  0.08394416  0.83166562  0.15908500  1
  Ca2+  Ca16  1  0.07524652  0.83521343  0.49989149  1
  Ca2+  Ca17  1  0.07993184  0.83684081  0.82917031  1
  Ca2+  Ca18  1  0.57562470  0.33114214  0.15604597  1
  Ca2+  Ca19  1  0.58304846  0.32987383  0.50066373  1
  Ca2+  Ca20  1  0.58416911  0.32886806  0.83350132  1
  Ca2+  Ca21  1  0.57591103  0.82285990  0.15437114  1
  Ca2+  Ca22  1  0.57817021  0.83774597  0.50323815  1
  Ca2+  Ca23  1  0.57508762  0.82695305  0.82992942  1
  Ca2+  Ca24  1  0.34578742  0.42353039  0.16923371  1
  Ca2+  Ca25  1  0.34301877  0.42652011  0.50233370  1
  Ca2+  Ca26  1  0.33194866  0.42623630  0.84490978  1
  Ca2+  Ca27  1  0.33579891  0.92106009  0.16064227  1
  Ca2+  Ca28  1  0.33296389  0.92445512  0.51134716  1
  Ca2+  Ca29  1  0.34124458  0.92301419  0.84041924  1
  Ca2+  Ca30  1  0.83226187  0.41984891  0.16589136  1
  Ca2+  Ca31  1  0.83092692  0.41645818  0.50410968  1
  Ca2+  Ca32  1  0.82197478  0.41599651  0.84353405  1
  Ca2+  Ca33  1  0.82904070  0.91909151  0.17008671  1
  Ca2+  Ca34  1  0.82646106  0.92321789  0.51322556  1
  Ca2+  Ca35  1  0.83032330  0.91957055  0.83216343  1
  Ca2+  Ca36  1  0.41896112  0.17832131  0.15534364  1
  Ca2+  Ca37  1  0.42161183  0.17023886  0.49776481  1
  Ca2+  Ca38  1  0.42433332  0.16324573  0.83007314  1
  Ca2+  Ca39  1  0.41829824  0.66725643  0.15433192  1
  Ca2+  Ca40  1  0.41195754  0.66885348  0.49904878  1
  Ca2+  Ca41  1  0.41082960  0.67267356  0.83024820  1
  Ca2+  Ca42  1  0.92334753  0.17983838  0.16199704  1
  Ca2+  Ca43  1  0.92035501  0.16927314  0.49258888  1
  Ca2+  Ca44  1  0.91536904  0.17035848  0.83073398  1
  Ca2+  Ca45  1  0.91423532  0.66043826  0.15879423  1
  Ca2+  Ca46  1  0.91234361  0.67095198  0.49685711  1
  Ca2+  Ca47  1  0.91675556  0.66911316  0.82929705  1
  Al0+  Al48  1  -0.00036006  0.00115961  0.00387344  1
  Al0+  Al49  1  -0.00117004  -0.00113393  0.32976419  1
  Al0+  Al50  1  -0.00063789  0.00034383  0.66465304  1
  Al0+  Al51  1  0.00131086  0.50239709  -0.00035521  1
  Al0+  Al52  1  0.00104981  0.50263388  0.33569437  1
  Al0+  Al53  1  0.00109377  0.50056185  0.66164651  1
  Al0+  Al54  1  0.50045226  -0.00095133  -0.00003118  1
  Al0+  Al55  1  0.49800254  -0.00190683  0.33368558  1
  Al0+  Al56  1  0.50111048  -0.00080834  0.66463253  1
  Al0+  Al57  1  0.50317120  0.49839032  0.00029764  1
  Al0+  Al58  1  0.50259801  0.50130649  0.33662665  1
  Al0+  Al59  1  0.50061721  0.50117138  0.67434746  1
  Al0+  Al60  1  0.24691882  0.24915678  0.00356234  1
  Al0+  Al61  1  0.25108838  0.24825205  0.32662222  1
  Al0+  Al62  1  0.24904663  0.25111882  0.66995465  1
  Al0+  Al63  1  0.24760140  0.75019287  0.00344287  1
  Al0+  Al64  1  0.24754355  0.75141685  0.33801786  1
  Al0+  Al65  1  0.24902149  0.74925764  0.66333223  1
  Al0+  Al66  1  0.75166660  0.25026222  -0.00213493  1
  Al0+  Al67  1  0.75099569  0.24873448  0.32993304  1
  Al0+  Al68  1  0.74990630  0.25021495  0.66914907  1
  Al0+  Al69  1  0.74951200  0.75186436  -0.00134307  1
  Al0+  Al70  1  0.74843890  0.74958490  0.33823480  1
  Al0+  Al71  1  0.74970551  0.75017481  0.66410364  1
  Al0+  Al72  1  0.32269532  0.56920604  0.01430792  1
  Al0+  Al73  1  0.42713753  0.81776717  0.98572949  1
  Al0+  Al74  1  0.42898238  0.81988451  0.65156477  1
  Al0+  Al75  1  0.17804317  0.42795564  0.01412932  1
  Al0+  Al76  1  0.07181400  0.17656251  0.31658686  1
  Al0+  Al77  1  0.31961108  0.57128525  0.68052133  1
  Al0+  Al78  1  0.32127076  0.07188616  0.67851302  1
  Al0+  Al79  1  0.92867843  0.82088431  0.65260176  1
  Al0+  Al80  1  0.42548203  0.32209202  0.98407753  1
  Al0+  Al81  1  0.32385799  0.07094092  0.01671227  1
  Al0+  Al82  1  0.67960275  0.42630070  0.01703118  1
  Al0+  Al83  1  0.67800859  0.92744125  0.68353015  1
  Al0+  Al84  1  0.82258471  0.07156544  0.68215620  1
  Al0+  Al85  1  0.93262469  0.32216156  0.98443344  1
  Al0+  Al86  1  0.82018246  0.57275183  0.01217412  1
  Al0+  Al87  1  0.92888579  0.32347475  0.31755871  1
  Al0+  Al88  1  0.82210105  0.57131162  0.34894952  1
  Al0+  Al89  1  0.17740435  0.92920783  0.01504982  1
  Al0+  Al90  1  0.43255687  0.32181105  0.32208931  1
  Al0+  Al91  1  0.57364801  0.67729195  0.98482988  1
  Al0+  Al92  1  0.68052461  0.42878285  0.68084865  1
  Al0+  Al93  1  0.32211069  0.57098074  0.34821304  1
  Al0+  Al94  1  0.57025679  0.18042022  0.65266547  1
  Al0+  Al95  1  0.57076275  0.17895102  0.98424547  1
  Si0+  Si96  1  0.42630434  0.32354839  0.65152312  1
  Si0+  Si97  1  0.57173368  0.67584539  0.64798831  1
  Si0+  Si98  1  0.57203876  0.17482543  0.31831794  1
  Si0+  Si99  1  0.06937987  0.68094340  0.98520092  1
  Si0+  Si100  1  0.07200527  0.17955038  0.65331260  1
  Si0+  Si101  1  0.17890120  0.42676769  0.34981810  1
  Si0+  Si102  1  0.67958167  0.42673670  0.35071264  1
  Si0+  Si103  1  0.92722398  0.81892381  0.31761647  1
  Si0+  Si104  1  0.32114504  0.07082646  0.34915036  1
  Si0+  Si105  1  0.92778640  0.82427158  0.98597759  1
  Si0+  Si106  1  0.82000394  0.06933581  0.34664478  1
  Si0+  Si107  1  0.07184092  0.68121160  0.31743735  1
  Si0+  Si108  1  0.17787854  0.92851159  0.68018451  1
  Si0+  Si109  1  0.17703518  0.92970371  0.35078931  1
  Si0+  Si110  1  0.07060759  0.17465442  0.98075396  1
  Si0+  Si111  1  0.92909170  0.32101176  0.65191914  1
  Si0+  Si112  1  0.57065210  0.68123376  0.32053982  1
  Si0+  Si113  1  0.17597438  0.42788570  0.68128230  1
  Si0+  Si114  1  0.67766416  0.92886454  0.34837961  1
  Si0+  Si115  1  0.67983921  0.92948292  0.01574063  1
  Si0+  Si116  1  0.82394536  0.57168281  0.68164511  1
  Si0+  Si117  1  0.07164117  0.67724746  0.64645958  1
  Si0+  Si118  1  0.42650971  0.82137451  0.31878512  1
  Si0+  Si119  1  0.82198219  0.07126138  0.01713839  1
  O2-  O120  1  0.24972146  -0.00006260  0.06652281  1
  O2-  O121  1  0.24761836  0.00171527  0.39175737  1
  O2-  O122  1  0.24932460  -0.00637014  0.72360751  1
  O2-  O123  1  0.25865288  0.48984342  0.06512237  1
  O2-  O124  1  0.25076840  0.49210136  0.39482213  1
  O2-  O125  1  0.24637876  0.49464655  0.72417834  1
  O2-  O126  1  0.74893839  0.00196236  0.05933861  1
  O2-  O127  1  0.74512413  0.00335687  0.38992907  1
  O2-  O128  1  0.74995023  0.00033073  0.73242215  1
  O2-  O129  1  0.74964778  0.50155374  0.06517037  1
  O2-  O130  1  0.75245988  0.49171791  0.39487693  1
  O2-  O131  1  0.75602310  0.50374478  0.72553453  1
  O2-  O132  1  0.00423945  0.25389573  0.26861294  1
  O2-  O133  1  0.00042250  0.24993577  0.61032517  1
  O2-  O134  1  0.00805773  0.24870286  0.93597142  1
  O2-  O135  1  -0.00354833  0.74756384  0.27413839  1
  O2-  O136  1  0.00114040  0.74509863  0.60304808  1
  O2-  O137  1  -0.00155777  0.75308350  0.94427833  1
  O2-  O138  1  0.50539951  0.24529922  0.27584444  1
  O2-  O139  1  0.49417764  0.25409459  0.60618119  1
  O2-  O140  1  0.49632274  0.24852147  0.93433242  1
  O2-  O141  1  0.49578374  0.74834192  0.27830153  1
  O2-  O142  1  0.50279426  0.74458300  0.60279577  1
  O2-  O143  1  0.49535402  0.74272744  0.93530438  1
  O2-  O144  1  0.06320569  0.16906864  0.08588701  1
  O2-  O145  1  0.06848102  0.17546814  0.43130698  1
  O2-  O146  1  0.07235998  0.17930789  0.75770087  1
  O2-  O147  1  0.06852279  0.68168689  0.09060990  1
  O2-  O148  1  0.07278822  0.68523619  0.42252301  1
  O2-  O149  1  0.07112941  0.67586751  0.75179794  1
  O2-  O150  1  0.57017032  0.17903415  0.09882136  1
  O2-  O151  1  0.57179735  0.17214421  0.42392600  1
  O2-  O152  1  0.57036572  0.18081706  0.76460835  1
  O2-  O153  1  0.57675291  0.68383153  0.09940737  1
  O2-  O154  1  0.57159126  0.68309302  0.42560699  1
  O2-  O155  1  0.57199069  0.67631231  0.75277067  1
  O2-  O156  1  0.17644813  0.43151579  0.24509107  1
  O2-  O157  1  0.17335144  0.42793319  0.57544854  1
  O2-  O158  1  0.17457612  0.43715867  0.90045979  1
  O2-  O159  1  0.17618983  0.92676385  0.24642712  1
  O2-  O160  1  0.17699673  0.93131845  0.57386750  1
  O2-  O161  1  0.17197958  0.93190818  0.90167511  1
  O2-  O162  1  0.67752860  0.42859596  0.24604184  1
  O2-  O163  1  0.68282475  0.42916995  0.56678730  1
  O2-  O164  1  0.68386110  0.42474188  0.90346694  1
  O2-  O165  1  0.67923990  0.92719227  0.24322533  1
  O2-  O166  1  0.68009953  0.93050226  0.56864577  1
  O2-  O167  1  0.68269778  0.92754675  0.91141619  1
  O2-  O168  1  0.43062685  0.32097222  0.09836635  1
  O2-  O169  1  0.43487597  0.32060958  0.43577610  1
  O2-  O170  1  0.42439786  0.32286310  0.75613311  1
  O2-  O171  1  0.43056223  0.81784229  0.10045002  1
  O2-  O172  1  0.42825173  0.82444515  0.42381579  1
  O2-  O173  1  0.42703224  0.81823821  0.76368456  1
  O2-  O174  1  0.93267952  0.32138386  0.09746089  1
  O2-  O175  1  0.92833019  0.31906928  0.43206705  1
  O2-  O176  1  0.93149385  0.32347551  0.75653660  1
  O2-  O177  1  0.92751046  0.82443130  0.09158304  1
  O2-  O178  1  0.92890336  0.82034248  0.42256001  1
  O2-  O179  1  0.93210042  0.82044501  0.76566991  1
  O2-  O180  1  0.32542155  0.06687329  0.24503396  1
  O2-  O181  1  0.31731172  0.07268744  0.56440774  1
  O2-  O182  1  0.32415067  0.06679190  0.90295317  1
  O2-  O183  1  0.32187311  0.57399809  0.23606052  1
  O2-  O184  1  0.31850695  0.57003832  0.56664856  1
  O2-  O185  1  0.31627350  0.57377976  0.90106243  1
  O2-  O186  1  0.81995418  0.06611259  0.24165502  1
  O2-  O187  1  0.82303085  0.07065996  0.56748885  1
  O2-  O188  1  0.82556607  0.06812994  0.91249847  1
  O2-  O189  1  0.81785572  0.57698188  0.23689427  1
  O2-  O190  1  0.82391440  0.56913721  0.57551360  1
  O2-  O191  1  0.82091359  0.57289784  0.89846957  1
  O2-  O192  1  0.03806803  0.07964223  0.26316797  1
  O2-  O193  1  0.04539336  0.08804792  0.60394319  1
  O2-  O194  1  0.03715967  0.08369423  0.93319235  1
  O2-  O195  1  0.04857143  0.58789250  0.27247685  1
  O2-  O196  1  0.04677333  0.58416569  0.59742020  1
  O2-  O197  1  0.04029523  0.59180283  0.93429009  1
  O2-  O198  1  0.54481831  0.08128237  0.27200568  1
  O2-  O199  1  0.54177297  0.08362051  0.59719086  1
  O2-  O200  1  0.54554273  0.07886522  0.93374617  1
  O2-  O201  1  0.54767275  0.58803963  0.27496412  1
  O2-  O202  1  0.54442529  0.58216655  0.60185921  1
  O2-  O203  1  0.55536051  0.57626877  0.93627608  1
  O2-  O204  1  0.17227341  0.19587607  0.26582070  1
  O2-  O205  1  0.16305221  0.20843285  0.60342403  1
  O2-  O206  1  0.16727907  0.19207125  0.93967160  1
  O2-  O207  1  0.16152416  0.71519550  0.26971901  1
  O2-  O208  1  0.16336390  0.70549328  0.59794926  1
  O2-  O209  1  0.15995833  0.70987075  0.93677442  1
  O2-  O210  1  0.66677093  0.19610058  0.27301816  1
  O2-  O211  1  0.66752669  0.21248277  0.59824204  1
  O2-  O212  1  0.67027725  0.20537919  0.93316239  1
  O2-  O213  1  0.66081688  0.71421134  0.27287770  1
  O2-  O214  1  0.66556478  0.70117228  0.60106237  1
  O2-  O215  1  0.66894413  0.71372562  0.93002272  1
  O2-  O216  1  0.08497526  0.46970070  0.06950601  1
  O2-  O217  1  0.08698259  0.45613718  0.39846004  1
  O2-  O218  1  0.08280943  0.45674535  0.72704371  1
  O2-  O219  1  0.07945601  0.95857714  0.07114790  1
  O2-  O220  1  0.08376474  0.95689026  0.39705630  1
  O2-  O221  1  0.08536997  0.95582838  0.72617261  1
  O2-  O222  1  0.58133124  0.45238656  0.07008692  1
  O2-  O223  1  0.58939699  0.45859185  0.40059273  1
  O2-  O224  1  0.58489681  0.45834500  0.73536580  1
  O2-  O225  1  0.58891639  0.95608106  0.06532080  1
  O2-  O226  1  0.58413483  0.95291672  0.39478589  1
  O2-  O227  1  0.57964074  0.95471913  0.73413563  1
  O2-  O228  1  0.18621983  0.32477108  0.06238368  1
  O2-  O229  1  0.20026881  0.33024921  0.39220903  1
  O2-  O230  1  0.19687284  0.33428430  0.72828428  1
  O2-  O231  1  0.20297912  0.83114576  0.07009054  1
  O2-  O232  1  0.20495343  0.83920549  0.40098774  1
  O2-  O233  1  0.19767272  0.83282510  0.72275534  1
  O2-  O234  1  0.71233235  0.32895617  0.07018408  1
  O2-  O235  1  0.70206847  0.33076311  0.39470090  1
  O2-  O236  1  0.71249066  0.33399748  0.73518808  1
  O2-  O237  1  0.71151623  0.84001871  0.06603778  1
  O2-  O238  1  0.70841675  0.83952618  0.39828699  1
  O2-  O239  1  0.70771129  0.82848710  0.73353422  1
  O2-  O240  1  0.46451218  0.41878364  0.26968700  1
  O2-  O241  1  0.45596229  0.41723267  0.60677006  1
  O2-  O242  1  0.45479207  0.42041726  0.93266189  1
  O2-  O243  1  0.45675331  0.91207753  0.27020224  1
  O2-  O244  1  0.46121526  0.91538140  0.59504372  1
  O2-  O245  1  0.46099034  0.91492077  0.93507818  1
  O2-  O246  1  0.95572460  0.42399549  0.26836122  1
  O2-  O247  1  0.95646122  0.41263982  0.60236743  1
  O2-  O248  1  0.96372766  0.41886595  0.93029355  1
  O2-  O249  1  0.95550537  0.91009441  0.26934095  1
  O2-  O250  1  0.96184177  0.91661551  0.59588329  1
  O2-  O251  1  0.95679811  0.91553749  0.93879210  1
  O2-  O252  1  0.33547055  0.29492411  0.26849340  1
  O2-  O253  1  0.33185808  0.29925534  0.60488776  1
  O2-  O254  1  0.32316932  0.30001608  0.93629900  1
  O2-  O255  1  0.33273664  0.79650464  0.27505148  1
  O2-  O256  1  0.33144937  0.79066470  0.59615143  1
  O2-  O257  1  0.32624185  0.79565293  0.93549348  1
  O2-  O258  1  0.83119952  0.29245944  0.26465235  1
  O2-  O259  1  0.83805377  0.29283540  0.60409990  1
  O2-  O260  1  0.83732615  0.28758890  0.93130688  1
  O2-  O261  1  0.83375799  0.79309236  0.27247285  1
  O2-  O262  1  0.83208872  0.79224183  0.59624498  1
  O2-  O263  1  0.83685267  0.79780932  0.93757643  1
  O2-  O264  1  0.42070601  0.03839824  0.07173955  1
  O2-  O265  1  0.41200569  0.03931440  0.39813273  1
  O2-  O266  1  0.41767417  0.04119721  0.72972625  1
  O2-  O267  1  0.42336896  0.54878576  0.06521729  1
  O2-  O268  1  0.41960774  0.54298711  0.40321833  1
  O2-  O269  1  0.41634318  0.54593510  0.73430539  1
  O2-  O270  1  0.91083264  0.03949205  0.06776703  1
  O2-  O271  1  0.91072937  0.03719503  0.39411807  1
  O2-  O272  1  0.92072917  0.04142267  0.73440877  1
  O2-  O273  1  0.91854694  0.54468964  0.06473188  1
  O2-  O274  1  0.92089794  0.54785310  0.40305621  1
  O2-  O275  1  0.91926146  0.54813518  0.72465734  1
  O2-  O276  1  0.29531893  0.16923381  0.06913170  1
  O2-  O277  1  0.29603594  0.16388362  0.39550215  1
  O2-  O278  1  0.28931574  0.16719611  0.73332045  1
  O2-  O279  1  0.28601886  0.66497953  0.06839404  1
  O2-  O280  1  0.28589338  0.66668019  0.40258917  1
  O2-  O281  1  0.28468279  0.66732575  0.73238137  1
  O2-  O282  1  0.79501871  0.16279541  0.06423826  1
  O2-  O283  1  0.79788476  0.16313687  0.39294445  1
  O2-  O284  1  0.79624382  0.16974393  0.73413439  1
  O2-  O285  1  0.79443823  0.67257840  0.06544564  1
  O2-  O286  1  0.78660747  0.66663203  0.40492811  1
  O2-  O287  1  0.80103777  0.66663165  0.72416911  1
