# generated using pymatgen
data_Ca2Al2SiO7
_symmetry_space_group_name_H-M   'P 1'
_cell_length_a   15.45311764
_cell_length_b   15.45270388
_cell_length_c   15.27898163
_cell_angle_alpha   89.99014331
_cell_angle_beta   90.01171482
_cell_angle_gamma   89.99475976
_symmetry_Int_Tables_number   1
_chemical_formula_structural   Ca2Al2SiO7
_chemical_formula_sum   'Ca48 Al48 Si24 O168'
_cell_volume   3648.50532670
_cell_formula_units_Z   24
loop_
 _symmetry_equiv_pos_site_id
 _symmetry_equiv_pos_as_xyz
  1  'x, y, z'
loop_
 _atom_type_symbol
 _atom_type_oxidation_number
  Ca2+  2.0
  Al0+  0.0
  Si0+  0.0
  O2-  -2.0
loop_
 _atom_site_type_symbol
 _atom_site_label
 _atom_site_symmetry_multiplicity
 _atom_site_fract_x
 _atom_site_fract_y
 _atom_site_fract_z
 _atom_site_occupancy
  Ca2+  Ca0  1  0.17173285  0.08719417  0.16946967  1
  Ca2+  Ca1  1  0.16982144  0.09090901  0.50125444  1
  Ca2+  Ca2  1  0.17022004  0.08343312  0.84439310  1
  Ca2+  Ca3  1  0.16142195  0.57188577  0.17376519  1
  Ca2+  Ca4  1  0.15471372  0.57257201  0.50661200  1
  Ca2+  Ca5  1  0.15933007  0.57244387  0.83694249  1
  Ca2+  Ca6  1  0.67056012  0.07779702  0.17175035  1
  Ca2+  Ca7  1  0.68083465  0.08630507  0.50795121  1
  Ca2+  Ca8  1  0.67041289  0.08306223  0.84197029  1
  Ca2+  Ca9  1  0.66102871  0.58198909  0.16829957  1
  Ca2+  Ca10  1  0.67014898  0.58731035  0.50650978  1
  Ca2+  Ca11  1  0.66897139  0.58478301  0.83989344  1
  Ca2+  Ca12  1  0.09074314  0.32522310  0.16393088  1
  Ca2+  Ca13  1  0.08925560  0.32660469  0.49559621  1
  Ca2+  Ca14  1  0.09164828  0.32521222  0.83019939  1
  Ca2+  Ca15  1  0.07247413  0.84009594  0.16135793  1
  Ca2+  Ca16  1  0.07779724  0.81938884  0.49094390  1
  Ca2+  Ca17  1  0.07849116  0.83405218  0.82929431  1
  Ca2+  Ca18  1  0.57589933  0.32847902  0.15766985  1
  Ca2+  Ca19  1  0.57648730  0.32869135  0.49478795  1
  Ca2+  Ca20  1  0.58886057  0.32249749  0.83167786  1
  Ca2+  Ca21  1  0.58984115  0.82415797  0.15898606  1
  Ca2+  Ca22  1  0.58722347  0.82208543  0.49778050  1
  Ca2+  Ca23  1  0.58779187  0.82690048  0.83305137  1
  Ca2+  Ca24  1  0.32369258  0.41072864  0.17233922  1
  Ca2+  Ca25  1  0.32429886  0.41235908  0.49933887  1
  Ca2+  Ca26  1  0.32321412  0.41610758  0.83672629  1
  Ca2+  Ca27  1  0.32987354  0.92967459  0.16898495  1
  Ca2+  Ca28  1  0.33314145  0.92186971  0.50082304  1
  Ca2+  Ca29  1  0.32445174  0.92260492  0.84494976  1
  Ca2+  Ca30  1  0.82428990  0.41394333  0.16745708  1
  Ca2+  Ca31  1  0.83287136  0.42553554  0.50825902  1
  Ca2+  Ca32  1  0.82934515  0.42575463  0.83725469  1
  Ca2+  Ca33  1  0.83402580  0.91535128  0.16883625  1
  Ca2+  Ca34  1  0.84181308  0.92524333  0.49930964  1
  Ca2+  Ca35  1  0.83071074  0.92069765  0.83862196  1
  Ca2+  Ca36  1  0.41245096  0.16853494  0.16205204  1
  Ca2+  Ca37  1  0.41985895  0.17066394  0.49419251  1
  Ca2+  Ca38  1  0.42851052  0.15843625  0.83332478  1
  Ca2+  Ca39  1  0.42754806  0.66482985  0.16237826  1
  Ca2+  Ca40  1  0.42861613  0.66316449  0.49515712  1
  Ca2+  Ca41  1  0.42793088  0.66417372  0.83031500  1
  Ca2+  Ca42  1  0.92875628  0.15893774  0.16413000  1
  Ca2+  Ca43  1  0.92594939  0.16003868  0.49545243  1
  Ca2+  Ca44  1  0.92856906  0.16460887  0.82729418  1
  Ca2+  Ca45  1  0.92105211  0.67842675  0.16469332  1
  Ca2+  Ca46  1  0.92306381  0.66722283  0.49375232  1
  Ca2+  Ca47  1  0.91711226  0.67304486  0.82866331  1
  Al0+  Al48  1  0.00009359  0.00043113  -0.00753947  1
  Al0+  Al49  1  0.00032102  -0.00067434  0.33047599  1
  Al0+  Al50  1  0.00056705  0.00115698  0.66631933  1
  Al0+  Al51  1  -0.00143790  0.50086290  0.00642908  1
  Al0+  Al52  1  -0.00286793  0.49813146  0.33317732  1
  Al0+  Al53  1  -0.00233371  0.49973542  0.67521577  1
  Al0+  Al54  1  0.50087557  -0.00068930  0.00505993  1
  Al0+  Al55  1  0.50070419  -0.00190529  0.34099079  1
  Al0+  Al56  1  0.50054137  0.00009162  0.66114792  1
  Al0+  Al57  1  0.50014934  0.49950263  -0.00250774  1
  Al0+  Al58  1  0.49730680  0.49766456  0.32618291  1
  Al0+  Al59  1  0.49784351  0.49934627  0.66280211  1
  Al0+  Al60  1  0.25038066  0.25224292  0.00151148  1
  Al0+  Al61  1  0.25075373  0.25014548  0.33499759  1
  Al0+  Al62  1  0.25078013  0.24976558  0.66832410  1
  Al0+  Al63  1  0.24956141  0.74970176  0.00505860  1
  Al0+  Al64  1  0.25278689  0.74817679  0.33019207  1
  Al0+  Al65  1  0.25017209  0.74959061  0.66262628  1
  Al0+  Al66  1  0.75081591  0.25289012  0.00108109  1
  Al0+  Al67  1  0.74978474  0.24909689  0.33981316  1
  Al0+  Al68  1  0.75154362  0.25009231  0.66708737  1
  Al0+  Al69  1  0.75250885  0.75182626  -0.00492090  1
  Al0+  Al70  1  0.74999304  0.74885225  0.32650193  1
  Al0+  Al71  1  0.74965300  0.75196254  0.66603301  1
  Al0+  Al72  1  0.57094737  0.67945278  0.65354474  1
  Al0+  Al73  1  0.93108013  0.82113229  0.98268142  1
  Al0+  Al74  1  0.81916406  0.57270404  0.68028176  1
  Al0+  Al75  1  0.43016438  0.31716171  0.31898342  1
  Al0+  Al76  1  0.93144925  0.82048882  0.31781001  1
  Al0+  Al77  1  0.07305484  0.67452327  0.31788506  1
  Al0+  Al78  1  0.32129899  0.07095461  0.01446617  1
  Al0+  Al79  1  0.07049244  0.18264200  0.98595801  1
  Al0+  Al80  1  0.32015135  0.07076660  0.34982182  1
  Al0+  Al81  1  0.06965388  0.18167999  0.32011888  1
  Al0+  Al82  1  0.56996349  0.67934568  0.98466778  1
  Al0+  Al83  1  0.82242035  0.07160977  0.68231704  1
  Al0+  Al84  1  0.07142197  0.17981929  0.65243921  1
  Al0+  Al85  1  0.17910078  0.43090360  0.01542444  1
  Al0+  Al86  1  0.17566066  0.92793076  0.01474238  1
  Al0+  Al87  1  0.57167912  0.17805671  0.98927477  1
  Al0+  Al88  1  0.06978385  0.67756717  0.65545283  1
  Al0+  Al89  1  0.17998800  0.42956972  0.68135676  1
  Al0+  Al90  1  0.17862868  0.43120683  0.34848330  1
  Al0+  Al91  1  0.57325738  0.17814251  0.65221523  1
  Al0+  Al92  1  0.56929376  0.68021578  0.31807701  1
  Al0+  Al93  1  0.68073817  0.92905374  0.01276527  1
  Al0+  Al94  1  0.67868673  0.42923711  0.01320898  1
  Al0+  Al95  1  0.82148063  0.06990707  0.34667906  1
  Si0+  Si96  1  0.67515669  0.42869497  0.68188526  1
  Si0+  Si97  1  0.32386666  0.57221011  0.35002012  1
  Si0+  Si98  1  0.32364372  0.57254863  0.01674742  1
  Si0+  Si99  1  0.07296998  0.67612829  0.98422119  1
  Si0+  Si100  1  0.17754566  0.92651395  0.35079542  1
  Si0+  Si101  1  0.81746841  0.57043136  0.34690905  1
  Si0+  Si102  1  0.92829536  0.32264598  0.65159422  1
  Si0+  Si103  1  0.42793517  0.32055293  0.65005333  1
  Si0+  Si104  1  0.57432501  0.17660450  0.31834479  1
  Si0+  Si105  1  0.67556147  0.42887996  0.34860759  1
  Si0+  Si106  1  0.67707205  0.92977952  0.68316013  1
  Si0+  Si107  1  0.42794180  0.32151772  0.98118367  1
  Si0+  Si108  1  0.92660009  0.32503999  0.98317957  1
  Si0+  Si109  1  0.82226246  0.07343737  0.01537437  1
  Si0+  Si110  1  0.67897539  0.92503146  0.35154729  1
  Si0+  Si111  1  0.92392487  0.32285419  0.31748534  1
  Si0+  Si112  1  0.32352691  0.57399553  0.68285042  1
  Si0+  Si113  1  0.18012758  0.92745195  0.67922267  1
  Si0+  Si114  1  0.82038450  0.57367894  0.01925970  1
  Si0+  Si115  1  0.92844273  0.82261649  0.64909986  1
  Si0+  Si116  1  0.42654726  0.82271104  0.64916319  1
  Si0+  Si117  1  0.42658917  0.82242876  0.98485742  1
  Si0+  Si118  1  0.32158846  0.07031105  0.68159931  1
  Si0+  Si119  1  0.42772751  0.82542307  0.31519634  1
  O2-  O120  1  0.24713802  0.00068299  0.06416634  1
  O2-  O121  1  0.24670379  -0.00564007  0.39695836  1
  O2-  O122  1  0.25064971  -0.00119321  0.72213683  1
  O2-  O123  1  0.25186122  0.50772364  0.06139378  1
  O2-  O124  1  0.24819190  0.51171699  0.39503088  1
  O2-  O125  1  0.25230632  0.50791180  0.72680749  1
  O2-  O126  1  0.75218343  0.00640149  0.05994405  1
  O2-  O127  1  0.74540783  -0.00362639  0.39485101  1
  O2-  O128  1  0.74394295  0.00015718  0.72745110  1
  O2-  O129  1  0.75104256  0.50484260  0.06270364  1
  O2-  O130  1  0.74675189  0.49953311  0.39085452  1
  O2-  O131  1  0.74072331  0.50067165  0.72556994  1
  O2-  O132  1  -0.00753747  0.25426123  0.27371580  1
  O2-  O133  1  -0.00404125  0.25392509  0.60603302  1
  O2-  O134  1  -0.00369351  0.25782581  0.93859245  1
  O2-  O135  1  0.00719181  0.75190675  0.26788408  1
  O2-  O136  1  -0.00461203  0.75141414  0.60661724  1
  O2-  O137  1  0.00881583  0.74801123  0.93834987  1
  O2-  O138  1  0.50397507  0.24162200  0.27238001  1
  O2-  O139  1  0.49959400  0.25422141  0.60658364  1
  O2-  O140  1  0.49749845  0.25226835  0.93916796  1
  O2-  O141  1  0.49582754  0.75602533  0.27147163  1
  O2-  O142  1  0.49506517  0.75262284  0.60634574  1
  O2-  O143  1  0.49384780  0.75312271  0.93855728  1
  O2-  O144  1  0.07009986  0.18298021  0.09906440  1
  O2-  O145  1  0.06934266  0.18311486  0.43353566  1
  O2-  O146  1  0.07301984  0.17999901  0.76540630  1
  O2-  O147  1  0.06915460  0.67400545  0.08945618  1
  O2-  O148  1  0.06705763  0.67350884  0.43198135  1
  O2-  O149  1  0.06909476  0.68036321  0.76849253  1
  O2-  O150  1  0.57209043  0.18024675  0.10222856  1
  O2-  O151  1  0.57477940  0.18141073  0.42420195  1
  O2-  O152  1  0.57136459  0.17700764  0.76552634  1
  O2-  O153  1  0.56886984  0.67961979  0.09772534  1
  O2-  O154  1  0.57016731  0.68032392  0.43161983  1
  O2-  O155  1  0.56998988  0.68053934  0.76641620  1
  O2-  O156  1  0.18194633  0.42989017  0.23554857  1
  O2-  O157  1  0.18170615  0.42874931  0.56828098  1
  O2-  O158  1  0.18107112  0.43078210  0.90200179  1
  O2-  O159  1  0.17796372  0.92912632  0.24556448  1
  O2-  O160  1  0.18200868  0.92641284  0.57420117  1
  O2-  O161  1  0.17827404  0.92848115  0.90012361  1
  O2-  O162  1  0.67654226  0.42831993  0.24360673  1
  O2-  O163  1  0.67610566  0.42934495  0.57575157  1
  O2-  O164  1  0.68120426  0.42989423  0.89996003  1
  O2-  O165  1  0.67871279  0.92497736  0.24597469  1
  O2-  O166  1  0.67771666  0.92871951  0.57750396  1
  O2-  O167  1  0.68205359  0.92929897  0.89944153  1
  O2-  O168  1  0.42841248  0.32143300  0.08691636  1
  O2-  O169  1  0.43248904  0.31758075  0.43248486  1
  O2-  O170  1  0.42702670  0.32029797  0.75545935  1
  O2-  O171  1  0.42839853  0.82090086  0.09028405  1
  O2-  O172  1  0.42884415  0.82467585  0.42123685  1
  O2-  O173  1  0.42531450  0.82440971  0.75458694  1
  O2-  O174  1  0.92506301  0.32390070  0.08879642  1
  O2-  O175  1  0.92292611  0.32507904  0.42314378  1
  O2-  O176  1  0.92842433  0.32190203  0.75712029  1
  O2-  O177  1  0.92941921  0.81948100  0.09545923  1
  O2-  O178  1  0.93090040  0.81793962  0.43184671  1
  O2-  O179  1  0.92935162  0.82290174  0.75469919  1
  O2-  O180  1  0.31933246  0.07089861  0.23725569  1
  O2-  O181  1  0.32119393  0.07034965  0.57636088  1
  O2-  O182  1  0.32173798  0.06838957  0.90000363  1
  O2-  O183  1  0.32799630  0.56818797  0.24470469  1
  O2-  O184  1  0.32720731  0.57304054  0.57755804  1
  O2-  O185  1  0.32489550  0.57105843  0.91083728  1
  O2-  O186  1  0.81934550  0.07057098  0.23370853  1
  O2-  O187  1  0.82366778  0.06830235  0.56905762  1
  O2-  O188  1  0.82083604  0.07246737  0.90947948  1
  O2-  O189  1  0.81560763  0.56973051  0.24203282  1
  O2-  O190  1  0.81850249  0.57085838  0.56653692  1
  O2-  O191  1  0.82034362  0.57258359  0.91332934  1
  O2-  O192  1  0.04081938  0.08464873  0.26689557  1
  O2-  O193  1  0.04160969  0.08272411  0.59859990  1
  O2-  O194  1  0.04049761  0.08688932  0.92995369  1
  O2-  O195  1  0.03751610  0.57839850  0.26469789  1
  O2-  O196  1  0.03641336  0.58043904  0.60430962  1
  O2-  O197  1  0.04182639  0.58340394  0.93842947  1
  O2-  O198  1  0.55274401  0.07950549  0.27896294  1
  O2-  O199  1  0.54205711  0.08272864  0.59613525  1
  O2-  O200  1  0.54119099  0.08107673  0.93500158  1
  O2-  O201  1  0.53737671  0.58402665  0.26428312  1
  O2-  O202  1  0.54183447  0.58221633  0.59893359  1
  O2-  O203  1  0.53966914  0.58257272  0.93005692  1
  O2-  O204  1  0.16539266  0.21493607  0.26749003  1
  O2-  O205  1  0.16859019  0.21154549  0.59980344  1
  O2-  O206  1  0.16755486  0.21434950  0.93256843  1
  O2-  O207  1  0.17583111  0.69224962  0.27042090  1
  O2-  O208  1  0.16706944  0.70505205  0.60034933  1
  O2-  O209  1  0.16968064  0.69511545  0.94173687  1
  O2-  O210  1  0.66756791  0.20420785  0.27323755  1
  O2-  O211  1  0.67016250  0.20908602  0.59872596  1
  O2-  O212  1  0.66809463  0.21100486  0.93488759  1
  O2-  O213  1  0.66512494  0.70903642  0.26251724  1
  O2-  O214  1  0.66666238  0.71239481  0.59827767  1
  O2-  O215  1  0.66611960  0.71170525  0.93160095  1
  O2-  O216  1  0.08144008  0.45761234  0.06977968  1
  O2-  O217  1  0.07883269  0.45581152  0.40066436  1
  O2-  O218  1  0.08367660  0.45759568  0.73715828  1
  O2-  O219  1  0.07687939  0.95840631  0.06463318  1
  O2-  O220  1  0.08418492  0.95204720  0.39654965  1
  O2-  O221  1  0.08822916  0.95492790  0.72588623  1
  O2-  O222  1  0.58110172  0.45831828  0.06611300  1
  O2-  O223  1  0.58365636  0.45798467  0.39475192  1
  O2-  O224  1  0.57989017  0.44996142  0.72612567  1
  O2-  O225  1  0.58424136  0.95455850  0.06890917  1
  O2-  O226  1  0.58485970  0.94548338  0.39923916  1
  O2-  O227  1  0.58172789  0.95276616  0.72716496  1
  O2-  O228  1  0.21335493  0.33594313  0.06955726  1
  O2-  O229  1  0.21605683  0.33679210  0.40257914  1
  O2-  O230  1  0.21561637  0.33419767  0.73582132  1
  O2-  O231  1  0.20089185  0.82896411  0.06842029  1
  O2-  O232  1  0.20372210  0.83122245  0.39509299  1
  O2-  O233  1  0.20773482  0.83563061  0.72759611  1
  O2-  O234  1  0.71093866  0.33431526  0.07067071  1
  O2-  O235  1  0.70233757  0.33760939  0.39809589  1
  O2-  O236  1  0.70444876  0.33624221  0.72811082  1
  O2-  O237  1  0.71547200  0.83332095  0.06623297  1
  O2-  O238  1  0.70848821  0.83161030  0.39656722  1
  O2-  O239  1  0.70449799  0.83681197  0.72960409  1
  O2-  O240  1  0.46011851  0.41218381  0.26198410  1
  O2-  O241  1  0.44964133  0.41464665  0.60237080  1
  O2-  O242  1  0.45336483  0.41482620  0.93451083  1
  O2-  O243  1  0.45447760  0.91945988  0.27094043  1
  O2-  O244  1  0.45381395  0.91472514  0.60013833  1
  O2-  O245  1  0.45369267  0.91539182  0.93868796  1
  O2-  O246  1  0.94728146  0.41591072  0.26977109  1
  O2-  O247  1  0.95382588  0.41679112  0.60680253  1
  O2-  O248  1  0.95095134  0.42033651  0.93947580  1
  O2-  O249  1  0.95692338  0.91872631  0.26349237  1
  O2-  O250  1  0.95813474  0.91470756  0.60277225  1
  O2-  O251  1  0.95903472  0.91706250  0.92584711  1
  O2-  O252  1  0.33443175  0.28556148  0.26513666  1
  O2-  O253  1  0.33666775  0.28966651  0.60252714  1
  O2-  O254  1  0.33496389  0.29573803  0.93468319  1
  O2-  O255  1  0.33371816  0.80261964  0.26918554  1
  O2-  O256  1  0.33394100  0.79814864  0.60022309  1
  O2-  O257  1  0.33181201  0.79833372  0.93916186  1
  O2-  O258  1  0.82947778  0.29698899  0.27254200  1
  O2-  O259  1  0.83413399  0.30039350  0.60463137  1
  O2-  O260  1  0.83347566  0.30042960  0.93564085  1
  O2-  O261  1  0.83447055  0.78885377  0.26385007  1
  O2-  O262  1  0.83385316  0.80028362  0.60415268  1
  O2-  O263  1  0.83662967  0.78721690  0.92625108  1
  O2-  O264  1  0.41810349  0.04193620  0.07002999  1
  O2-  O265  1  0.41764657  0.04148946  0.40530531  1
  O2-  O266  1  0.41446054  0.04155487  0.72682584  1
  O2-  O267  1  0.41615931  0.54337858  0.06300859  1
  O2-  O268  1  0.41470567  0.53708967  0.39779697  1
  O2-  O269  1  0.41587259  0.54394984  0.73070503  1
  O2-  O270  1  0.91530057  0.04381086  0.05886697  1
  O2-  O271  1  0.91787161  0.03682927  0.40095521  1
  O2-  O272  1  0.91863190  0.03838175  0.73621196  1
  O2-  O273  1  0.91290106  0.54764433  0.06707424  1
  O2-  O274  1  0.90869118  0.54196472  0.39542458  1
  O2-  O275  1  0.91195201  0.53927273  0.73977141  1
  O2-  O276  1  0.29369884  0.16988959  0.06560887  1
  O2-  O277  1  0.28726294  0.16594480  0.40516032  1
  O2-  O278  1  0.29461716  0.16150654  0.72938236  1
  O2-  O279  1  0.30453811  0.66734947  0.06313508  1
  O2-  O280  1  0.31048417  0.66971206  0.39318702  1
  O2-  O281  1  0.30191006  0.66924446  0.72750803  1
  O2-  O282  1  0.80050422  0.16788338  0.06071655  1
  O2-  O283  1  0.79270166  0.16642264  0.40400863  1
  O2-  O284  1  0.79520289  0.16992327  0.73468619  1
  O2-  O285  1  0.79314166  0.66689607  0.06344390  1
  O2-  O286  1  0.78876995  0.66213154  0.39408751  1
  O2-  O287  1  0.79055017  0.67029496  0.73357483  1
