# generated using pymatgen
data_Ca2Al2SiO7
_symmetry_space_group_name_H-M   'P 1'
_cell_length_a   15.46201967
_cell_length_b   15.46254802
_cell_length_c   15.28644152
_cell_angle_alpha   89.99273849
_cell_angle_beta   90.00120048
_cell_angle_gamma   89.98861098
_symmetry_Int_Tables_number   1
_chemical_formula_structural   Ca2Al2SiO7
_chemical_formula_sum   'Ca48 Al48 Si24 O168'
_cell_volume   3654.71629653
_cell_formula_units_Z   24
loop_
 _symmetry_equiv_pos_site_id
 _symmetry_equiv_pos_as_xyz
  1  'x, y, z'
loop_
 _atom_type_symbol
 _atom_type_oxidation_number
  Ca2+  2.0
  Al0+  0.0
  Si0+  0.0
  O2-  -2.0
loop_
 _atom_site_type_symbol
 _atom_site_label
 _atom_site_symmetry_multiplicity
 _atom_site_fract_x
 _atom_site_fract_y
 _atom_site_fract_z
 _atom_site_occupancy
  Ca2+  Ca0  1  0.16715092  0.08330286  0.17107406  1
  Ca2+  Ca1  1  0.17699379  0.08654444  0.50367548  1
  Ca2+  Ca2  1  0.17035570  0.07394204  0.84028245  1
  Ca2+  Ca3  1  0.17267768  0.58610613  0.17076588  1
  Ca2+  Ca4  1  0.17461416  0.58370851  0.49901355  1
  Ca2+  Ca5  1  0.16478813  0.58308215  0.84310327  1
  Ca2+  Ca6  1  0.66141081  0.08158299  0.16677935  1
  Ca2+  Ca7  1  0.66670600  0.08586117  0.50096895  1
  Ca2+  Ca8  1  0.67343326  0.07951667  0.84836263  1
  Ca2+  Ca9  1  0.67550520  0.58075153  0.17709502  1
  Ca2+  Ca10  1  0.66316750  0.57381013  0.49934822  1
  Ca2+  Ca11  1  0.66730042  0.58105933  0.83700514  1
  Ca2+  Ca12  1  0.08255401  0.32160838  0.16479468  1
  Ca2+  Ca13  1  0.07567513  0.32702167  0.48798199  1
  Ca2+  Ca14  1  0.08072256  0.32573408  0.83469903  1
  Ca2+  Ca15  1  0.07288869  0.83038216  0.15647616  1
  Ca2+  Ca16  1  0.07838892  0.83782171  0.49508784  1
  Ca2+  Ca17  1  0.08237734  0.83763359  0.83669339  1
  Ca2+  Ca18  1  0.57698424  0.32872100  0.16517714  1
  Ca2+  Ca19  1  0.58196207  0.33045846  0.48805706  1
  Ca2+  Ca20  1  0.58320920  0.33120191  0.83377216  1
  Ca2+  Ca21  1  0.57871059  0.83009401  0.16015928  1
  Ca2+  Ca22  1  0.58597835  0.81820964  0.49317930  1
  Ca2+  Ca23  1  0.58151531  0.83328326  0.83326425  1
  Ca2+  Ca24  1  0.33783681  0.41650914  0.17377963  1
  Ca2+  Ca25  1  0.34204177  0.42048992  0.49504772  1
  Ca2+  Ca26  1  0.33459755  0.41775626  0.83872345  1
  Ca2+  Ca27  1  0.32781350  0.91752032  0.17170173  1
  Ca2+  Ca28  1  0.32829101  0.93227208  0.50678419  1
  Ca2+  Ca29  1  0.32529917  0.91663656  0.84160900  1
  Ca2+  Ca30  1  0.83221063  0.42710508  0.17699281  1
  Ca2+  Ca31  1  0.82060814  0.41150363  0.49958029  1
  Ca2+  Ca32  1  0.82566373  0.42343193  0.84164043  1
  Ca2+  Ca33  1  0.83453663  0.91649885  0.16493372  1
  Ca2+  Ca34  1  0.83430228  0.91497542  0.49810105  1
  Ca2+  Ca35  1  0.82553068  0.91860032  0.84806061  1
  Ca2+  Ca36  1  0.42352575  0.17211801  0.16293484  1
  Ca2+  Ca37  1  0.41810402  0.16997080  0.48742031  1
  Ca2+  Ca38  1  0.41886024  0.16766215  0.83488943  1
  Ca2+  Ca39  1  0.42271851  0.66623882  0.16258841  1
  Ca2+  Ca40  1  0.42737723  0.66251181  0.49278266  1
  Ca2+  Ca41  1  0.42090829  0.67772973  0.83044013  1
  Ca2+  Ca42  1  0.92376535  0.16798484  0.16203241  1
  Ca2+  Ca43  1  0.92450309  0.17344457  0.48703742  1
  Ca2+  Ca44  1  0.92342804  0.15199015  0.83721733  1
  Ca2+  Ca45  1  0.91345676  0.67268265  0.15957011  1
  Ca2+  Ca46  1  0.91515882  0.67329768  0.48968383  1
  Ca2+  Ca47  1  0.91570957  0.66881753  0.83823335  1
  Al0+  Al48  1  -0.00008884  -0.00140778  -0.00020197  1
  Al0+  Al49  1  -0.00173342  -0.00205594  0.32724755  1
  Al0+  Al50  1  0.00162960  -0.00009677  0.66640630  1
  Al0+  Al51  1  0.00110964  0.49877979  0.00115339  1
  Al0+  Al52  1  0.00146965  0.50199702  0.33571006  1
  Al0+  Al53  1  -0.00047982  0.50149811  0.66464422  1
  Al0+  Al54  1  0.49937794  0.00072698  -0.00460705  1
  Al0+  Al55  1  0.49914265  -0.00184055  0.33728161  1
  Al0+  Al56  1  0.50050386  0.00145437  0.66925242  1
  Al0+  Al57  1  0.49908349  0.49962113  -0.00446469  1
  Al0+  Al58  1  0.50127557  0.50007413  0.33274807  1
  Al0+  Al59  1  0.50072514  0.49946599  0.66890895  1
  Al0+  Al60  1  0.24838317  0.25067291  -0.00893496  1
  Al0+  Al61  1  0.25016120  0.24971351  0.33141556  1
  Al0+  Al62  1  0.25062327  0.25169859  0.66989446  1
  Al0+  Al63  1  0.25068213  0.74953474  -0.00270721  1
  Al0+  Al64  1  0.24937656  0.75037888  0.34214840  1
  Al0+  Al65  1  0.24910445  0.75088150  0.66764900  1
  Al0+  Al66  1  0.74966591  0.25092452  0.00118765  1
  Al0+  Al67  1  0.75110308  0.24906409  0.32940595  1
  Al0+  Al68  1  0.74943632  0.25193967  0.67247478  1
  Al0+  Al69  1  0.74992829  0.74937382  0.00291378  1
  Al0+  Al70  1  0.74986027  0.74991787  0.32986586  1
  Al0+  Al71  1  0.75125638  0.74944873  0.66205478  1
  Al0+  Al72  1  0.32178066  0.57153980  0.34621275  1
  Al0+  Al73  1  0.57239691  0.17465847  0.31962285  1
  Al0+  Al74  1  0.68074704  0.42782480  0.34685114  1
  Al0+  Al75  1  0.18084855  0.92786657  0.01601796  1
  Al0+  Al76  1  0.92791138  0.32379400  0.31860668  1
  Al0+  Al77  1  0.67882560  0.42947370  0.68295195  1
  Al0+  Al78  1  0.56946227  0.67869461  0.31879641  1
  Al0+  Al79  1  0.42849135  0.82125806  0.98826184  1
  Al0+  Al80  1  0.06921756  0.17785723  0.98423105  1
  Al0+  Al81  1  0.92905338  0.81935593  0.31849116  1
  Al0+  Al82  1  0.42870445  0.32213658  0.98241284  1
  Al0+  Al83  1  0.42984297  0.32105319  0.31983410  1
  Al0+  Al84  1  0.57214866  0.17954351  0.98352145  1
  Al0+  Al85  1  0.32298410  0.07425564  0.68470286  1
  Al0+  Al86  1  0.07153915  0.17858674  0.31925259  1
  Al0+  Al87  1  0.32080234  0.07091538  0.34463560  1
  Al0+  Al88  1  0.92800636  0.81979366  0.98312849  1
  Al0+  Al89  1  0.82166504  0.07200153  0.01715555  1
  Al0+  Al90  1  0.82281414  0.57366112  0.35007889  1
  Al0+  Al91  1  0.67594892  0.92890679  0.01600623  1
  Al0+  Al92  1  0.56990330  0.68009017  0.65249001  1
  Al0+  Al93  1  0.82099302  0.56890477  0.01367035  1
  Al0+  Al94  1  0.07131587  0.67794558  0.98594195  1
  Al0+  Al95  1  0.17879731  0.92961378  0.68323367  1
  Si0+  Si96  1  0.82285959  0.57337350  0.68364750  1
  Si0+  Si97  1  0.42887320  0.32045165  0.65053963  1
  Si0+  Si98  1  0.57285495  0.17965089  0.65251288  1
  Si0+  Si99  1  0.57219865  0.67832662  0.98358781  1
  Si0+  Si100  1  0.32104642  0.57031047  0.01306656  1
  Si0+  Si101  1  0.07011952  0.18003213  0.65174011  1
  Si0+  Si102  1  0.07256422  0.67687710  0.64955977  1
  Si0+  Si103  1  0.32043447  0.07397552  0.01694286  1
  Si0+  Si104  1  0.32062627  0.56972557  0.68242842  1
  Si0+  Si105  1  0.82211329  0.06948857  0.34787668  1
  Si0+  Si106  1  0.07535093  0.67866873  0.31902986  1
  Si0+  Si107  1  0.42619243  0.82344688  0.64837692  1
  Si0+  Si108  1  0.17877196  0.42727076  0.34993479  1
  Si0+  Si109  1  0.92840108  0.32233752  0.65301700  1
  Si0+  Si110  1  0.67534527  0.42862144  0.01807089  1
  Si0+  Si111  1  0.81978632  0.07135063  0.67893446  1
  Si0+  Si112  1  0.68109350  0.92669650  0.67893913  1
  Si0+  Si113  1  0.93060362  0.82085864  0.65101901  1
  Si0+  Si114  1  0.42684706  0.82132207  0.32039193  1
  Si0+  Si115  1  0.17956107  0.42757685  0.01468474  1
  Si0+  Si116  1  0.67797191  0.92868429  0.34956286  1
  Si0+  Si117  1  0.17620555  0.43072006  0.68194072  1
  Si0+  Si118  1  0.92829500  0.32280104  0.98307112  1
  Si0+  Si119  1  0.17582666  0.92886757  0.34999027  1
  O2-  O120  1  0.25409020  0.00382956  0.06242246  1
  O2-  O121  1  0.24381653  -0.00123584  0.39293283  1
  O2-  O122  1  0.25376139  -0.00136136  0.73305615  1
  O2-  O123  1  0.25157122  0.49805166  0.05538033  1
  O2-  O124  1  0.24760782  0.49629633  0.39436837  1
  O2-  O125  1  0.24656202  0.50209726  0.72507151  1
  O2-  O126  1  0.74730641  0.00164883  0.06630089  1
  O2-  O127  1  0.74797757  0.00181472  0.39164870  1
  O2-  O128  1  0.74826768  0.00105007  0.72054687  1
  O2-  O129  1  0.74579788  0.49559093  0.06068615  1
  O2-  O130  1  0.75371234  0.49842863  0.39961774  1
  O2-  O131  1  0.75374577  0.50512778  0.72743254  1
  O2-  O132  1  -0.00002018  0.25138778  0.27001975  1
  O2-  O133  1  -0.00069463  0.25135004  0.61013984  1
  O2-  O134  1  -0.00959028  0.24880278  0.93655258  1
  O2-  O135  1  0.00298431  0.74265726  0.27544653  1
  O2-  O136  1  0.00252380  0.74997957  0.60949130  1
  O2-  O137  1  0.00048088  0.74870556  0.93202200  1
  O2-  O138  1  0.50092830  0.24789323  0.27159085  1
  O2-  O139  1  0.49764012  0.24629066  0.61028600  1
  O2-  O140  1  0.50108776  0.25149019  0.93111662  1
  O2-  O141  1  0.49211239  0.75106608  0.27415541  1
  O2-  O142  1  0.49575962  0.75551075  0.60444071  1
  O2-  O143  1  0.50600830  0.74977492  0.93993114  1
  O2-  O144  1  0.07256845  0.18195512  0.09658263  1
  O2-  O145  1  0.06988118  0.17987633  0.43409168  1
  O2-  O146  1  0.06781612  0.17943734  0.75663937  1
  O2-  O147  1  0.07286559  0.67807810  0.09924724  1
  O2-  O148  1  0.07747469  0.68219714  0.42533462  1
  O2-  O149  1  0.07197386  0.67178177  0.75390739  1
  O2-  O150  1  0.56917885  0.18000026  0.09658197  1
  O2-  O151  1  0.57046082  0.17487040  0.43444498  1
  O2-  O152  1  0.57579950  0.18177097  0.75690542  1
  O2-  O153  1  0.56885377  0.67575472  0.08887540  1
  O2-  O154  1  0.56861632  0.67983696  0.43252984  1
  O2-  O155  1  0.56877870  0.68268317  0.76562210  1
  O2-  O156  1  0.17865227  0.42747782  0.24454385  1
  O2-  O157  1  0.17456624  0.43110248  0.57714070  1
  O2-  O158  1  0.17879624  0.42913483  0.90882456  1
  O2-  O159  1  0.17764372  0.92576096  0.24484640  1
  O2-  O160  1  0.17586766  0.93346168  0.56937798  1
  O2-  O161  1  0.18298402  0.92889635  0.90277800  1
  O2-  O162  1  0.67979526  0.43082954  0.23383904  1
  O2-  O163  1  0.67944064  0.42570961  0.57050005  1
  O2-  O164  1  0.67588843  0.43161994  0.91165146  1
  O2-  O165  1  0.67581806  0.92789204  0.24531456  1
  O2-  O166  1  0.68376777  0.92572308  0.57358114  1
  O2-  O167  1  0.67835421  0.92869587  0.90106484  1
  O2-  O168  1  0.42826039  0.32412858  0.09524614  1
  O2-  O169  1  0.43076806  0.31972091  0.43436022  1
  O2-  O170  1  0.42865926  0.32227015  0.75528743  1
  O2-  O171  1  0.42717218  0.81627693  0.10133253  1
  O2-  O172  1  0.43021613  0.82106203  0.42624312  1
  O2-  O173  1  0.42624519  0.82081560  0.75400277  1
  O2-  O174  1  0.93400626  0.32531242  0.08797887  1
  O2-  O175  1  0.92899034  0.31872791  0.43363152  1
  O2-  O176  1  0.93053346  0.32384732  0.75783557  1
  O2-  O177  1  0.92915439  0.81762477  0.09624406  1
  O2-  O178  1  0.93156366  0.82146230  0.43293944  1
  O2-  O179  1  0.92787377  0.82130386  0.75525171  1
  O2-  O180  1  0.32146356  0.06772550  0.23201969  1
  O2-  O181  1  0.32029309  0.07608326  0.57073411  1
  O2-  O182  1  0.31737595  0.07292455  0.91104437  1
  O2-  O183  1  0.31889563  0.57371165  0.23325160  1
  O2-  O184  1  0.32071779  0.56742557  0.57733320  1
  O2-  O185  1  0.31997506  0.56926492  0.90743292  1
  O2-  O186  1  0.82532818  0.06692950  0.24391187  1
  O2-  O187  1  0.81981777  0.07223470  0.57349470  1
  O2-  O188  1  0.82047136  0.06789116  0.90198560  1
  O2-  O189  1  0.82025165  0.57399044  0.23671616  1
  O2-  O190  1  0.82475318  0.57373720  0.57862799  1
  O2-  O191  1  0.81942181  0.56682468  0.89959366  1
  O2-  O192  1  0.04269186  0.08122452  0.26675367  1
  O2-  O193  1  0.04201490  0.08867092  0.60376986  1
  O2-  O194  1  0.03972457  0.08154714  0.92918839  1
  O2-  O195  1  0.05780890  0.58266955  0.27627879  1
  O2-  O196  1  0.04399032  0.58609022  0.59973410  1
  O2-  O197  1  0.04330477  0.57874670  0.93227358  1
  O2-  O198  1  0.54246721  0.07611350  0.26881769  1
  O2-  O199  1  0.55173374  0.08486499  0.60710346  1
  O2-  O200  1  0.54481723  0.08142209  0.92903867  1
  O2-  O201  1  0.53939437  0.58346189  0.26431979  1
  O2-  O202  1  0.53637044  0.58306938  0.60067833  1
  O2-  O203  1  0.54301528  0.58675264  0.93504456  1
  O2-  O204  1  0.16860685  0.20708445  0.26557839  1
  O2-  O205  1  0.16247016  0.21012863  0.60684555  1
  O2-  O206  1  0.16213481  0.21374719  0.92611427  1
  O2-  O207  1  0.16833640  0.70724489  0.27348758  1
  O2-  O208  1  0.16543499  0.70317423  0.60279968  1
  O2-  O209  1  0.16933100  0.70512549  0.93124562  1
  O2-  O210  1  0.67135719  0.19831286  0.26808113  1
  O2-  O211  1  0.66446731  0.21061636  0.60540590  1
  O2-  O212  1  0.67184565  0.20717248  0.93079566  1
  O2-  O213  1  0.66428326  0.71214909  0.26548088  1
  O2-  O214  1  0.66673825  0.71050560  0.59796382  1
  O2-  O215  1  0.66582538  0.70182204  0.93768977  1
  O2-  O216  1  0.08916318  0.45542050  0.06346769  1
  O2-  O217  1  0.08628145  0.45330891  0.39891175  1
  O2-  O218  1  0.08438630  0.45823728  0.73001920  1
  O2-  O219  1  0.08302581  0.95657686  0.06659230  1
  O2-  O220  1  0.08146983  0.95442802  0.39496978  1
  O2-  O221  1  0.08043836  0.96072668  0.73573362  1
  O2-  O222  1  0.58142485  0.45637229  0.06149545  1
  O2-  O223  1  0.58325140  0.45903397  0.40113692  1
  O2-  O224  1  0.58277452  0.46136780  0.73746569  1
  O2-  O225  1  0.57619531  0.95582848  0.06698714  1
  O2-  O226  1  0.58706104  0.95348013  0.40092863  1
  O2-  O227  1  0.58715743  0.94889982  0.72403569  1
  O2-  O228  1  0.20795250  0.33553182  0.06022185  1
  O2-  O229  1  0.20453646  0.33452264  0.39804314  1
  O2-  O230  1  0.20463798  0.33949455  0.73002544  1
  O2-  O231  1  0.21333868  0.83094494  0.06826406  1
  O2-  O232  1  0.20130028  0.83686422  0.40032722  1
  O2-  O233  1  0.20220112  0.82844729  0.73351363  1
  O2-  O234  1  0.69732342  0.33387702  0.06101022  1
  O2-  O235  1  0.70838957  0.32802158  0.40056251  1
  O2-  O236  1  0.71197424  0.33458920  0.73984215  1
  O2-  O237  1  0.70328815  0.83005662  0.06752107  1
  O2-  O238  1  0.71098685  0.83860174  0.39776340  1
  O2-  O239  1  0.71250057  0.83652891  0.72717803  1
  O2-  O240  1  0.45703924  0.41900411  0.26698203  1
  O2-  O241  1  0.45900427  0.41217400  0.60456068  1
  O2-  O242  1  0.45644262  0.42081420  0.92718255  1
  O2-  O243  1  0.45464028  0.91318904  0.27376923  1
  O2-  O244  1  0.45130331  0.91873249  0.60536832  1
  O2-  O245  1  0.45435155  0.91733931  0.93121869  1
  O2-  O246  1  0.95634841  0.42326703  0.26902681  1
  O2-  O247  1  0.95578324  0.41384148  0.60467882  1
  O2-  O248  1  0.96173671  0.41267984  0.93343912  1
  O2-  O249  1  0.95921109  0.91427084  0.26288600  1
  O2-  O250  1  0.95874395  0.91287492  0.60258739  1
  O2-  O251  1  0.95604436  0.91815362  0.93049562  1
  O2-  O252  1  0.33081693  0.29633602  0.26786434  1
  O2-  O253  1  0.33489350  0.29704913  0.60464935  1
  O2-  O254  1  0.33075365  0.29493658  0.92711956  1
  O2-  O255  1  0.33111161  0.79849648  0.27839442  1
  O2-  O256  1  0.33224247  0.79753829  0.60310198  1
  O2-  O257  1  0.33607551  0.78461720  0.92955808  1
  O2-  O258  1  0.83110828  0.29621701  0.26481860  1
  O2-  O259  1  0.83639469  0.29211474  0.60749674  1
  O2-  O260  1  0.83196879  0.30521587  0.94002896  1
  O2-  O261  1  0.83256792  0.79169534  0.26496051  1
  O2-  O262  1  0.83982052  0.79276411  0.60108223  1
  O2-  O263  1  0.82918724  0.78964789  0.93066518  1
  O2-  O264  1  0.41583446  0.05119173  0.05813010  1
  O2-  O265  1  0.41522017  0.03766267  0.40346846  1
  O2-  O266  1  0.42376610  0.05019747  0.73498460  1
  O2-  O267  1  0.41355955  0.54348722  0.05935307  1
  O2-  O268  1  0.41685161  0.53915136  0.40238494  1
  O2-  O269  1  0.41036965  0.53890216  0.73127416  1
  O2-  O270  1  0.91985813  0.04241335  0.06811667  1
  O2-  O271  1  0.91235372  0.03719399  0.39775265  1
  O2-  O272  1  0.91191416  0.04231721  0.72450801  1
  O2-  O273  1  0.91793828  0.53805671  0.06662434  1
  O2-  O274  1  0.92423426  0.55251373  0.40130357  1
  O2-  O275  1  0.91676808  0.54673535  0.72927236  1
  O2-  O276  1  0.29108658  0.16806620  0.05917823  1
  O2-  O277  1  0.29077144  0.16773509  0.39996057  1
  O2-  O278  1  0.29198594  0.17220727  0.73730215  1
  O2-  O279  1  0.29258268  0.66079152  0.06112255  1
  O2-  O280  1  0.29060955  0.66602726  0.40644997  1
  O2-  O281  1  0.29590892  0.66338691  0.72729589  1
  O2-  O282  1  0.79873384  0.17305945  0.06641187  1
  O2-  O283  1  0.79792400  0.16216119  0.39571096  1
  O2-  O284  1  0.79420198  0.16216793  0.72869253  1
  O2-  O285  1  0.79195936  0.66551507  0.06659452  1
  O2-  O286  1  0.79009837  0.67167128  0.40255672  1
  O2-  O287  1  0.79610993  0.66733247  0.72870614  1
