# generated using pymatgen
data_Ca2Al2SiO7
_symmetry_space_group_name_H-M   'P 1'
_cell_length_a   15.47167058
_cell_length_b   15.46885841
_cell_length_c   15.29188542
_cell_angle_alpha   90.00709219
_cell_angle_beta   90.00467651
_cell_angle_gamma   89.98648393
_symmetry_Int_Tables_number   1
_chemical_formula_structural   Ca2Al2SiO7
_chemical_formula_sum   'Ca48 Al48 Si24 O168'
_cell_volume   3659.79274954
_cell_formula_units_Z   24
loop_
 _symmetry_equiv_pos_site_id
 _symmetry_equiv_pos_as_xyz
  1  'x, y, z'
loop_
 _atom_type_symbol
 _atom_type_oxidation_number
  Ca2+  2.0
  Al0+  0.0
  Si0+  0.0
  O2-  -2.0
loop_
 _atom_site_type_symbol
 _atom_site_label
 _atom_site_symmetry_multiplicity
 _atom_site_fract_x
 _atom_site_fract_y
 _atom_site_fract_z
 _atom_site_occupancy
  Ca2+  Ca0  1  0.17712709  0.08293492  0.17748932  1
  Ca2+  Ca1  1  0.17407287  0.09124165  0.49855603  1
  Ca2+  Ca2  1  0.17743645  0.07923465  0.84046807  1
  Ca2+  Ca3  1  0.17783914  0.58190799  0.17781540  1
  Ca2+  Ca4  1  0.16605310  0.57745588  0.50088271  1
  Ca2+  Ca5  1  0.17001925  0.58105704  0.83360315  1
  Ca2+  Ca6  1  0.66807828  0.07748099  0.18198987  1
  Ca2+  Ca7  1  0.65854720  0.07686281  0.50051975  1
  Ca2+  Ca8  1  0.66023775  0.07895334  0.83014872  1
  Ca2+  Ca9  1  0.66263716  0.57917064  0.17296249  1
  Ca2+  Ca10  1  0.66336232  0.57989225  0.50351173  1
  Ca2+  Ca11  1  0.65830325  0.56849130  0.83496836  1
  Ca2+  Ca12  1  0.08605793  0.33186039  0.17518128  1
  Ca2+  Ca13  1  0.08081791  0.33552228  0.48680516  1
  Ca2+  Ca14  1  0.08492391  0.33402186  0.82622533  1
  Ca2+  Ca15  1  0.09156755  0.82550317  0.16817930  1
  Ca2+  Ca16  1  0.07950361  0.82248116  0.49629428  1
  Ca2+  Ca17  1  0.07714975  0.82518599  0.82049534  1
  Ca2+  Ca18  1  0.57968477  0.33002385  0.16706756  1
  Ca2+  Ca19  1  0.57870097  0.32571679  0.49261876  1
  Ca2+  Ca20  1  0.57902127  0.33025882  0.82201852  1
  Ca2+  Ca21  1  0.57475314  0.83323053  0.17114659  1
  Ca2+  Ca22  1  0.57870800  0.83405487  0.49226815  1
  Ca2+  Ca23  1  0.57253772  0.83536247  0.82575512  1
  Ca2+  Ca24  1  0.33229902  0.42782246  0.17952499  1
  Ca2+  Ca25  1  0.32861832  0.41496029  0.50226442  1
  Ca2+  Ca26  1  0.33134753  0.42132535  0.83606352  1
  Ca2+  Ca27  1  0.34379600  0.92469433  0.17268047  1
  Ca2+  Ca28  1  0.34562498  0.92171755  0.49972806  1
  Ca2+  Ca29  1  0.34144541  0.92125820  0.83895532  1
  Ca2+  Ca30  1  0.82838302  0.41292668  0.17133650  1
  Ca2+  Ca31  1  0.82861817  0.41381899  0.50388131  1
  Ca2+  Ca32  1  0.81908302  0.41509706  0.83476862  1
  Ca2+  Ca33  1  0.82465301  0.92391234  0.18157212  1
  Ca2+  Ca34  1  0.82186161  0.91794336  0.50514433  1
  Ca2+  Ca35  1  0.82781269  0.91131890  0.83167924  1
  Ca2+  Ca36  1  0.41423221  0.16709955  0.16988729  1
  Ca2+  Ca37  1  0.42339098  0.17687799  0.49271270  1
  Ca2+  Ca38  1  0.42181684  0.17259002  0.82370578  1
  Ca2+  Ca39  1  0.41299050  0.67240194  0.16571272  1
  Ca2+  Ca40  1  0.41932572  0.67703054  0.48910817  1
  Ca2+  Ca41  1  0.40925174  0.67723250  0.83091709  1
  Ca2+  Ca42  1  0.91715751  0.16786272  0.17273964  1
  Ca2+  Ca43  1  0.92225208  0.17271545  0.48724276  1
  Ca2+  Ca44  1  0.92069242  0.16734323  0.82913730  1
  Ca2+  Ca45  1  0.92449691  0.66419175  0.16819879  1
  Ca2+  Ca46  1  0.92747131  0.66484971  0.49567162  1
  Ca2+  Ca47  1  0.92383424  0.67149062  0.82186670  1
  Al0+  Al48  1  0.00011505  -0.00053436  -0.00154877  1
  Al0+  Al49  1  -0.00023319  0.00099088  0.33345732  1
  Al0+  Al50  1  0.00025207  -0.00008785  0.66455725  1
  Al0+  Al51  1  -0.00230064  0.49803419  -0.00277565  1
  Al0+  Al52  1  -0.00086864  0.50092677  0.32601435  1
  Al0+  Al53  1  0.00126131  0.49901473  0.66985500  1
  Al0+  Al54  1  0.50142857  -0.00020279  0.00025491  1
  Al0+  Al55  1  0.49986076  0.00046946  0.33504640  1
  Al0+  Al56  1  0.50209392  0.00120077  0.66591572  1
  Al0+  Al57  1  0.49934003  0.49862327  0.00768248  1
  Al0+  Al58  1  0.50006607  0.50149333  0.33185900  1
  Al0+  Al59  1  0.49704416  0.50196883  0.66993513  1
  Al0+  Al60  1  0.24995667  0.24883603  0.00208455  1
  Al0+  Al61  1  0.24875082  0.25011576  0.33288139  1
  Al0+  Al62  1  0.25086502  0.25075520  0.67071235  1
  Al0+  Al63  1  0.24954380  0.74956420  -0.00330065  1
  Al0+  Al64  1  0.24990583  0.75141459  0.32946191  1
  Al0+  Al65  1  0.24886036  0.75102378  0.65850535  1
  Al0+  Al66  1  0.75071893  0.24905836  0.00175367  1
  Al0+  Al67  1  0.75082423  0.24990520  0.32912725  1
  Al0+  Al68  1  0.75191420  0.24796114  0.66910085  1
  Al0+  Al69  1  0.75032549  0.74747231  -0.00094511  1
  Al0+  Al70  1  0.74896294  0.74885944  0.33362039  1
  Al0+  Al71  1  0.74980206  0.75204647  0.67077330  1
  Al0+  Al72  1  0.42691063  0.32371867  0.65334648  1
  Al0+  Al73  1  0.17942659  0.43171651  0.34713969  1
  Al0+  Al74  1  0.07002035  0.67685784  0.65022494  1
  Al0+  Al75  1  0.67799970  0.42833209  0.67771719  1
  Al0+  Al76  1  0.32334751  0.57386215  0.35049131  1
  Al0+  Al77  1  0.32008238  0.07049265  0.34891891  1
  Al0+  Al78  1  0.82222431  0.07357257  0.34953485  1
  Al0+  Al79  1  0.92796656  0.32239194  0.31773329  1
  Al0+  Al80  1  0.31824742  0.57126956  0.01343292  1
  Al0+  Al81  1  0.17944139  0.42879600  0.68113235  1
  Al0+  Al82  1  0.67959630  0.42804168  0.01538617  1
  Al0+  Al83  1  0.67946855  0.92886916  0.34937543  1
  Al0+  Al84  1  0.92655056  0.82266704  0.65057778  1
  Al0+  Al85  1  0.67865502  0.92933479  0.68307438  1
  Al0+  Al86  1  0.07055162  0.67984451  0.31773727  1
  Al0+  Al87  1  0.42909011  0.82144085  0.31770748  1
  Al0+  Al88  1  0.42739927  0.32194794  0.31765600  1
  Al0+  Al89  1  0.57261780  0.18094643  0.65189221  1
  Al0+  Al90  1  0.56993534  0.17957351  0.31745500  1
  Al0+  Al91  1  0.42982722  0.82132093  0.65305903  1
  Al0+  Al92  1  0.07197665  0.17712640  0.31840475  1
  Al0+  Al93  1  0.32204814  0.06990300  0.01359262  1
  Al0+  Al94  1  0.57293448  0.67781887  0.31883190  1
  Al0+  Al95  1  0.43154956  0.82030092  0.98504977  1
  Si0+  Si96  1  0.93020666  0.31956036  0.65474009  1
  Si0+  Si97  1  0.17538836  0.42699449  0.01717478  1
  Si0+  Si98  1  0.17766285  0.92884407  0.68034441  1
  Si0+  Si99  1  0.07019061  0.67841301  0.98373189  1
  Si0+  Si100  1  0.82224312  0.57130740  0.68296491  1
  Si0+  Si101  1  0.57299126  0.67528537  0.98222710  1
  Si0+  Si102  1  0.82328419  0.06948116  0.01479455  1
  Si0+  Si103  1  0.68023726  0.92833563  0.01455446  1
  Si0+  Si104  1  0.82482045  0.07099888  0.68577103  1
  Si0+  Si105  1  0.07143202  0.17878233  0.98364568  1
  Si0+  Si106  1  0.57232172  0.17979980  0.98473375  1
  Si0+  Si107  1  0.32070853  0.57572394  0.68334029  1
  Si0+  Si108  1  0.92770068  0.31938200  0.98146988  1
  Si0+  Si109  1  0.17634471  0.92700083  0.35105451  1
  Si0+  Si110  1  0.17663912  0.92860119  0.01460749  1
  Si0+  Si111  1  0.32056286  0.06954851  0.68211107  1
  Si0+  Si112  1  0.67918399  0.42894983  0.34766314  1
  Si0+  Si113  1  0.57211182  0.67713016  0.65363559  1
  Si0+  Si114  1  0.82294341  0.57140836  0.01687975  1
  Si0+  Si115  1  0.07237164  0.17895652  0.65443709  1
  Si0+  Si116  1  0.42876064  0.32153671  0.98557697  1
  Si0+  Si117  1  0.92803984  0.82133259  0.98534826  1
  Si0+  Si118  1  0.82125628  0.57083921  0.34739399  1
  Si0+  Si119  1  0.92753211  0.82120695  0.31699453  1
  O2-  O120  1  0.24688127  -0.00514407  0.05874649  1
  O2-  O121  1  0.24459226  -0.00405435  0.39568008  1
  O2-  O122  1  0.25086757  -0.00322059  0.72464305  1
  O2-  O123  1  0.24367914  0.49611703  0.05917000  1
  O2-  O124  1  0.25246501  0.50050694  0.39988449  1
  O2-  O125  1  0.25438008  0.50365097  0.72719148  1
  O2-  O126  1  0.75347131  -0.00264011  0.05554134  1
  O2-  O127  1  0.75075865  0.00183559  0.39950532  1
  O2-  O128  1  0.75546643  0.00274875  0.73036272  1
  O2-  O129  1  0.75257519  0.50511261  0.06118654  1
  O2-  O130  1  0.74983290  0.50064967  0.38957060  1
  O2-  O131  1  0.75025287  0.50545382  0.72679411  1
  O2-  O132  1  -0.00070243  0.24883403  0.26832675  1
  O2-  O133  1  0.00288335  0.25106540  0.61331701  1
  O2-  O134  1  0.00200280  0.25101939  0.93981853  1
  O2-  O135  1  -0.00149491  0.75693351  0.26930626  1
  O2-  O136  1  -0.00429004  0.74773406  0.60226775  1
  O2-  O137  1  -0.00141145  0.74979474  0.94283630  1
  O2-  O138  1  0.49837426  0.25017882  0.26488861  1
  O2-  O139  1  0.50422023  0.25725364  0.60472255  1
  O2-  O140  1  0.50032625  0.25056401  0.94314503  1
  O2-  O141  1  0.49837333  0.74653671  0.26807516  1
  O2-  O142  1  0.50459067  0.74603775  0.60946358  1
  O2-  O143  1  0.50513935  0.74444394  0.93735023  1
  O2-  O144  1  0.07026571  0.17696950  0.08764886  1
  O2-  O145  1  0.07131345  0.17998710  0.43248472  1
  O2-  O146  1  0.07103642  0.17897640  0.76045049  1
  O2-  O147  1  0.06957550  0.67901668  0.08846485  1
  O2-  O148  1  0.06676056  0.67816574  0.43014334  1
  O2-  O149  1  0.06911243  0.67896669  0.76505616  1
  O2-  O150  1  0.57427617  0.17964719  0.08904473  1
  O2-  O151  1  0.57012060  0.18200192  0.43070815  1
  O2-  O152  1  0.56932853  0.18036350  0.76686940  1
  O2-  O153  1  0.57564898  0.67729719  0.08703199  1
  O2-  O154  1  0.57562701  0.67891370  0.43258604  1
  O2-  O155  1  0.57032023  0.67643061  0.75972696  1
  O2-  O156  1  0.17907710  0.43495486  0.23303418  1
  O2-  O157  1  0.17564739  0.42689299  0.56944026  1
  O2-  O158  1  0.17532439  0.42683610  0.91107869  1
  O2-  O159  1  0.17616380  0.92820424  0.24481412  1
  O2-  O160  1  0.17477012  0.93182786  0.57616934  1
  O2-  O161  1  0.17356041  0.93149107  0.90866155  1
  O2-  O162  1  0.68170737  0.42960119  0.24227387  1
  O2-  O163  1  0.68218152  0.42858134  0.56517665  1
  O2-  O164  1  0.68122885  0.42730442  0.90178982  1
  O2-  O165  1  0.68221667  0.92879484  0.23466198  1
  O2-  O166  1  0.67787959  0.92992390  0.57126910  1
  O2-  O167  1  0.68034265  0.93018565  0.90931742  1
  O2-  O168  1  0.42876655  0.32089780  0.08991820  1
  O2-  O169  1  0.43036945  0.32143150  0.43114142  1
  O2-  O170  1  0.42636930  0.31976201  0.76828382  1
  O2-  O171  1  0.43334961  0.82253384  0.09686024  1
  O2-  O172  1  0.43232261  0.82153221  0.43125837  1
  O2-  O173  1  0.42975323  0.82120178  0.76701943  1
  O2-  O174  1  0.92536387  0.31926803  0.08557811  1
  O2-  O175  1  0.92850314  0.32420383  0.43179517  1
  O2-  O176  1  0.93035060  0.31718133  0.76053998  1
  O2-  O177  1  0.92779255  0.82242664  0.08991004  1
  O2-  O178  1  0.92774810  0.81681256  0.42207657  1
  O2-  O179  1  0.93062518  0.82110357  0.76555875  1
  O2-  O180  1  0.31916555  0.06807238  0.23535617  1
  O2-  O181  1  0.31868134  0.07106443  0.57771175  1
  O2-  O182  1  0.32013395  0.06988431  0.89972194  1
  O2-  O183  1  0.31953772  0.57347465  0.23630222  1
  O2-  O184  1  0.32055693  0.57782574  0.57881405  1
  O2-  O185  1  0.31539310  0.57138919  0.89986675  1
  O2-  O186  1  0.82057638  0.06949498  0.23466368  1
  O2-  O187  1  0.82880849  0.07230060  0.58152232  1
  O2-  O188  1  0.82596752  0.06957173  0.90960634  1
  O2-  O189  1  0.82118334  0.57084141  0.24195912  1
  O2-  O190  1  0.82449303  0.56862273  0.57761880  1
  O2-  O191  1  0.82567671  0.57025004  0.91141062  1
  O2-  O192  1  0.04517782  0.07843273  0.26377165  1
  O2-  O193  1  0.04519961  0.08808526  0.60702661  1
  O2-  O194  1  0.04170702  0.08728365  0.93477470  1
  O2-  O195  1  0.03523041  0.58715663  0.25966246  1
  O2-  O196  1  0.04023892  0.57800772  0.59989072  1
  O2-  O197  1  0.04149706  0.58603038  0.93694694  1
  O2-  O198  1  0.54192475  0.08109780  0.26558143  1
  O2-  O199  1  0.54036109  0.08427034  0.60067750  1
  O2-  O200  1  0.54418405  0.08786399  0.93741840  1
  O2-  O201  1  0.54840556  0.57929310  0.26500095  1
  O2-  O202  1  0.54807892  0.58360051  0.60759595  1
  O2-  O203  1  0.54545444  0.58056734  0.93899733  1
  O2-  O204  1  0.16829815  0.20722482  0.26285184  1
  O2-  O205  1  0.16467242  0.20513038  0.60954094  1
  O2-  O206  1  0.16371004  0.20544805  0.93557363  1
  O2-  O207  1  0.16562515  0.71160582  0.26178339  1
  O2-  O208  1  0.16599080  0.70732841  0.59638418  1
  O2-  O209  1  0.16055250  0.70656933  0.93429810  1
  O2-  O210  1  0.66815973  0.20754757  0.26399349  1
  O2-  O211  1  0.67352851  0.20331296  0.60286735  1
  O2-  O212  1  0.66455543  0.20728757  0.93698458  1
  O2-  O213  1  0.67087743  0.70664129  0.26334858  1
  O2-  O214  1  0.66732979  0.69979200  0.61105493  1
  O2-  O215  1  0.66795629  0.69819013  0.93612531  1
  O2-  O216  1  0.08007778  0.45105659  0.05967041  1
  O2-  O217  1  0.07940296  0.46240871  0.39620405  1
  O2-  O218  1  0.08308573  0.45906052  0.73867685  1
  O2-  O219  1  0.08356932  0.95481409  0.06175663  1
  O2-  O220  1  0.08201048  0.95027625  0.39600114  1
  O2-  O221  1  0.08718838  0.95885389  0.73091041  1
  O2-  O222  1  0.58348212  0.45546232  0.07024445  1
  O2-  O223  1  0.58793240  0.45601358  0.39477598  1
  O2-  O224  1  0.58130223  0.45782210  0.73448343  1
  O2-  O225  1  0.59015195  0.95901266  0.06198684  1
  O2-  O226  1  0.58190468  0.95807078  0.40167321  1
  O2-  O227  1  0.58343954  0.96484330  0.73919645  1
  O2-  O228  1  0.19979804  0.33266065  0.06097634  1
  O2-  O229  1  0.20174052  0.33131925  0.39736557  1
  O2-  O230  1  0.20956873  0.33250181  0.73893902  1
  O2-  O231  1  0.19953226  0.83355382  0.05741568  1
  O2-  O232  1  0.20107488  0.83320140  0.39565117  1
  O2-  O233  1  0.20282400  0.83542954  0.72630615  1
  O2-  O234  1  0.71466141  0.33246076  0.06837377  1
  O2-  O235  1  0.70933930  0.33789120  0.39371148  1
  O2-  O236  1  0.71310799  0.33348766  0.73451986  1
  O2-  O237  1  0.70614778  0.83477076  0.05887307  1
  O2-  O238  1  0.70931085  0.83026173  0.40100704  1
  O2-  O239  1  0.70765056  0.83275896  0.74052976  1
  O2-  O240  1  0.45728299  0.41991605  0.26538640  1
  O2-  O241  1  0.44630330  0.42541860  0.60577567  1
  O2-  O242  1  0.45688309  0.41383806  0.93914254  1
  O2-  O243  1  0.46239875  0.91824465  0.26496089  1
  O2-  O244  1  0.46168652  0.91759314  0.60150961  1
  O2-  O245  1  0.46498484  0.91696898  0.93079502  1
  O2-  O246  1  0.95628178  0.41863700  0.26010198  1
  O2-  O247  1  0.95456173  0.41241328  0.60978287  1
  O2-  O248  1  0.95250695  0.41225240  0.93363907  1
  O2-  O249  1  0.94896655  0.91634532  0.27277572  1
  O2-  O250  1  0.95755821  0.92002555  0.59886474  1
  O2-  O251  1  0.95574783  0.91294083  0.93659641  1
  O2-  O252  1  0.32934278  0.29409637  0.26498624  1
  O2-  O253  1  0.33028194  0.28912554  0.60176376  1
  O2-  O254  1  0.33596038  0.29382212  0.93889865  1
  O2-  O255  1  0.32964544  0.79914207  0.26439125  1
  O2-  O256  1  0.33301154  0.79596649  0.59884635  1
  O2-  O257  1  0.33281976  0.79224207  0.93163060  1
  O2-  O258  1  0.83165267  0.29285655  0.26118620  1
  O2-  O259  1  0.83958182  0.29083501  0.60715798  1
  O2-  O260  1  0.83744064  0.28674888  0.93277692  1
  O2-  O261  1  0.83602588  0.79147229  0.26921000  1
  O2-  O262  1  0.82605381  0.79860707  0.60214935  1
  O2-  O263  1  0.83637839  0.79318284  0.93679798  1
  O2-  O264  1  0.41884679  0.03951154  0.06642023  1
  O2-  O265  1  0.41576708  0.03956857  0.40323524  1
  O2-  O266  1  0.41217464  0.04186509  0.72984099  1
  O2-  O267  1  0.41484858  0.54310125  0.06717238  1
  O2-  O268  1  0.42327866  0.54860007  0.40093184  1
  O2-  O269  1  0.41432129  0.55430253  0.73216931  1
  O2-  O270  1  0.91538547  0.04251153  0.06204087  1
  O2-  O271  1  0.92212378  0.04826126  0.40029661  1
  O2-  O272  1  0.91823135  0.04392684  0.73423238  1
  O2-  O273  1  0.91578769  0.54257036  0.06343912  1
  O2-  O274  1  0.91234412  0.54111921  0.39404589  1
  O2-  O275  1  0.91343510  0.54170368  0.73266110  1
  O2-  O276  1  0.29029707  0.16624671  0.06668680  1
  O2-  O277  1  0.28793301  0.16663893  0.40244732  1
  O2-  O278  1  0.29038538  0.15973017  0.73235937  1
  O2-  O279  1  0.28640543  0.66833020  0.06574898  1
  O2-  O280  1  0.29290648  0.67315100  0.39936098  1
  O2-  O281  1  0.28922904  0.66840944  0.73001310  1
  O2-  O282  1  0.79552573  0.16137305  0.06056366  1
  O2-  O283  1  0.79678700  0.17369606  0.39928548  1
  O2-  O284  1  0.79909476  0.16399567  0.73458588  1
  O2-  O285  1  0.80119110  0.66638172  0.06218974  1
  O2-  O286  1  0.79505206  0.66188712  0.39612324  1
  O2-  O287  1  0.80117618  0.66591046  0.72926713  1
