# generated using pymatgen
data_Ca2Al2SiO7
_symmetry_space_group_name_H-M   'P 1'
_cell_length_a   15.46899762
_cell_length_b   15.46752544
_cell_length_c   15.28999317
_cell_angle_alpha   90.02104899
_cell_angle_beta   90.01574192
_cell_angle_gamma   89.97302899
_symmetry_Int_Tables_number   1
_chemical_formula_structural   Ca2Al2SiO7
_chemical_formula_sum   'Ca48 Al48 Si24 O168'
_cell_volume   3658.39175460
_cell_formula_units_Z   24
loop_
 _symmetry_equiv_pos_site_id
 _symmetry_equiv_pos_as_xyz
  1  'x, y, z'
loop_
 _atom_type_symbol
 _atom_type_oxidation_number
  Ca2+  2.0
  Al0+  0.0
  Si0+  0.0
  O2-  -2.0
loop_
 _atom_site_type_symbol
 _atom_site_label
 _atom_site_symmetry_multiplicity
 _atom_site_fract_x
 _atom_site_fract_y
 _atom_site_fract_z
 _atom_site_occupancy
  Ca2+  Ca0  1  0.15912305  0.07846257  0.16877420  1
  Ca2+  Ca1  1  0.15888496  0.07833712  0.49750177  1
  Ca2+  Ca2  1  0.17123806  0.07464907  0.84612737  1
  Ca2+  Ca3  1  0.16749343  0.58041694  0.17229174  1
  Ca2+  Ca4  1  0.16703193  0.58146079  0.50364020  1
  Ca2+  Ca5  1  0.15753270  0.57500830  0.83748534  1
  Ca2+  Ca6  1  0.66795364  0.07154773  0.17351348  1
  Ca2+  Ca7  1  0.66945272  0.07816722  0.50060812  1
  Ca2+  Ca8  1  0.67007220  0.07544776  0.84354897  1
  Ca2+  Ca9  1  0.67078775  0.57886939  0.17911716  1
  Ca2+  Ca10  1  0.66348612  0.58553300  0.49914097  1
  Ca2+  Ca11  1  0.66801066  0.58709919  0.83501988  1
  Ca2+  Ca12  1  0.08053182  0.32504067  0.15650008  1
  Ca2+  Ca13  1  0.08225414  0.32808474  0.49044489  1
  Ca2+  Ca14  1  0.08874016  0.33232058  0.83454032  1
  Ca2+  Ca15  1  0.09523341  0.82470513  0.16473829  1
  Ca2+  Ca16  1  0.07733506  0.82730862  0.48713476  1
  Ca2+  Ca17  1  0.08715716  0.82247020  0.82727762  1
  Ca2+  Ca18  1  0.57162825  0.34039935  0.16526259  1
  Ca2+  Ca19  1  0.57247268  0.33971627  0.49147394  1
  Ca2+  Ca20  1  0.56685089  0.33184171  0.82867420  1
  Ca2+  Ca21  1  0.59118963  0.82976691  0.16483099  1
  Ca2+  Ca22  1  0.57867498  0.82409756  0.49484728  1
  Ca2+  Ca23  1  0.57871118  0.83184664  0.82507351  1
  Ca2+  Ca24  1  0.33125164  0.41867373  0.17126195  1
  Ca2+  Ca25  1  0.33249072  0.42068879  0.50310908  1
  Ca2+  Ca26  1  0.32500139  0.41498218  0.83715012  1
  Ca2+  Ca27  1  0.32229756  0.92500843  0.16938056  1
  Ca2+  Ca28  1  0.32797339  0.91429025  0.50129095  1
  Ca2+  Ca29  1  0.33232811  0.92191125  0.84422657  1
  Ca2+  Ca30  1  0.83010310  0.41047517  0.17503768  1
  Ca2+  Ca31  1  0.82712174  0.41167524  0.50187576  1
  Ca2+  Ca32  1  0.83377450  0.41881009  0.84185703  1
  Ca2+  Ca33  1  0.82524815  0.90978674  0.17526414  1
  Ca2+  Ca34  1  0.83189580  0.90282248  0.50023958  1
  Ca2+  Ca35  1  0.82917698  0.91068448  0.83697379  1
  Ca2+  Ca36  1  0.41070754  0.17711640  0.16118602  1
  Ca2+  Ca37  1  0.41345354  0.18084658  0.49556292  1
  Ca2+  Ca38  1  0.40259141  0.17706674  0.83458249  1
  Ca2+  Ca39  1  0.41922206  0.66286226  0.16937574  1
  Ca2+  Ca40  1  0.42405835  0.66324817  0.49413996  1
  Ca2+  Ca41  1  0.42413703  0.67561320  0.82451552  1
  Ca2+  Ca42  1  0.92559869  0.17550528  0.16585584  1
  Ca2+  Ca43  1  0.92322281  0.17389277  0.48889641  1
  Ca2+  Ca44  1  0.92202862  0.16957612  0.83681979  1
  Ca2+  Ca45  1  0.92983204  0.67018636  0.16733219  1
  Ca2+  Ca46  1  0.92963913  0.67369310  0.49717416  1
  Ca2+  Ca47  1  0.92934820  0.67161152  0.82954465  1
  Al0+  Al48  1  -0.00291584  0.00015121  0.00042112  1
  Al0+  Al49  1  -0.00244331  0.00153719  0.33059039  1
  Al0+  Al50  1  -0.00166964  0.00177516  0.66695858  1
  Al0+  Al51  1  -0.00071678  0.50202142  -0.00181784  1
  Al0+  Al52  1  -0.00179707  0.50226961  0.32871744  1
  Al0+  Al53  1  -0.00277667  0.49955796  0.66801940  1
  Al0+  Al54  1  0.50125759  -0.00041856  0.00978210  1
  Al0+  Al55  1  0.49925140  0.00061951  0.34031624  1
  Al0+  Al56  1  0.50082051  0.00150909  0.66419115  1
  Al0+  Al57  1  0.50100518  0.49973445  -0.00649182  1
  Al0+  Al58  1  0.50017461  0.50114301  0.33263405  1
  Al0+  Al59  1  0.49921845  0.49866652  0.66292412  1
  Al0+  Al60  1  0.24926727  0.25165379  -0.00152551  1
  Al0+  Al61  1  0.25063402  0.25001652  0.32613610  1
  Al0+  Al62  1  0.24885086  0.24989087  0.66504887  1
  Al0+  Al63  1  0.25381833  0.74919524  -0.00287406  1
  Al0+  Al64  1  0.25269392  0.75071136  0.33856130  1
  Al0+  Al65  1  0.25190202  0.74838398  0.66193106  1
  Al0+  Al66  1  0.74816727  0.24940913  -0.00274572  1
  Al0+  Al67  1  0.74743277  0.24791178  0.33605615  1
  Al0+  Al68  1  0.74938327  0.24823921  0.67123714  1
  Al0+  Al69  1  0.75211323  0.74709604  0.00355011  1
  Al0+  Al70  1  0.74945849  0.74769316  0.33263287  1
  Al0+  Al71  1  0.75082687  0.74822624  0.66334775  1
  Al0+  Al72  1  0.17857371  0.93136097  0.34741734  1
  Al0+  Al73  1  0.92759208  0.32176360  0.98385870  1
  Al0+  Al74  1  0.43071453  0.32163384  0.31865451  1
  Al0+  Al75  1  0.07213398  0.67594535  0.65164991  1
  Al0+  Al76  1  0.67890230  0.92637388  0.35079257  1
  Al0+  Al77  1  0.32077026  0.07244806  0.01510532  1
  Al0+  Al78  1  0.07157050  0.17977293  0.31768042  1
  Al0+  Al79  1  0.68025323  0.42877004  0.34658620  1
  Al0+  Al80  1  0.07571466  0.68017850  0.31760098  1
  Al0+  Al81  1  0.57062814  0.67912021  0.65136450  1
  Al0+  Al82  1  0.42819627  0.31813090  0.65173737  1
  Al0+  Al83  1  0.17739605  0.92665734  0.01287032  1
  Al0+  Al84  1  0.07398273  0.68127565  0.98598934  1
  Al0+  Al85  1  0.07088750  0.17766994  0.98246126  1
  Al0+  Al86  1  0.17840673  0.42976780  0.67903351  1
  Al0+  Al87  1  0.93194667  0.82263665  0.65318263  1
  Al0+  Al88  1  0.92899424  0.82062458  0.31732644  1
  Al0+  Al89  1  0.42885916  0.32145174  0.98479239  1
  Al0+  Al90  1  0.56885852  0.68113761  0.31795946  1
  Al0+  Al91  1  0.92619058  0.32250245  0.32111618  1
  Al0+  Al92  1  0.17888205  0.43204331  0.01366443  1
  Al0+  Al93  1  0.68168423  0.92784016  0.01337545  1
  Al0+  Al94  1  0.32048533  0.56989586  0.34647153  1
  Al0+  Al95  1  0.42830567  0.82510981  0.65151755  1
  Si0+  Si96  1  0.57523304  0.17862284  0.64991967  1
  Si0+  Si97  1  0.67802509  0.42901205  0.01302656  1
  Si0+  Si98  1  0.81997486  0.07095995  0.35171512  1
  Si0+  Si99  1  0.32042931  0.07035881  0.67983078  1
  Si0+  Si100  1  0.42805007  0.82512824  0.31494093  1
  Si0+  Si101  1  0.92599453  0.32048109  0.65349605  1
  Si0+  Si102  1  0.32422029  0.57194903  0.68413934  1
  Si0+  Si103  1  0.82117665  0.07485156  0.01890628  1
  Si0+  Si104  1  0.17674790  0.42778197  0.34699903  1
  Si0+  Si105  1  0.82305727  0.57195008  0.35240536  1
  Si0+  Si106  1  0.06978085  0.18016692  0.65237195  1
  Si0+  Si107  1  0.92565341  0.82022217  0.98499380  1
  Si0+  Si108  1  0.82198627  0.07330559  0.68446460  1
  Si0+  Si109  1  0.67729443  0.42706016  0.68397004  1
  Si0+  Si110  1  0.57029049  0.17565211  0.98461627  1
  Si0+  Si111  1  0.82052495  0.56951109  0.01629924  1
  Si0+  Si112  1  0.81896607  0.56970992  0.68344253  1
  Si0+  Si113  1  0.68079494  0.92948270  0.68108478  1
  Si0+  Si114  1  0.17799347  0.92847827  0.67924284  1
  Si0+  Si115  1  0.32625082  0.57182585  0.01462860  1
  Si0+  Si116  1  0.43219589  0.82181802  0.98790711  1
  Si0+  Si117  1  0.32163271  0.07493348  0.35225936  1
  Si0+  Si118  1  0.57114959  0.17581581  0.31720985  1
  Si0+  Si119  1  0.57356466  0.67930735  0.98567815  1
  O2-  O120  1  0.24370462  0.00446669  0.06271454  1
  O2-  O121  1  0.25226264  0.00672812  0.39619534  1
  O2-  O122  1  0.25448599  -0.00589019  0.72128832  1
  O2-  O123  1  0.25498206  0.50604114  0.05834501  1
  O2-  O124  1  0.24256332  0.49806990  0.39288602  1
  O2-  O125  1  0.25083981  0.50742080  0.72685412  1
  O2-  O126  1  0.75626212  0.00175628  0.06131563  1
  O2-  O127  1  0.75553459  -0.00107712  0.39805236  1
  O2-  O128  1  0.75177632  -0.00001705  0.72454805  1
  O2-  O129  1  0.75241184  0.49485332  0.05644808  1
  O2-  O130  1  0.75848718  0.49831515  0.39590851  1
  O2-  O131  1  0.74742710  0.49864674  0.72659070  1
  O2-  O132  1  0.00370380  0.25738959  0.27088960  1
  O2-  O133  1  -0.00109346  0.25206820  0.61146705  1
  O2-  O134  1  0.00078396  0.25196990  0.93171339  1
  O2-  O135  1  0.00630542  0.75489826  0.26720495  1
  O2-  O136  1  0.00932809  0.75679845  0.60351999  1
  O2-  O137  1  0.00290675  0.76131477  0.94138018  1
  O2-  O138  1  0.50346940  0.24459501  0.27250058  1
  O2-  O139  1  0.50662408  0.24691368  0.60580867  1
  O2-  O140  1  0.50057529  0.24248100  0.93899582  1
  O2-  O141  1  0.49850297  0.75879474  0.26940904  1
  O2-  O142  1  0.49634116  0.74897499  0.60229284  1
  O2-  O143  1  0.50398237  0.75165173  0.94477648  1
  O2-  O144  1  0.06845819  0.17933176  0.09534180  1
  O2-  O145  1  0.06991127  0.18108412  0.43258819  1
  O2-  O146  1  0.06968443  0.17833854  0.75694822  1
  O2-  O147  1  0.07322233  0.68011691  0.09840155  1
  O2-  O148  1  0.07385255  0.67946756  0.43114827  1
  O2-  O149  1  0.06769338  0.67611146  0.76556713  1
  O2-  O150  1  0.57161562  0.17710924  0.08980695  1
  O2-  O151  1  0.57050147  0.17652331  0.42317686  1
  O2-  O152  1  0.57797041  0.17891767  0.75549053  1
  O2-  O153  1  0.57427217  0.67740808  0.09025480  1
  O2-  O154  1  0.56698667  0.68051845  0.43069650  1
  O2-  O155  1  0.57223316  0.68238247  0.76603359  1
  O2-  O156  1  0.17906234  0.42791104  0.24160850  1
  O2-  O157  1  0.17930693  0.42685167  0.56597758  1
  O2-  O158  1  0.18055614  0.43340010  0.90003803  1
  O2-  O159  1  0.18197700  0.93128030  0.23468923  1
  O2-  O160  1  0.17521983  0.93372807  0.57443793  1
  O2-  O161  1  0.18332274  0.92458295  0.89836493  1
  O2-  O162  1  0.67988420  0.43169964  0.23300464  1
  O2-  O163  1  0.67913011  0.42394404  0.57921470  1
  O2-  O164  1  0.67704638  0.43274586  0.90755048  1
  O2-  O165  1  0.68019619  0.92864367  0.23748375  1
  O2-  O166  1  0.68175198  0.93079946  0.57648862  1
  O2-  O167  1  0.68206954  0.92802349  0.89934325  1
  O2-  O168  1  0.43418038  0.32604230  0.09728667  1
  O2-  O169  1  0.43107182  0.31996622  0.43209508  1
  O2-  O170  1  0.42844347  0.31588208  0.76486415  1
  O2-  O171  1  0.43213896  0.82053172  0.09247539  1
  O2-  O172  1  0.42972564  0.82405554  0.42059256  1
  O2-  O173  1  0.43330254  0.82750056  0.76604487  1
  O2-  O174  1  0.92485483  0.31959283  0.09674950  1
  O2-  O175  1  0.92596149  0.31869031  0.43566528  1
  O2-  O176  1  0.92314938  0.31845098  0.75816227  1
  O2-  O177  1  0.91766899  0.81317781  0.08933967  1
  O2-  O178  1  0.93038936  0.81649001  0.43104448  1
  O2-  O179  1  0.93033172  0.82132246  0.76723062  1
  O2-  O180  1  0.32432594  0.07427156  0.24721700  1
  O2-  O181  1  0.31825856  0.07328170  0.57500849  1
  O2-  O182  1  0.32240373  0.06731235  0.90045136  1
  O2-  O183  1  0.32202772  0.56718543  0.23310574  1
  O2-  O184  1  0.32787536  0.56812105  0.57888092  1
  O2-  O185  1  0.33060322  0.57140511  0.90912710  1
  O2-  O186  1  0.81546961  0.07330379  0.24652087  1
  O2-  O187  1  0.82095528  0.07972064  0.58021773  1
  O2-  O188  1  0.81765963  0.07606353  0.91263296  1
  O2-  O189  1  0.81980295  0.57357570  0.24659414  1
  O2-  O190  1  0.81943114  0.56723836  0.57891790  1
  O2-  O191  1  0.81691799  0.57235990  0.91073968  1
  O2-  O192  1  0.03811306  0.08400039  0.26436041  1
  O2-  O193  1  0.03988235  0.08938362  0.60444182  1
  O2-  O194  1  0.04049093  0.07854112  0.92937522  1
  O2-  O195  1  0.04475274  0.58257808  0.26454617  1
  O2-  O196  1  0.03392546  0.58064456  0.59877543  1
  O2-  O197  1  0.03531475  0.58765689  0.93142877  1
  O2-  O198  1  0.54551038  0.08158336  0.27273518  1
  O2-  O199  1  0.55049188  0.08525333  0.60389697  1
  O2-  O200  1  0.54683187  0.08058852  0.93984819  1
  O2-  O201  1  0.53585094  0.58589307  0.26328218  1
  O2-  O202  1  0.54622265  0.57933919  0.60041834  1
  O2-  O203  1  0.54528892  0.58916947  0.93508322  1
  O2-  O204  1  0.17049932  0.20162282  0.26455506  1
  O2-  O205  1  0.16042489  0.20760685  0.60352610  1
  O2-  O206  1  0.16980138  0.20506966  0.93009008  1
  O2-  O207  1  0.17526249  0.70756064  0.26696382  1
  O2-  O208  1  0.17459537  0.69140848  0.60447735  1
  O2-  O209  1  0.17194523  0.70626054  0.93057953  1
  O2-  O210  1  0.66478383  0.19963716  0.27188404  1
  O2-  O211  1  0.66883167  0.20403196  0.60364055  1
  O2-  O212  1  0.66280544  0.20190567  0.93610499  1
  O2-  O213  1  0.66620953  0.70827038  0.26456380  1
  O2-  O214  1  0.66821210  0.70781088  0.59866092  1
  O2-  O215  1  0.66546690  0.70663214  0.93789107  1
  O2-  O216  1  0.08165232  0.46237124  0.06596505  1
  O2-  O217  1  0.08106245  0.44975954  0.39095242  1
  O2-  O218  1  0.08016530  0.45712480  0.73308228  1
  O2-  O219  1  0.07565205  0.94715421  0.06193742  1
  O2-  O220  1  0.08096304  0.96288343  0.40013466  1
  O2-  O221  1  0.08800188  0.96094870  0.72797826  1
  O2-  O222  1  0.58769284  0.46187991  0.05991958  1
  O2-  O223  1  0.58571102  0.46481248  0.40087628  1
  O2-  O224  1  0.58496872  0.45513205  0.73037297  1
  O2-  O225  1  0.58674242  0.95675850  0.07052920  1
  O2-  O226  1  0.58271876  0.95879909  0.40524346  1
  O2-  O227  1  0.58865541  0.95844725  0.72827716  1
  O2-  O228  1  0.20822292  0.33476207  0.06523099  1
  O2-  O229  1  0.20504399  0.33399366  0.39189501  1
  O2-  O230  1  0.21218239  0.33319026  0.73293006  1
  O2-  O231  1  0.21433773  0.83040305  0.06518729  1
  O2-  O232  1  0.21124897  0.83614919  0.40301428  1
  O2-  O233  1  0.19995958  0.83346762  0.72295067  1
  O2-  O234  1  0.69968570  0.33493519  0.05798243  1
  O2-  O235  1  0.70466987  0.33074542  0.40213941  1
  O2-  O236  1  0.70557917  0.33564582  0.73265878  1
  O2-  O237  1  0.71217658  0.83090409  0.06705139  1
  O2-  O238  1  0.70939559  0.82911475  0.40325883  1
  O2-  O239  1  0.70879407  0.83712359  0.72789081  1
  O2-  O240  1  0.46560411  0.41589778  0.26431384  1
  O2-  O241  1  0.45791692  0.41484265  0.59918482  1
  O2-  O242  1  0.46489307  0.41541109  0.92736135  1
  O2-  O243  1  0.45145845  0.92068342  0.27269806  1
  O2-  O244  1  0.45865020  0.92217387  0.59715750  1
  O2-  O245  1  0.46090521  0.91394761  0.94157894  1
  O2-  O246  1  0.94293048  0.42347992  0.27076978  1
  O2-  O247  1  0.94908930  0.41325671  0.60769424  1
  O2-  O248  1  0.95340399  0.42129104  0.93195687  1
  O2-  O249  1  0.94609436  0.92225279  0.26869060  1
  O2-  O250  1  0.95034331  0.92409783  0.60210446  1
  O2-  O251  1  0.93750720  0.91817868  0.94409634  1
  O2-  O252  1  0.33474538  0.29298066  0.26378622  1
  O2-  O253  1  0.33334741  0.28386878  0.59705469  1
  O2-  O254  1  0.33257554  0.29284225  0.92973500  1
  O2-  O255  1  0.33574436  0.79622452  0.26997177  1
  O2-  O256  1  0.32849840  0.80261770  0.60023489  1
  O2-  O257  1  0.34273707  0.79362247  0.93624811  1
  O2-  O258  1  0.82880665  0.28832161  0.26925659  1
  O2-  O259  1  0.83441831  0.29001233  0.60676385  1
  O2-  O260  1  0.82822090  0.29263644  0.93026565  1
  O2-  O261  1  0.83206103  0.78663473  0.26571540  1
  O2-  O262  1  0.83527956  0.78828225  0.60130992  1
  O2-  O263  1  0.83636909  0.78387677  0.93441213  1
  O2-  O264  1  0.41690709  0.04181817  0.07111804  1
  O2-  O265  1  0.41448587  0.04990224  0.40100138  1
  O2-  O266  1  0.41492712  0.04906992  0.72588594  1
  O2-  O267  1  0.41925350  0.54263167  0.06116510  1
  O2-  O268  1  0.41518307  0.53465171  0.40154872  1
  O2-  O269  1  0.41673210  0.54207871  0.73165015  1
  O2-  O270  1  0.91606942  0.05446597  0.06257541  1
  O2-  O271  1  0.91498201  0.05094843  0.39672402  1
  O2-  O272  1  0.91345586  0.04611131  0.73336403  1
  O2-  O273  1  0.91265634  0.54552430  0.06305402  1
  O2-  O274  1  0.91839256  0.55177886  0.39740019  1
  O2-  O275  1  0.90918939  0.54055293  0.73353842  1
  O2-  O276  1  0.29863674  0.17314739  0.06391284  1
  O2-  O277  1  0.29477332  0.16911501  0.39741624  1
  O2-  O278  1  0.28668003  0.15981606  0.72848991  1
  O2-  O279  1  0.30479374  0.66660546  0.05922691  1
  O2-  O280  1  0.29712536  0.66729599  0.40236108  1
  O2-  O281  1  0.30565609  0.66875051  0.72770184  1
  O2-  O282  1  0.78992870  0.16669850  0.06523958  1
  O2-  O283  1  0.78917990  0.16195046  0.40181594  1
  O2-  O284  1  0.79151468  0.16280119  0.73616860  1
  O2-  O285  1  0.78786366  0.65805554  0.06640273  1
  O2-  O286  1  0.78959415  0.66198373  0.40025712  1
  O2-  O287  1  0.78935740  0.66111652  0.73172882  1
