# generated using pymatgen
data_Ca2Al2SiO7
_symmetry_space_group_name_H-M   'P 1'
_cell_length_a   15.45893385
_cell_length_b   15.46102214
_cell_length_c   15.28369931
_cell_angle_alpha   90.02423848
_cell_angle_beta   89.99223166
_cell_angle_gamma   89.98450526
_symmetry_Int_Tables_number   1
_chemical_formula_structural   Ca2Al2SiO7
_chemical_formula_sum   'Ca48 Al48 Si24 O168'
_cell_volume   3652.97051627
_cell_formula_units_Z   24
loop_
 _symmetry_equiv_pos_site_id
 _symmetry_equiv_pos_as_xyz
  1  'x, y, z'
loop_
 _atom_type_symbol
 _atom_type_oxidation_number
  Ca2+  2.0
  Al0+  0.0
  Si0+  0.0
  O2-  -2.0
loop_
 _atom_site_type_symbol
 _atom_site_label
 _atom_site_symmetry_multiplicity
 _atom_site_fract_x
 _atom_site_fract_y
 _atom_site_fract_z
 _atom_site_occupancy
  Ca2+  Ca0  1  0.16538748  0.08008747  0.17179064  1
  Ca2+  Ca1  1  0.17448698  0.07896793  0.50407130  1
  Ca2+  Ca2  1  0.17118685  0.08839582  0.83821763  1
  Ca2+  Ca3  1  0.17183870  0.59022282  0.17012270  1
  Ca2+  Ca4  1  0.16444900  0.58042400  0.50268599  1
  Ca2+  Ca5  1  0.17028671  0.57631328  0.83695325  1
  Ca2+  Ca6  1  0.66983507  0.07669659  0.16924754  1
  Ca2+  Ca7  1  0.66040716  0.08217113  0.49992010  1
  Ca2+  Ca8  1  0.67352399  0.08098554  0.84096416  1
  Ca2+  Ca9  1  0.66687627  0.57093329  0.16992329  1
  Ca2+  Ca10  1  0.66705460  0.56851540  0.50280301  1
  Ca2+  Ca11  1  0.66723824  0.57012466  0.83951156  1
  Ca2+  Ca12  1  0.07012647  0.32664314  0.15766318  1
  Ca2+  Ca13  1  0.07371872  0.34018249  0.49579572  1
  Ca2+  Ca14  1  0.07467806  0.33196493  0.82949801  1
  Ca2+  Ca15  1  0.07612340  0.83479885  0.16555767  1
  Ca2+  Ca16  1  0.07497940  0.83116485  0.48903160  1
  Ca2+  Ca17  1  0.06879777  0.83399121  0.83048747  1
  Ca2+  Ca18  1  0.58083444  0.33460433  0.16406118  1
  Ca2+  Ca19  1  0.58607681  0.32268141  0.49157362  1
  Ca2+  Ca20  1  0.58305021  0.33223502  0.82866708  1
  Ca2+  Ca21  1  0.57634907  0.84239029  0.16192570  1
  Ca2+  Ca22  1  0.57784503  0.83349177  0.48954541  1
  Ca2+  Ca23  1  0.58085681  0.83793411  0.83372153  1
  Ca2+  Ca24  1  0.34062706  0.42035916  0.16987120  1
  Ca2+  Ca25  1  0.32692553  0.41313732  0.50510101  1
  Ca2+  Ca26  1  0.32881096  0.41805949  0.84329447  1
  Ca2+  Ca27  1  0.32969840  0.91274943  0.17574546  1
  Ca2+  Ca28  1  0.32975843  0.91921849  0.50134732  1
  Ca2+  Ca29  1  0.33574602  0.92474527  0.83875168  1
  Ca2+  Ca30  1  0.82503482  0.40546913  0.17142392  1
  Ca2+  Ca31  1  0.82632820  0.40811492  0.50461771  1
  Ca2+  Ca32  1  0.82401643  0.40365592  0.83747365  1
  Ca2+  Ca33  1  0.83111357  0.91933014  0.17233918  1
  Ca2+  Ca34  1  0.83145871  0.91262508  0.50156398  1
  Ca2+  Ca35  1  0.83055120  0.92069643  0.84777243  1
  Ca2+  Ca36  1  0.42365941  0.17732629  0.16457570  1
  Ca2+  Ca37  1  0.42614768  0.16822970  0.49392992  1
  Ca2+  Ca38  1  0.42383572  0.16951584  0.82715373  1
  Ca2+  Ca39  1  0.41515353  0.67704206  0.15968891  1
  Ca2+  Ca40  1  0.41839749  0.67229897  0.49242271  1
  Ca2+  Ca41  1  0.41308336  0.66901328  0.83854226  1
  Ca2+  Ca42  1  0.91717975  0.17140825  0.15935083  1
  Ca2+  Ca43  1  0.91453347  0.17918428  0.49657718  1
  Ca2+  Ca44  1  0.91728305  0.17117207  0.83568899  1
  Ca2+  Ca45  1  0.91860344  0.67644163  0.16634576  1
  Ca2+  Ca46  1  0.92288209  0.67550901  0.49218012  1
  Ca2+  Ca47  1  0.90585597  0.68050299  0.83080992  1
  Al0+  Al48  1  0.00158897  0.00002734  -0.00442226  1
  Al0+  Al49  1  0.00039878  0.00061129  0.33805785  1
  Al0+  Al50  1  -0.00054426  0.00084040  0.66164834  1
  Al0+  Al51  1  -0.00075021  0.49987059  -0.00371722  1
  Al0+  Al52  1  0.00071542  0.50180126  0.32399601  1
  Al0+  Al53  1  -0.00071996  0.50286639  0.66894563  1
  Al0+  Al54  1  0.49845735  0.00130297  -0.00095686  1
  Al0+  Al55  1  0.50166155  0.00109136  0.32956103  1
  Al0+  Al56  1  0.49913063  0.00058649  0.66712223  1
  Al0+  Al57  1  0.49881884  0.50148440  0.00392037  1
  Al0+  Al58  1  0.50074742  0.50065521  0.33799000  1
  Al0+  Al59  1  0.49975972  0.50135717  0.67018783  1
  Al0+  Al60  1  0.25050222  0.25051846  -0.00459512  1
  Al0+  Al61  1  0.25162441  0.25156722  0.33234258  1
  Al0+  Al62  1  0.24984306  0.24992998  0.67557471  1
  Al0+  Al63  1  0.25093530  0.74998121  -0.00317815  1
  Al0+  Al64  1  0.25046561  0.75027983  0.33376060  1
  Al0+  Al65  1  0.24867281  0.75072741  0.66839678  1
  Al0+  Al66  1  0.74982946  0.24693229  0.00562438  1
  Al0+  Al67  1  0.75002404  0.24716103  0.33036795  1
  Al0+  Al68  1  0.74944745  0.24684063  0.66327249  1
  Al0+  Al69  1  0.74709913  0.74667157  0.00050247  1
  Al0+  Al70  1  0.75042578  0.74869747  0.33526504  1
  Al0+  Al71  1  0.74699887  0.74867665  0.66136719  1
  Al0+  Al72  1  0.68056517  0.42863717  0.01390399  1
  Al0+  Al73  1  0.43124648  0.32346182  0.98539980  1
  Al0+  Al74  1  0.67742773  0.92712115  0.01413110  1
  Al0+  Al75  1  0.92749353  0.82309307  0.31769824  1
  Al0+  Al76  1  0.31816654  0.57028755  0.01511985  1
  Al0+  Al77  1  0.42828724  0.32322334  0.32018015  1
  Al0+  Al78  1  0.07199107  0.17793034  0.98476969  1
  Al0+  Al79  1  0.92630295  0.32089147  0.98396550  1
  Al0+  Al80  1  0.17925973  0.92878318  0.34693974  1
  Al0+  Al81  1  0.92984541  0.32064642  0.31998488  1
  Al0+  Al82  1  0.92725914  0.82243691  0.65179224  1
  Al0+  Al83  1  0.92804785  0.81861552  0.98785776  1
  Al0+  Al84  1  0.32124164  0.06908882  0.68097303  1
  Al0+  Al85  1  0.68066241  0.42672402  0.68019004  1
  Al0+  Al86  1  0.56972664  0.17929499  0.65342039  1
  Al0+  Al87  1  0.67911181  0.92851984  0.34793142  1
  Al0+  Al88  1  0.57188818  0.17829258  0.31528246  1
  Al0+  Al89  1  0.17732553  0.43034408  0.68056801  1
  Al0+  Al90  1  0.93063485  0.32038774  0.65310645  1
  Al0+  Al91  1  0.68053007  0.42803439  0.34864809  1
  Al0+  Al92  1  0.43109597  0.81984128  0.32149284  1
  Al0+  Al93  1  0.82345709  0.06871550  0.01564207  1
  Al0+  Al94  1  0.07219954  0.67944743  0.31769071  1
  Al0+  Al95  1  0.42883659  0.82238984  0.98484589  1
  Si0+  Si96  1  0.17673415  0.42685900  0.01832828  1
  Si0+  Si97  1  0.07536227  0.17867333  0.64829893  1
  Si0+  Si98  1  0.42922512  0.82067942  0.65226006  1
  Si0+  Si99  1  0.07407634  0.17844126  0.32026058  1
  Si0+  Si100  1  0.82274622  0.07106272  0.35333378  1
  Si0+  Si101  1  0.57262267  0.67657538  0.31739878  1
  Si0+  Si102  1  0.82444543  0.57116840  0.35031623  1
  Si0+  Si103  1  0.82006015  0.57320789  0.68276939  1
  Si0+  Si104  1  0.18111407  0.92979876  0.01329931  1
  Si0+  Si105  1  0.82144205  0.06953014  0.68035974  1
  Si0+  Si106  1  0.56991683  0.67710792  0.65040245  1
  Si0+  Si107  1  0.07349637  0.67829990  0.98102211  1
  Si0+  Si108  1  0.32074918  0.57143175  0.34924320  1
  Si0+  Si109  1  0.57052937  0.67725965  0.98283811  1
  Si0+  Si110  1  0.17804369  0.42917008  0.34551001  1
  Si0+  Si111  1  0.42702103  0.32382303  0.65249286  1
  Si0+  Si112  1  0.17651465  0.92794848  0.68462248  1
  Si0+  Si113  1  0.67887017  0.92731995  0.68015021  1
  Si0+  Si114  1  0.32230577  0.07355264  0.34867501  1
  Si0+  Si115  1  0.82357460  0.57331617  0.01718284  1
  Si0+  Si116  1  0.32264866  0.57440391  0.68420034  1
  Si0+  Si117  1  0.32143743  0.07331021  0.01662292  1
  Si0+  Si118  1  0.57058746  0.17849583  0.98250401  1
  Si0+  Si119  1  0.07248803  0.67992383  0.65074760  1
  O2-  O120  1  0.25068157  0.00147041  0.05723375  1
  O2-  O121  1  0.25369284  0.00438310  0.39308808  1
  O2-  O122  1  0.24451144  -0.00332696  0.72959202  1
  O2-  O123  1  0.24374062  0.49651383  0.06395482  1
  O2-  O124  1  0.25040569  0.49869456  0.38950430  1
  O2-  O125  1  0.25594109  0.50258335  0.72583290  1
  O2-  O126  1  0.75351574  -0.00600536  0.06448040  1
  O2-  O127  1  0.75529110  0.00044194  0.39734613  1
  O2-  O128  1  0.75468217  -0.00669982  0.72122717  1
  O2-  O129  1  0.76067926  0.49868913  0.05993273  1
  O2-  O130  1  0.75805878  0.50045088  0.39549678  1
  O2-  O131  1  0.75660412  0.50011080  0.72756623  1
  O2-  O132  1  0.00531260  0.24597160  0.27571379  1
  O2-  O133  1  0.00865810  0.24943792  0.60447338  1
  O2-  O134  1  0.00112882  0.25124872  0.93476772  1
  O2-  O135  1  0.00115370  0.75251772  0.26865303  1
  O2-  O136  1  0.00505643  0.74985581  0.60726169  1
  O2-  O137  1  -0.00048073  0.74181953  0.93768658  1
  O2-  O138  1  0.50190483  0.25417624  0.26887558  1
  O2-  O139  1  0.49655321  0.25681274  0.60802396  1
  O2-  O140  1  0.50559450  0.24996871  0.93693466  1
  O2-  O141  1  0.50811725  0.74882432  0.27309147  1
  O2-  O142  1  0.49738711  0.74751090  0.60965455  1
  O2-  O143  1  0.50643729  0.75068108  0.93790718  1
  O2-  O144  1  0.07298735  0.17844751  0.09877037  1
  O2-  O145  1  0.07589070  0.18118422  0.42601858  1
  O2-  O146  1  0.07388563  0.17707681  0.75350902  1
  O2-  O147  1  0.07661201  0.68216574  0.08619507  1
  O2-  O148  1  0.07130671  0.67860279  0.43183339  1
  O2-  O149  1  0.07443808  0.68155908  0.75615233  1
  O2-  O150  1  0.56714908  0.17701406  0.08762851  1
  O2-  O151  1  0.56899510  0.17858104  0.42962430  1
  O2-  O152  1  0.56950757  0.17774747  0.76640888  1
  O2-  O153  1  0.56767496  0.67508657  0.08813245  1
  O2-  O154  1  0.56784569  0.67568467  0.42370108  1
  O2-  O155  1  0.57189871  0.67712509  0.75524348  1
  O2-  O156  1  0.17871936  0.42882093  0.24096173  1
  O2-  O157  1  0.17808293  0.43291582  0.56664557  1
  O2-  O158  1  0.17882890  0.42914746  0.91243306  1
  O2-  O159  1  0.18059007  0.93020594  0.23352492  1
  O2-  O160  1  0.17940602  0.92678625  0.57911755  1
  O2-  O161  1  0.18322515  0.93008382  0.90789776  1
  O2-  O162  1  0.67976332  0.43126686  0.23574496  1
  O2-  O163  1  0.68077338  0.42833106  0.56720388  1
  O2-  O164  1  0.67994822  0.43014038  0.90027206  1
  O2-  O165  1  0.67828227  0.93035762  0.23555926  1
  O2-  O166  1  0.67683993  0.92765883  0.57515859  1
  O2-  O167  1  0.67825527  0.92995253  0.89935206  1
  O2-  O168  1  0.43214821  0.32230765  0.09821100  1
  O2-  O169  1  0.42425390  0.32075349  0.43415248  1
  O2-  O170  1  0.42907807  0.32362691  0.75810928  1
  O2-  O171  1  0.42658630  0.82071385  0.09763090  1
  O2-  O172  1  0.43060156  0.81713519  0.43548022  1
  O2-  O173  1  0.43064880  0.82089382  0.75726832  1
  O2-  O174  1  0.92817478  0.31883564  0.09751711  1
  O2-  O175  1  0.93155411  0.32104572  0.43370042  1
  O2-  O176  1  0.92924601  0.31610776  0.76549496  1
  O2-  O177  1  0.93070155  0.81888134  0.10021074  1
  O2-  O178  1  0.92916679  0.81975329  0.43167197  1
  O2-  O179  1  0.92616826  0.82112205  0.76518629  1
  O2-  O180  1  0.31957830  0.07470340  0.24311291  1
  O2-  O181  1  0.32144255  0.06535624  0.56778744  1
  O2-  O182  1  0.32239249  0.07125428  0.91119581  1
  O2-  O183  1  0.32093439  0.57327297  0.24449513  1
  O2-  O184  1  0.32297147  0.57763888  0.57855265  1
  O2-  O185  1  0.31580577  0.56993858  0.90158797  1
  O2-  O186  1  0.82467945  0.07055617  0.24810808  1
  O2-  O187  1  0.82057783  0.07079681  0.57542936  1
  O2-  O188  1  0.82128955  0.06812282  0.90101324  1
  O2-  O189  1  0.82257193  0.57206139  0.24490632  1
  O2-  O190  1  0.81757468  0.57507477  0.57736219  1
  O2-  O191  1  0.81893405  0.57824427  0.91146160  1
  O2-  O192  1  0.04934166  0.08424401  0.27608792  1
  O2-  O193  1  0.04889867  0.08539884  0.60160507  1
  O2-  O194  1  0.04558753  0.08046655  0.92832632  1
  O2-  O195  1  0.04565636  0.58316506  0.26003803  1
  O2-  O196  1  0.04563433  0.58703994  0.60419792  1
  O2-  O197  1  0.05385188  0.58243262  0.93728825  1
  O2-  O198  1  0.54087431  0.08206648  0.26114016  1
  O2-  O199  1  0.53577523  0.08321418  0.59897521  1
  O2-  O200  1  0.54092182  0.08678896  0.93441725  1
  O2-  O201  1  0.54242309  0.58490317  0.27122053  1
  O2-  O202  1  0.54135191  0.58557102  0.60196713  1
  O2-  O203  1  0.53738543  0.58706764  0.93414611  1
  O2-  O204  1  0.16714608  0.20271416  0.27286323  1
  O2-  O205  1  0.17067566  0.20241811  0.60501397  1
  O2-  O206  1  0.17003453  0.20587860  0.93030650  1
  O2-  O207  1  0.17049866  0.70825141  0.26584206  1
  O2-  O208  1  0.16716531  0.70323177  0.60425828  1
  O2-  O209  1  0.16412134  0.70934040  0.93195168  1
  O2-  O210  1  0.67053082  0.20310845  0.26347321  1
  O2-  O211  1  0.66559741  0.20726523  0.59720219  1
  O2-  O212  1  0.66588790  0.20092831  0.93967389  1
  O2-  O213  1  0.66807258  0.69570281  0.27453547  1
  O2-  O214  1  0.65967091  0.70525506  0.59962106  1
  O2-  O215  1  0.66490426  0.69662885  0.93568076  1
  O2-  O216  1  0.08115367  0.45056403  0.06119510  1
  O2-  O217  1  0.08658981  0.46015986  0.39257037  1
  O2-  O218  1  0.08260667  0.46476119  0.73686823  1
  O2-  O219  1  0.08912098  0.95646740  0.05982505  1
  O2-  O220  1  0.08362976  0.95857979  0.40400576  1
  O2-  O221  1  0.08160070  0.95372095  0.72805009  1
  O2-  O222  1  0.58611209  0.46554830  0.06784780  1
  O2-  O223  1  0.58478418  0.46171732  0.40436972  1
  O2-  O224  1  0.58368780  0.45968483  0.73319026  1
  O2-  O225  1  0.57935984  0.95997018  0.06533379  1
  O2-  O226  1  0.58193971  0.96119201  0.40186722  1
  O2-  O227  1  0.58839380  0.95849507  0.72802614  1
  O2-  O228  1  0.20354770  0.33285905  0.06207440  1
  O2-  O229  1  0.20425631  0.33755125  0.39509658  1
  O2-  O230  1  0.20393952  0.33385531  0.73628713  1
  O2-  O231  1  0.21058193  0.83837205  0.05967033  1
  O2-  O232  1  0.21274767  0.83341802  0.40278688  1
  O2-  O233  1  0.20174775  0.83414112  0.73091821  1
  O2-  O234  1  0.70616480  0.33143400  0.06818636  1
  O2-  O235  1  0.71053187  0.32975314  0.39963581  1
  O2-  O236  1  0.71110881  0.32941796  0.73270619  1
  O2-  O237  1  0.69620276  0.82525081  0.06285228  1
  O2-  O238  1  0.70510225  0.82970754  0.40210224  1
  O2-  O239  1  0.70090001  0.83299526  0.72553017  1
  O2-  O240  1  0.45517582  0.42318746  0.27037959  1
  O2-  O241  1  0.44824411  0.41960457  0.60855159  1
  O2-  O242  1  0.45962968  0.42106299  0.93245323  1
  O2-  O243  1  0.45652955  0.91695578  0.26777012  1
  O2-  O244  1  0.45946576  0.91084705  0.60438561  1
  O2-  O245  1  0.45760817  0.91952061  0.93015942  1
  O2-  O246  1  0.95802002  0.41616795  0.26426752  1
  O2-  O247  1  0.95720868  0.42019064  0.60268639  1
  O2-  O248  1  0.94990901  0.42144873  0.93200151  1
  O2-  O249  1  0.95631844  0.92284273  0.26892831  1
  O2-  O250  1  0.95570923  0.91923266  0.59720950  1
  O2-  O251  1  0.96197656  0.91315682  0.93198324  1
  O2-  O252  1  0.33028380  0.29550687  0.26535294  1
  O2-  O253  1  0.33235311  0.29710783  0.60945963  1
  O2-  O254  1  0.33444223  0.29313077  0.93218355  1
  O2-  O255  1  0.33582942  0.78653856  0.26788024  1
  O2-  O256  1  0.33545535  0.79502992  0.60695306  1
  O2-  O257  1  0.33438596  0.78768303  0.92827143  1
  O2-  O258  1  0.83481149  0.28754940  0.26684103  1
  O2-  O259  1  0.83598576  0.28428003  0.59843200  1
  O2-  O260  1  0.82829183  0.28719765  0.93312002  1
  O2-  O261  1  0.82907401  0.79253250  0.26691034  1
  O2-  O262  1  0.83090662  0.78962742  0.59827105  1
  O2-  O263  1  0.83021622  0.78876940  0.93411227  1
  O2-  O264  1  0.41268147  0.04521504  0.06354687  1
  O2-  O265  1  0.41554152  0.04631453  0.39378794  1
  O2-  O266  1  0.41600969  0.03413366  0.73722059  1
  O2-  O267  1  0.41457108  0.54213185  0.06987396  1
  O2-  O268  1  0.41199472  0.54589217  0.39949204  1
  O2-  O269  1  0.41677546  0.55268462  0.73081988  1
  O2-  O270  1  0.92351930  0.04262785  0.06614685  1
  O2-  O271  1  0.91660032  0.04910536  0.40147171  1
  O2-  O272  1  0.91559960  0.04691685  0.72593372  1
  O2-  O273  1  0.92061325  0.55543064  0.05903080  1
  O2-  O274  1  0.91998072  0.54761856  0.39385682  1
  O2-  O275  1  0.91564123  0.55669515  0.72768505  1
  O2-  O276  1  0.29306003  0.16523297  0.06304612  1
  O2-  O277  1  0.29608707  0.16657401  0.39697268  1
  O2-  O278  1  0.29481920  0.16574098  0.73701107  1
  O2-  O279  1  0.28721549  0.66821233  0.06745167  1
  O2-  O280  1  0.29087131  0.66148100  0.39947633  1
  O2-  O281  1  0.29415777  0.66715094  0.73188156  1
  O2-  O282  1  0.79288276  0.16489235  0.07085175  1
  O2-  O283  1  0.79321860  0.16373378  0.39949711  1
  O2-  O284  1  0.78801232  0.15850961  0.72914166  1
  O2-  O285  1  0.79187932  0.66334107  0.06701413  1
  O2-  O286  1  0.79734088  0.66358397  0.39879595  1
  O2-  O287  1  0.78622445  0.66486822  0.72985302  1
