# generated using pymatgen
data_Ca2Al2SiO7
_symmetry_space_group_name_H-M   'P 1'
_cell_length_a   15.46432094
_cell_length_b   15.46341761
_cell_length_c   15.28797713
_cell_angle_alpha   89.99394154
_cell_angle_beta   89.99863975
_cell_angle_gamma   90.01086875
_symmetry_Int_Tables_number   1
_chemical_formula_structural   Ca2Al2SiO7
_chemical_formula_sum   'Ca48 Al48 Si24 O168'
_cell_volume   3655.83303732
_cell_formula_units_Z   24
loop_
 _symmetry_equiv_pos_site_id
 _symmetry_equiv_pos_as_xyz
  1  'x, y, z'
loop_
 _atom_type_symbol
 _atom_type_oxidation_number
  Ca2+  2.0
  Al0+  0.0
  Si0+  0.0
  O2-  -2.0
loop_
 _atom_site_type_symbol
 _atom_site_label
 _atom_site_symmetry_multiplicity
 _atom_site_fract_x
 _atom_site_fract_y
 _atom_site_fract_z
 _atom_site_occupancy
  Ca2+  Ca0  1  0.17503234  0.07527316  0.16748618  1
  Ca2+  Ca1  1  0.17215197  0.08458046  0.50082975  1
  Ca2+  Ca2  1  0.17105330  0.07312243  0.84789884  1
  Ca2+  Ca3  1  0.15781853  0.57758835  0.17262824  1
  Ca2+  Ca4  1  0.16539094  0.57890812  0.50354564  1
  Ca2+  Ca5  1  0.15879749  0.57843582  0.83694751  1
  Ca2+  Ca6  1  0.67121578  0.08370082  0.16819665  1
  Ca2+  Ca7  1  0.67203790  0.07916774  0.50719285  1
  Ca2+  Ca8  1  0.67789481  0.07636626  0.83482602  1
  Ca2+  Ca9  1  0.68034167  0.59421136  0.16697931  1
  Ca2+  Ca10  1  0.67674156  0.57846430  0.50526759  1
  Ca2+  Ca11  1  0.67007518  0.58033421  0.84077704  1
  Ca2+  Ca12  1  0.07649230  0.34182844  0.16226446  1
  Ca2+  Ca13  1  0.08226773  0.33725315  0.49402402  1
  Ca2+  Ca14  1  0.07959206  0.34024225  0.83380850  1
  Ca2+  Ca15  1  0.07909991  0.82151897  0.15842315  1
  Ca2+  Ca16  1  0.07620255  0.82089645  0.49219534  1
  Ca2+  Ca17  1  0.08673940  0.82325762  0.83135550  1
  Ca2+  Ca18  1  0.58190120  0.32552549  0.16346119  1
  Ca2+  Ca19  1  0.58521663  0.32872552  0.49361925  1
  Ca2+  Ca20  1  0.58342429  0.33457325  0.82674471  1
  Ca2+  Ca21  1  0.57480076  0.82630183  0.15625340  1
  Ca2+  Ca22  1  0.58332901  0.83587208  0.49707802  1
  Ca2+  Ca23  1  0.58074217  0.83167717  0.83556420  1
  Ca2+  Ca24  1  0.31894978  0.42451369  0.17445922  1
  Ca2+  Ca25  1  0.32192935  0.42896068  0.50459018  1
  Ca2+  Ca26  1  0.32025580  0.42339511  0.83685996  1
  Ca2+  Ca27  1  0.33213288  0.91752243  0.16491705  1
  Ca2+  Ca28  1  0.33466529  0.92264499  0.50017531  1
  Ca2+  Ca29  1  0.32854180  0.91983941  0.84525928  1
  Ca2+  Ca30  1  0.84327119  0.42813346  0.16921436  1
  Ca2+  Ca31  1  0.83420775  0.42010843  0.49871604  1
  Ca2+  Ca32  1  0.82998039  0.42147723  0.84112241  1
  Ca2+  Ca33  1  0.84204373  0.91667418  0.16875917  1
  Ca2+  Ca34  1  0.82907900  0.91949246  0.50820299  1
  Ca2+  Ca35  1  0.83809867  0.92500700  0.84174235  1
  Ca2+  Ca36  1  0.41861037  0.15788634  0.16346303  1
  Ca2+  Ca37  1  0.42428081  0.16788312  0.48802186  1
  Ca2+  Ca38  1  0.41329513  0.16763216  0.83107157  1
  Ca2+  Ca39  1  0.42264903  0.66536099  0.15728307  1
  Ca2+  Ca40  1  0.41475226  0.66037820  0.49678399  1
  Ca2+  Ca41  1  0.41551613  0.66880377  0.83114330  1
  Ca2+  Ca42  1  0.91417047  0.18052792  0.15937387  1
  Ca2+  Ca43  1  0.91467839  0.17329126  0.49463355  1
  Ca2+  Ca44  1  0.90934612  0.16947997  0.83259121  1
  Ca2+  Ca45  1  0.92209207  0.67076214  0.15970828  1
  Ca2+  Ca46  1  0.92578803  0.66621251  0.48982189  1
  Ca2+  Ca47  1  0.92566950  0.66607373  0.83601376  1
  Al0+  Al48  1  0.00139084  0.00167300  0.00854896  1
  Al0+  Al49  1  0.00048768  0.00175859  0.33312441  1
  Al0+  Al50  1  0.00164180  0.00234862  0.66759651  1
  Al0+  Al51  1  -0.00366355  0.49922063  -0.00189150  1
  Al0+  Al52  1  -0.00208294  0.49950626  0.33621950  1
  Al0+  Al53  1  -0.00066954  0.49962098  0.66431617  1
  Al0+  Al54  1  0.50286122  -0.00030621  -0.00291347  1
  Al0+  Al55  1  0.50159400  -0.00048303  0.33264188  1
  Al0+  Al56  1  0.50189272  0.00037197  0.66938946  1
  Al0+  Al57  1  0.49944483  0.49539221  -0.00394778  1
  Al0+  Al58  1  0.49932570  0.49762042  0.33378860  1
  Al0+  Al59  1  0.49907316  0.50078524  0.67142287  1
  Al0+  Al60  1  0.25045089  0.25068360  0.00811691  1
  Al0+  Al61  1  0.25098122  0.24958127  0.34094646  1
  Al0+  Al62  1  0.24962239  0.25327450  0.66726148  1
  Al0+  Al63  1  0.25135368  0.74897548  -0.00415495  1
  Al0+  Al64  1  0.25027625  0.75103242  0.33335178  1
  Al0+  Al65  1  0.25149748  0.75187293  0.66183266  1
  Al0+  Al66  1  0.74892350  0.24866492  -0.00114226  1
  Al0+  Al67  1  0.74950620  0.24845670  0.32445306  1
  Al0+  Al68  1  0.74944371  0.24963791  0.67186381  1
  Al0+  Al69  1  0.74971517  0.74982350  -0.00554384  1
  Al0+  Al70  1  0.74877886  0.75074677  0.33674634  1
  Al0+  Al71  1  0.74728026  0.75080037  0.66963882  1
  Al0+  Al72  1  0.17851015  0.92460802  0.01578629  1
  Al0+  Al73  1  0.67723915  0.92729653  0.68353155  1
  Al0+  Al74  1  0.56979138  0.17803987  0.31889545  1
  Al0+  Al75  1  0.06995510  0.67953786  0.65044714  1
  Al0+  Al76  1  0.17700546  0.42961048  0.68402872  1
  Al0+  Al77  1  0.92587746  0.82253817  0.32049996  1
  Al0+  Al78  1  0.67978487  0.42961766  0.67829086  1
  Al0+  Al79  1  0.17786318  0.43156077  0.01461645  1
  Al0+  Al80  1  0.81769671  0.57054275  0.01244063  1
  Al0+  Al81  1  0.81876444  0.57189615  0.34710018  1
  Al0+  Al82  1  0.32219323  0.06811037  0.34792017  1
  Al0+  Al83  1  0.82158396  0.07140411  0.01689281  1
  Al0+  Al84  1  0.32356799  0.57350511  0.34656648  1
  Al0+  Al85  1  0.82259582  0.06981483  0.68105235  1
  Al0+  Al86  1  0.93056251  0.31879463  0.32004717  1
  Al0+  Al87  1  0.32328879  0.07081953  0.01434298  1
  Al0+  Al88  1  0.07058598  0.67773649  0.98469259  1
  Al0+  Al89  1  0.92963342  0.82452325  0.98467655  1
  Al0+  Al90  1  0.07081737  0.67929257  0.31848614  1
  Al0+  Al91  1  0.92890141  0.31967419  0.98445793  1
  Al0+  Al92  1  0.17684316  0.43043414  0.34922534  1
  Al0+  Al93  1  0.57148731  0.67589148  0.98394978  1
  Al0+  Al94  1  0.42944945  0.82076033  0.98418704  1
  Al0+  Al95  1  0.32009003  0.57398920  0.68335233  1
  Si0+  Si96  1  0.67822621  0.42517126  0.34675385  1
  Si0+  Si97  1  0.43107718  0.82276904  0.64923553  1
  Si0+  Si98  1  0.67977256  0.93021921  0.34715262  1
  Si0+  Si99  1  0.92769827  0.82464327  0.65163151  1
  Si0+  Si100  1  0.56942026  0.18073666  0.65192628  1
  Si0+  Si101  1  0.92765830  0.31887448  0.65169446  1
  Si0+  Si102  1  0.82096542  0.07317162  0.34693718  1
  Si0+  Si103  1  0.42735433  0.32136172  0.31640066  1
  Si0+  Si104  1  0.67988090  0.92820711  0.01792790  1
  Si0+  Si105  1  0.57040480  0.67700802  0.32161323  1
  Si0+  Si106  1  0.07616367  0.17702780  0.31648403  1
  Si0+  Si107  1  0.07357958  0.18003577  0.98582978  1
  Si0+  Si108  1  0.42721329  0.31868997  0.98392645  1
  Si0+  Si109  1  0.57130118  0.17882719  0.98100061  1
  Si0+  Si110  1  0.57093760  0.67719922  0.64977223  1
  Si0+  Si111  1  0.82218079  0.57247919  0.68320535  1
  Si0+  Si112  1  0.67536666  0.42607677  0.01773019  1
  Si0+  Si113  1  0.32383399  0.57075163  0.01512012  1
  Si0+  Si114  1  0.17664536  0.92806170  0.35238901  1
  Si0+  Si115  1  0.32165957  0.07219902  0.67975942  1
  Si0+  Si116  1  0.07323930  0.17826889  0.65227164  1
  Si0+  Si117  1  0.43040434  0.82159546  0.32033067  1
  Si0+  Si118  1  0.18078967  0.93103403  0.67892717  1
  Si0+  Si119  1  0.42783151  0.32246500  0.65045997  1
  O2-  O120  1  0.25352349  -0.00381769  0.06281738  1
  O2-  O121  1  0.24558771  -0.00286991  0.39747409  1
  O2-  O122  1  0.24957523  0.00378039  0.72205239  1
  O2-  O123  1  0.24989606  0.50921304  0.06034641  1
  O2-  O124  1  0.24812044  0.50499173  0.39659822  1
  O2-  O125  1  0.24532688  0.50526391  0.73328610  1
  O2-  O126  1  0.75148808  -0.00755129  0.06421181  1
  O2-  O127  1  0.75501133  -0.00259534  0.38885238  1
  O2-  O128  1  0.75622330  -0.00735748  0.73112740  1
  O2-  O129  1  0.74053760  0.49797312  0.06065388  1
  O2-  O130  1  0.74378123  0.49595252  0.39206922  1
  O2-  O131  1  0.75170478  0.50518855  0.72648622  1
  O2-  O132  1  0.00845008  0.24690887  0.27368819  1
  O2-  O133  1  0.00129620  0.24925179  0.61094455  1
  O2-  O134  1  0.00345337  0.24480382  0.93736370  1
  O2-  O135  1  -0.00106787  0.75237969  0.27049725  1
  O2-  O136  1  -0.00842571  0.75252422  0.60613814  1
  O2-  O137  1  0.00332040  0.75466489  0.93418843  1
  O2-  O138  1  0.49408967  0.25111139  0.27107552  1
  O2-  O139  1  0.49884055  0.25099460  0.60786837  1
  O2-  O140  1  0.49837274  0.24824639  0.93958202  1
  O2-  O141  1  0.49403548  0.74290297  0.28071127  1
  O2-  O142  1  0.50129784  0.75023365  0.60718426  1
  O2-  O143  1  0.49794182  0.74595546  0.93295143  1
  O2-  O144  1  0.07359844  0.18372427  0.09126367  1
  O2-  O145  1  0.07368499  0.17541598  0.42289786  1
  O2-  O146  1  0.07602421  0.17559790  0.75671306  1
  O2-  O147  1  0.06765122  0.67569290  0.09788129  1
  O2-  O148  1  0.06915354  0.68114633  0.43263402  1
  O2-  O149  1  0.06983378  0.68073667  0.76309011  1
  O2-  O150  1  0.57181867  0.17945717  0.08623242  1
  O2-  O151  1  0.57062319  0.17917252  0.43267494  1
  O2-  O152  1  0.56717746  0.18156360  0.75687914  1
  O2-  O153  1  0.57005164  0.67806570  0.09850174  1
  O2-  O154  1  0.57239376  0.67915586  0.42703736  1
  O2-  O155  1  0.56986749  0.67563550  0.75417308  1
  O2-  O156  1  0.17828522  0.43050184  0.23567370  1
  O2-  O157  1  0.17920387  0.42608310  0.57096197  1
  O2-  O158  1  0.18019327  0.42962942  0.90159758  1
  O2-  O159  1  0.17778520  0.92826660  0.24751553  1
  O2-  O160  1  0.18258255  0.93371348  0.57368618  1
  O2-  O161  1  0.17978051  0.92884363  0.90105850  1
  O2-  O162  1  0.67744655  0.42440515  0.24169967  1
  O2-  O163  1  0.68159586  0.42850910  0.56488315  1
  O2-  O164  1  0.67664464  0.42504538  0.91167651  1
  O2-  O165  1  0.67600715  0.93100333  0.24266720  1
  O2-  O166  1  0.67461758  0.93194261  0.56915474  1
  O2-  O167  1  0.67805625  0.93271829  0.91250041  1
  O2-  O168  1  0.42998286  0.31912671  0.08878950  1
  O2-  O169  1  0.43132937  0.32002112  0.42230773  1
  O2-  O170  1  0.42728139  0.31865750  0.75564477  1
  O2-  O171  1  0.43314859  0.82168798  0.09829479  1
  O2-  O172  1  0.43545577  0.82679566  0.42575628  1
  O2-  O173  1  0.43132078  0.82576472  0.75357544  1
  O2-  O174  1  0.92924060  0.32017951  0.09737428  1
  O2-  O175  1  0.92656808  0.31490256  0.43386740  1
  O2-  O176  1  0.92621194  0.31790736  0.75653535  1
  O2-  O177  1  0.92938277  0.82078185  0.09811483  1
  O2-  O178  1  0.92516242  0.82199186  0.43483951  1
  O2-  O179  1  0.93211921  0.82780425  0.75650924  1
  O2-  O180  1  0.32417801  0.06321167  0.23577086  1
  O2-  O181  1  0.32315075  0.07029383  0.57449945  1
  O2-  O182  1  0.32035252  0.07240456  0.89981952  1
  O2-  O183  1  0.33034086  0.56968887  0.23348525  1
  O2-  O184  1  0.32111054  0.57070949  0.56989221  1
  O2-  O185  1  0.32652707  0.56591691  0.90975719  1
  O2-  O186  1  0.81754760  0.07487096  0.24237651  1
  O2-  O187  1  0.81937413  0.07216460  0.56673614  1
  O2-  O188  1  0.81692700  0.07340069  0.90379859  1
  O2-  O189  1  0.81682130  0.57360359  0.23452548  1
  O2-  O190  1  0.82054106  0.57109449  0.57718957  1
  O2-  O191  1  0.81715636  0.56636605  0.89908233  1
  O2-  O192  1  0.05071582  0.08364425  0.27085970  1
  O2-  O193  1  0.04660149  0.08718253  0.60144103  1
  O2-  O194  1  0.05097109  0.08463036  0.94297449  1
  O2-  O195  1  0.04022441  0.58074026  0.26942624  1
  O2-  O196  1  0.03961250  0.58190991  0.59739505  1
  O2-  O197  1  0.03411847  0.58250457  0.92992035  1
  O2-  O198  1  0.53858941  0.08205196  0.26414378  1
  O2-  O199  1  0.54139956  0.08848735  0.60478302  1
  O2-  O200  1  0.54584431  0.08707312  0.93299351  1
  O2-  O201  1  0.54921313  0.58365586  0.27462536  1
  O2-  O202  1  0.54187387  0.58547819  0.60203516  1
  O2-  O203  1  0.54621855  0.57551566  0.93257351  1
  O2-  O204  1  0.17160713  0.19954279  0.27382485  1
  O2-  O205  1  0.16473333  0.20705692  0.60307965  1
  O2-  O206  1  0.16736808  0.20678024  0.93995920  1
  O2-  O207  1  0.17092839  0.70539401  0.26747517  1
  O2-  O208  1  0.16625812  0.71363872  0.59703895  1
  O2-  O209  1  0.17100813  0.69963666  0.93270704  1
  O2-  O210  1  0.66378096  0.20926469  0.26096964  1
  O2-  O211  1  0.66180763  0.20917424  0.60557884  1
  O2-  O212  1  0.66120482  0.20991160  0.93239643  1
  O2-  O213  1  0.65941835  0.71144631  0.27352802  1
  O2-  O214  1  0.66384428  0.70369655  0.60222137  1
  O2-  O215  1  0.66762964  0.70611682  0.92850885  1
  O2-  O216  1  0.07995275  0.45996247  0.06567793  1
  O2-  O217  1  0.07879230  0.45624577  0.40375497  1
  O2-  O218  1  0.07638481  0.45453737  0.73348597  1
  O2-  O219  1  0.08349751  0.95622161  0.07246374  1
  O2-  O220  1  0.08354828  0.95568209  0.39965793  1
  O2-  O221  1  0.08914854  0.95707337  0.72636706  1
  O2-  O222  1  0.57971183  0.44580448  0.06191225  1
  O2-  O223  1  0.58385128  0.44675466  0.39309559  1
  O2-  O224  1  0.58312533  0.45678470  0.73340111  1
  O2-  O225  1  0.58788811  0.95927394  0.06436365  1
  O2-  O226  1  0.59069388  0.96285204  0.39759281  1
  O2-  O227  1  0.58223350  0.96389910  0.73831540  1
  O2-  O228  1  0.21126434  0.33680197  0.06989720  1
  O2-  O229  1  0.20538194  0.33178471  0.40296139  1
  O2-  O230  1  0.20901992  0.33147030  0.73684403  1
  O2-  O231  1  0.20779404  0.82609240  0.06764818  1
  O2-  O232  1  0.20411952  0.83542627  0.39917937  1
  O2-  O233  1  0.21147127  0.84040231  0.72505601  1
  O2-  O234  1  0.70300549  0.33296336  0.06264888  1
  O2-  O235  1  0.70756125  0.33203513  0.39277515  1
  O2-  O236  1  0.70931035  0.33430685  0.73502452  1
  O2-  O237  1  0.69887584  0.83219840  0.06029377  1
  O2-  O238  1  0.70276175  0.83856552  0.39771029  1
  O2-  O239  1  0.69416431  0.82594006  0.73354265  1
  O2-  O240  1  0.45473758  0.41361620  0.26851555  1
  O2-  O241  1  0.45752716  0.41414204  0.60453258  1
  O2-  O242  1  0.45468910  0.40895109  0.93328970  1
  O2-  O243  1  0.46710109  0.90878152  0.27037624  1
  O2-  O244  1  0.46216162  0.91465062  0.60141049  1
  O2-  O245  1  0.46171589  0.91845806  0.92996631  1
  O2-  O246  1  0.95829001  0.41642390  0.26800006  1
  O2-  O247  1  0.95276184  0.41116462  0.60401100  1
  O2-  O248  1  0.95894160  0.41478716  0.92849292  1
  O2-  O249  1  0.95077121  0.92345197  0.27121361  1
  O2-  O250  1  0.95608578  0.91771683  0.60400776  1
  O2-  O251  1  0.95498090  0.92634408  0.93704503  1
  O2-  O252  1  0.33265531  0.29629372  0.27371868  1
  O2-  O253  1  0.33652332  0.29418548  0.60214945  1
  O2-  O254  1  0.33584422  0.28872260  0.93681926  1
  O2-  O255  1  0.33595082  0.80414076  0.27547288  1
  O2-  O256  1  0.33968968  0.79833268  0.59925699  1
  O2-  O257  1  0.33097588  0.79731004  0.92977473  1
  O2-  O258  1  0.83626960  0.28604675  0.26323547  1
  O2-  O259  1  0.83650187  0.28756281  0.60417339  1
  O2-  O260  1  0.83163726  0.28770805  0.93138506  1
  O2-  O261  1  0.82624756  0.79592218  0.26909891  1
  O2-  O262  1  0.83034194  0.80408040  0.61022938  1
  O2-  O263  1  0.83137125  0.79666455  0.93130228  1
  O2-  O264  1  0.42358913  0.04422992  0.06394465  1
  O2-  O265  1  0.41829151  0.03414531  0.40297481  1
  O2-  O266  1  0.41271842  0.04382703  0.72737799  1
  O2-  O267  1  0.41572152  0.53816047  0.06159456  1
  O2-  O268  1  0.42107571  0.54087293  0.40213024  1
  O2-  O269  1  0.41740427  0.54273099  0.73624710  1
  O2-  O270  1  0.91921778  0.05009892  0.07187193  1
  O2-  O271  1  0.91522925  0.05348530  0.39341474  1
  O2-  O272  1  0.92323677  0.04926731  0.73294464  1
  O2-  O273  1  0.91200845  0.53543981  0.06672074  1
  O2-  O274  1  0.91259131  0.53804180  0.40349496  1
  O2-  O275  1  0.91432842  0.54344062  0.72820253  1
  O2-  O276  1  0.29486056  0.16732997  0.07027240  1
  O2-  O277  1  0.29625495  0.16530143  0.40367581  1
  O2-  O278  1  0.29677692  0.16525177  0.72494115  1
  O2-  O279  1  0.30822460  0.66774895  0.05582414  1
  O2-  O280  1  0.30303150  0.67469056  0.39785770  1
  O2-  O281  1  0.29818926  0.67597764  0.73089791  1
  O2-  O282  1  0.78270216  0.16633321  0.06973546  1
  O2-  O283  1  0.78616272  0.16261465  0.39499997  1
  O2-  O284  1  0.78735581  0.16507692  0.73561427  1
  O2-  O285  1  0.78764686  0.66803101  0.06524764  1
  O2-  O286  1  0.78557062  0.66667539  0.40440692  1
  O2-  O287  1  0.79863871  0.66681715  0.72730865  1
