# generated using pymatgen
data_Ca2Al2SiO7
_symmetry_space_group_name_H-M   'P 1'
_cell_length_a   15.45589060
_cell_length_b   15.45671103
_cell_length_c   15.28205463
_cell_angle_alpha   89.99518992
_cell_angle_beta   90.00156872
_cell_angle_gamma   89.99014339
_symmetry_Int_Tables_number   1
_chemical_formula_structural   Ca2Al2SiO7
_chemical_formula_sum   'Ca48 Al48 Si24 O168'
_cell_volume   3650.84052211
_cell_formula_units_Z   24
loop_
 _symmetry_equiv_pos_site_id
 _symmetry_equiv_pos_as_xyz
  1  'x, y, z'
loop_
 _atom_type_symbol
 _atom_type_oxidation_number
  Ca2+  2.0
  Al0+  0.0
  Si0+  0.0
  O2-  -2.0
loop_
 _atom_site_type_symbol
 _atom_site_label
 _atom_site_symmetry_multiplicity
 _atom_site_fract_x
 _atom_site_fract_y
 _atom_site_fract_z
 _atom_site_occupancy
  Ca2+  Ca0  1  0.17052068  0.09093518  0.16471395  1
  Ca2+  Ca1  1  0.17011188  0.08595498  0.51037940  1
  Ca2+  Ca2  1  0.17596390  0.09685963  0.83632825  1
  Ca2+  Ca3  1  0.17825353  0.59624720  0.16719420  1
  Ca2+  Ca4  1  0.16954851  0.57967545  0.50994083  1
  Ca2+  Ca5  1  0.16254623  0.57812271  0.83811598  1
  Ca2+  Ca6  1  0.66314164  0.07112561  0.17016542  1
  Ca2+  Ca7  1  0.67064176  0.07172922  0.51248622  1
  Ca2+  Ca8  1  0.66334064  0.07723448  0.83723303  1
  Ca2+  Ca9  1  0.66595056  0.57553605  0.17742399  1
  Ca2+  Ca10  1  0.66963815  0.58160241  0.50584940  1
  Ca2+  Ca11  1  0.67225539  0.58641828  0.83138414  1
  Ca2+  Ca12  1  0.07681852  0.33084095  0.16370001  1
  Ca2+  Ca13  1  0.07339148  0.33404178  0.50509206  1
  Ca2+  Ca14  1  0.08348223  0.32644633  0.82270575  1
  Ca2+  Ca15  1  0.06927625  0.83211703  0.15748653  1
  Ca2+  Ca16  1  0.07657857  0.82868860  0.49536964  1
  Ca2+  Ca17  1  0.08251519  0.82138421  0.82978866  1
  Ca2+  Ca18  1  0.58489811  0.32715136  0.16114652  1
  Ca2+  Ca19  1  0.58370324  0.32993034  0.49852552  1
  Ca2+  Ca20  1  0.57445764  0.31980582  0.82399564  1
  Ca2+  Ca21  1  0.59047733  0.82922878  0.16528378  1
  Ca2+  Ca22  1  0.59512221  0.82378160  0.49872226  1
  Ca2+  Ca23  1  0.58667818  0.83333839  0.82708366  1
  Ca2+  Ca24  1  0.33193952  0.42965940  0.17122319  1
  Ca2+  Ca25  1  0.32836016  0.41825483  0.50762371  1
  Ca2+  Ca26  1  0.33012032  0.41765285  0.83397910  1
  Ca2+  Ca27  1  0.33211210  0.92357033  0.16686336  1
  Ca2+  Ca28  1  0.33070976  0.92339662  0.50729713  1
  Ca2+  Ca29  1  0.33360034  0.92923510  0.83595121  1
  Ca2+  Ca30  1  0.82812355  0.41587045  0.17495108  1
  Ca2+  Ca31  1  0.83315215  0.41698457  0.50741872  1
  Ca2+  Ca32  1  0.84255494  0.42248361  0.83015048  1
  Ca2+  Ca33  1  0.82772293  0.91094216  0.17085844  1
  Ca2+  Ca34  1  0.82707745  0.91750689  0.50730506  1
  Ca2+  Ca35  1  0.82436542  0.91886841  0.83530611  1
  Ca2+  Ca36  1  0.42262321  0.16675379  0.15699541  1
  Ca2+  Ca37  1  0.41698936  0.17012282  0.50661641  1
  Ca2+  Ca38  1  0.42186785  0.16326338  0.82414953  1
  Ca2+  Ca39  1  0.41977928  0.66128061  0.16485095  1
  Ca2+  Ca40  1  0.42894702  0.66156091  0.49529965  1
  Ca2+  Ca41  1  0.42146802  0.66741098  0.82701893  1
  Ca2+  Ca42  1  0.92008956  0.17300996  0.16114183  1
  Ca2+  Ca43  1  0.91025562  0.17445579  0.50044106  1
  Ca2+  Ca44  1  0.92650737  0.16936332  0.82216559  1
  Ca2+  Ca45  1  0.91768545  0.67996623  0.15987950  1
  Ca2+  Ca46  1  0.91872604  0.66651392  0.49946292  1
  Ca2+  Ca47  1  0.92186822  0.66987494  0.82734884  1
  Al0+  Al48  1  -0.00162218  0.00195927  -0.00884805  1
  Al0+  Al49  1  0.00166479  0.00007714  0.32804782  1
  Al0+  Al50  1  -0.00069817  -0.00222663  0.66745700  1
  Al0+  Al51  1  -0.00096782  0.50122340  0.00250039  1
  Al0+  Al52  1  0.00251902  0.49848364  0.32575467  1
  Al0+  Al53  1  0.00099845  0.50016836  0.66764701  1
  Al0+  Al54  1  0.50029502  -0.00155238  0.00644076  1
  Al0+  Al55  1  0.50011716  -0.00144835  0.33875854  1
  Al0+  Al56  1  0.49754355  -0.00102126  0.66906569  1
  Al0+  Al57  1  0.49930182  0.49966110  0.00309936  1
  Al0+  Al58  1  0.50029875  0.49905693  0.33696388  1
  Al0+  Al59  1  0.50011028  0.50052022  0.66049847  1
  Al0+  Al60  1  0.24949126  0.25379740  0.00510148  1
  Al0+  Al61  1  0.25161134  0.25207035  0.33247917  1
  Al0+  Al62  1  0.24983942  0.25140207  0.66618510  1
  Al0+  Al63  1  0.25051184  0.75111104  0.00062871  1
  Al0+  Al64  1  0.25364799  0.75280695  0.33910729  1
  Al0+  Al65  1  0.25064595  0.75023501  0.66236769  1
  Al0+  Al66  1  0.74878856  0.24932738  -0.00474472  1
  Al0+  Al67  1  0.75008036  0.24932231  0.33127641  1
  Al0+  Al68  1  0.74891826  0.24882252  0.66463573  1
  Al0+  Al69  1  0.74951393  0.74993396  0.00051158  1
  Al0+  Al70  1  0.75041410  0.74804781  0.32830365  1
  Al0+  Al71  1  0.74992775  0.74823972  0.67153829  1
  Al0+  Al72  1  0.57096574  0.17579810  0.65056292  1
  Al0+  Al73  1  0.67944668  0.92895282  0.68280398  1
  Al0+  Al74  1  0.68061306  0.92946429  0.01657581  1
  Al0+  Al75  1  0.32035072  0.57196765  0.34979405  1
  Al0+  Al76  1  0.57168546  0.68047301  0.65405834  1
  Al0+  Al77  1  0.82253043  0.07359898  0.68226325  1
  Al0+  Al78  1  0.32122289  0.57213785  0.01279161  1
  Al0+  Al79  1  0.07154054  0.17671388  0.65162301  1
  Al0+  Al80  1  0.92518047  0.82194079  0.98114268  1
  Al0+  Al81  1  0.42867861  0.32119133  0.65138169  1
  Al0+  Al82  1  0.68032067  0.42691496  0.34721528  1
  Al0+  Al83  1  0.18009693  0.43156487  0.68009499  1
  Al0+  Al84  1  0.07178964  0.18206178  0.98631896  1
  Al0+  Al85  1  0.56922162  0.67892521  0.31866441  1
  Al0+  Al86  1  0.07171392  0.67835003  0.65230547  1
  Al0+  Al87  1  0.31694724  0.07003673  0.67973666  1
  Al0+  Al88  1  0.07209028  0.68020425  0.98547082  1
  Al0+  Al89  1  0.93002052  0.82018150  0.32024882  1
  Al0+  Al90  1  0.31981762  0.07208083  0.01448824  1
  Al0+  Al91  1  0.92848810  0.32112159  0.65302116  1
  Al0+  Al92  1  0.92809202  0.32064033  0.31849901  1
  Al0+  Al93  1  0.82035294  0.56846858  0.67970782  1
  Al0+  Al94  1  0.56889679  0.17691057  0.98762494  1
  Al0+  Al95  1  0.68096329  0.92738955  0.34830503  1
  Si0+  Si96  1  0.67895058  0.42877990  0.01334400  1
  Si0+  Si97  1  0.92610579  0.32286505  0.98307256  1
  Si0+  Si98  1  0.42878750  0.32035425  0.31634896  1
  Si0+  Si99  1  0.42941184  0.82106177  0.98672156  1
  Si0+  Si100  1  0.42748601  0.82231545  0.64968026  1
  Si0+  Si101  1  0.32103362  0.07271217  0.34886879  1
  Si0+  Si102  1  0.42741891  0.82423152  0.31539760  1
  Si0+  Si103  1  0.17800777  0.42725670  0.35088629  1
  Si0+  Si104  1  0.82053996  0.57062863  0.01677954  1
  Si0+  Si105  1  0.56978560  0.17729990  0.31866884  1
  Si0+  Si106  1  0.07420843  0.17843047  0.31584111  1
  Si0+  Si107  1  0.17678647  0.92841938  0.01536072  1
  Si0+  Si108  1  0.92774445  0.81968683  0.65022483  1
  Si0+  Si109  1  0.82338347  0.57047801  0.34709274  1
  Si0+  Si110  1  0.82317046  0.07398703  0.01683814  1
  Si0+  Si111  1  0.42919734  0.32364233  0.98558143  1
  Si0+  Si112  1  0.67495772  0.42700928  0.68377524  1
  Si0+  Si113  1  0.82399982  0.07131090  0.34749086  1
  Si0+  Si114  1  0.17613414  0.92440825  0.68335663  1
  Si0+  Si115  1  0.07580198  0.67850324  0.31742394  1
  Si0+  Si116  1  0.17615103  0.42967472  0.01967894  1
  Si0+  Si117  1  0.17809750  0.93106291  0.34719897  1
  Si0+  Si118  1  0.56982268  0.67694112  0.98613282  1
  Si0+  Si119  1  0.32376375  0.57329661  0.68273205  1
  O2-  O120  1  0.24166877  0.00052873  0.06172862  1
  O2-  O121  1  0.24769808  0.00349481  0.38934605  1
  O2-  O122  1  0.24008373  -0.00239630  0.72719815  1
  O2-  O123  1  0.24301335  0.50172666  0.06163119  1
  O2-  O124  1  0.24206263  0.50048785  0.39443047  1
  O2-  O125  1  0.25428096  0.50676985  0.72782349  1
  O2-  O126  1  0.75657564  0.00386899  0.06291418  1
  O2-  O127  1  0.75686375  0.00165783  0.39219338  1
  O2-  O128  1  0.74754759  0.00467649  0.73268116  1
  O2-  O129  1  0.75094911  0.49771847  0.05786512  1
  O2-  O130  1  0.75793283  0.49934661  0.39200801  1
  O2-  O131  1  0.74685334  0.49246941  0.72835181  1
  O2-  O132  1  0.00359040  0.24583847  0.27285440  1
  O2-  O133  1  -0.00518404  0.24383370  0.60200134  1
  O2-  O134  1  -0.00405485  0.25539633  0.94059913  1
  O2-  O135  1  0.00519287  0.74510257  0.27366596  1
  O2-  O136  1  -0.00055982  0.75455975  0.60498270  1
  O2-  O137  1  -0.00037289  0.75058854  0.93413312  1
  O2-  O138  1  0.49950200  0.24873031  0.27463727  1
  O2-  O139  1  0.50308021  0.25191260  0.59999853  1
  O2-  O140  1  0.49204545  0.24991057  0.94218804  1
  O2-  O141  1  0.49496223  0.75434996  0.27098115  1
  O2-  O142  1  0.49648114  0.75391717  0.60615689  1
  O2-  O143  1  0.49940348  0.74877753  0.94512736  1
  O2-  O144  1  0.07077638  0.18503255  0.10026180  1
  O2-  O145  1  0.07727711  0.17698565  0.42053378  1
  O2-  O146  1  0.07394034  0.18239833  0.76507279  1
  O2-  O147  1  0.07164623  0.68398882  0.09959828  1
  O2-  O148  1  0.07497709  0.67908785  0.42297956  1
  O2-  O149  1  0.07148372  0.67918417  0.76518471  1
  O2-  O150  1  0.56835649  0.17968855  0.10169746  1
  O2-  O151  1  0.56812196  0.17743662  0.42306805  1
  O2-  O152  1  0.56651890  0.17534559  0.76443766  1
  O2-  O153  1  0.56884511  0.67495975  0.09138558  1
  O2-  O154  1  0.57027048  0.67985574  0.43131174  1
  O2-  O155  1  0.56940068  0.68057269  0.76791417  1
  O2-  O156  1  0.18113139  0.42372516  0.24523459  1
  O2-  O157  1  0.18005051  0.43377526  0.56670368  1
  O2-  O158  1  0.17670581  0.42784321  0.91440876  1
  O2-  O159  1  0.17870267  0.93093804  0.24204317  1
  O2-  O160  1  0.17945957  0.92256798  0.57717447  1
  O2-  O161  1  0.18251889  0.92460680  0.91035772  1
  O2-  O162  1  0.68034666  0.42756446  0.23302612  1
  O2-  O163  1  0.67461842  0.43043452  0.57802202  1
  O2-  O164  1  0.67689413  0.43128534  0.90882157  1
  O2-  O165  1  0.68018886  0.92960137  0.23497605  1
  O2-  O166  1  0.68349787  0.92606666  0.56896659  1
  O2-  O167  1  0.67808437  0.92909147  0.90428859  1
  O2-  O168  1  0.43314607  0.32549596  0.09180168  1
  O2-  O169  1  0.42553867  0.31825832  0.42079560  1
  O2-  O170  1  0.42961906  0.32116232  0.76544761  1
  O2-  O171  1  0.42930385  0.82138188  0.09199271  1
  O2-  O172  1  0.42527987  0.82592767  0.42050642  1
  O2-  O173  1  0.42543019  0.82101565  0.75564615  1
  O2-  O174  1  0.92498614  0.32176757  0.08919614  1
  O2-  O175  1  0.92794296  0.32125873  0.43064839  1
  O2-  O176  1  0.93427878  0.32381630  0.76660146  1
  O2-  O177  1  0.92528739  0.81896790  0.09552228  1
  O2-  O178  1  0.93235205  0.82048891  0.43307057  1
  O2-  O179  1  0.92769557  0.81683646  0.75553291  1
  O2-  O180  1  0.32132541  0.07269947  0.24347468  1
  O2-  O181  1  0.31631468  0.06745562  0.56594450  1
  O2-  O182  1  0.32077998  0.07042525  0.90209939  1
  O2-  O183  1  0.31946404  0.57075720  0.23607421  1
  O2-  O184  1  0.32250325  0.57218387  0.57703929  1
  O2-  O185  1  0.32595182  0.56873054  0.90042880  1
  O2-  O186  1  0.82300389  0.07173257  0.24157376  1
  O2-  O187  1  0.82233461  0.06936728  0.56782993  1
  O2-  O188  1  0.82029517  0.07569362  0.91203710  1
  O2-  O189  1  0.81975702  0.56962318  0.24096749  1
  O2-  O190  1  0.81935546  0.56949405  0.56633038  1
  O2-  O191  1  0.82080081  0.57028002  0.91183348  1
  O2-  O192  1  0.05122162  0.08495314  0.26765838  1
  O2-  O193  1  0.05123182  0.07461169  0.60204181  1
  O2-  O194  1  0.04813820  0.08458533  0.93228606  1
  O2-  O195  1  0.05662786  0.58377669  0.27085308  1
  O2-  O196  1  0.03839861  0.58382633  0.59742032  1
  O2-  O197  1  0.04415642  0.57986904  0.93674259  1
  O2-  O198  1  0.53905162  0.08541133  0.27216680  1
  O2-  O199  1  0.53690661  0.07875919  0.59788313  1
  O2-  O200  1  0.53747635  0.07979717  0.93666979  1
  O2-  O201  1  0.53689398  0.58148932  0.26556217  1
  O2-  O202  1  0.54250189  0.58488296  0.59777581  1
  O2-  O203  1  0.54094076  0.58564831  0.93854740  1
  O2-  O204  1  0.16733911  0.20773775  0.26870114  1
  O2-  O205  1  0.16749728  0.21063068  0.59765346  1
  O2-  O206  1  0.16931745  0.21518174  0.93553880  1
  O2-  O207  1  0.16949359  0.70906756  0.27395376  1
  O2-  O208  1  0.16880365  0.70725149  0.59742613  1
  O2-  O209  1  0.17130066  0.70723833  0.93307683  1
  O2-  O210  1  0.66157430  0.20367242  0.27050659  1
  O2-  O211  1  0.67032595  0.19963689  0.59843704  1
  O2-  O212  1  0.66457069  0.20813808  0.93306151  1
  O2-  O213  1  0.66555416  0.70754611  0.26257264  1
  O2-  O214  1  0.66829948  0.71141136  0.60022538  1
  O2-  O215  1  0.66175536  0.70419083  0.94022365  1
  O2-  O216  1  0.08157705  0.45240369  0.06621688  1
  O2-  O217  1  0.08176608  0.44874765  0.39277260  1
  O2-  O218  1  0.08535774  0.46302869  0.73641666  1
  O2-  O219  1  0.08077926  0.95196776  0.05762108  1
  O2-  O220  1  0.08617053  0.95744097  0.39506845  1
  O2-  O221  1  0.08063847  0.94122314  0.72723918  1
  O2-  O222  1  0.58844731  0.45774958  0.06359456  1
  O2-  O223  1  0.58455399  0.45798201  0.40095857  1
  O2-  O224  1  0.58265098  0.45775553  0.72997904  1
  O2-  O225  1  0.58471473  0.96008539  0.07311609  1
  O2-  O226  1  0.58361568  0.95676971  0.40158341  1
  O2-  O227  1  0.57867794  0.95244440  0.73300609  1
  O2-  O228  1  0.20524135  0.33889293  0.07003564  1
  O2-  O229  1  0.20912267  0.33534637  0.39755840  1
  O2-  O230  1  0.21267017  0.33610602  0.73459027  1
  O2-  O231  1  0.20661424  0.83739662  0.06507152  1
  O2-  O232  1  0.20706446  0.84096191  0.39738757  1
  O2-  O233  1  0.20834501  0.83271997  0.73048783  1
  O2-  O234  1  0.70541707  0.33582098  0.06036065  1
  O2-  O235  1  0.70837111  0.32928124  0.39996874  1
  O2-  O236  1  0.69518358  0.33151651  0.72713893  1
  O2-  O237  1  0.71019639  0.83118660  0.06965491  1
  O2-  O238  1  0.71227021  0.82938852  0.39843915  1
  O2-  O239  1  0.71037849  0.83192440  0.73711103  1
  O2-  O240  1  0.45812838  0.41194909  0.26993564  1
  O2-  O241  1  0.45388270  0.41966425  0.59698345  1
  O2-  O242  1  0.45999113  0.41467212  0.93753951  1
  O2-  O243  1  0.45402857  0.91815222  0.26947376  1
  O2-  O244  1  0.45143549  0.91553802  0.60313416  1
  O2-  O245  1  0.45945059  0.91188519  0.93960167  1
  O2-  O246  1  0.95853526  0.41641941  0.26035567  1
  O2-  O247  1  0.96277463  0.41724285  0.59884800  1
  O2-  O248  1  0.95061026  0.41815044  0.94095753  1
  O2-  O249  1  0.96103834  0.91632694  0.26367819  1
  O2-  O250  1  0.95009484  0.91397476  0.60442252  1
  O2-  O251  1  0.94865385  0.92140219  0.93013905  1
  O2-  O252  1  0.33740476  0.29268379  0.26662576  1
  O2-  O253  1  0.33253495  0.28921346  0.59638002  1
  O2-  O254  1  0.33266839  0.30472723  0.94473580  1
  O2-  O255  1  0.33288300  0.80017106  0.26941595  1
  O2-  O256  1  0.33463179  0.79787577  0.60077268  1
  O2-  O257  1  0.33794645  0.79532818  0.93827857  1
  O2-  O258  1  0.83204762  0.28909601  0.26205414  1
  O2-  O259  1  0.82784493  0.30044848  0.60125034  1
  O2-  O260  1  0.83278538  0.29951467  0.93620759  1
  O2-  O261  1  0.83556116  0.78727604  0.26330524  1
  O2-  O262  1  0.83590970  0.78847842  0.60466040  1
  O2-  O263  1  0.82796084  0.78820583  0.92950845  1
  O2-  O264  1  0.41337391  0.03615231  0.07194166  1
  O2-  O265  1  0.41100118  0.04259165  0.39754868  1
  O2-  O266  1  0.41177615  0.03610154  0.73511598  1
  O2-  O267  1  0.41607790  0.53723872  0.07030817  1
  O2-  O268  1  0.41546227  0.53699478  0.40259202  1
  O2-  O269  1  0.41760132  0.54678019  0.72776197  1
  O2-  O270  1  0.91877068  0.05141043  0.06107354  1
  O2-  O271  1  0.91946213  0.04865496  0.39096499  1
  O2-  O272  1  0.92097687  0.04320606  0.73493926  1
  O2-  O273  1  0.91249068  0.54545571  0.06605575  1
  O2-  O274  1  0.92014824  0.54870825  0.38824906  1
  O2-  O275  1  0.91602007  0.53829662  0.73579582  1
  O2-  O276  1  0.29231373  0.16978264  0.07009866  1
  O2-  O277  1  0.29467746  0.16557004  0.39450237  1
  O2-  O278  1  0.28943153  0.16704139  0.73360111  1
  O2-  O279  1  0.29394540  0.66981153  0.06829944  1
  O2-  O280  1  0.29682124  0.67070044  0.40323157  1
  O2-  O281  1  0.30078845  0.66877364  0.72606764  1
  O2-  O282  1  0.79564164  0.16814599  0.06290333  1
  O2-  O283  1  0.79640274  0.16433794  0.39258720  1
  O2-  O284  1  0.80007983  0.17428999  0.73314945  1
  O2-  O285  1  0.78977398  0.66119130  0.06446644  1
  O2-  O286  1  0.79521098  0.66285353  0.39293244  1
  O2-  O287  1  0.78688846  0.66227370  0.73744180  1
