# generated using pymatgen
data_Ca2Al2SiO7
_symmetry_space_group_name_H-M   'P 1'
_cell_length_a   15.46135324
_cell_length_b   15.46132795
_cell_length_c   15.28672668
_cell_angle_alpha   89.99696134
_cell_angle_beta   89.99477080
_cell_angle_gamma   89.99730471
_symmetry_Int_Tables_number   1
_chemical_formula_structural   Ca2Al2SiO7
_chemical_formula_sum   'Ca48 Al48 Si24 O168'
_cell_volume   3654.33865857
_cell_formula_units_Z   24
loop_
 _symmetry_equiv_pos_site_id
 _symmetry_equiv_pos_as_xyz
  1  'x, y, z'
loop_
 _atom_type_symbol
 _atom_type_oxidation_number
  Ca2+  2.0
  Al0+  0.0
  Si0+  0.0
  O2-  -2.0
loop_
 _atom_site_type_symbol
 _atom_site_label
 _atom_site_symmetry_multiplicity
 _atom_site_fract_x
 _atom_site_fract_y
 _atom_site_fract_z
 _atom_site_occupancy
  Ca2+  Ca0  1  0.16198467  0.08388315  0.17139962  1
  Ca2+  Ca1  1  0.16852641  0.08511142  0.50583596  1
  Ca2+  Ca2  1  0.17386901  0.08536446  0.83487442  1
  Ca2+  Ca3  1  0.16879705  0.58032375  0.17464463  1
  Ca2+  Ca4  1  0.17220352  0.58580885  0.50904467  1
  Ca2+  Ca5  1  0.15883215  0.57502744  0.83318935  1
  Ca2+  Ca6  1  0.67578809  0.07146839  0.16925943  1
  Ca2+  Ca7  1  0.66240873  0.07618312  0.50434504  1
  Ca2+  Ca8  1  0.67138089  0.07648827  0.84160664  1
  Ca2+  Ca9  1  0.67874436  0.58982733  0.16900709  1
  Ca2+  Ca10  1  0.67819191  0.57819609  0.50790595  1
  Ca2+  Ca11  1  0.67417223  0.58958065  0.83462229  1
  Ca2+  Ca12  1  0.07390006  0.33394752  0.16466742  1
  Ca2+  Ca13  1  0.08270691  0.33119373  0.49387915  1
  Ca2+  Ca14  1  0.08173343  0.34083076  0.83417157  1
  Ca2+  Ca15  1  0.07149932  0.82479350  0.16414975  1
  Ca2+  Ca16  1  0.07211671  0.82218659  0.49500278  1
  Ca2+  Ca17  1  0.06925229  0.82618184  0.82341372  1
  Ca2+  Ca18  1  0.57482748  0.33966004  0.16363842  1
  Ca2+  Ca19  1  0.58152289  0.33285537  0.49777552  1
  Ca2+  Ca20  1  0.58809969  0.32638818  0.82147303  1
  Ca2+  Ca21  1  0.58945497  0.83078185  0.16107144  1
  Ca2+  Ca22  1  0.58443491  0.82663564  0.49883468  1
  Ca2+  Ca23  1  0.59017169  0.82275754  0.83165913  1
  Ca2+  Ca24  1  0.32825532  0.42064200  0.17406886  1
  Ca2+  Ca25  1  0.32745965  0.42327060  0.50589436  1
  Ca2+  Ca26  1  0.32144164  0.42246068  0.83280365  1
  Ca2+  Ca27  1  0.33027690  0.91821221  0.17284207  1
  Ca2+  Ca28  1  0.33034266  0.92474224  0.50727889  1
  Ca2+  Ca29  1  0.33531170  0.92209255  0.83301003  1
  Ca2+  Ca30  1  0.84080673  0.42534160  0.16997933  1
  Ca2+  Ca31  1  0.83657283  0.42627709  0.50569526  1
  Ca2+  Ca32  1  0.83259897  0.42986808  0.83747230  1
  Ca2+  Ca33  1  0.82646890  0.90751515  0.17018820  1
  Ca2+  Ca34  1  0.83438388  0.91096693  0.49974597  1
  Ca2+  Ca35  1  0.83326753  0.91834698  0.84333894  1
  Ca2+  Ca36  1  0.41705133  0.17476869  0.16591685  1
  Ca2+  Ca37  1  0.41910843  0.17240948  0.49763804  1
  Ca2+  Ca38  1  0.42387327  0.16724181  0.82271770  1
  Ca2+  Ca39  1  0.42484004  0.66293662  0.16166100  1
  Ca2+  Ca40  1  0.42136621  0.65193898  0.49862406  1
  Ca2+  Ca41  1  0.42847409  0.66201255  0.82620956  1
  Ca2+  Ca42  1  0.91403448  0.17733951  0.16163120  1
  Ca2+  Ca43  1  0.92466637  0.17713711  0.48931160  1
  Ca2+  Ca44  1  0.90765393  0.17480031  0.83195856  1
  Ca2+  Ca45  1  0.90904536  0.67156525  0.16451740  1
  Ca2+  Ca46  1  0.92299585  0.66508843  0.49558348  1
  Ca2+  Ca47  1  0.91162380  0.67382150  0.82614220  1
  Al0+  Al48  1  0.00289519  0.00248468  -0.00025810  1
  Al0+  Al49  1  -0.00099070  -0.00211646  0.32788757  1
  Al0+  Al50  1  -0.00112193  0.00105415  0.66352166  1
  Al0+  Al51  1  0.00031950  0.49799071  0.00513797  1
  Al0+  Al52  1  0.00242903  0.49843137  0.33157875  1
  Al0+  Al53  1  -0.00071857  0.50159861  0.67080083  1
  Al0+  Al54  1  0.49964167  0.00096434  0.00488306  1
  Al0+  Al55  1  0.50044117  -0.00134967  0.33676384  1
  Al0+  Al56  1  0.50060567  0.00062201  0.66713425  1
  Al0+  Al57  1  0.49864309  0.50035158  -0.00703510  1
  Al0+  Al58  1  0.50013073  0.49882191  0.33122530  1
  Al0+  Al59  1  0.49842308  0.49722352  0.66863197  1
  Al0+  Al60  1  0.24965767  0.25187172  0.00353459  1
  Al0+  Al61  1  0.25289641  0.25005741  0.32569237  1
  Al0+  Al62  1  0.25049556  0.24992306  0.67548816  1
  Al0+  Al63  1  0.25153741  0.75126127  -0.00137224  1
  Al0+  Al64  1  0.25134386  0.75147610  0.33520397  1
  Al0+  Al65  1  0.25007321  0.75268081  0.66965012  1
  Al0+  Al66  1  0.74903347  0.25051590  0.00023477  1
  Al0+  Al67  1  0.74923318  0.24706257  0.32914194  1
  Al0+  Al68  1  0.74982460  0.24788753  0.66137746  1
  Al0+  Al69  1  0.74985772  0.74986015  -0.00099659  1
  Al0+  Al70  1  0.74869087  0.74818173  0.34103889  1
  Al0+  Al71  1  0.74614036  0.75130499  0.66095785  1
  Al0+  Al72  1  0.17772639  0.42928144  0.68156286  1
  Al0+  Al73  1  0.07497297  0.67797245  0.31836583  1
  Al0+  Al74  1  0.67931887  0.92922055  0.35058867  1
  Al0+  Al75  1  0.32204724  0.57454439  0.68297656  1
  Al0+  Al76  1  0.93023089  0.82108096  0.98656230  1
  Al0+  Al77  1  0.32163262  0.57201506  0.34613273  1
  Al0+  Al78  1  0.82228547  0.56828906  0.34769597  1
  Al0+  Al79  1  0.82387068  0.07379281  0.01514570  1
  Al0+  Al80  1  0.68095432  0.92906428  0.01448423  1
  Al0+  Al81  1  0.92674008  0.81681348  0.31678428  1
  Al0+  Al82  1  0.43241588  0.32069500  0.31954171  1
  Al0+  Al83  1  0.07230298  0.17842153  0.31889530  1
  Al0+  Al84  1  0.81919910  0.57044294  0.01368246  1
  Al0+  Al85  1  0.56812111  0.67665373  0.65055638  1
  Al0+  Al86  1  0.81893530  0.57266044  0.68190977  1
  Al0+  Al87  1  0.67953649  0.42593194  0.67906470  1
  Al0+  Al88  1  0.92702780  0.32176751  0.31856900  1
  Al0+  Al89  1  0.32074349  0.07003954  0.67999570  1
  Al0+  Al90  1  0.57048084  0.68057116  0.98676089  1
  Al0+  Al91  1  0.92795932  0.32121237  0.98378000  1
  Al0+  Al92  1  0.92649544  0.82323747  0.65051669  1
  Al0+  Al93  1  0.17998208  0.43026540  0.01785954  1
  Al0+  Al94  1  0.07102426  0.67784222  0.65294143  1
  Al0+  Al95  1  0.57230441  0.17781122  0.65249725  1
  Si0+  Si96  1  0.42949649  0.82365794  0.31965927  1
  Si0+  Si97  1  0.56876744  0.67934604  0.31932024  1
  Si0+  Si98  1  0.82254591  0.07056785  0.67922874  1
  Si0+  Si99  1  0.42846509  0.82337963  0.65048345  1
  Si0+  Si100  1  0.42656180  0.82503330  0.98347566  1
  Si0+  Si101  1  0.07367282  0.17950772  0.98104386  1
  Si0+  Si102  1  0.67854220  0.93055470  0.68192386  1
  Si0+  Si103  1  0.07230689  0.18012308  0.65461171  1
  Si0+  Si104  1  0.18080380  0.42712081  0.34923893  1
  Si0+  Si105  1  0.57129051  0.17381886  0.31446000  1
  Si0+  Si106  1  0.42734065  0.32066026  0.98211092  1
  Si0+  Si107  1  0.67540170  0.42729444  0.01512834  1
  Si0+  Si108  1  0.17755680  0.92916944  0.34849907  1
  Si0+  Si109  1  0.32085567  0.07097789  0.01732482  1
  Si0+  Si110  1  0.07407107  0.67793295  0.98419457  1
  Si0+  Si111  1  0.42659709  0.31921186  0.65088856  1
  Si0+  Si112  1  0.32330489  0.57267331  0.01632970  1
  Si0+  Si113  1  0.82313438  0.07207985  0.35116075  1
  Si0+  Si114  1  0.67684536  0.42607536  0.34701348  1
  Si0+  Si115  1  0.17957262  0.92863237  0.01541086  1
  Si0+  Si116  1  0.17583318  0.92983720  0.68397450  1
  Si0+  Si117  1  0.32015318  0.07118793  0.34797548  1
  Si0+  Si118  1  0.92905921  0.32083881  0.65315080  1
  Si0+  Si119  1  0.56879200  0.17953904  0.98580502  1
  O2-  O120  1  0.25058837  -0.00038207  0.05951950  1
  O2-  O121  1  0.24606687  0.00379051  0.39029903  1
  O2-  O122  1  0.24655033  -0.00361441  0.72927046  1
  O2-  O123  1  0.25287135  0.50773699  0.06257171  1
  O2-  O124  1  0.24405617  0.50072744  0.39309746  1
  O2-  O125  1  0.24575201  0.50603449  0.73137388  1
  O2-  O126  1  0.75656840  -0.00285030  0.06517403  1
  O2-  O127  1  0.75376618  0.00472568  0.39691695  1
  O2-  O128  1  0.75393008  -0.00232660  0.72218075  1
  O2-  O129  1  0.74377067  0.49529377  0.05990325  1
  O2-  O130  1  0.75198111  0.48715355  0.39071366  1
  O2-  O131  1  0.74627558  0.50069261  0.73188477  1
  O2-  O132  1  -0.00203952  0.24761099  0.26914026  1
  O2-  O133  1  0.00357096  0.25239014  0.61224200  1
  O2-  O134  1  0.00085650  0.24354294  0.93671196  1
  O2-  O135  1  -0.00189254  0.74397467  0.26690119  1
  O2-  O136  1  -0.00280324  0.74834752  0.60342696  1
  O2-  O137  1  0.00509704  0.74643253  0.94040284  1
  O2-  O138  1  0.50860796  0.24797910  0.27018086  1
  O2-  O139  1  0.49930156  0.25447293  0.60664310  1
  O2-  O140  1  0.50084861  0.25208218  0.94064581  1
  O2-  O141  1  0.49743094  0.75044836  0.27716451  1
  O2-  O142  1  0.48844531  0.74794485  0.60465611  1
  O2-  O143  1  0.49469010  0.75565197  0.94098776  1
  O2-  O144  1  0.07754334  0.18129115  0.08626572  1
  O2-  O145  1  0.07464754  0.18047056  0.43337961  1
  O2-  O146  1  0.07127768  0.17750330  0.75937596  1
  O2-  O147  1  0.07825711  0.68160871  0.08955491  1
  O2-  O148  1  0.07775805  0.68211135  0.43154998  1
  O2-  O149  1  0.06930252  0.68028417  0.76690650  1
  O2-  O150  1  0.56474676  0.17930738  0.09074319  1
  O2-  O151  1  0.56749047  0.17183995  0.42006302  1
  O2-  O152  1  0.57010416  0.17636255  0.76603621  1
  O2-  O153  1  0.56816012  0.68098070  0.10044449  1
  O2-  O154  1  0.56620116  0.67886689  0.42417569  1
  O2-  O155  1  0.57007217  0.68222616  0.76359289  1
  O2-  O156  1  0.18493567  0.42581007  0.24365425  1
  O2-  O157  1  0.18091511  0.42207602  0.56830864  1
  O2-  O158  1  0.18216786  0.42919298  0.90494562  1
  O2-  O159  1  0.18228640  0.92866287  0.24314349  1
  O2-  O160  1  0.17669336  0.93366826  0.57831968  1
  O2-  O161  1  0.18213581  0.93053417  0.91043769  1
  O2-  O162  1  0.67165781  0.43104629  0.24145325  1
  O2-  O163  1  0.68375178  0.42440484  0.56519581  1
  O2-  O164  1  0.67555215  0.42568123  0.90981456  1
  O2-  O165  1  0.67726387  0.93004139  0.23773324  1
  O2-  O166  1  0.67497204  0.93343617  0.57687881  1
  O2-  O167  1  0.67802312  0.93181275  0.90074069  1
  O2-  O168  1  0.42859189  0.31955395  0.08748967  1
  O2-  O169  1  0.43129753  0.31796623  0.43235393  1
  O2-  O170  1  0.42556596  0.31471918  0.75671129  1
  O2-  O171  1  0.42411438  0.82604156  0.08928950  1
  O2-  O172  1  0.43056129  0.82885985  0.42423166  1
  O2-  O173  1  0.43371061  0.82851153  0.75602435  1
  O2-  O174  1  0.92979860  0.32033234  0.09645927  1
  O2-  O175  1  0.92945703  0.32020468  0.43291288  1
  O2-  O176  1  0.92698728  0.31754717  0.75815209  1
  O2-  O177  1  0.93027539  0.81851628  0.09930364  1
  O2-  O178  1  0.92937384  0.81783599  0.42994670  1
  O2-  O179  1  0.92874880  0.82700153  0.76444138  1
  O2-  O180  1  0.32219843  0.06814886  0.24259546  1
  O2-  O181  1  0.31838650  0.07002164  0.56664422  1
  O2-  O182  1  0.32211175  0.07042856  0.91220969  1
  O2-  O183  1  0.32412678  0.56962825  0.23275800  1
  O2-  O184  1  0.32158524  0.56857900  0.56918742  1
  O2-  O185  1  0.32458449  0.57101986  0.91124280  1
  O2-  O186  1  0.82113864  0.07276599  0.24590790  1
  O2-  O187  1  0.82287599  0.07164414  0.57436059  1
  O2-  O188  1  0.81808082  0.07439811  0.90085796  1
  O2-  O189  1  0.81684921  0.57089018  0.23444672  1
  O2-  O190  1  0.82057184  0.56894877  0.56833431  1
  O2-  O191  1  0.81792462  0.57186880  0.90092401  1
  O2-  O192  1  0.04843632  0.07881090  0.26659480  1
  O2-  O193  1  0.04422231  0.08970557  0.60464189  1
  O2-  O194  1  0.05650861  0.08367125  0.93628549  1
  O2-  O195  1  0.05492615  0.57683292  0.26929468  1
  O2-  O196  1  0.04568068  0.57810309  0.60090134  1
  O2-  O197  1  0.04825723  0.58315713  0.94267768  1
  O2-  O198  1  0.53683600  0.08323256  0.26746658  1
  O2-  O199  1  0.53652567  0.08317984  0.59765274  1
  O2-  O200  1  0.53743045  0.08802262  0.93903031  1
  O2-  O201  1  0.54106738  0.58870236  0.27000196  1
  O2-  O202  1  0.54063520  0.57798628  0.59846228  1
  O2-  O203  1  0.54043016  0.58450423  0.93078703  1
  O2-  O204  1  0.17012475  0.20556897  0.26366163  1
  O2-  O205  1  0.16550929  0.20617080  0.60895343  1
  O2-  O206  1  0.16666093  0.21053821  0.93504717  1
  O2-  O207  1  0.17220956  0.71228025  0.26464928  1
  O2-  O208  1  0.17095295  0.70772953  0.60301396  1
  O2-  O209  1  0.16805471  0.70350740  0.93764870  1
  O2-  O210  1  0.66702666  0.19111184  0.27078840  1
  O2-  O211  1  0.66807838  0.20481436  0.59474726  1
  O2-  O212  1  0.66121698  0.20408345  0.93879385  1
  O2-  O213  1  0.66015576  0.70983970  0.27400480  1
  O2-  O214  1  0.66161442  0.71229536  0.59426671  1
  O2-  O215  1  0.66494217  0.71361712  0.93099812  1
  O2-  O216  1  0.08343409  0.45746210  0.07230092  1
  O2-  O217  1  0.08522758  0.44472629  0.39297221  1
  O2-  O218  1  0.07945536  0.45477453  0.73655702  1
  O2-  O219  1  0.08908258  0.95698653  0.06438201  1
  O2-  O220  1  0.08507011  0.95476587  0.39497077  1
  O2-  O221  1  0.08364046  0.96024389  0.73036166  1
  O2-  O222  1  0.58027858  0.45348668  0.05886578  1
  O2-  O223  1  0.58635779  0.45806057  0.39577819  1
  O2-  O224  1  0.57819356  0.44460744  0.72904867  1
  O2-  O225  1  0.58234572  0.95939772  0.06824867  1
  O2-  O226  1  0.58254269  0.96163025  0.40485196  1
  O2-  O227  1  0.58920472  0.96285112  0.73112326  1
  O2-  O228  1  0.21478663  0.33450487  0.07149277  1
  O2-  O229  1  0.21359473  0.33441890  0.39379671  1
  O2-  O230  1  0.21007850  0.33348946  0.73916660  1
  O2-  O231  1  0.20864233  0.83716932  0.06331903  1
  O2-  O232  1  0.21045169  0.84055216  0.39839647  1
  O2-  O233  1  0.19957216  0.83706565  0.73161849  1
  O2-  O234  1  0.69763541  0.33354169  0.06202539  1
  O2-  O235  1  0.69220963  0.32786275  0.38763995  1
  O2-  O236  1  0.70946566  0.32680035  0.73104917  1
  O2-  O237  1  0.70718902  0.83070853  0.06759645  1
  O2-  O238  1  0.70785356  0.83311708  0.40589277  1
  O2-  O239  1  0.70194583  0.83721584  0.72689417  1
  O2-  O240  1  0.46312048  0.41601546  0.26180479  1
  O2-  O241  1  0.44732922  0.41355557  0.60569540  1
  O2-  O242  1  0.45015963  0.41316802  0.93481224  1
  O2-  O243  1  0.45927359  0.91399366  0.26924097  1
  O2-  O244  1  0.46167077  0.91376888  0.60157067  1
  O2-  O245  1  0.45225553  0.91961764  0.93879473  1
  O2-  O246  1  0.95771579  0.41843060  0.26450593  1
  O2-  O247  1  0.95511059  0.41334284  0.60783385  1
  O2-  O248  1  0.96275114  0.41751744  0.93162327  1
  O2-  O249  1  0.95421770  0.91582859  0.26485119  1
  O2-  O250  1  0.95817892  0.92107847  0.59635704  1
  O2-  O251  1  0.96075370  0.91944665  0.93486490  1
  O2-  O252  1  0.33916484  0.28654414  0.26087648  1
  O2-  O253  1  0.33489942  0.28617998  0.60509850  1
  O2-  O254  1  0.33678956  0.28759879  0.93622883  1
  O2-  O255  1  0.33701834  0.79977055  0.27208030  1
  O2-  O256  1  0.33075142  0.81014925  0.60906022  1
  O2-  O257  1  0.33313770  0.80175241  0.93546790  1
  O2-  O258  1  0.82753213  0.29608477  0.26524492  1
  O2-  O259  1  0.84061766  0.28859375  0.60249622  1
  O2-  O260  1  0.82995355  0.29154683  0.93082337  1
  O2-  O261  1  0.82664371  0.78673334  0.26760171  1
  O2-  O262  1  0.82685482  0.80037328  0.59946676  1
  O2-  O263  1  0.83356277  0.79124608  0.93301047  1
  O2-  O264  1  0.41163558  0.04405421  0.06721166  1
  O2-  O265  1  0.41015260  0.03976587  0.39646962  1
  O2-  O266  1  0.41650320  0.03722908  0.73525237  1
  O2-  O267  1  0.41643180  0.54288044  0.06195423  1
  O2-  O268  1  0.41726690  0.53576121  0.39906879  1
  O2-  O269  1  0.41836263  0.54059160  0.73677682  1
  O2-  O270  1  0.92624377  0.05531806  0.06319684  1
  O2-  O271  1  0.91748663  0.04575883  0.39568529  1
  O2-  O272  1  0.91481217  0.04677282  0.72803747  1
  O2-  O273  1  0.91536888  0.54036835  0.06789192  1
  O2-  O274  1  0.92119873  0.54126091  0.39937489  1
  O2-  O275  1  0.91669330  0.54488483  0.73553860  1
  O2-  O276  1  0.29206718  0.16244775  0.06440435  1
  O2-  O277  1  0.29530422  0.16447440  0.39323062  1
  O2-  O278  1  0.29005652  0.16371490  0.73905051  1
  O2-  O279  1  0.30350882  0.66922452  0.05963566  1
  O2-  O280  1  0.29877569  0.67102802  0.39940833  1
  O2-  O281  1  0.30402833  0.67653982  0.73332839  1
  O2-  O282  1  0.78824604  0.16975704  0.06921564  1
  O2-  O283  1  0.79850479  0.16681938  0.39658697  1
  O2-  O284  1  0.79178480  0.16140932  0.72648089  1
  O2-  O285  1  0.78515276  0.66559153  0.06812450  1
  O2-  O286  1  0.78536899  0.66114920  0.40388304  1
  O2-  O287  1  0.78739746  0.67216402  0.73134749  1
