# generated using pymatgen
data_Ca2Al2SiO7
_symmetry_space_group_name_H-M   'P 1'
_cell_length_a   15.45322064
_cell_length_b   15.45309947
_cell_length_c   15.28005517
_cell_angle_alpha   89.99809465
_cell_angle_beta   89.99236771
_cell_angle_gamma   90.00641555
_symmetry_Int_Tables_number   1
_chemical_formula_structural   Ca2Al2SiO7
_chemical_formula_sum   'Ca48 Al48 Si24 O168'
_cell_volume   3648.87949684
_cell_formula_units_Z   24
loop_
 _symmetry_equiv_pos_site_id
 _symmetry_equiv_pos_as_xyz
  1  'x, y, z'
loop_
 _atom_type_symbol
 _atom_type_oxidation_number
  Ca2+  2.0
  Al0+  0.0
  Si0+  0.0
  O2-  -2.0
loop_
 _atom_site_type_symbol
 _atom_site_label
 _atom_site_symmetry_multiplicity
 _atom_site_fract_x
 _atom_site_fract_y
 _atom_site_fract_z
 _atom_site_occupancy
  Ca2+  Ca0  1  0.16940272  0.08112616  0.17358444  1
  Ca2+  Ca1  1  0.17850704  0.09566460  0.50123994  1
  Ca2+  Ca2  1  0.16730744  0.08194006  0.83392697  1
  Ca2+  Ca3  1  0.17817820  0.57456560  0.17558613  1
  Ca2+  Ca4  1  0.16975184  0.57824099  0.49576763  1
  Ca2+  Ca5  1  0.17481636  0.58241492  0.84261989  1
  Ca2+  Ca6  1  0.67651559  0.08778319  0.17235516  1
  Ca2+  Ca7  1  0.66661718  0.08157107  0.50506504  1
  Ca2+  Ca8  1  0.66638581  0.07209111  0.83886913  1
  Ca2+  Ca9  1  0.67193264  0.57926812  0.17158680  1
  Ca2+  Ca10  1  0.66570842  0.57604053  0.49501324  1
  Ca2+  Ca11  1  0.67255979  0.58374083  0.84421632  1
  Ca2+  Ca12  1  0.08302659  0.32958734  0.16489158  1
  Ca2+  Ca13  1  0.08654897  0.32413865  0.49219788  1
  Ca2+  Ca14  1  0.07415554  0.32858424  0.82963441  1
  Ca2+  Ca15  1  0.07839627  0.83643447  0.16448416  1
  Ca2+  Ca16  1  0.06959855  0.83596304  0.49266235  1
  Ca2+  Ca17  1  0.07746588  0.83672581  0.82968007  1
  Ca2+  Ca18  1  0.57839873  0.33469063  0.16618427  1
  Ca2+  Ca19  1  0.58073127  0.32162943  0.48866184  1
  Ca2+  Ca20  1  0.57646969  0.32556730  0.82983763  1
  Ca2+  Ca21  1  0.57872502  0.82941012  0.16220723  1
  Ca2+  Ca22  1  0.57997091  0.83495615  0.49338367  1
  Ca2+  Ca23  1  0.59501555  0.82992513  0.83293917  1
  Ca2+  Ca24  1  0.33848018  0.42185791  0.17592563  1
  Ca2+  Ca25  1  0.33170460  0.41165012  0.49407535  1
  Ca2+  Ca26  1  0.33370538  0.41952987  0.84210310  1
  Ca2+  Ca27  1  0.32733944  0.91753593  0.17453057  1
  Ca2+  Ca28  1  0.34148306  0.93037532  0.50076657  1
  Ca2+  Ca29  1  0.32622916  0.92561916  0.83908459  1
  Ca2+  Ca30  1  0.83268036  0.42535531  0.17510042  1
  Ca2+  Ca31  1  0.82875273  0.41816764  0.49650875  1
  Ca2+  Ca32  1  0.83309794  0.42054493  0.84406257  1
  Ca2+  Ca33  1  0.82815574  0.92533514  0.17126420  1
  Ca2+  Ca34  1  0.83223220  0.91809957  0.50235041  1
  Ca2+  Ca35  1  0.82668547  0.92136344  0.84003689  1
  Ca2+  Ca36  1  0.41728840  0.17631233  0.16834233  1
  Ca2+  Ca37  1  0.42569569  0.16353977  0.48837843  1
  Ca2+  Ca38  1  0.41876425  0.16841986  0.82769616  1
  Ca2+  Ca39  1  0.41856391  0.66449986  0.16037005  1
  Ca2+  Ca40  1  0.41449376  0.67604065  0.48871229  1
  Ca2+  Ca41  1  0.42293808  0.66558399  0.83552940  1
  Ca2+  Ca42  1  0.91633468  0.16798520  0.16321819  1
  Ca2+  Ca43  1  0.92973803  0.15870548  0.49086290  1
  Ca2+  Ca44  1  0.91785272  0.16666985  0.83249406  1
  Ca2+  Ca45  1  0.90829242  0.66946203  0.16374444  1
  Ca2+  Ca46  1  0.91037354  0.67810293  0.49278927  1
  Ca2+  Ca47  1  0.91496326  0.67272896  0.82860870  1
  Al0+  Al48  1  0.00056037  -0.00026341  0.00522320  1
  Al0+  Al49  1  -0.00147713  -0.00123500  0.32699762  1
  Al0+  Al50  1  0.00041682  0.00033619  0.65889841  1
  Al0+  Al51  1  0.00086076  0.49992310  -0.00150301  1
  Al0+  Al52  1  0.00148400  0.50133163  0.34362450  1
  Al0+  Al53  1  0.00090374  0.50081720  0.66712063  1
  Al0+  Al54  1  0.49772187  -0.00062720  0.00320587  1
  Al0+  Al55  1  0.50009079  -0.00146279  0.32517637  1
  Al0+  Al56  1  0.50015948  -0.00033992  0.67464643  1
  Al0+  Al57  1  0.50042415  0.50107487  -0.00714199  1
  Al0+  Al58  1  0.50125115  0.50059954  0.34067581  1
  Al0+  Al59  1  0.50038521  0.50048677  0.66720935  1
  Al0+  Al60  1  0.24933913  0.24945506  -0.00671459  1
  Al0+  Al61  1  0.25068793  0.24889338  0.33134751  1
  Al0+  Al62  1  0.24877126  0.25259548  0.67066311  1
  Al0+  Al63  1  0.24994110  0.75048633  0.00585653  1
  Al0+  Al64  1  0.24703325  0.74982659  0.33407882  1
  Al0+  Al65  1  0.25009560  0.74912508  0.66718363  1
  Al0+  Al66  1  0.74956996  0.24959259  -0.00352056  1
  Al0+  Al67  1  0.75287203  0.24903529  0.33952138  1
  Al0+  Al68  1  0.74915257  0.25143197  0.66487273  1
  Al0+  Al69  1  0.74889900  0.75038750  0.00285260  1
  Al0+  Al70  1  0.74940608  0.75107392  0.33171178  1
  Al0+  Al71  1  0.74969233  0.74938378  0.66454485  1
  Al0+  Al72  1  0.32258239  0.57266448  0.34944654  1
  Al0+  Al73  1  0.32218088  0.56853420  0.01249155  1
  Al0+  Al74  1  0.82254675  0.56988010  0.01182340  1
  Al0+  Al75  1  0.92923112  0.81906664  0.65394490  1
  Al0+  Al76  1  0.57509635  0.17724791  0.31738901  1
  Al0+  Al77  1  0.67713281  0.92782020  0.01740583  1
  Al0+  Al78  1  0.82209848  0.07033187  0.34861831  1
  Al0+  Al79  1  0.82133596  0.57370223  0.34974634  1
  Al0+  Al80  1  0.06972684  0.18123452  0.65260607  1
  Al0+  Al81  1  0.17980321  0.42694517  0.34828073  1
  Al0+  Al82  1  0.82010887  0.07249642  0.01443284  1
  Al0+  Al83  1  0.32056594  0.06855421  0.34419527  1
  Al0+  Al84  1  0.57035936  0.68189562  0.98648036  1
  Al0+  Al85  1  0.42951918  0.32061563  0.98543894  1
  Al0+  Al86  1  0.92787450  0.81952873  0.31568035  1
  Al0+  Al87  1  0.32085396  0.07193994  0.68077697  1
  Al0+  Al88  1  0.43059544  0.32096106  0.31984169  1
  Al0+  Al89  1  0.42703371  0.82089827  0.31976666  1
  Al0+  Al90  1  0.17953060  0.92977361  0.01359726  1
  Al0+  Al91  1  0.68003600  0.92892658  0.67986248  1
  Al0+  Al92  1  0.67890661  0.42741754  0.34821725  1
  Al0+  Al93  1  0.92861352  0.32187664  0.98832698  1
  Al0+  Al94  1  0.07160270  0.17970222  0.31796399  1
  Al0+  Al95  1  0.56908821  0.17765292  0.65444751  1
  Si0+  Si96  1  0.57225259  0.17597194  0.98222243  1
  Si0+  Si97  1  0.32154887  0.57301203  0.68380622  1
  Si0+  Si98  1  0.67807288  0.42831262  0.68413925  1
  Si0+  Si99  1  0.32120417  0.07476240  0.01754535  1
  Si0+  Si100  1  0.17816615  0.42700282  0.01452103  1
  Si0+  Si101  1  0.92971642  0.82074032  0.98518625  1
  Si0+  Si102  1  0.07238290  0.67925843  0.98605778  1
  Si0+  Si103  1  0.92932027  0.32397877  0.31928369  1
  Si0+  Si104  1  0.67782978  0.92938957  0.34928304  1
  Si0+  Si105  1  0.81942354  0.56995719  0.68221155  1
  Si0+  Si106  1  0.42485624  0.82296884  0.98186558  1
  Si0+  Si107  1  0.67778957  0.42794540  0.01313508  1
  Si0+  Si108  1  0.17695957  0.92712893  0.68069202  1
  Si0+  Si109  1  0.42803708  0.81957819  0.65444915  1
  Si0+  Si110  1  0.57120387  0.67822941  0.65063826  1
  Si0+  Si111  1  0.07102089  0.17626391  0.98211650  1
  Si0+  Si112  1  0.07435816  0.67648006  0.64958534  1
  Si0+  Si113  1  0.17892094  0.43019957  0.68490744  1
  Si0+  Si114  1  0.42814160  0.32345710  0.64965288  1
  Si0+  Si115  1  0.82470176  0.07240655  0.68170019  1
  Si0+  Si116  1  0.57081305  0.67814204  0.31742200  1
  Si0+  Si117  1  0.07103479  0.67642666  0.31553067  1
  Si0+  Si118  1  0.92702751  0.32511551  0.64858546  1
  Si0+  Si119  1  0.17627485  0.92788427  0.35112491  1
  O2-  O120  1  0.25436300  0.00374737  0.05999976  1
  O2-  O121  1  0.24704330  -0.00577739  0.39530024  1
  O2-  O122  1  0.24455856  -0.00316674  0.72520056  1
  O2-  O123  1  0.25074829  0.49107160  0.05831996  1
  O2-  O124  1  0.25257420  0.49851332  0.39953803  1
  O2-  O125  1  0.25059794  0.50156923  0.72586661  1
  O2-  O126  1  0.74557188  0.00374185  0.06537570  1
  O2-  O127  1  0.74448182  -0.00121306  0.39545877  1
  O2-  O128  1  0.75411646  0.00539843  0.72547579  1
  O2-  O129  1  0.75072807  0.49224074  0.05675128  1
  O2-  O130  1  0.75127352  0.49961822  0.39928139  1
  O2-  O131  1  0.75136591  0.49724797  0.72635343  1
  O2-  O132  1  -0.00283782  0.25568990  0.27333061  1
  O2-  O133  1  -0.00749336  0.25329796  0.60542841  1
  O2-  O134  1  0.00118115  0.24532642  0.93985075  1
  O2-  O135  1  0.00054070  0.74217464  0.26960689  1
  O2-  O136  1  0.00571139  0.74565355  0.60704974  1
  O2-  O137  1  0.00055537  0.74916185  0.94243893  1
  O2-  O138  1  0.50469035  0.25178641  0.26888611  1
  O2-  O139  1  0.49474850  0.25242751  0.60731218  1
  O2-  O140  1  0.50129950  0.24316809  0.93818020  1
  O2-  O141  1  0.49793447  0.74244034  0.27375221  1
  O2-  O142  1  0.49876196  0.74866427  0.61075742  1
  O2-  O143  1  0.49773623  0.75845707  0.93705050  1
  O2-  O144  1  0.07361736  0.17718866  0.08720524  1
  O2-  O145  1  0.07171508  0.18063518  0.43149218  1
  O2-  O146  1  0.06810343  0.18261210  0.76610967  1
  O2-  O147  1  0.07263630  0.67865556  0.09044495  1
  O2-  O148  1  0.07178017  0.67992193  0.42157453  1
  O2-  O149  1  0.07483816  0.67527156  0.75568101  1
  O2-  O150  1  0.57409316  0.17827264  0.08717069  1
  O2-  O151  1  0.57176580  0.17517576  0.43160364  1
  O2-  O152  1  0.56739047  0.18025373  0.76785057  1
  O2-  O153  1  0.56853818  0.67973085  0.09896276  1
  O2-  O154  1  0.57158153  0.68155034  0.42382394  1
  O2-  O155  1  0.57231112  0.67716484  0.75573815  1
  O2-  O156  1  0.17855794  0.42914091  0.23459905  1
  O2-  O157  1  0.17853227  0.42950075  0.58045068  1
  O2-  O158  1  0.17746242  0.43073208  0.90819303  1
  O2-  O159  1  0.17771620  0.92876975  0.24522820  1
  O2-  O160  1  0.17818775  0.92348276  0.57584928  1
  O2-  O161  1  0.17870097  0.93082596  0.89958580  1
  O2-  O162  1  0.67916442  0.43011024  0.23429702  1
  O2-  O163  1  0.67667381  0.42982147  0.57968288  1
  O2-  O164  1  0.67897645  0.43079433  0.90668309  1
  O2-  O165  1  0.68019135  0.92783049  0.24407380  1
  O2-  O166  1  0.67896865  0.92750762  0.56708792  1
  O2-  O167  1  0.68281234  0.92715736  0.90307557  1
  O2-  O168  1  0.43014909  0.32200645  0.09772966  1
  O2-  O169  1  0.43078499  0.31701542  0.43384533  1
  O2-  O170  1  0.43036757  0.32571722  0.75573192  1
  O2-  O171  1  0.42261440  0.81941609  0.08703910  1
  O2-  O172  1  0.43135722  0.82240474  0.43399661  1
  O2-  O173  1  0.42496787  0.81595292  0.75933227  1
  O2-  O174  1  0.93187762  0.32479714  0.10078648  1
  O2-  O175  1  0.93118491  0.32260045  0.42527270  1
  O2-  O176  1  0.92919501  0.32824871  0.75455146  1
  O2-  O177  1  0.93099805  0.81954595  0.08977739  1
  O2-  O178  1  0.92874889  0.81902255  0.42936239  1
  O2-  O179  1  0.93041873  0.81704225  0.76769219  1
  O2-  O180  1  0.31761224  0.06755751  0.23130771  1
  O2-  O181  1  0.32249810  0.07067380  0.56795835  1
  O2-  O182  1  0.31941534  0.07417671  0.91119757  1
  O2-  O183  1  0.32136582  0.57196913  0.23582732  1
  O2-  O184  1  0.32157675  0.57608275  0.57953143  1
  O2-  O185  1  0.31919086  0.56866841  0.89840699  1
  O2-  O186  1  0.82238614  0.06955450  0.23573072  1
  O2-  O187  1  0.82595935  0.06967885  0.57645328  1
  O2-  O188  1  0.82219376  0.06958089  0.89995401  1
  O2-  O189  1  0.81967367  0.57228572  0.23600601  1
  O2-  O190  1  0.81758402  0.57017900  0.57772603  1
  O2-  O191  1  0.82130592  0.57029388  0.89767003  1
  O2-  O192  1  0.04020447  0.08389555  0.26379961  1
  O2-  O193  1  0.04480430  0.08414570  0.59719214  1
  O2-  O194  1  0.04422761  0.08251321  0.93609201  1
  O2-  O195  1  0.04885533  0.58061481  0.27328604  1
  O2-  O196  1  0.04817869  0.58301314  0.60374921  1
  O2-  O197  1  0.04617031  0.58794041  0.93575302  1
  O2-  O198  1  0.54577706  0.08080427  0.26235967  1
  O2-  O199  1  0.53897053  0.07962399  0.60327392  1
  O2-  O200  1  0.54588037  0.08118144  0.93763532  1
  O2-  O201  1  0.54985556  0.58280815  0.27451437  1
  O2-  O202  1  0.54339646  0.58601362  0.60387378  1
  O2-  O203  1  0.53895667  0.58732345  0.92717434  1
  O2-  O204  1  0.16698666  0.21006097  0.26250352  1
  O2-  O205  1  0.16652126  0.21641291  0.60137833  1
  O2-  O206  1  0.16342823  0.20215230  0.93280568  1
  O2-  O207  1  0.16362435  0.70389649  0.26850790  1
  O2-  O208  1  0.16828259  0.70089412  0.60365818  1
  O2-  O209  1  0.16362285  0.70937005  0.93732780  1
  O2-  O210  1  0.67510761  0.20612985  0.26843372  1
  O2-  O211  1  0.66701318  0.20709157  0.60192659  1
  O2-  O212  1  0.66464846  0.20200322  0.93320441  1
  O2-  O213  1  0.66251623  0.70725568  0.27023780  1
  O2-  O214  1  0.66183952  0.70649527  0.60212010  1
  O2-  O215  1  0.66767100  0.71222725  0.93062723  1
  O2-  O216  1  0.08684197  0.45683438  0.06121422  1
  O2-  O217  1  0.08396765  0.45636320  0.40707393  1
  O2-  O218  1  0.08664149  0.45897122  0.73258110  1
  O2-  O219  1  0.08408285  0.95884152  0.06966637  1
  O2-  O220  1  0.08276879  0.95570654  0.39476610  1
  O2-  O221  1  0.08305536  0.95398493  0.72638878  1
  O2-  O222  1  0.58624153  0.45967546  0.05790116  1
  O2-  O223  1  0.58350766  0.45786872  0.40686182  1
  O2-  O224  1  0.58653315  0.45881884  0.73172098  1
  O2-  O225  1  0.57503762  0.94768976  0.06545592  1
  O2-  O226  1  0.58306051  0.95305069  0.39346719  1
  O2-  O227  1  0.58460200  0.95668989  0.73808677  1
  O2-  O228  1  0.19839767  0.33068649  0.05572127  1
  O2-  O229  1  0.21004935  0.32958766  0.40247050  1
  O2-  O230  1  0.20602479  0.33986519  0.73555253  1
  O2-  O231  1  0.20839155  0.83397090  0.06972748  1
  O2-  O232  1  0.19673300  0.83303982  0.39622643  1
  O2-  O233  1  0.20280303  0.83351043  0.72883002  1
  O2-  O234  1  0.69709030  0.33264003  0.05606713  1
  O2-  O235  1  0.70889574  0.33123932  0.40516334  1
  O2-  O236  1  0.70396678  0.33585172  0.73183644  1
  O2-  O237  1  0.70856888  0.83119408  0.07051452  1
  O2-  O238  1  0.70438423  0.83601684  0.39562936  1
  O2-  O239  1  0.71278346  0.83166310  0.73316514  1
  O2-  O240  1  0.45734173  0.42206647  0.27144604  1
  O2-  O241  1  0.45514876  0.41723766  0.60446532  1
  O2-  O242  1  0.46192077  0.41521279  0.92730354  1
  O2-  O243  1  0.45924835  0.91361587  0.26066058  1
  O2-  O244  1  0.45728246  0.91189806  0.60997445  1
  O2-  O245  1  0.44494764  0.91916931  0.93812185  1
  O2-  O246  1  0.95453309  0.41937779  0.27679479  1
  O2-  O247  1  0.95608945  0.41810589  0.60287832  1
  O2-  O248  1  0.96221226  0.41705044  0.92985479  1
  O2-  O249  1  0.96184550  0.91368186  0.25996331  1
  O2-  O250  1  0.95795768  0.91484262  0.59786030  1
  O2-  O251  1  0.96001084  0.91229785  0.93816650  1
  O2-  O252  1  0.33342702  0.29174508  0.26569370  1
  O2-  O253  1  0.33216666  0.30171538  0.60878435  1
  O2-  O254  1  0.33201452  0.29285268  0.92893195  1
  O2-  O255  1  0.32810131  0.79419580  0.26855490  1
  O2-  O256  1  0.33662275  0.79217292  0.60547872  1
  O2-  O257  1  0.33245812  0.79249559  0.93475743  1
  O2-  O258  1  0.83554406  0.29917497  0.27478305  1
  O2-  O259  1  0.83135849  0.30512598  0.60547943  1
  O2-  O260  1  0.83180727  0.29468651  0.93086026  1
  O2-  O261  1  0.83082359  0.78982042  0.26235229  1
  O2-  O262  1  0.83436760  0.78483485  0.59840206  1
  O2-  O263  1  0.83815454  0.79192672  0.93815598  1
  O2-  O264  1  0.41569813  0.05319459  0.06177187  1
  O2-  O265  1  0.41791981  0.03568033  0.39670270  1
  O2-  O266  1  0.41403680  0.03831234  0.73947898  1
  O2-  O267  1  0.42003504  0.53992496  0.06332867  1
  O2-  O268  1  0.42084342  0.54991692  0.40465315  1
  O2-  O269  1  0.41438761  0.54493450  0.73018315  1
  O2-  O270  1  0.91784540  0.04335710  0.06699068  1
  O2-  O271  1  0.91800854  0.03349419  0.40072300  1
  O2-  O272  1  0.91793559  0.04432098  0.72782145  1
  O2-  O273  1  0.92017008  0.54296875  0.06493554  1
  O2-  O274  1  0.91953762  0.54989321  0.40514724  1
  O2-  O275  1  0.91388240  0.54644066  0.72780327  1
  O2-  O276  1  0.29228216  0.16813366  0.06146616  1
  O2-  O277  1  0.29017513  0.16442246  0.39892624  1
  O2-  O278  1  0.28964809  0.16855213  0.73558374  1
  O2-  O279  1  0.29085756  0.66424166  0.06596622  1
  O2-  O280  1  0.28859995  0.66995369  0.40351195  1
  O2-  O281  1  0.29284707  0.66414743  0.73318508  1
  O2-  O282  1  0.79491703  0.17274152  0.06545108  1
  O2-  O283  1  0.79956730  0.16748234  0.40453226  1
  O2-  O284  1  0.80216448  0.16846749  0.72487665  1
  O2-  O285  1  0.78991381  0.66501253  0.06522472  1
  O2-  O286  1  0.78787545  0.67100702  0.40270656  1
  O2-  O287  1  0.78875218  0.66089851  0.72974208  1
