# generated using pymatgen
data_Ca2Al2SiO7
_symmetry_space_group_name_H-M   'P 1'
_cell_length_a   15.45645299
_cell_length_b   15.45656918
_cell_length_c   15.28261744
_cell_angle_alpha   89.99917764
_cell_angle_beta   89.99831482
_cell_angle_gamma   90.00299330
_symmetry_Int_Tables_number   1
_chemical_formula_structural   Ca2Al2SiO7
_chemical_formula_sum   'Ca48 Al48 Si24 O168'
_cell_volume   3651.07437738
_cell_formula_units_Z   24
loop_
 _symmetry_equiv_pos_site_id
 _symmetry_equiv_pos_as_xyz
  1  'x, y, z'
loop_
 _atom_type_symbol
 _atom_type_oxidation_number
  Ca2+  2.0
  Al0+  0.0
  Si0+  0.0
  O2-  -2.0
loop_
 _atom_site_type_symbol
 _atom_site_label
 _atom_site_symmetry_multiplicity
 _atom_site_fract_x
 _atom_site_fract_y
 _atom_site_fract_z
 _atom_site_occupancy
  Ca2+  Ca0  1  0.17346279  0.09160570  0.16695230  1
  Ca2+  Ca1  1  0.16658366  0.07819758  0.50698425  1
  Ca2+  Ca2  1  0.17168133  0.07858123  0.84094644  1
  Ca2+  Ca3  1  0.17947264  0.58055699  0.16897791  1
  Ca2+  Ca4  1  0.17062060  0.57966311  0.50850037  1
  Ca2+  Ca5  1  0.16800836  0.57622633  0.83362093  1
  Ca2+  Ca6  1  0.66420615  0.08433431  0.16942644  1
  Ca2+  Ca7  1  0.66306747  0.08377840  0.50514589  1
  Ca2+  Ca8  1  0.67474632  0.09678114  0.83584714  1
  Ca2+  Ca9  1  0.66459796  0.57640097  0.16587036  1
  Ca2+  Ca10  1  0.67496581  0.57522205  0.51184750  1
  Ca2+  Ca11  1  0.67201294  0.57131484  0.84030344  1
  Ca2+  Ca12  1  0.08257961  0.32185773  0.16158826  1
  Ca2+  Ca13  1  0.07672991  0.33505056  0.49973192  1
  Ca2+  Ca14  1  0.07951791  0.32968740  0.82606783  1
  Ca2+  Ca15  1  0.08041534  0.83117203  0.16169714  1
  Ca2+  Ca16  1  0.08570303  0.82961257  0.50279126  1
  Ca2+  Ca17  1  0.08478250  0.82628991  0.82407873  1
  Ca2+  Ca18  1  0.58176010  0.32441550  0.15688357  1
  Ca2+  Ca19  1  0.58898444  0.32385205  0.50177949  1
  Ca2+  Ca20  1  0.57962545  0.33252679  0.82779870  1
  Ca2+  Ca21  1  0.57437191  0.83629264  0.16282974  1
  Ca2+  Ca22  1  0.57224169  0.83797422  0.49392451  1
  Ca2+  Ca23  1  0.57029272  0.83394315  0.82899089  1
  Ca2+  Ca24  1  0.34668218  0.42863986  0.16694724  1
  Ca2+  Ca25  1  0.32946829  0.41995177  0.50821397  1
  Ca2+  Ca26  1  0.33225185  0.41249787  0.83996624  1
  Ca2+  Ca27  1  0.34305829  0.92256477  0.16654053  1
  Ca2+  Ca28  1  0.33201252  0.91530542  0.50667430  1
  Ca2+  Ca29  1  0.33302135  0.91868938  0.83686813  1
  Ca2+  Ca30  1  0.82734309  0.41643495  0.16203222  1
  Ca2+  Ca31  1  0.82924227  0.41663609  0.51477974  1
  Ca2+  Ca32  1  0.82467798  0.41759984  0.83423554  1
  Ca2+  Ca33  1  0.82360121  0.92322359  0.17038611  1
  Ca2+  Ca34  1  0.82433223  0.92512526  0.50666651  1
  Ca2+  Ca35  1  0.83303500  0.93061862  0.83805263  1
  Ca2+  Ca36  1  0.42724427  0.16964074  0.15405345  1
  Ca2+  Ca37  1  0.42697596  0.17241295  0.49874901  1
  Ca2+  Ca38  1  0.42648129  0.17468273  0.82964461  1
  Ca2+  Ca39  1  0.40810612  0.67560539  0.16074857  1
  Ca2+  Ca40  1  0.41082283  0.67714527  0.49607613  1
  Ca2+  Ca41  1  0.40739444  0.67599977  0.83046557  1
  Ca2+  Ca42  1  0.92840038  0.15835404  0.16023091  1
  Ca2+  Ca43  1  0.91826810  0.16969617  0.50059034  1
  Ca2+  Ca44  1  0.91651657  0.16800832  0.82778144  1
  Ca2+  Ca45  1  0.91459412  0.66736013  0.15953219  1
  Ca2+  Ca46  1  0.92435820  0.65702428  0.50183367  1
  Ca2+  Ca47  1  0.91962424  0.65878264  0.82506312  1
  Al0+  Al48  1  -0.00082983  -0.00279695  -0.00000686  1
  Al0+  Al49  1  -0.00005059  -0.00040642  0.33003078  1
  Al0+  Al50  1  -0.00001182  -0.00310341  0.67386788  1
  Al0+  Al51  1  0.00058732  0.49919869  0.00602796  1
  Al0+  Al52  1  0.00105615  0.49979062  0.32899300  1
  Al0+  Al53  1  0.00358363  0.49883708  0.66475115  1
  Al0+  Al54  1  0.49878746  -0.00037963  -0.00638283  1
  Al0+  Al55  1  0.49954614  0.00078792  0.33034623  1
  Al0+  Al56  1  0.49901698  -0.00001360  0.65890841  1
  Al0+  Al57  1  0.50000966  0.50095478  0.00570648  1
  Al0+  Al58  1  0.50163553  0.50246057  0.34225618  1
  Al0+  Al59  1  0.49968270  0.50246217  0.66634108  1
  Al0+  Al60  1  0.24907777  0.24647289  -0.00266529  1
  Al0+  Al61  1  0.24910230  0.25189692  0.33147472  1
  Al0+  Al62  1  0.25178865  0.24946535  0.66662240  1
  Al0+  Al63  1  0.24687846  0.74819198  -0.00054272  1
  Al0+  Al64  1  0.24948348  0.75060473  0.33181583  1
  Al0+  Al65  1  0.24758562  0.75048550  0.66181601  1
  Al0+  Al66  1  0.75400929  0.24994129  0.00851670  1
  Al0+  Al67  1  0.75163498  0.25110973  0.32859345  1
  Al0+  Al68  1  0.75137161  0.24983338  0.66553315  1
  Al0+  Al69  1  0.74936116  0.75121504  0.00239170  1
  Al0+  Al70  1  0.74915631  0.75075230  0.33905941  1
  Al0+  Al71  1  0.74996957  0.75273543  0.67037127  1
  Al0+  Al72  1  0.06824613  0.67922482  0.65287021  1
  Al0+  Al73  1  0.42635775  0.32492772  0.65074659  1
  Al0+  Al74  1  0.07058526  0.17657946  0.98406040  1
  Al0+  Al75  1  0.18051978  0.92863857  0.67974399  1
  Al0+  Al76  1  0.82188514  0.07078839  0.01557120  1
  Al0+  Al77  1  0.82215563  0.57244467  0.01589962  1
  Al0+  Al78  1  0.07067940  0.17809922  0.32056762  1
  Al0+  Al79  1  0.67752134  0.93110613  0.34731473  1
  Al0+  Al80  1  0.18105516  0.42706781  0.67957605  1
  Al0+  Al81  1  0.81935416  0.06984605  0.67923617  1
  Al0+  Al82  1  0.42880418  0.81912774  0.31755516  1
  Al0+  Al83  1  0.82312479  0.57187822  0.67996093  1
  Al0+  Al84  1  0.42934232  0.81880989  0.65140578  1
  Al0+  Al85  1  0.57413300  0.17908881  0.98459752  1
  Al0+  Al86  1  0.42971747  0.32345485  0.98683091  1
  Al0+  Al87  1  0.57182651  0.18147624  0.65093845  1
  Al0+  Al88  1  0.67759602  0.42864150  0.68147845  1
  Al0+  Al89  1  0.31933223  0.57076854  0.01195941  1
  Al0+  Al90  1  0.32056376  0.57233652  0.34931256  1
  Al0+  Al91  1  0.67833728  0.42841081  0.01702931  1
  Al0+  Al92  1  0.32068931  0.06941668  0.01242734  1
  Al0+  Al93  1  0.57002487  0.18055375  0.31771877  1
  Al0+  Al94  1  0.42798193  0.81921115  0.98506541  1
  Al0+  Al95  1  0.93169215  0.31907824  0.65523563  1
  Si0+  Si96  1  0.92851477  0.32370604  0.31407911  1
  Si0+  Si97  1  0.17829086  0.92668636  0.01795283  1
  Si0+  Si98  1  0.07024954  0.67905474  0.31614457  1
  Si0+  Si99  1  0.93078770  0.32264612  0.98350509  1
  Si0+  Si100  1  0.17732289  0.92965860  0.34727279  1
  Si0+  Si101  1  0.68105023  0.42800351  0.35019936  1
  Si0+  Si102  1  0.32067716  0.07219643  0.34739350  1
  Si0+  Si103  1  0.67409317  0.92870800  0.68405748  1
  Si0+  Si104  1  0.32349663  0.07175030  0.68210336  1
  Si0+  Si105  1  0.57406125  0.67749883  0.31789989  1
  Si0+  Si106  1  0.42796631  0.32458999  0.31803586  1
  Si0+  Si107  1  0.82255095  0.57131137  0.34905616  1
  Si0+  Si108  1  0.92749065  0.82030001  0.31914228  1
  Si0+  Si109  1  0.57505338  0.67870287  0.65052042  1
  Si0+  Si110  1  0.82363178  0.07170485  0.34995308  1
  Si0+  Si111  1  0.06865865  0.67845975  0.98570794  1
  Si0+  Si112  1  0.92655685  0.82444356  0.65015088  1
  Si0+  Si113  1  0.17716852  0.42854344  0.35020833  1
  Si0+  Si114  1  0.67671426  0.92855980  0.01560264  1
  Si0+  Si115  1  0.17785343  0.42529176  0.01768015  1
  Si0+  Si116  1  0.07271561  0.17419560  0.65235103  1
  Si0+  Si117  1  0.92680268  0.81989672  0.98498241  1
  Si0+  Si118  1  0.57342242  0.67809975  0.98411348  1
  Si0+  Si119  1  0.32074545  0.57280775  0.68211093  1
  O2-  O120  1  0.24622474  -0.00467891  0.06300147  1
  O2-  O121  1  0.24766785  0.00186724  0.38847725  1
  O2-  O122  1  0.25277337  0.00467999  0.72598636  1
  O2-  O123  1  0.25086237  0.49053550  0.06059861  1
  O2-  O124  1  0.24744383  0.49551512  0.39425008  1
  O2-  O125  1  0.26044781  0.49686275  0.72623500  1
  O2-  O126  1  0.74274847  -0.00015931  0.06067149  1
  O2-  O127  1  0.75071068  0.00771742  0.39393070  1
  O2-  O128  1  0.74319185  -0.00301588  0.72736090  1
  O2-  O129  1  0.74915259  0.50286479  0.06743169  1
  O2-  O130  1  0.75342015  0.49897968  0.39085133  1
  O2-  O131  1  0.74785425  0.50387304  0.72939257  1
  O2-  O132  1  -0.00423777  0.25219287  0.27271693  1
  O2-  O133  1  0.00641139  0.24440609  0.60709299  1
  O2-  O134  1  -0.00261464  0.25255879  0.93856408  1
  O2-  O135  1  -0.00310044  0.74820406  0.27486455  1
  O2-  O136  1  -0.00989189  0.75092801  0.60528206  1
  O2-  O137  1  -0.00672820  0.74450481  0.94391242  1
  O2-  O138  1  0.49567209  0.25613949  0.27268275  1
  O2-  O139  1  0.50038916  0.25473870  0.60081201  1
  O2-  O140  1  0.50414392  0.25416328  0.93674053  1
  O2-  O141  1  0.50376935  0.74370611  0.27212460  1
  O2-  O142  1  0.50595586  0.74623331  0.60446051  1
  O2-  O143  1  0.50217290  0.74368812  0.93904156  1
  O2-  O144  1  0.06951654  0.17787193  0.09779761  1
  O2-  O145  1  0.06877353  0.17632234  0.43361319  1
  O2-  O146  1  0.07016827  0.17407807  0.75771086  1
  O2-  O147  1  0.06958161  0.68194253  0.09144049  1
  O2-  O148  1  0.06986033  0.67833447  0.42096693  1
  O2-  O149  1  0.06966390  0.68076267  0.76606693  1
  O2-  O150  1  0.57024032  0.17835631  0.09876367  1
  O2-  O151  1  0.57023662  0.18120149  0.43050541  1
  O2-  O152  1  0.57187444  0.18130423  0.76385206  1
  O2-  O153  1  0.57480338  0.68153268  0.09009785  1
  O2-  O154  1  0.57536685  0.67941926  0.42328506  1
  O2-  O155  1  0.57485105  0.68088614  0.75594487  1
  O2-  O156  1  0.17432595  0.43022772  0.24480084  1
  O2-  O157  1  0.17866131  0.43083581  0.56607836  1
  O2-  O158  1  0.17365408  0.42889478  0.91228190  1
  O2-  O159  1  0.17503583  0.92812277  0.24232614  1
  O2-  O160  1  0.18079486  0.92988893  0.56572863  1
  O2-  O161  1  0.17872481  0.92532283  0.91252858  1
  O2-  O162  1  0.68053307  0.42894112  0.24543382  1
  O2-  O163  1  0.68223761  0.42872381  0.56698179  1
  O2-  O164  1  0.67942876  0.42909337  0.90398578  1
  O2-  O165  1  0.68016873  0.92974570  0.23420678  1
  O2-  O166  1  0.67535096  0.92882171  0.57801526  1
  O2-  O167  1  0.68041936  0.92441469  0.91045951  1
  O2-  O168  1  0.43141133  0.32227386  0.10117589  1
  O2-  O169  1  0.42714626  0.32234867  0.42341339  1
  O2-  O170  1  0.42468582  0.32169115  0.76382895  1
  O2-  O171  1  0.42879287  0.81862244  0.09839802  1
  O2-  O172  1  0.42728114  0.81877109  0.43054292  1
  O2-  O173  1  0.42792736  0.81785058  0.76447539  1
  O2-  O174  1  0.93438028  0.32364125  0.08964478  1
  O2-  O175  1  0.92871640  0.32694362  0.41961020  1
  O2-  O176  1  0.93235747  0.31864168  0.76799331  1
  O2-  O177  1  0.92924326  0.82026509  0.09086806  1
  O2-  O178  1  0.92953170  0.82113945  0.42382843  1
  O2-  O179  1  0.93001165  0.82653065  0.75561771  1
  O2-  O180  1  0.32057076  0.07134010  0.24224208  1
  O2-  O181  1  0.32205669  0.07010536  0.57569884  1
  O2-  O182  1  0.31898427  0.06644598  0.89973213  1
  O2-  O183  1  0.31786905  0.57275420  0.23604969  1
  O2-  O184  1  0.31555438  0.57498887  0.57619029  1
  O2-  O185  1  0.31278725  0.57589388  0.89954070  1
  O2-  O186  1  0.82644138  0.06674030  0.24452363  1
  O2-  O187  1  0.82113105  0.06733033  0.56568579  1
  O2-  O188  1  0.82437024  0.06834650  0.90270913  1
  O2-  O189  1  0.82239325  0.57267007  0.24418523  1
  O2-  O190  1  0.82252975  0.56833073  0.56538012  1
  O2-  O191  1  0.82354761  0.57135117  0.90315884  1
  O2-  O192  1  0.04067295  0.08175411  0.26421459  1
  O2-  O193  1  0.04406274  0.08071235  0.60695596  1
  O2-  O194  1  0.03983471  0.07869365  0.93300106  1
  O2-  O195  1  0.04457177  0.58711318  0.26746742  1
  O2-  O196  1  0.04031477  0.58373294  0.59489931  1
  O2-  O197  1  0.04512245  0.58431606  0.94144300  1
  O2-  O198  1  0.53835503  0.08449154  0.26407624  1
  O2-  O199  1  0.54144397  0.08369806  0.59624617  1
  O2-  O200  1  0.54536405  0.08147965  0.93124076  1
  O2-  O201  1  0.54999520  0.58226941  0.27435357  1
  O2-  O202  1  0.55189612  0.58486260  0.60385208  1
  O2-  O203  1  0.55033058  0.58331968  0.94141359  1
  O2-  O204  1  0.16711201  0.20982943  0.26540923  1
  O2-  O205  1  0.16738787  0.19606582  0.60759452  1
  O2-  O206  1  0.16717572  0.20411825  0.92996328  1
  O2-  O207  1  0.16004701  0.71108587  0.26770835  1
  O2-  O208  1  0.16141688  0.71518026  0.59493960  1
  O2-  O209  1  0.15741462  0.71053048  0.93607342  1
  O2-  O210  1  0.66868458  0.20850516  0.26555529  1
  O2-  O211  1  0.66994795  0.20885388  0.59608025  1
  O2-  O212  1  0.67632585  0.20481733  0.93955093  1
  O2-  O213  1  0.66793506  0.70398337  0.27209479  1
  O2-  O214  1  0.66917724  0.70442397  0.60403249  1
  O2-  O215  1  0.66637578  0.70592522  0.93756926  1
  O2-  O216  1  0.08754216  0.45634150  0.06808658  1
  O2-  O217  1  0.08353259  0.45759257  0.39567398  1
  O2-  O218  1  0.08743761  0.46356514  0.73485192  1
  O2-  O219  1  0.08399161  0.95077270  0.06351453  1
  O2-  O220  1  0.08518455  0.95642662  0.39525190  1
  O2-  O221  1  0.08422777  0.95417647  0.73639012  1
  O2-  O222  1  0.58123419  0.45752992  0.07326180  1
  O2-  O223  1  0.59019994  0.45534406  0.39940049  1
  O2-  O224  1  0.57814987  0.45573315  0.73282616  1
  O2-  O225  1  0.58211656  0.95225145  0.05986913  1
  O2-  O226  1  0.58057618  0.96155598  0.40084777  1
  O2-  O227  1  0.57966796  0.95382037  0.72761351  1
  O2-  O228  1  0.19856034  0.32997303  0.06125737  1
  O2-  O229  1  0.19970603  0.33396719  0.39575572  1
  O2-  O230  1  0.20455197  0.32857629  0.73328148  1
  O2-  O231  1  0.20287355  0.83304185  0.06468482  1
  O2-  O232  1  0.20580566  0.83796388  0.39429123  1
  O2-  O233  1  0.21200014  0.83210646  0.73324515  1
  O2-  O234  1  0.71201948  0.33327964  0.07409725  1
  O2-  O235  1  0.71075713  0.33580160  0.39600650  1
  O2-  O236  1  0.71058981  0.33195900  0.73300941  1
  O2-  O237  1  0.70503166  0.83681879  0.06515091  1
  O2-  O238  1  0.70948384  0.83518702  0.40312982  1
  O2-  O239  1  0.69805574  0.83522415  0.73088940  1
  O2-  O240  1  0.45584693  0.41995489  0.27651648  1
  O2-  O241  1  0.44922896  0.42594805  0.59982071  1
  O2-  O242  1  0.45210827  0.42470323  0.93693541  1
  O2-  O243  1  0.46073918  0.91570899  0.26465583  1
  O2-  O244  1  0.45771064  0.91510707  0.59524357  1
  O2-  O245  1  0.45873561  0.91411032  0.92896270  1
  O2-  O246  1  0.95705464  0.41588903  0.26546953  1
  O2-  O247  1  0.96478073  0.41359675  0.59783583  1
  O2-  O248  1  0.95820631  0.41651712  0.93908770  1
  O2-  O249  1  0.95717741  0.91049350  0.26924990  1
  O2-  O250  1  0.95942204  0.91495879  0.60141963  1
  O2-  O251  1  0.95944468  0.90896944  0.93605860  1
  O2-  O252  1  0.33308398  0.30310318  0.27292472  1
  O2-  O253  1  0.32846154  0.29372817  0.59577390  1
  O2-  O254  1  0.33098246  0.29389757  0.93617112  1
  O2-  O255  1  0.33154773  0.78910423  0.26363570  1
  O2-  O256  1  0.33369604  0.78645399  0.59617105  1
  O2-  O257  1  0.33024413  0.78734323  0.93342323  1
  O2-  O258  1  0.83513399  0.30041607  0.26725050  1
  O2-  O259  1  0.83715928  0.28768547  0.59773574  1
  O2-  O260  1  0.83608952  0.29785699  0.94178586  1
  O2-  O261  1  0.83533252  0.79232898  0.27226236  1
  O2-  O262  1  0.83021451  0.80627017  0.60632990  1
  O2-  O263  1  0.83344954  0.79835465  0.93857979  1
  O2-  O264  1  0.41731157  0.03663245  0.06621446  1
  O2-  O265  1  0.41100795  0.04177426  0.39514171  1
  O2-  O266  1  0.41609170  0.04185239  0.72661029  1
  O2-  O267  1  0.41680351  0.54868797  0.06881962  1
  O2-  O268  1  0.41827570  0.54778553  0.40427855  1
  O2-  O269  1  0.41768830  0.55988197  0.72433215  1
  O2-  O270  1  0.91619600  0.03127646  0.07023791  1
  O2-  O271  1  0.91555562  0.04051894  0.39668240  1
  O2-  O272  1  0.91412475  0.03668743  0.73554127  1
  O2-  O273  1  0.92013845  0.54359085  0.07194053  1
  O2-  O274  1  0.91669886  0.54438793  0.39275909  1
  O2-  O275  1  0.92110884  0.54107078  0.73050139  1
  O2-  O276  1  0.28904022  0.16532567  0.06833685  1
  O2-  O277  1  0.29342255  0.16463513  0.39407674  1
  O2-  O278  1  0.30072686  0.16541304  0.72785451  1
  O2-  O279  1  0.28021655  0.66432976  0.06877032  1
  O2-  O280  1  0.28433491  0.66826117  0.40174560  1
  O2-  O281  1  0.28484135  0.66314712  0.72789050  1
  O2-  O282  1  0.80074197  0.16746705  0.07286404  1
  O2-  O283  1  0.80343907  0.16882275  0.39051894  1
  O2-  O284  1  0.79124836  0.16630175  0.73330959  1
  O2-  O285  1  0.79570254  0.67231404  0.06881837  1
  O2-  O286  1  0.79645328  0.66278524  0.39774428  1
  O2-  O287  1  0.80250950  0.67358658  0.72987159  1
