# generated using pymatgen
data_Ca2Al2SiO7
_symmetry_space_group_name_H-M   'P 1'
_cell_length_a   15.45893676
_cell_length_b   15.45968752
_cell_length_c   15.28492360
_cell_angle_alpha   89.99668470
_cell_angle_beta   90.00476647
_cell_angle_gamma   89.99811514
_symmetry_Int_Tables_number   1
_chemical_formula_structural   Ca2Al2SiO7
_chemical_formula_sum   'Ca48 Al48 Si24 O168'
_cell_volume   3652.94894204
_cell_formula_units_Z   24
loop_
 _symmetry_equiv_pos_site_id
 _symmetry_equiv_pos_as_xyz
  1  'x, y, z'
loop_
 _atom_type_symbol
 _atom_type_oxidation_number
  Ca2+  2.0
  Al0+  0.0
  Si0+  0.0
  O2-  -2.0
loop_
 _atom_site_type_symbol
 _atom_site_label
 _atom_site_symmetry_multiplicity
 _atom_site_fract_x
 _atom_site_fract_y
 _atom_site_fract_z
 _atom_site_occupancy
  Ca2+  Ca0  1  0.16645053  0.07739565  0.17668136  1
  Ca2+  Ca1  1  0.16545611  0.08117202  0.50166278  1
  Ca2+  Ca2  1  0.17577877  0.08290598  0.83537341  1
  Ca2+  Ca3  1  0.17938234  0.58345741  0.17822205  1
  Ca2+  Ca4  1  0.17447131  0.59050542  0.49998873  1
  Ca2+  Ca5  1  0.17657115  0.59384824  0.83510699  1
  Ca2+  Ca6  1  0.66074318  0.07635968  0.17083288  1
  Ca2+  Ca7  1  0.66221114  0.07726433  0.49876497  1
  Ca2+  Ca8  1  0.67270502  0.07539307  0.84722387  1
  Ca2+  Ca9  1  0.67179966  0.58515463  0.17219979  1
  Ca2+  Ca10  1  0.66247116  0.56931180  0.50605043  1
  Ca2+  Ca11  1  0.66512548  0.58356024  0.83801693  1
  Ca2+  Ca12  1  0.08363704  0.33502241  0.17070982  1
  Ca2+  Ca13  1  0.08129968  0.32937500  0.48486191  1
  Ca2+  Ca14  1  0.07997599  0.33333854  0.83042995  1
  Ca2+  Ca15  1  0.08191471  0.83166355  0.17017781  1
  Ca2+  Ca16  1  0.07678928  0.82815311  0.49157757  1
  Ca2+  Ca17  1  0.07269200  0.82624476  0.82251498  1
  Ca2+  Ca18  1  0.58633192  0.32715390  0.16913849  1
  Ca2+  Ca19  1  0.58038445  0.33117056  0.48759843  1
  Ca2+  Ca20  1  0.58759529  0.32879241  0.83055760  1
  Ca2+  Ca21  1  0.57872851  0.83294321  0.15677239  1
  Ca2+  Ca22  1  0.58404455  0.82582866  0.49587540  1
  Ca2+  Ca23  1  0.58531747  0.82196110  0.83459331  1
  Ca2+  Ca24  1  0.33469108  0.42758805  0.17677520  1
  Ca2+  Ca25  1  0.33230740  0.42448579  0.49888231  1
  Ca2+  Ca26  1  0.33174168  0.43044506  0.83648370  1
  Ca2+  Ca27  1  0.32931527  0.91302075  0.17463472  1
  Ca2+  Ca28  1  0.32559993  0.92374927  0.50174979  1
  Ca2+  Ca29  1  0.33628259  0.91656636  0.83615847  1
  Ca2+  Ca30  1  0.82970233  0.42116429  0.17296647  1
  Ca2+  Ca31  1  0.82248711  0.40748753  0.50067943  1
  Ca2+  Ca32  1  0.82634905  0.42538031  0.83911340  1
  Ca2+  Ca33  1  0.82079250  0.91749638  0.17356866  1
  Ca2+  Ca34  1  0.83368582  0.90952599  0.49800974  1
  Ca2+  Ca35  1  0.82781885  0.91695279  0.84313238  1
  Ca2+  Ca36  1  0.42736426  0.17230434  0.16504592  1
  Ca2+  Ca37  1  0.41885945  0.17473520  0.48894186  1
  Ca2+  Ca38  1  0.42370639  0.16397506  0.82996508  1
  Ca2+  Ca39  1  0.41975154  0.66834156  0.15816187  1
  Ca2+  Ca40  1  0.41921165  0.65668244  0.49817309  1
  Ca2+  Ca41  1  0.42231880  0.66532204  0.83240433  1
  Ca2+  Ca42  1  0.91638461  0.16950361  0.16853801  1
  Ca2+  Ca43  1  0.92380370  0.17376102  0.48725870  1
  Ca2+  Ca44  1  0.91373734  0.16463777  0.83221542  1
  Ca2+  Ca45  1  0.91979948  0.66636229  0.16539626  1
  Ca2+  Ca46  1  0.92805870  0.67492167  0.49251451  1
  Ca2+  Ca47  1  0.91828052  0.67037128  0.82399523  1
  Al0+  Al48  1  0.00103095  0.00141549  0.00127683  1
  Al0+  Al49  1  -0.00118895  -0.00044368  0.33017211  1
  Al0+  Al50  1  -0.00096469  0.00114507  0.66402032  1
  Al0+  Al51  1  -0.00105892  0.49850607  0.00123017  1
  Al0+  Al52  1  0.00238906  0.50140699  0.32868667  1
  Al0+  Al53  1  -0.00156693  0.49924565  0.66155988  1
  Al0+  Al54  1  0.49869311  0.00167254  -0.00524207  1
  Al0+  Al55  1  0.50095143  -0.00152437  0.33631271  1
  Al0+  Al56  1  0.50107860  -0.00123692  0.67099008  1
  Al0+  Al57  1  0.49850685  0.49836583  0.00015418  1
  Al0+  Al58  1  0.50258053  0.49990768  0.33568953  1
  Al0+  Al59  1  0.49827316  0.49743851  0.67291235  1
  Al0+  Al60  1  0.24876335  0.24929624  -0.00177680  1
  Al0+  Al61  1  0.25192935  0.25322384  0.32646838  1
  Al0+  Al62  1  0.25071026  0.25016690  0.67302758  1
  Al0+  Al63  1  0.24971989  0.75045829  -0.00064783  1
  Al0+  Al64  1  0.25060203  0.75290857  0.34036084  1
  Al0+  Al65  1  0.25029064  0.75175682  0.66847753  1
  Al0+  Al66  1  0.75211126  0.25071763  -0.00193538  1
  Al0+  Al67  1  0.75156319  0.24860426  0.32955506  1
  Al0+  Al68  1  0.74865391  0.24778398  0.67144053  1
  Al0+  Al69  1  0.74994832  0.74971673  0.00428245  1
  Al0+  Al70  1  0.75065657  0.75105389  0.33607382  1
  Al0+  Al71  1  0.74773872  0.74847730  0.65811139  1
  Al0+  Al72  1  0.57101728  0.17654333  0.31969000  1
  Al0+  Al73  1  0.92817672  0.32316085  0.31742786  1
  Al0+  Al74  1  0.92742205  0.82057582  0.31435767  1
  Al0+  Al75  1  0.07412221  0.68059864  0.31641285  1
  Al0+  Al76  1  0.82340205  0.07274309  0.01674655  1
  Al0+  Al77  1  0.92728679  0.82268707  0.65130419  1
  Al0+  Al78  1  0.07304727  0.17890627  0.31805331  1
  Al0+  Al79  1  0.17733077  0.93118221  0.34738886  1
  Al0+  Al80  1  0.17876378  0.42865898  0.34707276  1
  Al0+  Al81  1  0.68280641  0.42906037  0.34535085  1
  Al0+  Al82  1  0.67864135  0.42708229  0.68208950  1
  Al0+  Al83  1  0.57134528  0.18106468  0.98462557  1
  Al0+  Al84  1  0.07317223  0.67791707  0.65107284  1
  Al0+  Al85  1  0.32116719  0.07174217  0.68046680  1
  Al0+  Al86  1  0.31992766  0.57094933  0.01401288  1
  Al0+  Al87  1  0.42630563  0.82135106  0.98500752  1
  Al0+  Al88  1  0.67819400  0.93018868  0.01479128  1
  Al0+  Al89  1  0.57250644  0.67748409  0.98677248  1
  Al0+  Al90  1  0.32245614  0.57257771  0.34938786  1
  Al0+  Al91  1  0.82124023  0.57156386  0.01286986  1
  Al0+  Al92  1  0.67722589  0.92794451  0.34962169  1
  Al0+  Al93  1  0.56762555  0.67670740  0.65188817  1
  Al0+  Al94  1  0.31908588  0.57156418  0.68281156  1
  Al0+  Al95  1  0.43005358  0.32433360  0.31815889  1
  Si0+  Si96  1  0.67944683  0.92644085  0.68244362  1
  Si0+  Si97  1  0.92691950  0.31897322  0.65357755  1
  Si0+  Si98  1  0.67781154  0.42773093  0.01658627  1
  Si0+  Si99  1  0.93026833  0.82124679  0.98668863  1
  Si0+  Si100  1  0.07209584  0.18130967  0.65356542  1
  Si0+  Si101  1  0.42548163  0.32113485  0.98013365  1
  Si0+  Si102  1  0.32250262  0.07265121  0.34665768  1
  Si0+  Si103  1  0.43030822  0.82081887  0.32219072  1
  Si0+  Si104  1  0.07154418  0.17766533  0.98217373  1
  Si0+  Si105  1  0.32084536  0.07248583  0.01557106  1
  Si0+  Si106  1  0.42899252  0.31870224  0.65343352  1
  Si0+  Si107  1  0.82065118  0.07018839  0.68067329  1
  Si0+  Si108  1  0.57167274  0.17770966  0.65233672  1
  Si0+  Si109  1  0.57089086  0.67849045  0.32044460  1
  Si0+  Si110  1  0.17978357  0.92989712  0.01370544  1
  Si0+  Si111  1  0.17662271  0.93033617  0.68439492  1
  Si0+  Si112  1  0.07005380  0.67793336  0.98556871  1
  Si0+  Si113  1  0.17514739  0.42700037  0.68341486  1
  Si0+  Si114  1  0.42879587  0.82415247  0.64856218  1
  Si0+  Si115  1  0.17749664  0.42646112  0.01638144  1
  Si0+  Si116  1  0.82056376  0.57106613  0.68022376  1
  Si0+  Si117  1  0.93029619  0.32189433  0.98212432  1
  Si0+  Si118  1  0.82397725  0.57347508  0.35145087  1
  Si0+  Si119  1  0.82086326  0.07069569  0.35096514  1
  O2-  O120  1  0.25330332  -0.00182351  0.05646867  1
  O2-  O121  1  0.24809632  0.01094219  0.39224418  1
  O2-  O122  1  0.24746041  -0.00343889  0.72942158  1
  O2-  O123  1  0.24666903  0.49464859  0.05889266  1
  O2-  O124  1  0.24837839  0.50168695  0.39871220  1
  O2-  O125  1  0.23834929  0.50096996  0.72771708  1
  O2-  O126  1  0.74852993  0.00360268  0.06559233  1
  O2-  O127  1  0.75251021  0.00230696  0.39664004  1
  O2-  O128  1  0.75369975  -0.00464389  0.72257333  1
  O2-  O129  1  0.74189951  0.50149136  0.05892331  1
  O2-  O130  1  0.75886940  0.50089396  0.39525208  1
  O2-  O131  1  0.75214907  0.50362874  0.72737654  1
  O2-  O132  1  0.00287853  0.25291285  0.26797329  1
  O2-  O133  1  0.00220986  0.25274214  0.61172855  1
  O2-  O134  1  0.00009706  0.24869678  0.93992609  1
  O2-  O135  1  -0.00094901  0.74835253  0.26413345  1
  O2-  O136  1  0.00130146  0.75149967  0.60390758  1
  O2-  O137  1  -0.00221179  0.74765063  0.94280830  1
  O2-  O138  1  0.50088224  0.25022129  0.26980071  1
  O2-  O139  1  0.49941250  0.24712028  0.61083267  1
  O2-  O140  1  0.49678258  0.25509749  0.93517193  1
  O2-  O141  1  0.50014123  0.74966659  0.27928060  1
  O2-  O142  1  0.49223392  0.75081579  0.60407925  1
  O2-  O143  1  0.49940113  0.74910752  0.93652380  1
  O2-  O144  1  0.07448655  0.17685458  0.08613118  1
  O2-  O145  1  0.07059215  0.17876853  0.43268322  1
  O2-  O146  1  0.07073232  0.18089479  0.75916432  1
  O2-  O147  1  0.07097158  0.67909318  0.08992860  1
  O2-  O148  1  0.07415210  0.68415490  0.42986833  1
  O2-  O149  1  0.06997777  0.67988802  0.76595076  1
  O2-  O150  1  0.56912852  0.18141916  0.09705808  1
  O2-  O151  1  0.56788096  0.17653288  0.43420319  1
  O2-  O152  1  0.57237835  0.17910638  0.75753439  1
  O2-  O153  1  0.57182084  0.67887206  0.10051674  1
  O2-  O154  1  0.56905815  0.67783272  0.42582675  1
  O2-  O155  1  0.56971564  0.67905282  0.76477891  1
  O2-  O156  1  0.18222546  0.43035105  0.23329889  1
  O2-  O157  1  0.17779287  0.41945424  0.57904515  1
  O2-  O158  1  0.17673560  0.42558400  0.91005035  1
  O2-  O159  1  0.18225014  0.93005460  0.23375137  1
  O2-  O160  1  0.17560324  0.93408580  0.57922901  1
  O2-  O161  1  0.17763643  0.93302932  0.90833352  1
  O2-  O162  1  0.68227963  0.43271207  0.23238397  1
  O2-  O163  1  0.68050532  0.42317400  0.56930048  1
  O2-  O164  1  0.68190731  0.42629150  0.91041750  1
  O2-  O165  1  0.67427421  0.92831556  0.23710478  1
  O2-  O166  1  0.67645747  0.92913031  0.57753812  1
  O2-  O167  1  0.68254397  0.92887337  0.90029770  1
  O2-  O168  1  0.42293496  0.31889768  0.08501918  1
  O2-  O169  1  0.43153979  0.32272932  0.43270413  1
  O2-  O170  1  0.42930759  0.31663704  0.75874944  1
  O2-  O171  1  0.42376836  0.82027601  0.09889280  1
  O2-  O172  1  0.43233486  0.82349405  0.42734647  1
  O2-  O173  1  0.43192919  0.82613588  0.75400513  1
  O2-  O174  1  0.93180884  0.32425551  0.08618802  1
  O2-  O175  1  0.92582952  0.31704978  0.43191026  1
  O2-  O176  1  0.92753963  0.31681853  0.75909455  1
  O2-  O177  1  0.93323299  0.82243308  0.09085726  1
  O2-  O178  1  0.92871722  0.81846211  0.42802612  1
  O2-  O179  1  0.92759047  0.82289787  0.76605451  1
  O2-  O180  1  0.32481804  0.06660508  0.24099878  1
  O2-  O181  1  0.31859545  0.07326099  0.56766491  1
  O2-  O182  1  0.31747765  0.07428845  0.91002683  1
  O2-  O183  1  0.32379040  0.57367365  0.23575381  1
  O2-  O184  1  0.32159125  0.56692723  0.57060373  1
  O2-  O185  1  0.31679694  0.57080326  0.90052003  1
  O2-  O186  1  0.82012761  0.07011892  0.24571886  1
  O2-  O187  1  0.81924175  0.07514944  0.57630248  1
  O2-  O188  1  0.82419752  0.06814808  0.90186970  1
  O2-  O189  1  0.81920127  0.57476431  0.24546643  1
  O2-  O190  1  0.82005295  0.56768825  0.57525063  1
  O2-  O191  1  0.82546361  0.56868844  0.89935030  1
  O2-  O192  1  0.04252840  0.08171824  0.26459413  1
  O2-  O193  1  0.04443961  0.08980479  0.60620898  1
  O2-  O194  1  0.04354257  0.08638028  0.93254346  1
  O2-  O195  1  0.05124971  0.58117843  0.26391637  1
  O2-  O196  1  0.04644728  0.57877626  0.59882583  1
  O2-  O197  1  0.04407371  0.58515118  0.93878121  1
  O2-  O198  1  0.53879547  0.07905101  0.26696531  1
  O2-  O199  1  0.54575832  0.08435433  0.60762242  1
  O2-  O200  1  0.53984281  0.08554826  0.92823139  1
  O2-  O201  1  0.54463378  0.58757684  0.27205875  1
  O2-  O202  1  0.53659416  0.57826727  0.60129343  1
  O2-  O203  1  0.54535026  0.57786305  0.93441941  1
  O2-  O204  1  0.17156888  0.20295962  0.26351691  1
  O2-  O205  1  0.16491180  0.20769398  0.60841791  1
  O2-  O206  1  0.16267985  0.20700756  0.93241042  1
  O2-  O207  1  0.17222333  0.71570386  0.26597763  1
  O2-  O208  1  0.17237658  0.70681131  0.60105222  1
  O2-  O209  1  0.16032720  0.70945603  0.93722019  1
  O2-  O210  1  0.66927943  0.20223761  0.26719565  1
  O2-  O211  1  0.66355257  0.20632233  0.60592119  1
  O2-  O212  1  0.66908099  0.21088542  0.93036506  1
  O2-  O213  1  0.66320180  0.70613896  0.27538586  1
  O2-  O214  1  0.66293987  0.70645639  0.59557982  1
  O2-  O215  1  0.67143341  0.70692705  0.93315415  1
  O2-  O216  1  0.08375161  0.45112963  0.06092161  1
  O2-  O217  1  0.07763047  0.45087140  0.39753908  1
  O2-  O218  1  0.07860534  0.44706279  0.72712421  1
  O2-  O219  1  0.08984151  0.96099787  0.06191932  1
  O2-  O220  1  0.07988388  0.95924949  0.40073354  1
  O2-  O221  1  0.08350788  0.95933962  0.73114175  1
  O2-  O222  1  0.58158807  0.44472844  0.05888965  1
  O2-  O223  1  0.58785946  0.46155081  0.40166769  1
  O2-  O224  1  0.58257495  0.45509657  0.73752555  1
  O2-  O225  1  0.57768533  0.95830996  0.06338746  1
  O2-  O226  1  0.58213669  0.96010111  0.40683575  1
  O2-  O227  1  0.58938547  0.95635524  0.73167282  1
  O2-  O228  1  0.20147168  0.33159370  0.06029400  1
  O2-  O229  1  0.20734606  0.32899614  0.39904944  1
  O2-  O230  1  0.20574460  0.33645155  0.73492442  1
  O2-  O231  1  0.20460678  0.83762731  0.06070009  1
  O2-  O232  1  0.21370181  0.83938879  0.40596441  1
  O2-  O233  1  0.20011297  0.83644946  0.73063542  1
  O2-  O234  1  0.71051161  0.33658079  0.06211714  1
  O2-  O235  1  0.71098008  0.33072523  0.39872709  1
  O2-  O236  1  0.71268238  0.33165267  0.73814332  1
  O2-  O237  1  0.70643754  0.83252701  0.06798103  1
  O2-  O238  1  0.70867745  0.83187071  0.40490209  1
  O2-  O239  1  0.70606486  0.83315437  0.72729663  1
  O2-  O240  1  0.46373304  0.42070047  0.26438472  1
  O2-  O241  1  0.45711228  0.41018657  0.60748085  1
  O2-  O242  1  0.44932110  0.41560054  0.93509926  1
  O2-  O243  1  0.45820339  0.91162436  0.27315581  1
  O2-  O244  1  0.45959170  0.91646151  0.60210258  1
  O2-  O245  1  0.45104526  0.92054941  0.93153280  1
  O2-  O246  1  0.95203953  0.42208692  0.26410080  1
  O2-  O247  1  0.94665910  0.41206880  0.60654075  1
  O2-  O248  1  0.96119414  0.41210842  0.93155099  1
  O2-  O249  1  0.95482953  0.91917039  0.26317752  1
  O2-  O250  1  0.95462710  0.92206002  0.59876403  1
  O2-  O251  1  0.96123256  0.91235479  0.93823523  1
  O2-  O252  1  0.33292905  0.29960650  0.26225413  1
  O2-  O253  1  0.33648319  0.29029614  0.60778732  1
  O2-  O254  1  0.33258080  0.29230051  0.93284115  1
  O2-  O255  1  0.33799347  0.79546254  0.27575230  1
  O2-  O256  1  0.33198449  0.80573823  0.60728999  1
  O2-  O257  1  0.32807725  0.79305969  0.92953625  1
  O2-  O258  1  0.83238794  0.29093808  0.26172533  1
  O2-  O259  1  0.83669986  0.28464564  0.60699131  1
  O2-  O260  1  0.83894036  0.29535126  0.93279627  1
  O2-  O261  1  0.82761465  0.79217810  0.26407762  1
  O2-  O262  1  0.82995122  0.79505323  0.59724074  1
  O2-  O263  1  0.83749774  0.79552281  0.94049710  1
  O2-  O264  1  0.41422904  0.04948130  0.06005144  1
  O2-  O265  1  0.41206715  0.04041908  0.39716894  1
  O2-  O266  1  0.41787621  0.04086111  0.73541601  1
  O2-  O267  1  0.41742906  0.54168847  0.06652292  1
  O2-  O268  1  0.41991016  0.54028880  0.40234961  1
  O2-  O269  1  0.41265468  0.53452688  0.73886918  1
  O2-  O270  1  0.92252152  0.04532715  0.06766327  1
  O2-  O271  1  0.91453455  0.04512798  0.39699210  1
  O2-  O272  1  0.91462899  0.04796455  0.72766051  1
  O2-  O273  1  0.91596719  0.53590376  0.06784771  1
  O2-  O274  1  0.92001217  0.55284483  0.39274388  1
  O2-  O275  1  0.91468523  0.54541684  0.72665051  1
  O2-  O276  1  0.28872723  0.16299802  0.06239775  1
  O2-  O277  1  0.30393574  0.16916476  0.38806740  1
  O2-  O278  1  0.28870362  0.16610053  0.73936667  1
  O2-  O279  1  0.28800933  0.66772088  0.06645285  1
  O2-  O280  1  0.29581806  0.67055305  0.40418737  1
  O2-  O281  1  0.29348625  0.67066929  0.73596571  1
  O2-  O282  1  0.80034234  0.17390870  0.06444782  1
  O2-  O283  1  0.79574086  0.16434560  0.39735504  1
  O2-  O284  1  0.78948685  0.15909067  0.73278404  1
  O2-  O285  1  0.79582046  0.66786423  0.06878396  1
  O2-  O286  1  0.79481605  0.66511243  0.39877994  1
  O2-  O287  1  0.79446674  0.66567078  0.72451262  1
