# generated using pymatgen
data_Ca2Al2SiO7
_symmetry_space_group_name_H-M   'P 1'
_cell_length_a   15.45899938
_cell_length_b   15.45834527
_cell_length_c   15.28372438
_cell_angle_alpha   89.99465097
_cell_angle_beta   89.98293552
_cell_angle_gamma   90.00602409
_symmetry_Int_Tables_number   1
_chemical_formula_structural   Ca2Al2SiO7
_chemical_formula_sum   'Ca48 Al48 Si24 O168'
_cell_volume   3652.35982225
_cell_formula_units_Z   24
loop_
 _symmetry_equiv_pos_site_id
 _symmetry_equiv_pos_as_xyz
  1  'x, y, z'
loop_
 _atom_type_symbol
 _atom_type_oxidation_number
  Ca2+  2.0
  Al0+  0.0
  Si0+  0.0
  O2-  -2.0
loop_
 _atom_site_type_symbol
 _atom_site_label
 _atom_site_symmetry_multiplicity
 _atom_site_fract_x
 _atom_site_fract_y
 _atom_site_fract_z
 _atom_site_occupancy
  Ca2+  Ca0  1  0.17652773  0.08149645  0.17664971  1
  Ca2+  Ca1  1  0.17385751  0.08462841  0.50028941  1
  Ca2+  Ca2  1  0.18166165  0.08365239  0.83777940  1
  Ca2+  Ca3  1  0.17318423  0.58009528  0.17210887  1
  Ca2+  Ca4  1  0.17213691  0.57702169  0.49683819  1
  Ca2+  Ca5  1  0.17211020  0.58176931  0.84196900  1
  Ca2+  Ca6  1  0.67237578  0.07758521  0.17929494  1
  Ca2+  Ca7  1  0.66984726  0.08992009  0.50285172  1
  Ca2+  Ca8  1  0.66929578  0.09196061  0.83075155  1
  Ca2+  Ca9  1  0.67433118  0.57442279  0.17873834  1
  Ca2+  Ca10  1  0.66691920  0.57936644  0.50064671  1
  Ca2+  Ca11  1  0.66219717  0.58385426  0.83445003  1
  Ca2+  Ca12  1  0.08297930  0.33107977  0.16672991  1
  Ca2+  Ca13  1  0.07927375  0.32782861  0.49196385  1
  Ca2+  Ca14  1  0.07164685  0.33481340  0.82980146  1
  Ca2+  Ca15  1  0.08084715  0.82989404  0.16022647  1
  Ca2+  Ca16  1  0.08436705  0.83680736  0.49232287  1
  Ca2+  Ca17  1  0.08418726  0.82810054  0.83585765  1
  Ca2+  Ca18  1  0.58173869  0.32883658  0.16633599  1
  Ca2+  Ca19  1  0.57974886  0.32315750  0.49598718  1
  Ca2+  Ca20  1  0.56912857  0.32865119  0.82606513  1
  Ca2+  Ca21  1  0.57899289  0.83395595  0.16293327  1
  Ca2+  Ca22  1  0.58103903  0.83455239  0.49796625  1
  Ca2+  Ca23  1  0.57190507  0.82732401  0.82660558  1
  Ca2+  Ca24  1  0.33389761  0.42754348  0.17339489  1
  Ca2+  Ca25  1  0.33016210  0.41294020  0.50212409  1
  Ca2+  Ca26  1  0.33916149  0.41979691  0.84235522  1
  Ca2+  Ca27  1  0.33099345  0.92500011  0.17279702  1
  Ca2+  Ca28  1  0.33339433  0.92688180  0.50185697  1
  Ca2+  Ca29  1  0.34615273  0.92583150  0.83653583  1
  Ca2+  Ca30  1  0.83123471  0.42045312  0.17455115  1
  Ca2+  Ca31  1  0.82859335  0.41479558  0.50115509  1
  Ca2+  Ca32  1  0.83295785  0.41124142  0.83759677  1
  Ca2+  Ca33  1  0.82780165  0.91720520  0.17715741  1
  Ca2+  Ca34  1  0.82793957  0.93124188  0.50076771  1
  Ca2+  Ca35  1  0.83295192  0.92117796  0.83680816  1
  Ca2+  Ca36  1  0.41904092  0.16576037  0.16245743  1
  Ca2+  Ca37  1  0.42200549  0.16171434  0.49438512  1
  Ca2+  Ca38  1  0.41574229  0.17285621  0.82444384  1
  Ca2+  Ca39  1  0.40903822  0.67197133  0.15979510  1
  Ca2+  Ca40  1  0.41780853  0.67079429  0.49766791  1
  Ca2+  Ca41  1  0.41483418  0.67712265  0.82686954  1
  Ca2+  Ca42  1  0.92438767  0.16493338  0.16539551  1
  Ca2+  Ca43  1  0.91637187  0.16644875  0.49209795  1
  Ca2+  Ca44  1  0.91406067  0.17669430  0.82560137  1
  Ca2+  Ca45  1  0.92169975  0.67061897  0.15871276  1
  Ca2+  Ca46  1  0.91561662  0.66725446  0.49286993  1
  Ca2+  Ca47  1  0.92270296  0.67131436  0.83370326  1
  Al0+  Al48  1  0.00107288  0.00053910  -0.00509573  1
  Al0+  Al49  1  -0.00043513  0.00048137  0.33385457  1
  Al0+  Al50  1  -0.00047674  -0.00106483  0.67419868  1
  Al0+  Al51  1  -0.00007488  0.49929892  -0.00709268  1
  Al0+  Al52  1  0.00172477  0.50157420  0.33900878  1
  Al0+  Al53  1  -0.00087829  0.50049348  0.66355291  1
  Al0+  Al54  1  0.50373788  -0.00097700  0.00044646  1
  Al0+  Al55  1  0.49990623  -0.00101957  0.33352883  1
  Al0+  Al56  1  0.50024527  -0.00157616  0.66462226  1
  Al0+  Al57  1  0.50116220  0.49776667  0.00324623  1
  Al0+  Al58  1  0.50204322  0.50177107  0.33985012  1
  Al0+  Al59  1  0.49986323  0.50036701  0.66075163  1
  Al0+  Al60  1  0.25047337  0.25032878  0.00103910  1
  Al0+  Al61  1  0.24904707  0.25164083  0.33426863  1
  Al0+  Al62  1  0.24595981  0.25010724  0.67023870  1
  Al0+  Al63  1  0.25029686  0.75061072  -0.00574925  1
  Al0+  Al64  1  0.24937570  0.74999619  0.33932666  1
  Al0+  Al65  1  0.24862414  0.74857819  0.66245900  1
  Al0+  Al66  1  0.75085141  0.24885943  -0.00138976  1
  Al0+  Al67  1  0.74844380  0.25155102  0.33355776  1
  Al0+  Al68  1  0.74875699  0.25256398  0.66526392  1
  Al0+  Al69  1  0.75085883  0.74988121  -0.00374869  1
  Al0+  Al70  1  0.74879739  0.75026891  0.33974556  1
  Al0+  Al71  1  0.75172837  0.74963202  0.66546668  1
  Al0+  Al72  1  0.57033227  0.17828410  0.31765570  1
  Al0+  Al73  1  0.17805054  0.92918991  0.34587249  1
  Al0+  Al74  1  0.43006876  0.82135513  0.98816772  1
  Al0+  Al75  1  0.32224673  0.57262257  0.34956604  1
  Al0+  Al76  1  0.42433369  0.32129264  0.65128359  1
  Al0+  Al77  1  0.81973429  0.07245842  0.68255316  1
  Al0+  Al78  1  0.32307780  0.07149850  0.01408787  1
  Al0+  Al79  1  0.32085999  0.06956218  0.68109071  1
  Al0+  Al80  1  0.17945593  0.42844237  0.34804200  1
  Al0+  Al81  1  0.07157351  0.67890211  0.98546625  1
  Al0+  Al82  1  0.07134829  0.17834988  0.31971176  1
  Al0+  Al83  1  0.32153847  0.07220515  0.34718675  1
  Al0+  Al84  1  0.92903704  0.32098732  0.65080101  1
  Al0+  Al85  1  0.32142874  0.57139736  0.01136277  1
  Al0+  Al86  1  0.82098684  0.07147288  0.34556460  1
  Al0+  Al87  1  0.67874571  0.42746148  0.34999946  1
  Al0+  Al88  1  0.57266744  0.67895603  0.65002597  1
  Al0+  Al89  1  0.42934861  0.32069824  0.98967244  1
  Al0+  Al90  1  0.82196927  0.57115454  0.34745161  1
  Al0+  Al91  1  0.56898857  0.17967864  0.65204726  1
  Al0+  Al92  1  0.92667186  0.82299707  0.98480580  1
  Al0+  Al93  1  0.67712803  0.92824778  0.34860531  1
  Al0+  Al94  1  0.42751444  0.82119569  0.64851661  1
  Al0+  Al95  1  0.92933022  0.31862640  0.98786667  1
  Si0+  Si96  1  0.06973400  0.17652074  0.65148607  1
  Si0+  Si97  1  0.68003690  0.42769333  0.01412375  1
  Si0+  Si98  1  0.82250807  0.57185758  0.68491959  1
  Si0+  Si99  1  0.17755793  0.92883257  0.01512493  1
  Si0+  Si100  1  0.57234974  0.17760709  0.98390578  1
  Si0+  Si101  1  0.92847219  0.82020054  0.32050850  1
  Si0+  Si102  1  0.92996542  0.82213516  0.65021237  1
  Si0+  Si103  1  0.17654157  0.42993538  0.68363750  1
  Si0+  Si104  1  0.82150604  0.57079503  0.01229213  1
  Si0+  Si105  1  0.42814697  0.81889677  0.31720842  1
  Si0+  Si106  1  0.57231491  0.67876720  0.31727371  1
  Si0+  Si107  1  0.07167127  0.67899384  0.31888237  1
  Si0+  Si108  1  0.67883529  0.43106631  0.68393407  1
  Si0+  Si109  1  0.17746517  0.92485647  0.68624074  1
  Si0+  Si110  1  0.92868980  0.32368007  0.31705583  1
  Si0+  Si111  1  0.07395935  0.17722537  0.98186604  1
  Si0+  Si112  1  0.32042885  0.56952716  0.68229496  1
  Si0+  Si113  1  0.42791169  0.32388814  0.31638127  1
  Si0+  Si114  1  0.57256072  0.67639904  0.98674809  1
  Si0+  Si115  1  0.82180489  0.07200225  0.01432441  1
  Si0+  Si116  1  0.17559552  0.42865540  0.01546186  1
  Si0+  Si117  1  0.67924780  0.92627510  0.68575261  1
  Si0+  Si118  1  0.68172403  0.92759279  0.01390984  1
  Si0+  Si119  1  0.06980282  0.67911187  0.64858453  1
  O2-  O120  1  0.24644022  -0.00269223  0.05880893  1
  O2-  O121  1  0.24772981  0.00197618  0.39693809  1
  O2-  O122  1  0.24834317  -0.00799880  0.72915624  1
  O2-  O123  1  0.24683621  0.49601483  0.05737495  1
  O2-  O124  1  0.25497963  0.49609770  0.39939730  1
  O2-  O125  1  0.25229608  0.49610430  0.72588976  1
  O2-  O126  1  0.75527465  -0.00342662  0.05539074  1
  O2-  O127  1  0.74499667  0.00471189  0.39698830  1
  O2-  O128  1  0.74470930  -0.00183106  0.73093490  1
  O2-  O129  1  0.75083532  0.50006950  0.05484206  1
  O2-  O130  1  0.75241486  0.49848542  0.39944566  1
  O2-  O131  1  0.74959395  0.50287100  0.72761934  1
  O2-  O132  1  -0.00393064  0.25353626  0.27295351  1
  O2-  O133  1  -0.00052782  0.24246726  0.60573746  1
  O2-  O134  1  0.00343077  0.24484990  0.93872633  1
  O2-  O135  1  -0.00048495  0.74935135  0.27754818  1
  O2-  O136  1  0.00138669  0.75253080  0.60665436  1
  O2-  O137  1  -0.00011179  0.75175020  0.93510239  1
  O2-  O138  1  0.49455564  0.25291204  0.27148618  1
  O2-  O139  1  0.49183175  0.24558682  0.60140100  1
  O2-  O140  1  0.49944652  0.24253204  0.94162997  1
  O2-  O141  1  0.49911575  0.74718216  0.27439528  1
  O2-  O142  1  0.50143556  0.75075221  0.59894367  1
  O2-  O143  1  0.50121054  0.74211438  0.94294101  1
  O2-  O144  1  0.07271333  0.17625947  0.08737505  1
  O2-  O145  1  0.06883364  0.17856658  0.43277392  1
  O2-  O146  1  0.06921057  0.18013838  0.75749469  1
  O2-  O147  1  0.06897075  0.67844426  0.09919763  1
  O2-  O148  1  0.07036380  0.67989405  0.42424244  1
  O2-  O149  1  0.06894903  0.67817272  0.75371271  1
  O2-  O150  1  0.57570792  0.17884559  0.08930432  1
  O2-  O151  1  0.57000144  0.17900403  0.43014248  1
  O2-  O152  1  0.56970899  0.18444531  0.76641508  1
  O2-  O153  1  0.57631877  0.67845094  0.09219539  1
  O2-  O154  1  0.57347488  0.68080814  0.42184816  1
  O2-  O155  1  0.57071112  0.67920284  0.76468551  1
  O2-  O156  1  0.17707849  0.43222258  0.23406837  1
  O2-  O157  1  0.17432429  0.43283238  0.57905902  1
  O2-  O158  1  0.17390821  0.43030902  0.90947779  1
  O2-  O159  1  0.17991808  0.92662568  0.23194456  1
  O2-  O160  1  0.17437532  0.92580391  0.58100137  1
  O2-  O161  1  0.17658447  0.93053785  0.90948211  1
  O2-  O162  1  0.68017777  0.43008490  0.23517769  1
  O2-  O163  1  0.68130425  0.43162518  0.57954416  1
  O2-  O164  1  0.67986694  0.42816685  0.90890538  1
  O2-  O165  1  0.68071940  0.92575810  0.23400442  1
  O2-  O166  1  0.68357611  0.92414052  0.58070738  1
  O2-  O167  1  0.68107726  0.92704117  0.90906885  1
  O2-  O168  1  0.43344304  0.32377706  0.10226367  1
  O2-  O169  1  0.42909040  0.32302279  0.42175015  1
  O2-  O170  1  0.42777323  0.32317656  0.76559098  1
  O2-  O171  1  0.43186235  0.82144732  0.10137935  1
  O2-  O172  1  0.42807161  0.81749842  0.42184939  1
  O2-  O173  1  0.42838598  0.81876775  0.76282080  1
  O2-  O174  1  0.92832872  0.31888480  0.10053962  1
  O2-  O175  1  0.93057069  0.32378253  0.42262356  1
  O2-  O176  1  0.93092269  0.32200031  0.76450873  1
  O2-  O177  1  0.92427985  0.82025319  0.09855555  1
  O2-  O178  1  0.93018447  0.81928132  0.42577603  1
  O2-  O179  1  0.93012317  0.81977412  0.75539040  1
  O2-  O180  1  0.32177859  0.06904585  0.23310835  1
  O2-  O181  1  0.31733786  0.07039774  0.56866157  1
  O2-  O182  1  0.32297134  0.07087031  0.90080464  1
  O2-  O183  1  0.31890381  0.57446789  0.23535648  1
  O2-  O184  1  0.31722221  0.57027126  0.57762999  1
  O2-  O185  1  0.32132017  0.56953010  0.89789538  1
  O2-  O186  1  0.82235667  0.06680044  0.23117489  1
  O2-  O187  1  0.82185134  0.07051242  0.57016777  1
  O2-  O188  1  0.81802151  0.07460418  0.90922880  1
  O2-  O189  1  0.82143528  0.57165407  0.23286855  1
  O2-  O190  1  0.82464849  0.57155586  0.58035676  1
  O2-  O191  1  0.82002489  0.57094946  0.90705366  1
  O2-  O192  1  0.03899989  0.08239755  0.26358118  1
  O2-  O193  1  0.04733783  0.08055958  0.60977288  1
  O2-  O194  1  0.05091030  0.08394676  0.93436408  1
  O2-  O195  1  0.04437960  0.58699911  0.27172988  1
  O2-  O196  1  0.03813350  0.58900576  0.60085636  1
  O2-  O197  1  0.04125689  0.58263697  0.92844140  1
  O2-  O198  1  0.54171914  0.08023604  0.26358253  1
  O2-  O199  1  0.55044753  0.07843613  0.60288995  1
  O2-  O200  1  0.55277352  0.08275107  0.93865982  1
  O2-  O201  1  0.54868014  0.58508957  0.27108359  1
  O2-  O202  1  0.54480689  0.58139620  0.59682122  1
  O2-  O203  1  0.55055485  0.58170683  0.94184499  1
  O2-  O204  1  0.16756792  0.20985511  0.26425986  1
  O2-  O205  1  0.16199154  0.20509242  0.60569109  1
  O2-  O206  1  0.16654627  0.20528000  0.93530055  1
  O2-  O207  1  0.16329449  0.70817667  0.27196291  1
  O2-  O208  1  0.16174811  0.70374211  0.60078233  1
  O2-  O209  1  0.16791182  0.70766242  0.92812878  1
  O2-  O210  1  0.66749377  0.21012552  0.26307998  1
  O2-  O211  1  0.66549190  0.21414577  0.59971878  1
  O2-  O212  1  0.66399166  0.20832332  0.93625421  1
  O2-  O213  1  0.66410550  0.70902853  0.26989114  1
  O2-  O214  1  0.67301483  0.70467359  0.59965469  1
  O2-  O215  1  0.66432967  0.70377668  0.93724058  1
  O2-  O216  1  0.08251708  0.45701193  0.06147326  1
  O2-  O217  1  0.08396963  0.46092301  0.40446133  1
  O2-  O218  1  0.08638826  0.46494322  0.73142279  1
  O2-  O219  1  0.08254560  0.95284265  0.06026490  1
  O2-  O220  1  0.07982126  0.95520273  0.39960947  1
  O2-  O221  1  0.08458161  0.95038590  0.73471249  1
  O2-  O222  1  0.58981443  0.45454677  0.06438472  1
  O2-  O223  1  0.58276330  0.45776417  0.40478396  1
  O2-  O224  1  0.58626548  0.46007569  0.73051167  1
  O2-  O225  1  0.59159482  0.95670215  0.06361530  1
  O2-  O226  1  0.57791134  0.95093152  0.39958021  1
  O2-  O227  1  0.58385182  0.94778499  0.72945042  1
  O2-  O228  1  0.19793610  0.33416747  0.06019856  1
  O2-  O229  1  0.20248387  0.32999977  0.40225352  1
  O2-  O230  1  0.19583231  0.33653512  0.73149491  1
  O2-  O231  1  0.20170109  0.83400221  0.05850212  1
  O2-  O232  1  0.20555103  0.83244779  0.40193250  1
  O2-  O233  1  0.20126216  0.82920681  0.72973751  1
  O2-  O234  1  0.71016768  0.33646926  0.06142711  1
  O2-  O235  1  0.70604944  0.33008777  0.40350432  1
  O2-  O236  1  0.70834009  0.34058266  0.73282127  1
  O2-  O237  1  0.70750769  0.83470656  0.06135265  1
  O2-  O238  1  0.70864877  0.83282472  0.40441898  1
  O2-  O239  1  0.70999885  0.83377895  0.73288794  1
  O2-  O240  1  0.45730608  0.41837016  0.27270363  1
  O2-  O241  1  0.45509105  0.41822311  0.59845281  1
  O2-  O242  1  0.46437092  0.41586064  0.93376185  1
  O2-  O243  1  0.45623811  0.91032308  0.26938461  1
  O2-  O244  1  0.45496410  0.91938905  0.59671816  1
  O2-  O245  1  0.46762575  0.91528289  0.93263076  1
  O2-  O246  1  0.95741246  0.41765989  0.27218970  1
  O2-  O247  1  0.96183968  0.41714989  0.59778454  1
  O2-  O248  1  0.95739912  0.41457653  0.93061170  1
  O2-  O249  1  0.95524586  0.91125447  0.27164457  1
  O2-  O250  1  0.95743460  0.91506809  0.60548484  1
  O2-  O251  1  0.95347877  0.92128603  0.93038273  1
  O2-  O252  1  0.33274561  0.30332532  0.27171469  1
  O2-  O253  1  0.32231173  0.29952095  0.60399255  1
  O2-  O254  1  0.33080860  0.29684803  0.93604031  1
  O2-  O255  1  0.33576505  0.78937316  0.27114081  1
  O2-  O256  1  0.32912276  0.79079855  0.59680853  1
  O2-  O257  1  0.33399214  0.79555027  0.93167684  1
  O2-  O258  1  0.83398808  0.30198295  0.27217651  1
  O2-  O259  1  0.83139596  0.29450138  0.59929367  1
  O2-  O260  1  0.83338021  0.28718118  0.93150131  1
  O2-  O261  1  0.83625961  0.79125268  0.27402086  1
  O2-  O262  1  0.83898328  0.79288346  0.60339925  1
  O2-  O263  1  0.83030881  0.79187086  0.92825621  1
  O2-  O264  1  0.42074591  0.04010398  0.06588628  1
  O2-  O265  1  0.41789266  0.03964114  0.39971441  1
  O2-  O266  1  0.41898357  0.04058954  0.73428631  1
  O2-  O267  1  0.41811574  0.54188578  0.06679648  1
  O2-  O268  1  0.42224731  0.55258483  0.40054079  1
  O2-  O269  1  0.41431424  0.54552051  0.72733409  1
  O2-  O270  1  0.91685661  0.04935524  0.05729649  1
  O2-  O271  1  0.91638944  0.03869327  0.40077560  1
  O2-  O272  1  0.91578945  0.04078395  0.73869295  1
  O2-  O273  1  0.91366950  0.54253626  0.05822920  1
  O2-  O274  1  0.92018035  0.54730302  0.40191704  1
  O2-  O275  1  0.91407143  0.54133050  0.73201456  1
  O2-  O276  1  0.29314139  0.16872956  0.06733978  1
  O2-  O277  1  0.29648930  0.17122668  0.39806200  1
  O2-  O278  1  0.28642244  0.16589885  0.73609378  1
  O2-  O279  1  0.29041168  0.66892465  0.06341952  1
  O2-  O280  1  0.28735310  0.66700190  0.40570298  1
  O2-  O281  1  0.28815187  0.66121773  0.72834874  1
  O2-  O282  1  0.79076580  0.16203072  0.06316739  1
  O2-  O283  1  0.79845342  0.17146352  0.39555613  1
  O2-  O284  1  0.78756329  0.16991981  0.73589752  1
  O2-  O285  1  0.79473727  0.66318142  0.05925934  1
  O2-  O286  1  0.79218061  0.66757027  0.40280533  1
  O2-  O287  1  0.79680162  0.66476184  0.73206130  1
