# generated using pymatgen
data_Ca2Al2SiO7
_symmetry_space_group_name_H-M   'P 1'
_cell_length_a   15.45726425
_cell_length_b   15.45771378
_cell_length_c   15.28247367
_cell_angle_alpha   89.99776928
_cell_angle_beta   90.00052160
_cell_angle_gamma   90.00862841
_symmetry_Int_Tables_number   1
_chemical_formula_structural   Ca2Al2SiO7
_chemical_formula_sum   'Ca48 Al48 Si24 O168'
_cell_volume   3651.50200880
_cell_formula_units_Z   24
loop_
 _symmetry_equiv_pos_site_id
 _symmetry_equiv_pos_as_xyz
  1  'x, y, z'
loop_
 _atom_type_symbol
 _atom_type_oxidation_number
  Ca2+  2.0
  Al0+  0.0
  Si0+  0.0
  O2-  -2.0
loop_
 _atom_site_type_symbol
 _atom_site_label
 _atom_site_symmetry_multiplicity
 _atom_site_fract_x
 _atom_site_fract_y
 _atom_site_fract_z
 _atom_site_occupancy
  Ca2+  Ca0  1  0.17851793  0.08431421  0.17774231  1
  Ca2+  Ca1  1  0.16727657  0.07511068  0.49860678  1
  Ca2+  Ca2  1  0.17152355  0.07562103  0.83881004  1
  Ca2+  Ca3  1  0.16472624  0.57260588  0.17090168  1
  Ca2+  Ca4  1  0.16113183  0.58139577  0.49636094  1
  Ca2+  Ca5  1  0.17345823  0.57751990  0.84475055  1
  Ca2+  Ca6  1  0.66891093  0.08919462  0.16714016  1
  Ca2+  Ca7  1  0.66967849  0.08644828  0.50448199  1
  Ca2+  Ca8  1  0.67187051  0.08216379  0.84185822  1
  Ca2+  Ca9  1  0.67056425  0.58244815  0.17068380  1
  Ca2+  Ca10  1  0.66923128  0.57545815  0.50317584  1
  Ca2+  Ca11  1  0.67727700  0.58701537  0.84228876  1
  Ca2+  Ca12  1  0.08554302  0.33275243  0.16174973  1
  Ca2+  Ca13  1  0.08240273  0.32638617  0.48937268  1
  Ca2+  Ca14  1  0.07930844  0.33671977  0.83725425  1
  Ca2+  Ca15  1  0.08235588  0.83271844  0.16976392  1
  Ca2+  Ca16  1  0.07663377  0.83539595  0.48907171  1
  Ca2+  Ca17  1  0.07757013  0.83383021  0.82424149  1
  Ca2+  Ca18  1  0.58241705  0.32603041  0.16586198  1
  Ca2+  Ca19  1  0.58138395  0.32368155  0.48926055  1
  Ca2+  Ca20  1  0.58573922  0.31905523  0.83032786  1
  Ca2+  Ca21  1  0.57869607  0.83315633  0.15914690  1
  Ca2+  Ca22  1  0.57586837  0.83204977  0.49211806  1
  Ca2+  Ca23  1  0.59004110  0.83114563  0.83787685  1
  Ca2+  Ca24  1  0.32767423  0.41710997  0.17389289  1
  Ca2+  Ca25  1  0.32952268  0.40827378  0.49462998  1
  Ca2+  Ca26  1  0.32590400  0.42135282  0.84379646  1
  Ca2+  Ca27  1  0.33360669  0.92727018  0.17593739  1
  Ca2+  Ca28  1  0.32392905  0.91534929  0.49768090  1
  Ca2+  Ca29  1  0.32641653  0.91979904  0.83856431  1
  Ca2+  Ca30  1  0.83064903  0.41813554  0.16928949  1
  Ca2+  Ca31  1  0.82718203  0.42149423  0.50254378  1
  Ca2+  Ca32  1  0.83702038  0.42788282  0.84250900  1
  Ca2+  Ca33  1  0.82753654  0.91754642  0.16748901  1
  Ca2+  Ca34  1  0.83902814  0.92010067  0.50601304  1
  Ca2+  Ca35  1  0.83181046  0.92881564  0.83932027  1
  Ca2+  Ca36  1  0.42182956  0.16386514  0.16253259  1
  Ca2+  Ca37  1  0.42771108  0.16726087  0.48779118  1
  Ca2+  Ca38  1  0.42798739  0.15648369  0.83379022  1
  Ca2+  Ca39  1  0.41751437  0.67223818  0.16012057  1
  Ca2+  Ca40  1  0.41614610  0.67457675  0.49094924  1
  Ca2+  Ca41  1  0.42284954  0.66069441  0.83525755  1
  Ca2+  Ca42  1  0.92347276  0.17192168  0.15992631  1
  Ca2+  Ca43  1  0.92322553  0.16222977  0.49331377  1
  Ca2+  Ca44  1  0.90662527  0.17193808  0.83188980  1
  Ca2+  Ca45  1  0.91927982  0.66823164  0.16479969  1
  Ca2+  Ca46  1  0.91903205  0.67910977  0.49294040  1
  Ca2+  Ca47  1  0.91177444  0.67180695  0.82702297  1
  Al0+  Al48  1  -0.00078192  0.00047887  0.00229426  1
  Al0+  Al49  1  0.00000601  0.00121275  0.32549101  1
  Al0+  Al50  1  -0.00065918  0.00035049  0.67256483  1
  Al0+  Al51  1  -0.00020536  0.50049817  0.00287173  1
  Al0+  Al52  1  -0.00011047  0.50248897  0.33681403  1
  Al0+  Al53  1  0.00006652  0.49972750  0.66933343  1
  Al0+  Al54  1  0.49838483  -0.00171064  0.00029244  1
  Al0+  Al55  1  0.50280162  -0.00090339  0.33061921  1
  Al0+  Al56  1  0.49977699  -0.00156346  0.66139516  1
  Al0+  Al57  1  0.50025720  0.50104516  -0.00307031  1
  Al0+  Al58  1  0.50124269  0.49813300  0.33657210  1
  Al0+  Al59  1  0.49843819  0.49803691  0.66601274  1
  Al0+  Al60  1  0.24899530  0.24829668  0.00330311  1
  Al0+  Al61  1  0.25184405  0.25077707  0.33643256  1
  Al0+  Al62  1  0.25005236  0.24957925  0.66896014  1
  Al0+  Al63  1  0.24926104  0.74922809  0.00083890  1
  Al0+  Al64  1  0.24940047  0.74985301  0.32772141  1
  Al0+  Al65  1  0.24971457  0.74823462  0.67146434  1
  Al0+  Al66  1  0.75136982  0.25116456  -0.00583867  1
  Al0+  Al67  1  0.75023531  0.25115139  0.33552227  1
  Al0+  Al68  1  0.74918400  0.25069318  0.66459861  1
  Al0+  Al69  1  0.74966069  0.75073730  0.00406255  1
  Al0+  Al70  1  0.75100448  0.75214730  0.33210066  1
  Al0+  Al71  1  0.74948538  0.74942245  0.66358727  1
  Al0+  Al72  1  0.17822638  0.42897761  0.34882654  1
  Al0+  Al73  1  0.31994555  0.06849905  0.01278512  1
  Al0+  Al74  1  0.81910715  0.57026411  0.67954076  1
  Al0+  Al75  1  0.57080299  0.17882682  0.65171155  1
  Al0+  Al76  1  0.57343763  0.17845014  0.31647477  1
  Al0+  Al77  1  0.07153288  0.18014938  0.32095738  1
  Al0+  Al78  1  0.17848691  0.92904471  0.34673867  1
  Al0+  Al79  1  0.07070261  0.67795143  0.31698921  1
  Al0+  Al80  1  0.56953432  0.17892047  0.98508213  1
  Al0+  Al81  1  0.32441376  0.07166543  0.35015765  1
  Al0+  Al82  1  0.82130492  0.07476694  0.01691124  1
  Al0+  Al83  1  0.42927852  0.82030150  0.31962296  1
  Al0+  Al84  1  0.42932671  0.32146899  0.31783285  1
  Al0+  Al85  1  0.68004526  0.93034754  0.01504380  1
  Al0+  Al86  1  0.67954809  0.42910704  0.34699353  1
  Al0+  Al87  1  0.32406686  0.57194704  0.01588292  1
  Al0+  Al88  1  0.93075413  0.32118239  0.98649872  1
  Al0+  Al89  1  0.82004751  0.07104912  0.67912009  1
  Al0+  Al90  1  0.93000087  0.82140911  0.65476939  1
  Al0+  Al91  1  0.17886713  0.92857339  0.67997344  1
  Al0+  Al92  1  0.82053846  0.57201910  0.01500108  1
  Al0+  Al93  1  0.17982502  0.42988720  0.01564040  1
  Al0+  Al94  1  0.92768713  0.82345416  0.31507108  1
  Al0+  Al95  1  0.57144029  0.67875485  0.98688542  1
  Si0+  Si96  1  0.42666869  0.82110799  0.98098067  1
  Si0+  Si97  1  0.17895498  0.42743832  0.68219745  1
  Si0+  Si98  1  0.42681036  0.81875920  0.65216983  1
  Si0+  Si99  1  0.07316206  0.17664813  0.98161147  1
  Si0+  Si100  1  0.42563414  0.32187364  0.98275335  1
  Si0+  Si101  1  0.92866918  0.82141993  0.98342997  1
  Si0+  Si102  1  0.32280374  0.07122299  0.68267686  1
  Si0+  Si103  1  0.67990486  0.92747645  0.34961323  1
  Si0+  Si104  1  0.67802921  0.42749231  0.01417044  1
  Si0+  Si105  1  0.82173021  0.57460042  0.35191819  1
  Si0+  Si106  1  0.67662995  0.42844398  0.68497055  1
  Si0+  Si107  1  0.07008514  0.67959906  0.98362095  1
  Si0+  Si108  1  0.82053211  0.07093656  0.34722838  1
  Si0+  Si109  1  0.67504026  0.92700879  0.68126939  1
  Si0+  Si110  1  0.57072856  0.67744858  0.65120414  1
  Si0+  Si111  1  0.57217328  0.67726538  0.31878193  1
  Si0+  Si112  1  0.07131387  0.17979132  0.65359628  1
  Si0+  Si113  1  0.42631820  0.32261570  0.64991622  1
  Si0+  Si114  1  0.92994632  0.32328172  0.65112665  1
  Si0+  Si115  1  0.32245102  0.57177847  0.35036232  1
  Si0+  Si116  1  0.17573089  0.92635899  0.01721008  1
  Si0+  Si117  1  0.07335760  0.67695981  0.65155368  1
  Si0+  Si118  1  0.32159190  0.57129732  0.68160771  1
  Si0+  Si119  1  0.92827694  0.32281834  0.31968675  1
  O2-  O120  1  0.24380647  -0.00413495  0.05922881  1
  O2-  O121  1  0.25065046  0.00004951  0.39895762  1
  O2-  O122  1  0.25419796  0.00246064  0.72702344  1
  O2-  O123  1  0.25490204  0.49815671  0.06579612  1
  O2-  O124  1  0.25336755  0.50378290  0.39631641  1
  O2-  O125  1  0.25058247  0.49917334  0.72205759  1
  O2-  O126  1  0.74852402  0.00425906  0.06735613  1
  O2-  O127  1  0.75086167  -0.00102421  0.39085444  1
  O2-  O128  1  0.74313364  -0.00285297  0.72359977  1
  O2-  O129  1  0.74437234  0.49803510  0.05925291  1
  O2-  O130  1  0.75270564  0.50537909  0.39474557  1
  O2-  O131  1  0.74450057  0.49727934  0.72974558  1
  O2-  O132  1  0.00077915  0.25903106  0.27529043  1
  O2-  O133  1  -0.00020490  0.25049475  0.61026974  1
  O2-  O134  1  0.00273780  0.24406044  0.93719399  1
  O2-  O135  1  -0.00101752  0.74999911  0.26646791  1
  O2-  O136  1  0.00539220  0.74673895  0.60863156  1
  O2-  O137  1  0.00174450  0.75259118  0.94027229  1
  O2-  O138  1  0.49807883  0.24716776  0.26738790  1
  O2-  O139  1  0.49504175  0.25348717  0.60735792  1
  O2-  O140  1  0.49416207  0.25334869  0.93712056  1
  O2-  O141  1  0.50323311  0.74450725  0.27405608  1
  O2-  O142  1  0.49913176  0.74837794  0.61006426  1
  O2-  O143  1  0.49480975  0.75096659  0.93722287  1
  O2-  O144  1  0.07362453  0.17789033  0.08687188  1
  O2-  O145  1  0.06708805  0.17881455  0.43518125  1
  O2-  O146  1  0.07361299  0.18239392  0.75850013  1
  O2-  O147  1  0.06918644  0.67942081  0.08808559  1
  O2-  O148  1  0.06742013  0.67757881  0.43147038  1
  O2-  O149  1  0.07397341  0.67652982  0.75742219  1
  O2-  O150  1  0.56975420  0.18121131  0.09724380  1
  O2-  O151  1  0.57563029  0.18047179  0.43060529  1
  O2-  O152  1  0.56955196  0.17833243  0.76497156  1
  O2-  O153  1  0.57171998  0.68129849  0.09965714  1
  O2-  O154  1  0.57135605  0.67967952  0.42536246  1
  O2-  O155  1  0.57110982  0.67691614  0.75600803  1
  O2-  O156  1  0.17711630  0.43055456  0.23662433  1
  O2-  O157  1  0.17787428  0.42591839  0.57754466  1
  O2-  O158  1  0.17968405  0.43290060  0.90076453  1
  O2-  O159  1  0.18018851  0.93161243  0.23348749  1
  O2-  O160  1  0.17928576  0.92814726  0.56754172  1
  O2-  O161  1  0.17641276  0.92628393  0.91066797  1
  O2-  O162  1  0.68243639  0.42972685  0.23401490  1
  O2-  O163  1  0.67726709  0.43016531  0.57928750  1
  O2-  O164  1  0.68075818  0.42866668  0.90803588  1
  O2-  O165  1  0.68024036  0.92412021  0.24513177  1
  O2-  O166  1  0.67342400  0.92620880  0.57555278  1
  O2-  O167  1  0.68336048  0.92966717  0.90060504  1
  O2-  O168  1  0.42600379  0.32187357  0.08766069  1
  O2-  O169  1  0.43297713  0.32096102  0.43227271  1
  O2-  O170  1  0.42574050  0.32556441  0.75543116  1
  O2-  O171  1  0.42710132  0.82114372  0.08623077  1
  O2-  O172  1  0.43081842  0.81765620  0.43392093  1
  O2-  O173  1  0.42563234  0.81806087  0.75696600  1
  O2-  O174  1  0.93232130  0.32145162  0.09943358  1
  O2-  O175  1  0.92798406  0.31975884  0.42612313  1
  O2-  O176  1  0.93167628  0.32567377  0.75604127  1
  O2-  O177  1  0.92933219  0.82027620  0.08808502  1
  O2-  O178  1  0.92705302  0.82286647  0.42943720  1
  O2-  O179  1  0.93090371  0.81997513  0.76806875  1
  O2-  O180  1  0.32356396  0.06969057  0.23658738  1
  O2-  O181  1  0.32233510  0.07172890  0.57781473  1
  O2-  O182  1  0.31898994  0.06507597  0.89861552  1
  O2-  O183  1  0.32428755  0.57031313  0.24542209  1
  O2-  O184  1  0.32272586  0.57480200  0.57699725  1
  O2-  O185  1  0.32053401  0.57050026  0.90099736  1
  O2-  O186  1  0.81848040  0.07295258  0.24268703  1
  O2-  O187  1  0.82217434  0.06954123  0.56570988  1
  O2-  O188  1  0.82007305  0.07252280  0.90271983  1
  O2-  O189  1  0.82086357  0.57460293  0.24643121  1
  O2-  O190  1  0.81668365  0.56775811  0.56671092  1
  O2-  O191  1  0.82047756  0.57245378  0.90129453  1
  O2-  O192  1  0.03897388  0.08746840  0.26258153  1
  O2-  O193  1  0.04190361  0.08804191  0.60786475  1
  O2-  O194  1  0.04900700  0.08161465  0.93663682  1
  O2-  O195  1  0.03987192  0.57962171  0.26472216  1
  O2-  O196  1  0.04714562  0.58292713  0.60619918  1
  O2-  O197  1  0.04065589  0.58849123  0.93576363  1
  O2-  O198  1  0.55127198  0.07837795  0.26621627  1
  O2-  O199  1  0.54273022  0.08119512  0.59770112  1
  O2-  O200  1  0.53748255  0.08165419  0.93138029  1
  O2-  O201  1  0.54946996  0.58289179  0.27515394  1
  O2-  O202  1  0.54211205  0.58517714  0.60420224  1
  O2-  O203  1  0.54403052  0.58228055  0.92856341  1
  O2-  O204  1  0.16908781  0.20845533  0.26987645  1
  O2-  O205  1  0.16339194  0.20766865  0.60615261  1
  O2-  O206  1  0.16603142  0.20387666  0.93374437  1
  O2-  O207  1  0.16893651  0.70266430  0.26333534  1
  O2-  O208  1  0.16807986  0.70022270  0.60672007  1
  O2-  O209  1  0.16317318  0.70524503  0.93579820  1
  O2-  O210  1  0.67095804  0.21265226  0.26509651  1
  O2-  O211  1  0.66717250  0.21101401  0.59722468  1
  O2-  O212  1  0.66554649  0.21078541  0.92956665  1
  O2-  O213  1  0.66579668  0.70310062  0.27418968  1
  O2-  O214  1  0.66116207  0.70499508  0.60129724  1
  O2-  O215  1  0.66738567  0.71384910  0.93191592  1
  O2-  O216  1  0.08342189  0.46225744  0.06844902  1
  O2-  O217  1  0.08164488  0.46023532  0.40495799  1
  O2-  O218  1  0.08761808  0.45560407  0.73047626  1
  O2-  O219  1  0.08172599  0.94951129  0.06183881  1
  O2-  O220  1  0.07890455  0.96008110  0.39727746  1
  O2-  O221  1  0.08485999  0.96137934  0.73755172  1
  O2-  O222  1  0.58328481  0.45014229  0.05757024  1
  O2-  O223  1  0.58423982  0.45920095  0.40510553  1
  O2-  O224  1  0.58170378  0.45207717  0.72926574  1
  O2-  O225  1  0.57937346  0.95242633  0.06413386  1
  O2-  O226  1  0.58853607  0.95453142  0.39804276  1
  O2-  O227  1  0.58075562  0.95034871  0.72751930  1
  O2-  O228  1  0.20210328  0.32953996  0.06518201  1
  O2-  O229  1  0.20925172  0.33376819  0.40582497  1
  O2-  O230  1  0.20674024  0.33637864  0.73173571  1
  O2-  O231  1  0.20078787  0.83251336  0.06130465  1
  O2-  O232  1  0.20618742  0.82913304  0.39807513  1
  O2-  O233  1  0.20905742  0.83190550  0.73577446  1
  O2-  O234  1  0.70697420  0.33543235  0.05971574  1
  O2-  O235  1  0.71401177  0.33465198  0.40459108  1
  O2-  O236  1  0.70356499  0.33474923  0.72914056  1
  O2-  O237  1  0.71079756  0.83401282  0.06986150  1
  O2-  O238  1  0.70699775  0.83582811  0.39933137  1
  O2-  O239  1  0.70098828  0.83304105  0.72610514  1
  O2-  O240  1  0.45966650  0.42008254  0.26664672  1
  O2-  O241  1  0.45023840  0.41652563  0.60265692  1
  O2-  O242  1  0.45019463  0.41588027  0.93590726  1
  O2-  O243  1  0.46296274  0.91479533  0.26516665  1
  O2-  O244  1  0.45309027  0.91006524  0.60332263  1
  O2-  O245  1  0.45388219  0.91317776  0.93266196  1
  O2-  O246  1  0.94766967  0.41886261  0.27772528  1
  O2-  O247  1  0.96003205  0.41402250  0.60239262  1
  O2-  O248  1  0.96484559  0.41743791  0.93107964  1
  O2-  O249  1  0.95530118  0.92016786  0.25996309  1
  O2-  O250  1  0.96111615  0.91878473  0.60236242  1
  O2-  O251  1  0.95495461  0.91481212  0.93714339  1
  O2-  O252  1  0.32894109  0.29913369  0.26852232  1
  O2-  O253  1  0.33182099  0.29693329  0.60506372  1
  O2-  O254  1  0.33159223  0.29571825  0.93650085  1
  O2-  O255  1  0.33396113  0.79182861  0.26388876  1
  O2-  O256  1  0.33578883  0.78745898  0.60476202  1
  O2-  O257  1  0.33234834  0.79546625  0.93460112  1
  O2-  O258  1  0.83698146  0.29322034  0.27268207  1
  O2-  O259  1  0.83692176  0.29832538  0.60498216  1
  O2-  O260  1  0.83487238  0.29421854  0.92803060  1
  O2-  O261  1  0.82897670  0.79393786  0.26320071  1
  O2-  O262  1  0.83313839  0.79166809  0.59968215  1
  O2-  O263  1  0.83761258  0.79074622  0.93700259  1
  O2-  O264  1  0.41513248  0.03684016  0.06687216  1
  O2-  O265  1  0.42327718  0.04014537  0.40130312  1
  O2-  O266  1  0.41631368  0.04225787  0.72772263  1
  O2-  O267  1  0.42479866  0.54983211  0.06528846  1
  O2-  O268  1  0.41565402  0.54680075  0.39889626  1
  O2-  O269  1  0.41360851  0.54289433  0.72935501  1
  O2-  O270  1  0.92049090  0.04655360  0.06753355  1
  O2-  O271  1  0.91297587  0.04281035  0.39306152  1
  O2-  O272  1  0.91479738  0.04126054  0.73690852  1
  O2-  O273  1  0.91565062  0.53960062  0.06884094  1
  O2-  O274  1  0.91437499  0.54928366  0.39943656  1
  O2-  O275  1  0.91653777  0.54043870  0.73346460  1
  O2-  O276  1  0.29229317  0.16538247  0.06604279  1
  O2-  O277  1  0.29758621  0.16999514  0.40341245  1
  O2-  O278  1  0.29734143  0.16477464  0.72967123  1
  O2-  O279  1  0.29469082  0.67062683  0.06626680  1
  O2-  O280  1  0.29545218  0.66554327  0.39583051  1
  O2-  O281  1  0.29446044  0.66126789  0.73291625  1
  O2-  O282  1  0.79498071  0.17473855  0.06628871  1
  O2-  O283  1  0.79355983  0.16213245  0.39692730  1
  O2-  O284  1  0.79093769  0.16933090  0.73114974  1
  O2-  O285  1  0.78985365  0.66701165  0.07008649  1
  O2-  O286  1  0.79439577  0.66812648  0.39801481  1
  O2-  O287  1  0.78797158  0.66756735  0.73250172  1
