# generated using pymatgen
data_Ca2Al2SiO7
_symmetry_space_group_name_H-M   'P 1'
_cell_length_a   15.46382284
_cell_length_b   15.46282462
_cell_length_c   15.28858687
_cell_angle_alpha   90.00952198
_cell_angle_beta   90.00309253
_cell_angle_gamma   89.97880598
_symmetry_Int_Tables_number   1
_chemical_formula_structural   Ca2Al2SiO7
_chemical_formula_sum   'Ca48 Al48 Si24 O168'
_cell_volume   3655.72067269
_cell_formula_units_Z   24
loop_
 _symmetry_equiv_pos_site_id
 _symmetry_equiv_pos_as_xyz
  1  'x, y, z'
loop_
 _atom_type_symbol
 _atom_type_oxidation_number
  Ca2+  2.0
  Al0+  0.0
  Si0+  0.0
  O2-  -2.0
loop_
 _atom_site_type_symbol
 _atom_site_label
 _atom_site_symmetry_multiplicity
 _atom_site_fract_x
 _atom_site_fract_y
 _atom_site_fract_z
 _atom_site_occupancy
  Ca2+  Ca0  1  0.16606900  0.07459853  0.16724535  1
  Ca2+  Ca1  1  0.16266186  0.07818322  0.50948632  1
  Ca2+  Ca2  1  0.15050141  0.06836682  0.83427478  1
  Ca2+  Ca3  1  0.16996647  0.58344464  0.17640465  1
  Ca2+  Ca4  1  0.16837212  0.57969455  0.50479338  1
  Ca2+  Ca5  1  0.16194411  0.58327670  0.83155363  1
  Ca2+  Ca6  1  0.67101520  0.08578890  0.16966404  1
  Ca2+  Ca7  1  0.66953307  0.08201656  0.51061056  1
  Ca2+  Ca8  1  0.67666284  0.08277417  0.83121426  1
  Ca2+  Ca9  1  0.66926876  0.57657542  0.17539122  1
  Ca2+  Ca10  1  0.66803768  0.57360851  0.50240910  1
  Ca2+  Ca11  1  0.67108953  0.58234880  0.83565575  1
  Ca2+  Ca12  1  0.07990221  0.33940155  0.16711167  1
  Ca2+  Ca13  1  0.07702137  0.33995376  0.49842771  1
  Ca2+  Ca14  1  0.07790978  0.32454396  0.81905274  1
  Ca2+  Ca15  1  0.07998901  0.82315579  0.15962089  1
  Ca2+  Ca16  1  0.07802457  0.82806861  0.49775928  1
  Ca2+  Ca17  1  0.08186178  0.82894661  0.82599967  1
  Ca2+  Ca18  1  0.57394126  0.33611868  0.16777883  1
  Ca2+  Ca19  1  0.58126718  0.32239543  0.49065819  1
  Ca2+  Ca20  1  0.57571541  0.32736891  0.82688655  1
  Ca2+  Ca21  1  0.57408448  0.83149886  0.16137491  1
  Ca2+  Ca22  1  0.58398276  0.83457612  0.49824592  1
  Ca2+  Ca23  1  0.57666789  0.84232648  0.82944774  1
  Ca2+  Ca24  1  0.32984528  0.41987296  0.17992125  1
  Ca2+  Ca25  1  0.32406673  0.42375357  0.50417506  1
  Ca2+  Ca26  1  0.32805822  0.41821714  0.83430983  1
  Ca2+  Ca27  1  0.32723552  0.90875262  0.16666905  1
  Ca2+  Ca28  1  0.32479111  0.91957681  0.50919370  1
  Ca2+  Ca29  1  0.32099131  0.91522981  0.83809659  1
  Ca2+  Ca30  1  0.82782721  0.41627208  0.17793006  1
  Ca2+  Ca31  1  0.83166358  0.40626412  0.50275858  1
  Ca2+  Ca32  1  0.83623486  0.41550432  0.83480134  1
  Ca2+  Ca33  1  0.84411418  0.92045473  0.16805893  1
  Ca2+  Ca34  1  0.83245563  0.91987847  0.51175943  1
  Ca2+  Ca35  1  0.84358823  0.92683466  0.83614147  1
  Ca2+  Ca36  1  0.41936482  0.17940370  0.16395384  1
  Ca2+  Ca37  1  0.42947454  0.16867924  0.49160381  1
  Ca2+  Ca38  1  0.42152926  0.16974855  0.82743857  1
  Ca2+  Ca39  1  0.41551632  0.66626936  0.16286591  1
  Ca2+  Ca40  1  0.40970216  0.66143336  0.49985291  1
  Ca2+  Ca41  1  0.41312143  0.67074784  0.83107801  1
  Ca2+  Ca42  1  0.91355140  0.17131236  0.16719834  1
  Ca2+  Ca43  1  0.91947395  0.17230664  0.50352782  1
  Ca2+  Ca44  1  0.91525067  0.16793464  0.82382610  1
  Ca2+  Ca45  1  0.92837978  0.67492280  0.16114648  1
  Ca2+  Ca46  1  0.92821178  0.67618765  0.49411898  1
  Ca2+  Ca47  1  0.92898086  0.67843528  0.82525046  1
  Al0+  Al48  1  0.00017902  0.00092717  0.01070892  1
  Al0+  Al49  1  -0.00048691  0.00144321  0.33181197  1
  Al0+  Al50  1  -0.00159433  0.00172683  0.66663852  1
  Al0+  Al51  1  -0.00057554  0.50047557  -0.00177317  1
  Al0+  Al52  1  0.00001576  0.50134898  0.32813097  1
  Al0+  Al53  1  -0.00092442  0.50098760  0.66384021  1
  Al0+  Al54  1  0.50145849  0.00153872  -0.00271127  1
  Al0+  Al55  1  0.50202157  -0.00028629  0.32785702  1
  Al0+  Al56  1  0.49966123  -0.00015008  0.66623271  1
  Al0+  Al57  1  0.49923378  0.49826519  -0.00484071  1
  Al0+  Al58  1  0.50149965  0.49978879  0.33907043  1
  Al0+  Al59  1  0.49937373  0.50172297  0.67176037  1
  Al0+  Al60  1  0.24982010  0.25004656  -0.00390731  1
  Al0+  Al61  1  0.25107749  0.24850380  0.33416024  1
  Al0+  Al62  1  0.25067114  0.25170875  0.66639371  1
  Al0+  Al63  1  0.25192704  0.74811429  -0.00257273  1
  Al0+  Al64  1  0.24967513  0.75070947  0.33516719  1
  Al0+  Al65  1  0.25161561  0.75065685  0.67037230  1
  Al0+  Al66  1  0.74887406  0.24884358  0.00520182  1
  Al0+  Al67  1  0.75174715  0.24780616  0.32999421  1
  Al0+  Al68  1  0.74711751  0.24842888  0.66499492  1
  Al0+  Al69  1  0.75051233  0.75029941  -0.00095009  1
  Al0+  Al70  1  0.74884335  0.75156791  0.32872758  1
  Al0+  Al71  1  0.74591434  0.74856103  0.66764218  1
  Al0+  Al72  1  0.17906741  0.93172964  0.67868014  1
  Al0+  Al73  1  0.57272336  0.17719975  0.31539014  1
  Al0+  Al74  1  0.17610143  0.42860398  0.68341115  1
  Al0+  Al75  1  0.82032377  0.07037560  0.01740662  1
  Al0+  Al76  1  0.07220186  0.67760412  0.98294271  1
  Al0+  Al77  1  0.32123567  0.57269274  0.34789576  1
  Al0+  Al78  1  0.67666163  0.92618853  0.68182870  1
  Al0+  Al79  1  0.81920933  0.07023956  0.68073641  1
  Al0+  Al80  1  0.92805467  0.32173605  0.65324790  1
  Al0+  Al81  1  0.56742047  0.17938801  0.65363903  1
  Al0+  Al82  1  0.18161885  0.92796888  0.01544744  1
  Al0+  Al83  1  0.68141631  0.42812595  0.34743295  1
  Al0+  Al84  1  0.42929349  0.32171456  0.32059952  1
  Al0+  Al85  1  0.07287159  0.17814967  0.65327253  1
  Al0+  Al86  1  0.93140482  0.31992678  0.31938464  1
  Al0+  Al87  1  0.07265059  0.68013611  0.31763385  1
  Al0+  Al88  1  0.92735643  0.82291156  0.31733979  1
  Al0+  Al89  1  0.92989229  0.82371959  0.98381133  1
  Al0+  Al90  1  0.07356681  0.68021317  0.64950673  1
  Al0+  Al91  1  0.32093190  0.57056611  0.68618872  1
  Al0+  Al92  1  0.17639749  0.42694860  0.34782842  1
  Al0+  Al93  1  0.43037412  0.82115508  0.98614928  1
  Al0+  Al94  1  0.92684032  0.82195863  0.65271019  1
  Al0+  Al95  1  0.42781032  0.32123524  0.98420610  1
  Si0+  Si96  1  0.57132793  0.67827991  0.31982568  1
  Si0+  Si97  1  0.32163149  0.56810737  0.01517495  1
  Si0+  Si98  1  0.42947148  0.82119614  0.32039208  1
  Si0+  Si99  1  0.82111615  0.06977385  0.35021111  1
  Si0+  Si100  1  0.17990537  0.93093259  0.34847670  1
  Si0+  Si101  1  0.57118388  0.67620635  0.65081357  1
  Si0+  Si102  1  0.57348667  0.17969174  0.98148575  1
  Si0+  Si103  1  0.17828038  0.42724320  0.01450929  1
  Si0+  Si104  1  0.07045484  0.18038437  0.98780602  1
  Si0+  Si105  1  0.82112089  0.57400168  0.34897769  1
  Si0+  Si106  1  0.82166091  0.57127865  0.01528545  1
  Si0+  Si107  1  0.32427305  0.07353411  0.01658563  1
  Si0+  Si108  1  0.67745709  0.92859169  0.34687509  1
  Si0+  Si109  1  0.92726320  0.32037061  0.98722860  1
  Si0+  Si110  1  0.32356774  0.07296790  0.68159860  1
  Si0+  Si111  1  0.42812549  0.32528133  0.64897170  1
  Si0+  Si112  1  0.43058464  0.81991940  0.65145198  1
  Si0+  Si113  1  0.67946301  0.42848088  0.68246049  1
  Si0+  Si114  1  0.67903156  0.43032573  0.01475159  1
  Si0+  Si115  1  0.07409844  0.17611994  0.31518748  1
  Si0+  Si116  1  0.82028223  0.57182943  0.68101246  1
  Si0+  Si117  1  0.32381038  0.06968913  0.34640675  1
  Si0+  Si118  1  0.67603689  0.92716649  0.01873756  1
  Si0+  Si119  1  0.57228578  0.67681479  0.98346578  1
  O2-  O120  1  0.25918656  0.00149261  0.06175393  1
  O2-  O121  1  0.25027676  0.00262486  0.39035993  1
  O2-  O122  1  0.24871062  0.01162424  0.72612013  1
  O2-  O123  1  0.24930673  0.49846127  0.05668983  1
  O2-  O124  1  0.24863165  0.50026999  0.39548558  1
  O2-  O125  1  0.24778880  0.49983794  0.73614812  1
  O2-  O126  1  0.74749478  -0.00752161  0.06364736  1
  O2-  O127  1  0.75090654  -0.00366325  0.38907572  1
  O2-  O128  1  0.75269221  -0.00674862  0.73199017  1
  O2-  O129  1  0.74969060  0.50107727  0.05786465  1
  O2-  O130  1  0.75759001  0.50115110  0.39514096  1
  O2-  O131  1  0.75282933  0.49692126  0.72476979  1
  O2-  O132  1  0.00996044  0.24966325  0.27134452  1
  O2-  O133  1  0.00489039  0.25434668  0.60402825  1
  O2-  O134  1  -0.00075344  0.25117040  0.94587081  1
  O2-  O135  1  -0.00042085  0.75118617  0.26813985  1
  O2-  O136  1  0.00034305  0.75234887  0.60184796  1
  O2-  O137  1  0.00259905  0.75266395  0.93449777  1
  O2-  O138  1  0.50091669  0.25053200  0.26759527  1
  O2-  O139  1  0.49240686  0.25249621  0.60564024  1
  O2-  O140  1  0.50129643  0.24504114  0.93816812  1
  O2-  O141  1  0.49780495  0.74715509  0.27868896  1
  O2-  O142  1  0.50144283  0.74874155  0.60916399  1
  O2-  O143  1  0.50781898  0.74918621  0.93918628  1
  O2-  O144  1  0.07245939  0.18310077  0.09307595  1
  O2-  O145  1  0.07117069  0.16988921  0.41995494  1
  O2-  O146  1  0.06816788  0.17713381  0.76749173  1
  O2-  O147  1  0.07103673  0.67552335  0.09644092  1
  O2-  O148  1  0.07360167  0.68386371  0.43070593  1
  O2-  O149  1  0.07130257  0.68166705  0.76312761  1
  O2-  O150  1  0.57429461  0.18180444  0.08690800  1
  O2-  O151  1  0.57044310  0.17441460  0.42883539  1
  O2-  O152  1  0.56691097  0.18254795  0.76706828  1
  O2-  O153  1  0.56974180  0.67372204  0.08937849  1
  O2-  O154  1  0.57513200  0.68068330  0.42459341  1
  O2-  O155  1  0.57110351  0.67295967  0.75582906  1
  O2-  O156  1  0.17911680  0.42778625  0.23315319  1
  O2-  O157  1  0.17756832  0.42950535  0.57026713  1
  O2-  O158  1  0.17787660  0.42590862  0.91001366  1
  O2-  O159  1  0.18259113  0.93039871  0.24320018  1
  O2-  O160  1  0.18314915  0.93126583  0.56509434  1
  O2-  O161  1  0.18076964  0.93079910  0.90264556  1
  O2-  O162  1  0.68073028  0.43274735  0.23362847  1
  O2-  O163  1  0.67821378  0.42998047  0.57752941  1
  O2-  O164  1  0.68051617  0.43061468  0.90941505  1
  O2-  O165  1  0.67350198  0.92869788  0.24192872  1
  O2-  O166  1  0.67456633  0.92844811  0.56770660  1
  O2-  O167  1  0.67258532  0.92947370  0.91386812  1
  O2-  O168  1  0.42956398  0.32350068  0.09704433  1
  O2-  O169  1  0.43195251  0.31839869  0.43368319  1
  O2-  O170  1  0.43207238  0.32496382  0.75517535  1
  O2-  O171  1  0.43100255  0.81709338  0.09997156  1
  O2-  O172  1  0.43171259  0.82496608  0.42526773  1
  O2-  O173  1  0.43203142  0.82032723  0.75648559  1
  O2-  O174  1  0.92724787  0.32101322  0.09231204  1
  O2-  O175  1  0.92790787  0.31567885  0.43151368  1
  O2-  O176  1  0.92569426  0.31942088  0.76773744  1
  O2-  O177  1  0.93169202  0.82008243  0.09741995  1
  O2-  O178  1  0.92619182  0.82309985  0.43054801  1
  O2-  O179  1  0.92838146  0.82051392  0.76615193  1
  O2-  O180  1  0.32387574  0.06664664  0.24123059  1
  O2-  O181  1  0.32749779  0.06631685  0.57577887  1
  O2-  O182  1  0.32387205  0.07400192  0.91128903  1
  O2-  O183  1  0.32258819  0.57341109  0.23356759  1
  O2-  O184  1  0.32443051  0.56805330  0.57306231  1
  O2-  O185  1  0.32453429  0.56653850  0.91072802  1
  O2-  O186  1  0.82075230  0.06962607  0.24475632  1
  O2-  O187  1  0.81592471  0.07235431  0.56708177  1
  O2-  O188  1  0.81868202  0.07550853  0.90514202  1
  O2-  O189  1  0.81542920  0.57333752  0.24287823  1
  O2-  O190  1  0.81543114  0.57377711  0.57624640  1
  O2-  O191  1  0.82041241  0.56866210  0.91012541  1
  O2-  O192  1  0.04193849  0.08574058  0.26545032  1
  O2-  O193  1  0.04093013  0.08234638  0.59765904  1
  O2-  O194  1  0.04053624  0.08798551  0.94468033  1
  O2-  O195  1  0.04623746  0.58201821  0.26340941  1
  O2-  O196  1  0.04340675  0.58208685  0.59856313  1
  O2-  O197  1  0.03930537  0.57979900  0.93020534  1
  O2-  O198  1  0.54239052  0.07987740  0.26026091  1
  O2-  O199  1  0.53748994  0.08273288  0.59894766  1
  O2-  O200  1  0.55174325  0.08499119  0.93695468  1
  O2-  O201  1  0.54551204  0.58637488  0.27206379  1
  O2-  O202  1  0.54132630  0.58508556  0.60274504  1
  O2-  O203  1  0.54364130  0.58532228  0.93471824  1
  O2-  O204  1  0.16992087  0.19443124  0.27090087  1
  O2-  O205  1  0.17452016  0.19791243  0.60267128  1
  O2-  O206  1  0.16135871  0.20538194  0.93822865  1
  O2-  O207  1  0.17096753  0.71165206  0.26469167  1
  O2-  O208  1  0.17301378  0.70972542  0.60004425  1
  O2-  O209  1  0.17203804  0.70181565  0.93289127  1
  O2-  O210  1  0.67044584  0.20575570  0.26278874  1
  O2-  O211  1  0.66224390  0.21182514  0.59873338  1
  O2-  O212  1  0.66542305  0.21150060  0.93578260  1
  O2-  O213  1  0.66022556  0.70788946  0.26733363  1
  O2-  O214  1  0.66205069  0.70125253  0.60092403  1
  O2-  O215  1  0.66750151  0.69729544  0.93910022  1
  O2-  O216  1  0.08511583  0.45425842  0.06062606  1
  O2-  O217  1  0.07644739  0.45477280  0.39746939  1
  O2-  O218  1  0.07595655  0.45523515  0.73504253  1
  O2-  O219  1  0.08824879  0.96252572  0.07334533  1
  O2-  O220  1  0.08775702  0.95980752  0.39384724  1
  O2-  O221  1  0.08238465  0.95992172  0.73329282  1
  O2-  O222  1  0.58687633  0.45998350  0.06074917  1
  O2-  O223  1  0.58737108  0.46115669  0.40399806  1
  O2-  O224  1  0.58992674  0.46062410  0.73206489  1
  O2-  O225  1  0.58299203  0.95622428  0.06613093  1
  O2-  O226  1  0.58598704  0.95762596  0.39501078  1
  O2-  O227  1  0.57989876  0.96079707  0.73542860  1
  O2-  O228  1  0.20598527  0.33507585  0.06149951  1
  O2-  O229  1  0.20259157  0.32691017  0.39899797  1
  O2-  O230  1  0.20463915  0.32879586  0.73596970  1
  O2-  O231  1  0.21528007  0.83112835  0.06844491  1
  O2-  O232  1  0.20973318  0.84061444  0.39638130  1
  O2-  O233  1  0.21600757  0.83837558  0.73401315  1
  O2-  O234  1  0.70617681  0.33924491  0.06313292  1
  O2-  O235  1  0.71188395  0.33030357  0.39868118  1
  O2-  O236  1  0.70490603  0.33684721  0.73068864  1
  O2-  O237  1  0.69588394  0.83055399  0.06223409  1
  O2-  O238  1  0.70074209  0.83478059  0.39283059  1
  O2-  O239  1  0.69272352  0.82418058  0.73253891  1
  O2-  O240  1  0.46048351  0.42045677  0.26856450  1
  O2-  O241  1  0.46017061  0.41752399  0.60530335  1
  O2-  O242  1  0.46221801  0.41558721  0.92807040  1
  O2-  O243  1  0.46056659  0.90961632  0.26842846  1
  O2-  O244  1  0.45834397  0.91100168  0.60266336  1
  O2-  O245  1  0.45776354  0.91914544  0.93301925  1
  O2-  O246  1  0.95420160  0.41801835  0.26360609  1
  O2-  O247  1  0.94872682  0.42140244  0.60032427  1
  O2-  O248  1  0.95199755  0.41278966  0.94021023  1
  O2-  O249  1  0.95785020  0.92129945  0.26569273  1
  O2-  O250  1  0.95262289  0.92096697  0.60128654  1
  O2-  O251  1  0.95826516  0.92494932  0.93807876  1
  O2-  O252  1  0.33124502  0.29208009  0.26645694  1
  O2-  O253  1  0.33258934  0.30601957  0.60644234  1
  O2-  O254  1  0.33156220  0.29090280  0.92944278  1
  O2-  O255  1  0.33749797  0.79559920  0.27302341  1
  O2-  O256  1  0.33964291  0.79199703  0.60334465  1
  O2-  O257  1  0.33613264  0.78791747  0.93082833  1
  O2-  O258  1  0.83679003  0.28522072  0.26290660  1
  O2-  O259  1  0.83057061  0.28957653  0.60069218  1
  O2-  O260  1  0.83488353  0.29219806  0.94150438  1
  O2-  O261  1  0.82821675  0.79640017  0.26356120  1
  O2-  O262  1  0.82690971  0.79228152  0.60282622  1
  O2-  O263  1  0.82911289  0.79740589  0.93484141  1
  O2-  O264  1  0.41972599  0.05224840  0.06114570  1
  O2-  O265  1  0.41466759  0.03712948  0.39355466  1
  O2-  O266  1  0.41311426  0.03965822  0.73127627  1
  O2-  O267  1  0.41437660  0.53963922  0.06177183  1
  O2-  O268  1  0.42021512  0.54739537  0.40118567  1
  O2-  O269  1  0.42007661  0.54249210  0.74027939  1
  O2-  O270  1  0.91612141  0.04366215  0.07564291  1
  O2-  O271  1  0.91391598  0.04408444  0.39643337  1
  O2-  O272  1  0.91833990  0.04702942  0.73439311  1
  O2-  O273  1  0.91241876  0.54121387  0.06355313  1
  O2-  O274  1  0.91679628  0.55364209  0.39033471  1
  O2-  O275  1  0.91212169  0.54691575  0.72886409  1
  O2-  O276  1  0.29274763  0.16586122  0.06311685  1
  O2-  O277  1  0.30163345  0.16218740  0.39398290  1
  O2-  O278  1  0.30924734  0.17003537  0.72354307  1
  O2-  O279  1  0.29712660  0.66104338  0.06162142  1
  O2-  O280  1  0.29497234  0.67191499  0.40148488  1
  O2-  O281  1  0.29634826  0.67050660  0.73732921  1
  O2-  O282  1  0.78594990  0.16634163  0.07325629  1
  O2-  O283  1  0.79162017  0.16087666  0.39622958  1
  O2-  O284  1  0.78410969  0.16695735  0.73506959  1
  O2-  O285  1  0.79439739  0.66318715  0.06290651  1
  O2-  O286  1  0.78902110  0.66607507  0.39440438  1
  O2-  O287  1  0.78612728  0.65998143  0.73198353  1
