# generated using pymatgen
data_Ca2Al2SiO7
_symmetry_space_group_name_H-M   'P 1'
_cell_length_a   15.46176898
_cell_length_b   15.46140411
_cell_length_c   15.28662289
_cell_angle_alpha   89.99418812
_cell_angle_beta   89.99575523
_cell_angle_gamma   90.00599869
_symmetry_Int_Tables_number   1
_chemical_formula_structural   Ca2Al2SiO7
_chemical_formula_sum   'Ca48 Al48 Si24 O168'
_cell_volume   3654.43008473
_cell_formula_units_Z   24
loop_
 _symmetry_equiv_pos_site_id
 _symmetry_equiv_pos_as_xyz
  1  'x, y, z'
loop_
 _atom_type_symbol
 _atom_type_oxidation_number
  Ca2+  2.0
  Al0+  0.0
  Si0+  0.0
  O2-  -2.0
loop_
 _atom_site_type_symbol
 _atom_site_label
 _atom_site_symmetry_multiplicity
 _atom_site_fract_x
 _atom_site_fract_y
 _atom_site_fract_z
 _atom_site_occupancy
  Ca2+  Ca0  1  0.16990881  0.08045701  0.17571725  1
  Ca2+  Ca1  1  0.17158974  0.07491887  0.50229247  1
  Ca2+  Ca2  1  0.17359748  0.07349339  0.84263805  1
  Ca2+  Ca3  1  0.16631530  0.58162724  0.16638503  1
  Ca2+  Ca4  1  0.16882613  0.57711381  0.50217866  1
  Ca2+  Ca5  1  0.17447062  0.58729925  0.84156318  1
  Ca2+  Ca6  1  0.67194061  0.08596722  0.17121885  1
  Ca2+  Ca7  1  0.68229766  0.08455393  0.50264829  1
  Ca2+  Ca8  1  0.67207166  0.09063622  0.83726928  1
  Ca2+  Ca9  1  0.66678143  0.57719038  0.17580416  1
  Ca2+  Ca10  1  0.66943465  0.57624262  0.50447913  1
  Ca2+  Ca11  1  0.67238157  0.57883966  0.83337866  1
  Ca2+  Ca12  1  0.08130256  0.32322944  0.16248668  1
  Ca2+  Ca13  1  0.07670532  0.32645069  0.48545057  1
  Ca2+  Ca14  1  0.08181535  0.32711576  0.83322661  1
  Ca2+  Ca15  1  0.08469783  0.83658238  0.16335996  1
  Ca2+  Ca16  1  0.08386070  0.83671202  0.49412718  1
  Ca2+  Ca17  1  0.09579280  0.83108256  0.83458682  1
  Ca2+  Ca18  1  0.58341449  0.32794766  0.16324563  1
  Ca2+  Ca19  1  0.58451142  0.33826309  0.49578644  1
  Ca2+  Ca20  1  0.58310900  0.33029450  0.83174251  1
  Ca2+  Ca21  1  0.56933138  0.83184455  0.16461287  1
  Ca2+  Ca22  1  0.57563210  0.82416487  0.48636147  1
  Ca2+  Ca23  1  0.57301392  0.83454021  0.83081754  1
  Ca2+  Ca24  1  0.32708968  0.42248801  0.17276250  1
  Ca2+  Ca25  1  0.32495921  0.42018932  0.50238704  1
  Ca2+  Ca26  1  0.33669088  0.43140440  0.83742925  1
  Ca2+  Ca27  1  0.32657968  0.92213543  0.17051146  1
  Ca2+  Ca28  1  0.32644761  0.92174156  0.50135653  1
  Ca2+  Ca29  1  0.32534365  0.92135359  0.84246029  1
  Ca2+  Ca30  1  0.83160553  0.40876422  0.17442528  1
  Ca2+  Ca31  1  0.82259742  0.41511689  0.50396210  1
  Ca2+  Ca32  1  0.83229834  0.41540563  0.83543304  1
  Ca2+  Ca33  1  0.83629671  0.92300291  0.17683691  1
  Ca2+  Ca34  1  0.84394711  0.92873404  0.50012177  1
  Ca2+  Ca35  1  0.83147273  0.92318975  0.83411486  1
  Ca2+  Ca36  1  0.41992817  0.15977294  0.15902707  1
  Ca2+  Ca37  1  0.41466591  0.16220173  0.49531444  1
  Ca2+  Ca38  1  0.41970565  0.15695445  0.83155012  1
  Ca2+  Ca39  1  0.41163142  0.67813086  0.16313840  1
  Ca2+  Ca40  1  0.42036966  0.66994692  0.49078091  1
  Ca2+  Ca41  1  0.40475152  0.67221879  0.83085860  1
  Ca2+  Ca42  1  0.92820694  0.17179900  0.16562924  1
  Ca2+  Ca43  1  0.92184291  0.16638404  0.48818031  1
  Ca2+  Ca44  1  0.92197991  0.16692812  0.83360874  1
  Ca2+  Ca45  1  0.92361177  0.67464161  0.16253110  1
  Ca2+  Ca46  1  0.91208223  0.67518222  0.49338347  1
  Ca2+  Ca47  1  0.92343017  0.66531836  0.82940679  1
  Al0+  Al48  1  -0.00227949  0.00140846  -0.00115612  1
  Al0+  Al49  1  0.00140077  -0.00023757  0.33259950  1
  Al0+  Al50  1  -0.00010813  -0.00108524  0.67575063  1
  Al0+  Al51  1  -0.00117631  0.50277724  -0.00788572  1
  Al0+  Al52  1  -0.00165565  0.50122737  0.33489501  1
  Al0+  Al53  1  -0.00097493  0.49899459  0.66685654  1
  Al0+  Al54  1  0.50113617  -0.00129911  -0.00675271  1
  Al0+  Al55  1  0.50090139  -0.00076022  0.33316915  1
  Al0+  Al56  1  0.50086257  -0.00038638  0.66358803  1
  Al0+  Al57  1  0.50244375  0.50069311  0.00495119  1
  Al0+  Al58  1  0.50195077  0.49844737  0.33297652  1
  Al0+  Al59  1  0.49963270  0.49876093  0.67336110  1
  Al0+  Al60  1  0.25101482  0.25231292  -0.00374325  1
  Al0+  Al61  1  0.25107758  0.25130734  0.33751584  1
  Al0+  Al62  1  0.25112762  0.24881509  0.66796570  1
  Al0+  Al63  1  0.24973497  0.75099396  0.00116392  1
  Al0+  Al64  1  0.25077908  0.75063130  0.33346950  1
  Al0+  Al65  1  0.24885665  0.74927804  0.66769945  1
  Al0+  Al66  1  0.74835502  0.25061810  -0.00711941  1
  Al0+  Al67  1  0.74932718  0.25056607  0.33907132  1
  Al0+  Al68  1  0.74924528  0.24926012  0.67380447  1
  Al0+  Al69  1  0.74880459  0.74907314  0.00014274  1
  Al0+  Al70  1  0.74973355  0.74931661  0.32359643  1
  Al0+  Al71  1  0.75015485  0.74920911  0.66886705  1
  Al0+  Al72  1  0.32334310  0.07179645  0.68269508  1
  Al0+  Al73  1  0.67885188  0.42902843  0.68495129  1
  Al0+  Al74  1  0.06932044  0.68261176  0.98622316  1
  Al0+  Al75  1  0.17671218  0.42914014  0.34502345  1
  Al0+  Al76  1  0.43025393  0.81823961  0.98412708  1
  Al0+  Al77  1  0.32304284  0.07274009  0.01470711  1
  Al0+  Al78  1  0.31852025  0.56883269  0.67807063  1
  Al0+  Al79  1  0.07376910  0.17746937  0.98316995  1
  Al0+  Al80  1  0.67986818  0.42932161  0.34620622  1
  Al0+  Al81  1  0.82016504  0.06959278  0.34414013  1
  Al0+  Al82  1  0.07345008  0.17940991  0.32065329  1
  Al0+  Al83  1  0.17777918  0.93083208  0.01788395  1
  Al0+  Al84  1  0.17885811  0.92801207  0.34864720  1
  Al0+  Al85  1  0.17954045  0.92908025  0.68342031  1
  Al0+  Al86  1  0.57092713  0.67604864  0.31775259  1
  Al0+  Al87  1  0.82204758  0.57271471  0.68200581  1
  Al0+  Al88  1  0.32415307  0.07217516  0.34817494  1
  Al0+  Al89  1  0.56816285  0.17994596  0.98642459  1
  Al0+  Al90  1  0.42757861  0.82216587  0.31767678  1
  Al0+  Al91  1  0.93075730  0.82161384  0.32104134  1
  Al0+  Al92  1  0.92896324  0.32075497  0.98359146  1
  Al0+  Al93  1  0.82062350  0.07030104  0.68237712  1
  Al0+  Al94  1  0.92665182  0.32175997  0.32167237  1
  Al0+  Al95  1  0.32142421  0.57112598  0.01574974  1
  Si0+  Si96  1  0.92821249  0.82056109  0.65281208  1
  Si0+  Si97  1  0.82195656  0.57490521  0.34775544  1
  Si0+  Si98  1  0.57337997  0.67589853  0.98060293  1
  Si0+  Si99  1  0.42989743  0.32210652  0.65116673  1
  Si0+  Si100  1  0.92412094  0.82327740  0.98171769  1
  Si0+  Si101  1  0.17560159  0.42948197  0.01471031  1
  Si0+  Si102  1  0.57087450  0.67831515  0.65284396  1
  Si0+  Si103  1  0.42861922  0.32142276  0.31995173  1
  Si0+  Si104  1  0.07309175  0.67639482  0.31820798  1
  Si0+  Si105  1  0.67895583  0.92743687  0.01466422  1
  Si0+  Si106  1  0.57114698  0.17982190  0.32153551  1
  Si0+  Si107  1  0.81814967  0.07197850  0.01571455  1
  Si0+  Si108  1  0.67839277  0.92615130  0.34777874  1
  Si0+  Si109  1  0.67745545  0.92714333  0.68160303  1
  Si0+  Si110  1  0.42816522  0.82032610  0.64988777  1
  Si0+  Si111  1  0.42804361  0.32615159  0.98392351  1
  Si0+  Si112  1  0.82231915  0.57211630  0.01644195  1
  Si0+  Si113  1  0.32174164  0.57069253  0.34862748  1
  Si0+  Si114  1  0.07043210  0.17791054  0.65171002  1
  Si0+  Si115  1  0.92838261  0.32007819  0.65033586  1
  Si0+  Si116  1  0.68194896  0.42893803  0.01687841  1
  Si0+  Si117  1  0.07163253  0.67816357  0.65050306  1
  Si0+  Si118  1  0.57204510  0.17885806  0.64905653  1
  Si0+  Si119  1  0.17628688  0.42628214  0.68341738  1
  O2-  O120  1  0.24592945  0.00756077  0.06590488  1
  O2-  O121  1  0.25160802  0.00019234  0.39705142  1
  O2-  O122  1  0.25206264  0.00037960  0.73269425  1
  O2-  O123  1  0.24785482  0.49424283  0.05985105  1
  O2-  O124  1  0.25065287  0.50461433  0.39283164  1
  O2-  O125  1  0.24339573  0.49615127  0.72744806  1
  O2-  O126  1  0.75174929  -0.00370351  0.05724467  1
  O2-  O127  1  0.74891232  -0.00805658  0.39319272  1
  O2-  O128  1  0.74356799  -0.00292321  0.72784946  1
  O2-  O129  1  0.75290100  0.49981505  0.05892550  1
  O2-  O130  1  0.75439583  0.50475485  0.39142355  1
  O2-  O131  1  0.75314677  0.49902056  0.73430205  1
  O2-  O132  1  0.00273386  0.25424125  0.27253034  1
  O2-  O133  1  0.00045056  0.25018369  0.60846554  1
  O2-  O134  1  0.00214229  0.25050903  0.93260154  1
  O2-  O135  1  0.00604705  0.74736687  0.27519828  1
  O2-  O136  1  -0.00152571  0.74830887  0.61051889  1
  O2-  O137  1  -0.00392937  0.75834054  0.93746408  1
  O2-  O138  1  0.49583519  0.24610715  0.27919278  1
  O2-  O139  1  0.49909431  0.24881003  0.60809625  1
  O2-  O140  1  0.48984532  0.25108317  0.93946389  1
  O2-  O141  1  0.49850734  0.74776443  0.26874690  1
  O2-  O142  1  0.50031922  0.74909335  0.60955379  1
  O2-  O143  1  0.50292966  0.74154187  0.93508064  1
  O2-  O144  1  0.07183483  0.17794373  0.09650680  1
  O2-  O145  1  0.07060129  0.17950534  0.43504605  1
  O2-  O146  1  0.06878526  0.18027509  0.75658507  1
  O2-  O147  1  0.06570766  0.68025724  0.09921429  1
  O2-  O148  1  0.07165029  0.67470033  0.42412970  1
  O2-  O149  1  0.07277740  0.67874968  0.75545126  1
  O2-  O150  1  0.57256154  0.18293997  0.09982989  1
  O2-  O151  1  0.57303502  0.18199864  0.42678121  1
  O2-  O152  1  0.57216433  0.17927454  0.75411524  1
  O2-  O153  1  0.57557080  0.67723065  0.08575128  1
  O2-  O154  1  0.56954442  0.67645911  0.43239352  1
  O2-  O155  1  0.57140565  0.68064828  0.75790685  1
  O2-  O156  1  0.17969729  0.42959776  0.23203016  1
  O2-  O157  1  0.17695994  0.42729355  0.57757508  1
  O2-  O158  1  0.17587671  0.43262902  0.90879569  1
  O2-  O159  1  0.17833087  0.92870621  0.23574067  1
  O2-  O160  1  0.17855984  0.92878282  0.57003917  1
  O2-  O161  1  0.18197683  0.92914316  0.90428619  1
  O2-  O162  1  0.68046993  0.42704238  0.23305962  1
  O2-  O163  1  0.67846724  0.43019903  0.57129572  1
  O2-  O164  1  0.68141246  0.43011678  0.91192720  1
  O2-  O165  1  0.67818104  0.93003292  0.24208771  1
  O2-  O166  1  0.67822809  0.92710874  0.57619550  1
  O2-  O167  1  0.68078578  0.92684565  0.90918995  1
  O2-  O168  1  0.43246004  0.33011995  0.08944778  1
  O2-  O169  1  0.43083169  0.32499371  0.42532157  1
  O2-  O170  1  0.43195217  0.32468052  0.75604773  1
  O2-  O171  1  0.43298932  0.81835917  0.09657479  1
  O2-  O172  1  0.42991779  0.81937246  0.43211581  1
  O2-  O173  1  0.42919216  0.81961649  0.75511857  1
  O2-  O174  1  0.92670299  0.31840678  0.09688757  1
  O2-  O175  1  0.92584262  0.31859394  0.43578562  1
  O2-  O176  1  0.93015992  0.32013269  0.75534466  1
  O2-  O177  1  0.92028448  0.82025192  0.08715050  1
  O2-  O178  1  0.92947746  0.82008626  0.43471565  1
  O2-  O179  1  0.92537961  0.81930769  0.75770679  1
  O2-  O180  1  0.32686713  0.07237774  0.23514127  1
  O2-  O181  1  0.32278941  0.07076487  0.56935576  1
  O2-  O182  1  0.32461582  0.06691872  0.90129470  1
  O2-  O183  1  0.32193938  0.56852308  0.24318278  1
  O2-  O184  1  0.31822893  0.56695677  0.56487925  1
  O2-  O185  1  0.32001601  0.56967720  0.90218850  1
  O2-  O186  1  0.81633271  0.07033485  0.23106823  1
  O2-  O187  1  0.82153785  0.06989722  0.56920692  1
  O2-  O188  1  0.81562757  0.07101064  0.91020213  1
  O2-  O189  1  0.82164741  0.57534109  0.24213945  1
  O2-  O190  1  0.81859057  0.57576157  0.56854317  1
  O2-  O191  1  0.81957990  0.57354537  0.91140819  1
  O2-  O192  1  0.04157793  0.08322244  0.26719097  1
  O2-  O193  1  0.03941920  0.08526410  0.60823007  1
  O2-  O194  1  0.03996401  0.08041190  0.92955889  1
  O2-  O195  1  0.04521422  0.58447616  0.27003051  1
  O2-  O196  1  0.04625209  0.58473476  0.60408582  1
  O2-  O197  1  0.03809093  0.58811292  0.92775047  1
  O2-  O198  1  0.55001479  0.08663323  0.27407338  1
  O2-  O199  1  0.54822582  0.08594676  0.60113458  1
  O2-  O200  1  0.54480732  0.08309800  0.92906114  1
  O2-  O201  1  0.54416548  0.57722439  0.26468950  1
  O2-  O202  1  0.54198650  0.58554382  0.60812074  1
  O2-  O203  1  0.55096282  0.58047642  0.93728135  1
  O2-  O204  1  0.17213793  0.20820943  0.26890397  1
  O2-  O205  1  0.16387521  0.20381499  0.60620963  1
  O2-  O206  1  0.17226154  0.20575308  0.92888682  1
  O2-  O207  1  0.16759893  0.69832332  0.27333904  1
  O2-  O208  1  0.16230498  0.70706314  0.60126026  1
  O2-  O209  1  0.16610850  0.71182661  0.93180972  1
  O2-  O210  1  0.66046478  0.21298694  0.27289361  1
  O2-  O211  1  0.66440399  0.20904812  0.60357258  1
  O2-  O212  1  0.66141826  0.21572560  0.92836192  1
  O2-  O213  1  0.66809953  0.70265614  0.26178102  1
  O2-  O214  1  0.66299842  0.70595618  0.60541989  1
  O2-  O215  1  0.66646980  0.70451337  0.93386048  1
  O2-  O216  1  0.08303482  0.46065680  0.05928174  1
  O2-  O217  1  0.08069816  0.45930597  0.40170773  1
  O2-  O218  1  0.08220314  0.44978032  0.72822299  1
  O2-  O219  1  0.07448340  0.95169350  0.06436165  1
  O2-  O220  1  0.08066044  0.95644634  0.40211721  1
  O2-  O221  1  0.08168923  0.95450866  0.73818137  1
  O2-  O222  1  0.59042877  0.45581545  0.06521181  1
  O2-  O223  1  0.58324583  0.45890446  0.40184553  1
  O2-  O224  1  0.58204391  0.45885532  0.73970380  1
  O2-  O225  1  0.58842912  0.95859352  0.06085574  1
  O2-  O226  1  0.58647420  0.95290088  0.39601491  1
  O2-  O227  1  0.58357880  0.95162814  0.72712835  1
  O2-  O228  1  0.19779821  0.33444290  0.05829856  1
  O2-  O229  1  0.20974979  0.33561741  0.40333682  1
  O2-  O230  1  0.20357684  0.33351720  0.72911629  1
  O2-  O231  1  0.20904975  0.83279441  0.06869631  1
  O2-  O232  1  0.20587506  0.82850773  0.40191206  1
  O2-  O233  1  0.20835784  0.82991023  0.73409474  1
  O2-  O234  1  0.71002964  0.33621378  0.06202919  1
  O2-  O235  1  0.71024932  0.33502908  0.40504996  1
  O2-  O236  1  0.70551734  0.33076415  0.73816212  1
  O2-  O237  1  0.70356990  0.83460207  0.06193325  1
  O2-  O238  1  0.70131521  0.83052866  0.39041959  1
  O2-  O239  1  0.70406341  0.83496318  0.72994675  1
  O2-  O240  1  0.46082384  0.41036762  0.26975583  1
  O2-  O241  1  0.46060190  0.41325867  0.60324196  1
  O2-  O242  1  0.46356368  0.41664528  0.93582787  1
  O2-  O243  1  0.46059745  0.91916606  0.26443825  1
  O2-  O244  1  0.45682651  0.91186866  0.60241097  1
  O2-  O245  1  0.46583004  0.91202491  0.92733709  1
  O2-  O246  1  0.94789548  0.42289739  0.27167067  1
  O2-  O247  1  0.95303699  0.41340850  0.60371795  1
  O2-  O248  1  0.95373494  0.41995351  0.92986658  1
  O2-  O249  1  0.95917704  0.91717686  0.26490333  1
  O2-  O250  1  0.95782835  0.91314388  0.60776459  1
  O2-  O251  1  0.94352647  0.91880640  0.93798981  1
  O2-  O252  1  0.33596903  0.29946660  0.27288438  1
  O2-  O253  1  0.33657434  0.29712213  0.60420726  1
  O2-  O254  1  0.33230852  0.31230977  0.93861312  1
  O2-  O255  1  0.32965227  0.79319218  0.26476219  1
  O2-  O256  1  0.33688125  0.78999585  0.60357803  1
  O2-  O257  1  0.33407484  0.78641339  0.93065728  1
  O2-  O258  1  0.82938165  0.28878727  0.26892884  1
  O2-  O259  1  0.83470651  0.29123331  0.60756299  1
  O2-  O260  1  0.83202257  0.28962588  0.92834688  1
  O2-  O261  1  0.83518139  0.79291183  0.26338755  1
  O2-  O262  1  0.83607693  0.79390388  0.60449066  1
  O2-  O263  1  0.83176584  0.79310992  0.93433766  1
  O2-  O264  1  0.42253977  0.04001419  0.06371618  1
  O2-  O265  1  0.42327364  0.04380220  0.40166002  1
  O2-  O266  1  0.42422929  0.04479466  0.73105347  1
  O2-  O267  1  0.41917244  0.54256420  0.06874897  1
  O2-  O268  1  0.41420455  0.54110419  0.39458987  1
  O2-  O269  1  0.41343416  0.53845022  0.73507829  1
  O2-  O270  1  0.91119805  0.04860524  0.06124730  1
  O2-  O271  1  0.91590053  0.03915449  0.39935919  1
  O2-  O272  1  0.91380082  0.03681082  0.73993281  1
  O2-  O273  1  0.91532743  0.54685385  0.06129925  1
  O2-  O274  1  0.91560713  0.55419097  0.39532541  1
  O2-  O275  1  0.92146772  0.54551230  0.73372296  1
  O2-  O276  1  0.30631016  0.17719452  0.05994915  1
  O2-  O277  1  0.29912373  0.17130193  0.40147820  1
  O2-  O278  1  0.29952134  0.17217479  0.73357649  1
  O2-  O279  1  0.28710493  0.66581068  0.06919929  1
  O2-  O280  1  0.29921918  0.66467823  0.39452335  1
  O2-  O281  1  0.28790259  0.66476576  0.73223063  1
  O2-  O282  1  0.78311768  0.16241846  0.06016743  1
  O2-  O283  1  0.78525185  0.16272395  0.40219049  1
  O2-  O284  1  0.78870609  0.16495526  0.73840259  1
  O2-  O285  1  0.79281561  0.66373740  0.06383326  1
  O2-  O286  1  0.79318760  0.66809711  0.39370045  1
  O2-  O287  1  0.79212784  0.66996274  0.73719823  1
