# generated using pymatgen
data_Ca2Al2SiO7
_symmetry_space_group_name_H-M   'P 1'
_cell_length_a   15.46850834
_cell_length_b   15.46927328
_cell_length_c   15.29242839
_cell_angle_alpha   90.01937461
_cell_angle_beta   90.00405270
_cell_angle_gamma   90.01105970
_symmetry_Int_Tables_number   1
_chemical_formula_structural   Ca2Al2SiO7
_chemical_formula_sum   'Ca48 Al48 Si24 O168'
_cell_volume   3659.27264569
_cell_formula_units_Z   24
loop_
 _symmetry_equiv_pos_site_id
 _symmetry_equiv_pos_as_xyz
  1  'x, y, z'
loop_
 _atom_type_symbol
 _atom_type_oxidation_number
  Ca2+  2.0
  Al0+  0.0
  Si0+  0.0
  O2-  -2.0
loop_
 _atom_site_type_symbol
 _atom_site_label
 _atom_site_symmetry_multiplicity
 _atom_site_fract_x
 _atom_site_fract_y
 _atom_site_fract_z
 _atom_site_occupancy
  Ca2+  Ca0  1  0.17413851  0.07499665  0.17853831  1
  Ca2+  Ca1  1  0.17630222  0.07007733  0.50250452  1
  Ca2+  Ca2  1  0.16821128  0.07495018  0.83336653  1
  Ca2+  Ca3  1  0.16416504  0.58737910  0.17036380  1
  Ca2+  Ca4  1  0.16469998  0.58894325  0.50464958  1
  Ca2+  Ca5  1  0.16504484  0.59074467  0.83537835  1
  Ca2+  Ca6  1  0.67325931  0.08538019  0.16371265  1
  Ca2+  Ca7  1  0.67544649  0.08353199  0.50835045  1
  Ca2+  Ca8  1  0.66939709  0.07844524  0.83572507  1
  Ca2+  Ca9  1  0.66827228  0.57399221  0.16754154  1
  Ca2+  Ca10  1  0.65579589  0.56939428  0.50331394  1
  Ca2+  Ca11  1  0.66791336  0.57310455  0.84224334  1
  Ca2+  Ca12  1  0.08048029  0.32831769  0.16180946  1
  Ca2+  Ca13  1  0.07960192  0.32872770  0.49685296  1
  Ca2+  Ca14  1  0.07933993  0.32845274  0.82950963  1
  Ca2+  Ca15  1  0.07890771  0.82719851  0.16183878  1
  Ca2+  Ca16  1  0.08387108  0.83133328  0.49833934  1
  Ca2+  Ca17  1  0.06937592  0.82826055  0.82702484  1
  Ca2+  Ca18  1  0.57894700  0.33054133  0.15900825  1
  Ca2+  Ca19  1  0.58163154  0.33052709  0.49697286  1
  Ca2+  Ca20  1  0.58655116  0.32693287  0.82611486  1
  Ca2+  Ca21  1  0.57743827  0.84312987  0.16193896  1
  Ca2+  Ca22  1  0.57333617  0.84581535  0.50000339  1
  Ca2+  Ca23  1  0.58224593  0.84079686  0.82459955  1
  Ca2+  Ca24  1  0.33651709  0.41372729  0.17171295  1
  Ca2+  Ca25  1  0.33812032  0.41495868  0.50441576  1
  Ca2+  Ca26  1  0.33607978  0.41163898  0.83629250  1
  Ca2+  Ca27  1  0.32862345  0.92308206  0.17996997  1
  Ca2+  Ca28  1  0.32587448  0.90645615  0.50344664  1
  Ca2+  Ca29  1  0.32670486  0.90786971  0.83354904  1
  Ca2+  Ca30  1  0.82083664  0.41890757  0.16819130  1
  Ca2+  Ca31  1  0.82001679  0.41832802  0.50495802  1
  Ca2+  Ca32  1  0.82068513  0.42301832  0.83945074  1
  Ca2+  Ca33  1  0.83300544  0.92345825  0.16750084  1
  Ca2+  Ca34  1  0.83141674  0.92635764  0.51080524  1
  Ca2+  Ca35  1  0.82939011  0.92057845  0.84068862  1
  Ca2+  Ca36  1  0.41969882  0.17454655  0.15797643  1
  Ca2+  Ca37  1  0.42131812  0.17305660  0.49478922  1
  Ca2+  Ca38  1  0.43338312  0.17581074  0.82756187  1
  Ca2+  Ca39  1  0.41784515  0.67431253  0.16766595  1
  Ca2+  Ca40  1  0.41793057  0.67835027  0.49923672  1
  Ca2+  Ca41  1  0.42189416  0.67250061  0.82754713  1
  Ca2+  Ca42  1  0.91266106  0.16083505  0.16332198  1
  Ca2+  Ca43  1  0.91127244  0.16132307  0.49695206  1
  Ca2+  Ca44  1  0.90723070  0.16378176  0.82922639  1
  Ca2+  Ca45  1  0.92523882  0.66953651  0.15427823  1
  Ca2+  Ca46  1  0.92593644  0.67288533  0.49660849  1
  Ca2+  Ca47  1  0.91713725  0.67508067  0.82835587  1
  Al0+  Al48  1  0.00133072  -0.00258154  0.00047909  1
  Al0+  Al49  1  0.00144154  -0.00102746  0.33984130  1
  Al0+  Al50  1  0.00346585  0.00006280  0.67039634  1
  Al0+  Al51  1  0.00299367  0.49732294  -0.00024449  1
  Al0+  Al52  1  -0.00072251  0.49928332  0.32993688  1
  Al0+  Al53  1  0.00137037  0.49805257  0.66421168  1
  Al0+  Al54  1  0.49835733  0.00386968  -0.00204350  1
  Al0+  Al55  1  0.50200315  0.00402093  0.33028076  1
  Al0+  Al56  1  0.50041658  0.00404214  0.66055444  1
  Al0+  Al57  1  0.49521165  0.50338667  0.00217082  1
  Al0+  Al58  1  0.49815129  0.49921338  0.33311817  1
  Al0+  Al59  1  0.49722464  0.50048446  0.66937224  1
  Al0+  Al60  1  0.24944481  0.25039200  -0.00381991  1
  Al0+  Al61  1  0.24863363  0.25015205  0.33404123  1
  Al0+  Al62  1  0.24891292  0.25066675  0.66479911  1
  Al0+  Al63  1  0.24930153  0.74829427  -0.00071538  1
  Al0+  Al64  1  0.25105979  0.74814682  0.32880706  1
  Al0+  Al65  1  0.25139689  0.74843514  0.66650247  1
  Al0+  Al66  1  0.75008810  0.24896732  0.00343013  1
  Al0+  Al67  1  0.74932158  0.25156389  0.33952830  1
  Al0+  Al68  1  0.74976756  0.25181052  0.66937781  1
  Al0+  Al69  1  0.74843940  0.75022110  0.00559068  1
  Al0+  Al70  1  0.75073545  0.74889639  0.33350060  1
  Al0+  Al71  1  0.75092316  0.74891464  0.66133076  1
  Al0+  Al72  1  0.57367287  0.18080915  0.64842122  1
  Al0+  Al73  1  0.43193996  0.82215786  0.31935999  1
  Al0+  Al74  1  0.42877431  0.32198217  0.65030620  1
  Al0+  Al75  1  0.18251577  0.92632666  0.34871607  1
  Al0+  Al76  1  0.67514544  0.92850446  0.01485524  1
  Al0+  Al77  1  0.32375820  0.07394055  0.34782352  1
  Al0+  Al78  1  0.07005866  0.67902097  0.65099441  1
  Al0+  Al79  1  0.82298427  0.57161830  0.01402654  1
  Al0+  Al80  1  0.92660071  0.82091215  0.98585120  1
  Al0+  Al81  1  0.67643110  0.42920714  0.01542826  1
  Al0+  Al82  1  0.57289613  0.18037018  0.98352619  1
  Al0+  Al83  1  0.07158057  0.67716661  0.98368902  1
  Al0+  Al84  1  0.67779601  0.43230739  0.68106986  1
  Al0+  Al85  1  0.67739161  0.92782904  0.67879428  1
  Al0+  Al86  1  0.82289271  0.06955685  0.01566433  1
  Al0+  Al87  1  0.92727568  0.82356443  0.65000592  1
  Al0+  Al88  1  0.06952667  0.67877595  0.31787934  1
  Al0+  Al89  1  0.42825631  0.31984338  0.31831284  1
  Al0+  Al90  1  0.18261737  0.92688695  0.68295949  1
  Al0+  Al91  1  0.42794089  0.32346220  0.98427567  1
  Al0+  Al92  1  0.82207025  0.07054213  0.68231480  1
  Al0+  Al93  1  0.67838400  0.43195698  0.34793286  1
  Al0+  Al94  1  0.43133943  0.82155947  0.65502916  1
  Al0+  Al95  1  0.81981284  0.06900228  0.34731010  1
  Si0+  Si96  1  0.92810983  0.31989439  0.31831817  1
  Si0+  Si97  1  0.82425174  0.57195558  0.35056493  1
  Si0+  Si98  1  0.31898535  0.56997930  0.68287939  1
  Si0+  Si99  1  0.17635536  0.42845545  0.34855335  1
  Si0+  Si100  1  0.82535266  0.57077132  0.68065735  1
  Si0+  Si101  1  0.92768162  0.82373248  0.31630553  1
  Si0+  Si102  1  0.18032749  0.42627840  0.01554991  1
  Si0+  Si103  1  0.18089953  0.92734328  0.01571461  1
  Si0+  Si104  1  0.56982565  0.67954289  0.98740726  1
  Si0+  Si105  1  0.57171716  0.67634680  0.31681446  1
  Si0+  Si106  1  0.06959884  0.17867050  0.31946262  1
  Si0+  Si107  1  0.42947629  0.82231323  0.98633184  1
  Si0+  Si108  1  0.07267687  0.17800545  0.65061956  1
  Si0+  Si109  1  0.31936931  0.56926835  0.34908709  1
  Si0+  Si110  1  0.31803694  0.07186610  0.01314535  1
  Si0+  Si111  1  0.32153181  0.07514549  0.68433638  1
  Si0+  Si112  1  0.17749340  0.42750502  0.68221941  1
  Si0+  Si113  1  0.57519810  0.18056252  0.31458426  1
  Si0+  Si114  1  0.57289965  0.67634259  0.65223749  1
  Si0+  Si115  1  0.07187251  0.17758191  0.98575309  1
  Si0+  Si116  1  0.92985588  0.31945407  0.98589060  1
  Si0+  Si117  1  0.67718830  0.92548640  0.34937300  1
  Si0+  Si118  1  0.93020585  0.31958754  0.65204322  1
  Si0+  Si119  1  0.31861553  0.57302124  0.01740428  1
  O2-  O120  1  0.25035103  -0.00071664  0.05797105  1
  O2-  O121  1  0.25883883  -0.00483065  0.39758510  1
  O2-  O122  1  0.25874400  0.00103404  0.72985666  1
  O2-  O123  1  0.24979941  0.49861710  0.05785950  1
  O2-  O124  1  0.24727333  0.49896771  0.39105282  1
  O2-  O125  1  0.24858810  0.49782939  0.72448383  1
  O2-  O126  1  0.75034260  -0.00238576  0.06471768  1
  O2-  O127  1  0.74798717  -0.00807836  0.39280411  1
  O2-  O128  1  0.75308050  -0.00510304  0.73042639  1
  O2-  O129  1  0.74979260  0.50077480  0.06484634  1
  O2-  O130  1  0.75046610  0.50937462  0.39536163  1
  O2-  O131  1  0.75017797  0.50999775  0.72563448  1
  O2-  O132  1  -0.00246129  0.24754488  0.27535436  1
  O2-  O133  1  -0.00288102  0.24480705  0.60927761  1
  O2-  O134  1  -0.00346899  0.24392795  0.94344942  1
  O2-  O135  1  -0.00668543  0.75181343  0.27212730  1
  O2-  O136  1  -0.00042832  0.75108704  0.60003358  1
  O2-  O137  1  -0.00494301  0.74472279  0.93635536  1
  O2-  O138  1  0.50068742  0.24395286  0.27138739  1
  O2-  O139  1  0.50028454  0.25189430  0.59854533  1
  O2-  O140  1  0.50586533  0.25854946  0.93529895  1
  O2-  O141  1  0.51080845  0.75196132  0.27175428  1
  O2-  O142  1  0.51265219  0.75315811  0.60898622  1
  O2-  O143  1  0.50512074  0.75630230  0.94474872  1
  O2-  O144  1  0.07531485  0.18119999  0.09103463  1
  O2-  O145  1  0.07000734  0.18225262  0.42434356  1
  O2-  O146  1  0.07690255  0.18223155  0.75595817  1
  O2-  O147  1  0.07441431  0.68065024  0.09739699  1
  O2-  O148  1  0.06874574  0.67641103  0.43047148  1
  O2-  O149  1  0.06824909  0.67763171  0.76410415  1
  O2-  O150  1  0.56852952  0.17949958  0.09743445  1
  O2-  O151  1  0.57787268  0.18416644  0.41972513  1
  O2-  O152  1  0.57409448  0.18288434  0.76181767  1
  O2-  O153  1  0.56401725  0.67613468  0.09237227  1
  O2-  O154  1  0.56683754  0.67226180  0.42215604  1
  O2-  O155  1  0.56772060  0.67204767  0.75785480  1
  O2-  O156  1  0.17557097  0.42719513  0.24332120  1
  O2-  O157  1  0.17574239  0.42670566  0.57712674  1
  O2-  O158  1  0.18043807  0.42235062  0.91069095  1
  O2-  O159  1  0.18134772  0.92956939  0.23446269  1
  O2-  O160  1  0.18440498  0.92685223  0.57012280  1
  O2-  O161  1  0.18301140  0.92724778  0.91072808  1
  O2-  O162  1  0.67957900  0.43249717  0.23516469  1
  O2-  O163  1  0.67901352  0.43319198  0.56766183  1
  O2-  O164  1  0.67834227  0.43163221  0.90188935  1
  O2-  O165  1  0.67744118  0.92582257  0.24388234  1
  O2-  O166  1  0.67778281  0.93158526  0.56508470  1
  O2-  O167  1  0.67237080  0.93018233  0.90187201  1
  O2-  O168  1  0.42356019  0.31912787  0.09786582  1
  O2-  O169  1  0.42855498  0.32145457  0.43078653  1
  O2-  O170  1  0.42797104  0.32123166  0.76347872  1
  O2-  O171  1  0.42715370  0.82002856  0.09146413  1
  O2-  O172  1  0.43044359  0.81707568  0.43216847  1
  O2-  O173  1  0.42840921  0.81595056  0.76853173  1
  O2-  O174  1  0.93403124  0.32052329  0.09128247  1
  O2-  O175  1  0.93107795  0.32094180  0.42349852  1
  O2-  O176  1  0.93406751  0.32159484  0.75727895  1
  O2-  O177  1  0.93273709  0.82321147  0.09971607  1
  O2-  O178  1  0.92943376  0.82372494  0.42149313  1
  O2-  O179  1  0.92777357  0.82212572  0.76339161  1
  O2-  O180  1  0.31753426  0.07419520  0.23341063  1
  O2-  O181  1  0.31576125  0.07854635  0.57917984  1
  O2-  O182  1  0.31428597  0.07128993  0.90837023  1
  O2-  O183  1  0.31908826  0.56888421  0.24373060  1
  O2-  O184  1  0.31893119  0.57042363  0.57777291  1
  O2-  O185  1  0.31787807  0.57722174  0.91260939  1
  O2-  O186  1  0.82036922  0.06990074  0.23459827  1
  O2-  O187  1  0.82053059  0.07169104  0.56851008  1
  O2-  O188  1  0.82531103  0.06894945  0.90305255  1
  O2-  O189  1  0.82634043  0.56792732  0.24529068  1
  O2-  O190  1  0.82943007  0.56409150  0.57518911  1
  O2-  O191  1  0.82106356  0.56848865  0.90018392  1
  O2-  O192  1  0.04384145  0.08595971  0.27289779  1
  O2-  O193  1  0.05053238  0.08528693  0.60414307  1
  O2-  O194  1  0.05085419  0.08403516  0.93992561  1
  O2-  O195  1  0.04136078  0.58042036  0.26417216  1
  O2-  O196  1  0.04435305  0.57863819  0.59888384  1
  O2-  O197  1  0.05336059  0.57451301  0.93520518  1
  O2-  O198  1  0.55705335  0.08506221  0.26984009  1
  O2-  O199  1  0.54629985  0.08337832  0.59362137  1
  O2-  O200  1  0.53618151  0.08481862  0.92913258  1
  O2-  O201  1  0.53627627  0.58714099  0.26783804  1
  O2-  O202  1  0.53430107  0.58803039  0.60323090  1
  O2-  O203  1  0.53404611  0.59154164  0.93705199  1
  O2-  O204  1  0.15948828  0.20979380  0.26993555  1
  O2-  O205  1  0.16049617  0.21307960  0.60047029  1
  O2-  O206  1  0.15970147  0.21170121  0.93457254  1
  O2-  O207  1  0.16680480  0.70733781  0.26418018  1
  O2-  O208  1  0.16980971  0.70588302  0.60048941  1
  O2-  O209  1  0.16930301  0.70978225  0.93117983  1
  O2-  O210  1  0.66658807  0.21411102  0.26838884  1
  O2-  O211  1  0.67162001  0.21360461  0.59645096  1
  O2-  O212  1  0.67371917  0.20326393  0.93371283  1
  O2-  O213  1  0.66918449  0.69227004  0.27499557  1
  O2-  O214  1  0.66876524  0.68725319  0.60663269  1
  O2-  O215  1  0.66403343  0.69781308  0.94254047  1
  O2-  O216  1  0.08866314  0.45108051  0.06474052  1
  O2-  O217  1  0.08437810  0.45581837  0.39618488  1
  O2-  O218  1  0.08618634  0.45485885  0.73127688  1
  O2-  O219  1  0.08958705  0.95481158  0.06295815  1
  O2-  O220  1  0.08619399  0.95876400  0.40242710  1
  O2-  O221  1  0.08797703  0.96135937  0.73783214  1
  O2-  O222  1  0.57769954  0.46077390  0.06659596  1
  O2-  O223  1  0.58131868  0.46301345  0.40131571  1
  O2-  O224  1  0.58093224  0.46175405  0.73472783  1
  O2-  O225  1  0.57662985  0.96126597  0.06771217  1
  O2-  O226  1  0.58361465  0.95346642  0.39336222  1
  O2-  O227  1  0.57800743  0.95807992  0.72989465  1
  O2-  O228  1  0.20870341  0.33493278  0.06491062  1
  O2-  O229  1  0.20263479  0.33694688  0.39691368  1
  O2-  O230  1  0.20437594  0.33581747  0.73085849  1
  O2-  O231  1  0.21097917  0.83619552  0.06283840  1
  O2-  O232  1  0.21098413  0.82708286  0.39963768  1
  O2-  O233  1  0.21578344  0.83101922  0.73712677  1
  O2-  O234  1  0.70659010  0.33177599  0.06825932  1
  O2-  O235  1  0.71374466  0.33822504  0.40358111  1
  O2-  O236  1  0.71428041  0.33830625  0.73468388  1
  O2-  O237  1  0.69516470  0.82851314  0.06847972  1
  O2-  O238  1  0.69642554  0.82946455  0.39378893  1
  O2-  O239  1  0.69609197  0.82400451  0.72568215  1
  O2-  O240  1  0.45823730  0.41752794  0.26538062  1
  O2-  O241  1  0.45403871  0.42259142  0.60020121  1
  O2-  O242  1  0.44450352  0.42678005  0.93742720  1
  O2-  O243  1  0.45678935  0.92077667  0.26543384  1
  O2-  O244  1  0.45221270  0.91947246  0.59996474  1
  O2-  O245  1  0.44941432  0.91545256  0.93933101  1
  O2-  O246  1  0.95852392  0.40976263  0.26894225  1
  O2-  O247  1  0.96378818  0.40802372  0.60171512  1
  O2-  O248  1  0.96387807  0.40789933  0.93624626  1
  O2-  O249  1  0.95811673  0.91664191  0.27127192  1
  O2-  O250  1  0.96019455  0.92220300  0.59998270  1
  O2-  O251  1  0.96203869  0.91721434  0.93219809  1
  O2-  O252  1  0.32866947  0.29343289  0.26659640  1
  O2-  O253  1  0.32821039  0.29568720  0.59971977  1
  O2-  O254  1  0.33068367  0.29023269  0.93062951  1
  O2-  O255  1  0.33770211  0.78560499  0.26363147  1
  O2-  O256  1  0.33855274  0.78078162  0.60029607  1
  O2-  O257  1  0.33984379  0.78696639  0.93926063  1
  O2-  O258  1  0.83609534  0.29244567  0.27211935  1
  O2-  O259  1  0.83805020  0.29564278  0.60471196  1
  O2-  O260  1  0.83709503  0.29609212  0.93968675  1
  O2-  O261  1  0.83190908  0.80217741  0.27245521  1
  O2-  O262  1  0.82918159  0.79675448  0.59437442  1
  O2-  O263  1  0.82543656  0.79759705  0.93674347  1
  O2-  O264  1  0.41008772  0.04692713  0.06005389  1
  O2-  O265  1  0.42589517  0.05575469  0.39523739  1
  O2-  O266  1  0.41772399  0.05520221  0.72524312  1
  O2-  O267  1  0.40989442  0.54923858  0.06748438  1
  O2-  O268  1  0.40997492  0.54046517  0.39734340  1
  O2-  O269  1  0.40965722  0.54330863  0.73306912  1
  O2-  O270  1  0.92306702  0.04260308  0.06850921  1
  O2-  O271  1  0.91774143  0.04342522  0.40137611  1
  O2-  O272  1  0.92382559  0.05119823  0.73210208  1
  O2-  O273  1  0.92179236  0.53957262  0.06554096  1
  O2-  O274  1  0.91538864  0.53871081  0.39748182  1
  O2-  O275  1  0.91550450  0.53668950  0.72907509  1
  O2-  O276  1  0.28653890  0.16281419  0.06063901  1
  O2-  O277  1  0.28658806  0.16902130  0.40203987  1
  O2-  O278  1  0.28719979  0.16573976  0.73213930  1
  O2-  O279  1  0.28750048  0.66294602  0.06791838  1
  O2-  O280  1  0.29169052  0.66085898  0.39605412  1
  O2-  O281  1  0.29027229  0.65998708  0.73296023  1
  O2-  O282  1  0.79711195  0.16883175  0.06898844  1
  O2-  O283  1  0.79036656  0.16610920  0.40122017  1
  O2-  O284  1  0.79312459  0.16958068  0.73369209  1
  O2-  O285  1  0.79680252  0.66905176  0.06937433  1
  O2-  O286  1  0.80575278  0.66819327  0.39383490  1
  O2-  O287  1  0.80728358  0.66757329  0.72112338  1
