# generated using pymatgen
data_Ca2Al2SiO7
_symmetry_space_group_name_H-M   'P 1'
_cell_length_a   15.45668179
_cell_length_b   15.45674194
_cell_length_c   15.28209726
_cell_angle_alpha   89.99302993
_cell_angle_beta   89.99273136
_cell_angle_gamma   89.98151942
_symmetry_Int_Tables_number   1
_chemical_formula_structural   Ca2Al2SiO7
_chemical_formula_sum   'Ca48 Al48 Si24 O168'
_cell_volume   3651.04471980
_cell_formula_units_Z   24
loop_
 _symmetry_equiv_pos_site_id
 _symmetry_equiv_pos_as_xyz
  1  'x, y, z'
loop_
 _atom_type_symbol
 _atom_type_oxidation_number
  Ca2+  2.0
  Al0+  0.0
  Si0+  0.0
  O2-  -2.0
loop_
 _atom_site_type_symbol
 _atom_site_label
 _atom_site_symmetry_multiplicity
 _atom_site_fract_x
 _atom_site_fract_y
 _atom_site_fract_z
 _atom_site_occupancy
  Ca2+  Ca0  1  0.16980942  0.09268331  0.16904823  1
  Ca2+  Ca1  1  0.16270300  0.08403338  0.50060457  1
  Ca2+  Ca2  1  0.16942975  0.08399370  0.84374364  1
  Ca2+  Ca3  1  0.17521422  0.59263401  0.17261761  1
  Ca2+  Ca4  1  0.16999083  0.59467881  0.50087154  1
  Ca2+  Ca5  1  0.16944091  0.58463927  0.84179363  1
  Ca2+  Ca6  1  0.67684155  0.08406843  0.17411621  1
  Ca2+  Ca7  1  0.67796482  0.08678285  0.50346552  1
  Ca2+  Ca8  1  0.68000120  0.07454947  0.84232268  1
  Ca2+  Ca9  1  0.66363784  0.57663567  0.17122037  1
  Ca2+  Ca10  1  0.66421202  0.57155387  0.50640745  1
  Ca2+  Ca11  1  0.66009438  0.58120040  0.83637924  1
  Ca2+  Ca12  1  0.07882211  0.32498608  0.16477256  1
  Ca2+  Ca13  1  0.06733670  0.32768178  0.49250775  1
  Ca2+  Ca14  1  0.07633106  0.32546105  0.82882729  1
  Ca2+  Ca15  1  0.07834373  0.82547299  0.16762540  1
  Ca2+  Ca16  1  0.07388137  0.82718679  0.49626563  1
  Ca2+  Ca17  1  0.08103838  0.82326037  0.82769247  1
  Ca2+  Ca18  1  0.58343147  0.32857617  0.16755631  1
  Ca2+  Ca19  1  0.58566921  0.33330786  0.49667975  1
  Ca2+  Ca20  1  0.57056095  0.33859156  0.82780617  1
  Ca2+  Ca21  1  0.57954472  0.83106669  0.15975508  1
  Ca2+  Ca22  1  0.57870610  0.82755642  0.49494635  1
  Ca2+  Ca23  1  0.59266695  0.82188847  0.83326309  1
  Ca2+  Ca24  1  0.33685124  0.42780408  0.16951131  1
  Ca2+  Ca25  1  0.33253248  0.42156629  0.50310394  1
  Ca2+  Ca26  1  0.33458601  0.41805246  0.84245341  1
  Ca2+  Ca27  1  0.33355729  0.91850549  0.17196940  1
  Ca2+  Ca28  1  0.33329273  0.91471436  0.50048804  1
  Ca2+  Ca29  1  0.33018922  0.92592568  0.84221709  1
  Ca2+  Ca30  1  0.82781241  0.41502085  0.17694390  1
  Ca2+  Ca31  1  0.82386441  0.40632656  0.50504662  1
  Ca2+  Ca32  1  0.82811797  0.41331321  0.83099969  1
  Ca2+  Ca33  1  0.83239508  0.92379965  0.17047441  1
  Ca2+  Ca34  1  0.84750605  0.92655737  0.50321441  1
  Ca2+  Ca35  1  0.83495138  0.92289447  0.83950545  1
  Ca2+  Ca36  1  0.42341037  0.17055436  0.15760913  1
  Ca2+  Ca37  1  0.42644592  0.17456432  0.49268086  1
  Ca2+  Ca38  1  0.41152596  0.17852788  0.83073496  1
  Ca2+  Ca39  1  0.41669281  0.66778538  0.16233662  1
  Ca2+  Ca40  1  0.42080500  0.66840556  0.49530475  1
  Ca2+  Ca41  1  0.42754385  0.65988284  0.83250735  1
  Ca2+  Ca42  1  0.92034197  0.16397309  0.16789231  1
  Ca2+  Ca43  1  0.91155435  0.17190164  0.49179892  1
  Ca2+  Ca44  1  0.91475433  0.16399397  0.83122264  1
  Ca2+  Ca45  1  0.92597945  0.66778789  0.16065526  1
  Ca2+  Ca46  1  0.92493648  0.67653421  0.49159718  1
  Ca2+  Ca47  1  0.92721307  0.67367754  0.82257623  1
  Al0+  Al48  1  0.00028707  -0.00005717  0.00051134  1
  Al0+  Al49  1  0.00187761  -0.00115679  0.33011143  1
  Al0+  Al50  1  0.00339314  -0.00132230  0.67118476  1
  Al0+  Al51  1  -0.00122978  0.49851216  -0.00498650  1
  Al0+  Al52  1  0.00101064  0.49938035  0.32609019  1
  Al0+  Al53  1  0.00116198  0.49711686  0.65922606  1
  Al0+  Al54  1  0.49997821  0.00004510  0.00517273  1
  Al0+  Al55  1  0.50101377  0.00027831  0.32722677  1
  Al0+  Al56  1  0.50104161  0.00051313  0.67020649  1
  Al0+  Al57  1  0.49819506  0.50019449  -0.00193969  1
  Al0+  Al58  1  0.49894281  0.50066394  0.34374354  1
  Al0+  Al59  1  0.49896205  0.50003467  0.66209895  1
  Al0+  Al60  1  0.24764960  0.25068036  -0.00292360  1
  Al0+  Al61  1  0.25070451  0.25336464  0.33404758  1
  Al0+  Al62  1  0.25027931  0.25300826  0.66166139  1
  Al0+  Al63  1  0.25078161  0.75060780  -0.00103020  1
  Al0+  Al64  1  0.25213650  0.75258703  0.33250676  1
  Al0+  Al65  1  0.25220088  0.75127253  0.66786186  1
  Al0+  Al66  1  0.74903913  0.24960236  0.00320753  1
  Al0+  Al67  1  0.74835911  0.24942934  0.33328115  1
  Al0+  Al68  1  0.74834364  0.24902475  0.67701099  1
  Al0+  Al69  1  0.74958803  0.74867761  0.00021597  1
  Al0+  Al70  1  0.74891978  0.74939740  0.33032490  1
  Al0+  Al71  1  0.75079683  0.74956225  0.65586420  1
  Al0+  Al72  1  0.57037209  0.18001169  0.32070922  1
  Al0+  Al73  1  0.57108756  0.67913350  0.65177681  1
  Al0+  Al74  1  0.07270611  0.17880671  0.31927355  1
  Al0+  Al75  1  0.31794061  0.57223281  0.34925548  1
  Al0+  Al76  1  0.43086889  0.82075521  0.31988948  1
  Al0+  Al77  1  0.31932040  0.07349570  0.01369653  1
  Al0+  Al78  1  0.82046413  0.06675579  0.34819917  1
  Al0+  Al79  1  0.68141514  0.43035839  0.34721124  1
  Al0+  Al80  1  0.92672849  0.82187964  0.31596001  1
  Al0+  Al81  1  0.67839430  0.43089659  0.68324976  1
  Al0+  Al82  1  0.31955900  0.56961421  0.01249747  1
  Al0+  Al83  1  0.82193978  0.07156711  0.01871955  1
  Al0+  Al84  1  0.92656103  0.31746485  0.65461111  1
  Al0+  Al85  1  0.92964838  0.82271298  0.65221056  1
  Al0+  Al86  1  0.06877797  0.17947110  0.98589842  1
  Al0+  Al87  1  0.82151098  0.06898171  0.68124767  1
  Al0+  Al88  1  0.67978211  0.92549993  0.01599132  1
  Al0+  Al89  1  0.07196707  0.67954366  0.31743966  1
  Al0+  Al90  1  0.42785009  0.32140294  0.65081361  1
  Al0+  Al91  1  0.56972710  0.67981664  0.98801767  1
  Al0+  Al92  1  0.43109687  0.31913555  0.98880707  1
  Al0+  Al93  1  0.07366788  0.67747317  0.65160317  1
  Al0+  Al94  1  0.92626553  0.32036575  0.31810359  1
  Al0+  Al95  1  0.07264652  0.67814394  0.98519395  1
  Si0+  Si96  1  0.42904378  0.82458914  0.65216188  1
  Si0+  Si97  1  0.32355878  0.07382071  0.34850434  1
  Si0+  Si98  1  0.92856836  0.81979110  0.98315272  1
  Si0+  Si99  1  0.92440648  0.32237808  0.98149008  1
  Si0+  Si100  1  0.17496591  0.42817430  0.01628813  1
  Si0+  Si101  1  0.42758002  0.82451421  0.98240042  1
  Si0+  Si102  1  0.67531079  0.92611505  0.35106578  1
  Si0+  Si103  1  0.82504094  0.57371202  0.34895596  1
  Si0+  Si104  1  0.07261759  0.17773075  0.65102691  1
  Si0+  Si105  1  0.17781436  0.42784912  0.68177601  1
  Si0+  Si106  1  0.57348463  0.17596394  0.98228781  1
  Si0+  Si107  1  0.82349943  0.57257020  0.68076437  1
  Si0+  Si108  1  0.67756467  0.43110622  0.01429316  1
  Si0+  Si109  1  0.18185166  0.92981659  0.68272739  1
  Si0+  Si110  1  0.18190046  0.93106692  0.34895456  1
  Si0+  Si111  1  0.42830968  0.32405192  0.31710807  1
  Si0+  Si112  1  0.57039277  0.17762550  0.65317091  1
  Si0+  Si113  1  0.32184499  0.07365599  0.67981814  1
  Si0+  Si114  1  0.57022972  0.67552096  0.31733405  1
  Si0+  Si115  1  0.17913137  0.92761776  0.01818825  1
  Si0+  Si116  1  0.82221050  0.56990149  0.01260080  1
  Si0+  Si117  1  0.31919833  0.57076670  0.68279198  1
  Si0+  Si118  1  0.17639640  0.42690756  0.35163043  1
  Si0+  Si119  1  0.67586085  0.92529539  0.68221236  1
  O2-  O120  1  0.24683263  -0.00240941  0.06236471  1
  O2-  O121  1  0.25050884  0.00534990  0.39183848  1
  O2-  O122  1  0.25132902  0.00309660  0.72353279  1
  O2-  O123  1  0.24065524  0.49997080  0.06027021  1
  O2-  O124  1  0.24107684  0.49964272  0.39651108  1
  O2-  O125  1  0.24604754  0.50175394  0.72455364  1
  O2-  O126  1  0.74771112  0.00066599  0.06685022  1
  O2-  O127  1  0.74821644  -0.01045305  0.39646084  1
  O2-  O128  1  0.74886131  -0.00970233  0.72513070  1
  O2-  O129  1  0.75239032  0.49804227  0.05585983  1
  O2-  O130  1  0.75769380  0.50391942  0.39387453  1
  O2-  O131  1  0.75309531  0.50692979  0.72884860  1
  O2-  O132  1  0.00032881  0.25008561  0.26924922  1
  O2-  O133  1  -0.00110553  0.24067647  0.60793055  1
  O2-  O134  1  -0.00845463  0.25113958  0.93883779  1
  O2-  O135  1  -0.00618846  0.74447866  0.26711056  1
  O2-  O136  1  -0.00201844  0.74630436  0.60369193  1
  O2-  O137  1  -0.00223111  0.75191766  0.93835417  1
  O2-  O138  1  0.49323599  0.25222535  0.27343728  1
  O2-  O139  1  0.50238849  0.24585214  0.60686434  1
  O2-  O140  1  0.50302305  0.24317925  0.93851759  1
  O2-  O141  1  0.50633949  0.74781033  0.27248041  1
  O2-  O142  1  0.49888148  0.75750823  0.60801981  1
  O2-  O143  1  0.49792915  0.75697875  0.93935390  1
  O2-  O144  1  0.07147369  0.18362409  0.09824265  1
  O2-  O145  1  0.07259717  0.17997098  0.43330584  1
  O2-  O146  1  0.07631404  0.18017943  0.75667303  1
  O2-  O147  1  0.07145787  0.67993837  0.09777563  1
  O2-  O148  1  0.07295744  0.68482873  0.43092731  1
  O2-  O149  1  0.07473655  0.68044843  0.76555073  1
  O2-  O150  1  0.57324522  0.17947287  0.08794412  1
  O2-  O151  1  0.56873305  0.18053157  0.43425943  1
  O2-  O152  1  0.56632451  0.17673818  0.75867399  1
  O2-  O153  1  0.56684874  0.67681142  0.10072474  1
  O2-  O154  1  0.56702606  0.67584861  0.42303955  1
  O2-  O155  1  0.56793865  0.67828788  0.76519360  1
  O2-  O156  1  0.18040180  0.42353214  0.24620437  1
  O2-  O157  1  0.18054615  0.42410515  0.57721154  1
  O2-  O158  1  0.17613596  0.42818330  0.91009341  1
  O2-  O159  1  0.18473148  0.92932427  0.24407080  1
  O2-  O160  1  0.18259065  0.92924886  0.57764050  1
  O2-  O161  1  0.18169379  0.92817978  0.91188841  1
  O2-  O162  1  0.67884910  0.43286292  0.23341344  1
  O2-  O163  1  0.67888618  0.42982590  0.57043404  1
  O2-  O164  1  0.67616060  0.43302703  0.90910943  1
  O2-  O165  1  0.67332721  0.92923029  0.24583127  1
  O2-  O166  1  0.66791752  0.92971629  0.57731059  1
  O2-  O167  1  0.68422982  0.92398470  0.90168216  1
  O2-  O168  1  0.43460769  0.32102084  0.10168449  1
  O2-  O169  1  0.42837772  0.32206438  0.42297905  1
  O2-  O170  1  0.42631057  0.32031290  0.76418846  1
  O2-  O171  1  0.42610385  0.82232229  0.08789401  1
  O2-  O172  1  0.43160788  0.82066699  0.43357098  1
  O2-  O173  1  0.42645600  0.82580689  0.75742173  1
  O2-  O174  1  0.92452979  0.32595021  0.08650956  1
  O2-  O175  1  0.92524056  0.31655842  0.43197536  1
  O2-  O176  1  0.93014533  0.31752044  0.76783822  1
  O2-  O177  1  0.92880663  0.81753954  0.08845038  1
  O2-  O178  1  0.93248522  0.82353076  0.42948153  1
  O2-  O179  1  0.93308213  0.82246238  0.76620004  1
  O2-  O180  1  0.32308336  0.07338754  0.24362872  1
  O2-  O181  1  0.32225065  0.07220888  0.57465391  1
  O2-  O182  1  0.31668740  0.07234683  0.89967664  1
  O2-  O183  1  0.32037162  0.57010858  0.23601170  1
  O2-  O184  1  0.31817786  0.57186480  0.57772770  1
  O2-  O185  1  0.32098312  0.56599459  0.89904651  1
  O2-  O186  1  0.81873007  0.06733857  0.23564439  1
  O2-  O187  1  0.82006831  0.07030913  0.56814522  1
  O2-  O188  1  0.82139204  0.06955524  0.90462258  1
  O2-  O189  1  0.82200523  0.57293194  0.24276923  1
  O2-  O190  1  0.82199986  0.57004648  0.57552924  1
  O2-  O191  1  0.82225378  0.56984514  0.90746014  1
  O2-  O192  1  0.04846247  0.08032898  0.26648865  1
  O2-  O193  1  0.05351985  0.08157316  0.60912029  1
  O2-  O194  1  0.04309793  0.08085209  0.93215530  1
  O2-  O195  1  0.05377514  0.57876882  0.26564919  1
  O2-  O196  1  0.05249897  0.57774887  0.59947038  1
  O2-  O197  1  0.04312934  0.58085288  0.93150700  1
  O2-  O198  1  0.54198402  0.08462704  0.26424886  1
  O2-  O199  1  0.54551884  0.08406335  0.60615204  1
  O2-  O200  1  0.54997451  0.08090322  0.93884135  1
  O2-  O201  1  0.53890226  0.58291773  0.27291522  1
  O2-  O202  1  0.53456724  0.58562981  0.59641886  1
  O2-  O203  1  0.53449765  0.58555942  0.93137789  1
  O2-  O204  1  0.17203435  0.20865889  0.26782664  1
  O2-  O205  1  0.16392846  0.20709525  0.60250956  1
  O2-  O206  1  0.16384238  0.21209663  0.92917077  1
  O2-  O207  1  0.16798742  0.71673945  0.26558684  1
  O2-  O208  1  0.17148612  0.71192747  0.60086609  1
  O2-  O209  1  0.16908619  0.71027806  0.93097618  1
  O2-  O210  1  0.66327839  0.21543043  0.26419356  1
  O2-  O211  1  0.66409414  0.20556208  0.61011361  1
  O2-  O212  1  0.66679135  0.20367526  0.93693977  1
  O2-  O213  1  0.66591339  0.69368015  0.27321969  1
  O2-  O214  1  0.66728719  0.70303235  0.59448815  1
  O2-  O215  1  0.66729081  0.70683082  0.93264857  1
  O2-  O216  1  0.07958962  0.44968328  0.06023833  1
  O2-  O217  1  0.07997008  0.44777458  0.39392984  1
  O2-  O218  1  0.08448565  0.45148365  0.72862688  1
  O2-  O219  1  0.08475364  0.95080069  0.06207000  1
  O2-  O220  1  0.09020298  0.95749221  0.39710435  1
  O2-  O221  1  0.09156548  0.95562929  0.73392483  1
  O2-  O222  1  0.58819975  0.46379772  0.06270076  1
  O2-  O223  1  0.58615512  0.46150059  0.40447356  1
  O2-  O224  1  0.58038172  0.46389077  0.73454003  1
  O2-  O225  1  0.57878747  0.94811198  0.06591995  1
  O2-  O226  1  0.58242500  0.95627344  0.39728639  1
  O2-  O227  1  0.58426856  0.95322072  0.73328816  1
  O2-  O228  1  0.20440517  0.33614086  0.06212795  1
  O2-  O229  1  0.20675865  0.33574275  0.40164421  1
  O2-  O230  1  0.20934789  0.33687391  0.73050066  1
  O2-  O231  1  0.20710592  0.83497095  0.06454699  1
  O2-  O232  1  0.21532428  0.84229295  0.39896274  1
  O2-  O233  1  0.21265817  0.83940717  0.73223003  1
  O2-  O234  1  0.70118326  0.33785240  0.06049772  1
  O2-  O235  1  0.71063699  0.33371496  0.40194653  1
  O2-  O236  1  0.70768184  0.33553197  0.74069320  1
  O2-  O237  1  0.70805757  0.82722053  0.06994304  1
  O2-  O238  1  0.69383785  0.82895886  0.39329540  1
  O2-  O239  1  0.69919854  0.82887122  0.72336350  1
  O2-  O240  1  0.45891924  0.41731485  0.27424054  1
  O2-  O241  1  0.45924701  0.41649033  0.59606885  1
  O2-  O242  1  0.46447539  0.41367025  0.93179360  1
  O2-  O243  1  0.45739163  0.91717928  0.26381321  1
  O2-  O244  1  0.45226317  0.91905483  0.60575631  1
  O2-  O245  1  0.45017582  0.91958604  0.93767897  1
  O2-  O246  1  0.95126352  0.41909992  0.26411635  1
  O2-  O247  1  0.95712592  0.41249273  0.59816460  1
  O2-  O248  1  0.95133541  0.41449102  0.93239019  1
  O2-  O249  1  0.96320377  0.91656368  0.26178457  1
  O2-  O250  1  0.96685300  0.91911977  0.60013888  1
  O2-  O251  1  0.95471585  0.91378996  0.93853820  1
  O2-  O252  1  0.33365073  0.30326139  0.27255317  1
  O2-  O253  1  0.33236104  0.29123232  0.59440873  1
  O2-  O254  1  0.33402743  0.29069207  0.93371578  1
  O2-  O255  1  0.33567220  0.78987255  0.26455891  1
  O2-  O256  1  0.33675808  0.79650084  0.60471060  1
  O2-  O257  1  0.33466575  0.79830664  0.93524685  1
  O2-  O258  1  0.82928069  0.29060120  0.26443220  1
  O2-  O259  1  0.82804285  0.28731263  0.60491179  1
  O2-  O260  1  0.82981201  0.29739474  0.93652383  1
  O2-  O261  1  0.82555792  0.80032318  0.26562728  1
  O2-  O262  1  0.83071696  0.80306016  0.59744062  1
  O2-  O263  1  0.83575391  0.79256325  0.93691649  1
  O2-  O264  1  0.41707612  0.04693980  0.06692824  1
  O2-  O265  1  0.41453632  0.04222561  0.39565834  1
  O2-  O266  1  0.41301132  0.04673234  0.72935630  1
  O2-  O267  1  0.41444052  0.53434730  0.06746433  1
  O2-  O268  1  0.41255628  0.53962310  0.40663667  1
  O2-  O269  1  0.41055230  0.53896640  0.72815222  1
  O2-  O270  1  0.92121982  0.04258259  0.06902380  1
  O2-  O271  1  0.91957471  0.03880177  0.39985939  1
  O2-  O272  1  0.91974846  0.04084978  0.73494400  1
  O2-  O273  1  0.91415952  0.54244835  0.06029823  1
  O2-  O274  1  0.92068720  0.55115878  0.39166157  1
  O2-  O275  1  0.91757451  0.54425102  0.72580816  1
  O2-  O276  1  0.28677717  0.16946730  0.06763572  1
  O2-  O277  1  0.29846056  0.16668240  0.39613155  1
  O2-  O278  1  0.29269363  0.16606109  0.72574259  1
  O2-  O279  1  0.29382939  0.66854557  0.06443472  1
  O2-  O280  1  0.28905280  0.66992669  0.40316858  1
  O2-  O281  1  0.29598494  0.66406473  0.73029854  1
  O2-  O282  1  0.79421038  0.17135555  0.06979242  1
  O2-  O283  1  0.78478341  0.16306586  0.40021934  1
  O2-  O284  1  0.78786646  0.16245041  0.73970662  1
  O2-  O285  1  0.79411208  0.66048379  0.06128287  1
  O2-  O286  1  0.79912741  0.66781401  0.39458041  1
  O2-  O287  1  0.80029299  0.66851757  0.72380439  1
