# generated using pymatgen
data_Ca2Al2SiO7
_symmetry_space_group_name_H-M   'P 1'
_cell_length_a   15.45708482
_cell_length_b   15.45653566
_cell_length_c   15.28235529
_cell_angle_alpha   89.99482993
_cell_angle_beta   89.98314430
_cell_angle_gamma   89.99684869
_symmetry_Int_Tables_number   1
_chemical_formula_structural   Ca2Al2SiO7
_chemical_formula_sum   'Ca48 Al48 Si24 O168'
_cell_volume   3651.15290621
_cell_formula_units_Z   24
loop_
 _symmetry_equiv_pos_site_id
 _symmetry_equiv_pos_as_xyz
  1  'x, y, z'
loop_
 _atom_type_symbol
 _atom_type_oxidation_number
  Ca2+  2.0
  Al0+  0.0
  Si0+  0.0
  O2-  -2.0
loop_
 _atom_site_type_symbol
 _atom_site_label
 _atom_site_symmetry_multiplicity
 _atom_site_fract_x
 _atom_site_fract_y
 _atom_site_fract_z
 _atom_site_occupancy
  Ca2+  Ca0  1  0.17612639  0.07916948  0.17513583  1
  Ca2+  Ca1  1  0.17550029  0.07676716  0.50578603  1
  Ca2+  Ca2  1  0.16522753  0.07526023  0.83291478  1
  Ca2+  Ca3  1  0.17663478  0.58852456  0.17260256  1
  Ca2+  Ca4  1  0.17763306  0.59618397  0.50174647  1
  Ca2+  Ca5  1  0.17988991  0.58576781  0.83504927  1
  Ca2+  Ca6  1  0.66769973  0.08169693  0.17250792  1
  Ca2+  Ca7  1  0.67231661  0.07633157  0.50846651  1
  Ca2+  Ca8  1  0.66451790  0.08398786  0.83029353  1
  Ca2+  Ca9  1  0.66680531  0.57712016  0.17313876  1
  Ca2+  Ca10  1  0.67337693  0.59084873  0.50585319  1
  Ca2+  Ca11  1  0.66853583  0.58269406  0.83466989  1
  Ca2+  Ca12  1  0.07672921  0.33463474  0.16779661  1
  Ca2+  Ca13  1  0.07034875  0.33695484  0.49605446  1
  Ca2+  Ca14  1  0.07762062  0.33026305  0.82546150  1
  Ca2+  Ca15  1  0.07815363  0.82678687  0.16466239  1
  Ca2+  Ca16  1  0.07994395  0.83231841  0.50030074  1
  Ca2+  Ca17  1  0.07257004  0.83719754  0.82712141  1
  Ca2+  Ca18  1  0.58005867  0.32834287  0.15621798  1
  Ca2+  Ca19  1  0.58695043  0.32591870  0.50075315  1
  Ca2+  Ca20  1  0.58885559  0.32667556  0.83420031  1
  Ca2+  Ca21  1  0.57360254  0.82691297  0.16552354  1
  Ca2+  Ca22  1  0.58088926  0.82436556  0.49875426  1
  Ca2+  Ca23  1  0.57227930  0.82998996  0.82099091  1
  Ca2+  Ca24  1  0.33938377  0.42790424  0.17006576  1
  Ca2+  Ca25  1  0.33412129  0.43154705  0.50490066  1
  Ca2+  Ca26  1  0.34454222  0.42901798  0.83822132  1
  Ca2+  Ca27  1  0.34119700  0.91940905  0.17383518  1
  Ca2+  Ca28  1  0.33244096  0.91090223  0.50419791  1
  Ca2+  Ca29  1  0.32957895  0.90583710  0.83454831  1
  Ca2+  Ca30  1  0.82541502  0.41798513  0.17474427  1
  Ca2+  Ca31  1  0.84004832  0.42708249  0.50445229  1
  Ca2+  Ca32  1  0.82996004  0.42155628  0.83384383  1
  Ca2+  Ca33  1  0.83277818  0.92143285  0.17248477  1
  Ca2+  Ca34  1  0.82873924  0.92445844  0.51437519  1
  Ca2+  Ca35  1  0.82612621  0.91185405  0.83330456  1
  Ca2+  Ca36  1  0.42095624  0.17192941  0.15634298  1
  Ca2+  Ca37  1  0.42318208  0.15953602  0.49667602  1
  Ca2+  Ca38  1  0.42923213  0.17274128  0.82862428  1
  Ca2+  Ca39  1  0.41293303  0.67277803  0.16352919  1
  Ca2+  Ca40  1  0.42338827  0.67188836  0.49417564  1
  Ca2+  Ca41  1  0.41882320  0.67020762  0.82501251  1
  Ca2+  Ca42  1  0.91099056  0.17035984  0.16817659  1
  Ca2+  Ca43  1  0.90457238  0.17584520  0.49723894  1
  Ca2+  Ca44  1  0.91200331  0.17344364  0.82240149  1
  Ca2+  Ca45  1  0.92245635  0.66435551  0.16582740  1
  Ca2+  Ca46  1  0.91611071  0.66988442  0.49288997  1
  Ca2+  Ca47  1  0.91332523  0.67640656  0.82447984  1
  Al0+  Al48  1  0.00014574  -0.00055871  -0.00055535  1
  Al0+  Al49  1  0.00075100  0.00273385  0.33705852  1
  Al0+  Al50  1  0.00265834  0.00168966  0.66958095  1
  Al0+  Al51  1  0.00290788  0.49982337  -0.00129904  1
  Al0+  Al52  1  -0.00212506  0.49941600  0.32541880  1
  Al0+  Al53  1  0.00126294  0.49969097  0.66898070  1
  Al0+  Al54  1  0.50074493  -0.00144470  -0.00744352  1
  Al0+  Al55  1  0.50058976  -0.00067106  0.33401329  1
  Al0+  Al56  1  0.49972330  0.00154343  0.66259389  1
  Al0+  Al57  1  0.50188120  0.49983107  0.00685525  1
  Al0+  Al58  1  0.50011192  0.49778129  0.33622495  1
  Al0+  Al59  1  0.50163214  0.49916774  0.66707893  1
  Al0+  Al60  1  0.24904180  0.25063504  -0.00455632  1
  Al0+  Al61  1  0.24879158  0.24883234  0.33888618  1
  Al0+  Al62  1  0.24990414  0.25062999  0.66664246  1
  Al0+  Al63  1  0.24794090  0.74933508  0.00192501  1
  Al0+  Al64  1  0.24779598  0.75066859  0.32885023  1
  Al0+  Al65  1  0.24900202  0.75107590  0.67362311  1
  Al0+  Al66  1  0.75121377  0.25029766  0.00112861  1
  Al0+  Al67  1  0.74890204  0.24944574  0.33168996  1
  Al0+  Al68  1  0.74974694  0.25100818  0.66097978  1
  Al0+  Al69  1  0.75083512  0.75187521  0.00057248  1
  Al0+  Al70  1  0.74759516  0.74882076  0.33052522  1
  Al0+  Al71  1  0.74980957  0.75196980  0.66800214  1
  Al0+  Al72  1  0.57172427  0.67694096  0.65282467  1
  Al0+  Al73  1  0.82026406  0.57003709  0.34515972  1
  Al0+  Al74  1  0.42586988  0.81994918  0.65137324  1
  Al0+  Al75  1  0.31983357  0.57015060  0.01558945  1
  Al0+  Al76  1  0.42842536  0.32342769  0.98591098  1
  Al0+  Al77  1  0.56988461  0.18026946  0.65026748  1
  Al0+  Al78  1  0.18107189  0.93008254  0.68144908  1
  Al0+  Al79  1  0.42861523  0.81917379  0.98517811  1
  Al0+  Al80  1  0.32253524  0.07122619  0.34579766  1
  Al0+  Al81  1  0.67773157  0.92923945  0.68263004  1
  Al0+  Al82  1  0.57302151  0.17847769  0.98481336  1
  Al0+  Al83  1  0.06915075  0.68004051  0.31993253  1
  Al0+  Al84  1  0.32143717  0.56998225  0.68014581  1
  Al0+  Al85  1  0.82033913  0.07283324  0.68232845  1
  Al0+  Al86  1  0.82049953  0.07067388  0.34672537  1
  Al0+  Al87  1  0.68250417  0.42926735  0.01411342  1
  Al0+  Al88  1  0.92945501  0.82111450  0.98671548  1
  Al0+  Al89  1  0.92908466  0.82206559  0.65323391  1
  Al0+  Al90  1  0.32018365  0.57148715  0.34764168  1
  Al0+  Al91  1  0.57252233  0.67531197  0.31635685  1
  Al0+  Al92  1  0.42945913  0.81987974  0.31802832  1
  Al0+  Al93  1  0.92852284  0.31947020  0.31761217  1
  Al0+  Al94  1  0.93033771  0.32109252  0.65293840  1
  Al0+  Al95  1  0.82254389  0.57234655  0.67972266  1
  Si0+  Si96  1  0.56933521  0.17975498  0.31801847  1
  Si0+  Si97  1  0.42633873  0.32009987  0.32036009  1
  Si0+  Si98  1  0.07415207  0.17756309  0.64846200  1
  Si0+  Si99  1  0.92981144  0.32038024  0.98524321  1
  Si0+  Si100  1  0.57295111  0.67740475  0.98466419  1
  Si0+  Si101  1  0.17656859  0.42791545  0.34942052  1
  Si0+  Si102  1  0.07148323  0.67746272  0.98143588  1
  Si0+  Si103  1  0.17821282  0.42659071  0.68373841  1
  Si0+  Si104  1  0.32105891  0.07033227  0.01184855  1
  Si0+  Si105  1  0.07142522  0.17811371  0.98535108  1
  Si0+  Si106  1  0.67741490  0.42668107  0.35172361  1
  Si0+  Si107  1  0.32333909  0.07481438  0.68566347  1
  Si0+  Si108  1  0.67919865  0.42775774  0.68258035  1
  Si0+  Si109  1  0.17763375  0.92803474  0.34932580  1
  Si0+  Si110  1  0.67818759  0.92748960  0.34920776  1
  Si0+  Si111  1  0.92668162  0.82523949  0.31900844  1
  Si0+  Si112  1  0.17741743  0.93034478  0.01729992  1
  Si0+  Si113  1  0.67716117  0.92870135  0.01581890  1
  Si0+  Si114  1  0.17595847  0.42496567  0.01796131  1
  Si0+  Si115  1  0.82419169  0.57382938  0.01659403  1
  Si0+  Si116  1  0.07090670  0.67858422  0.65231600  1
  Si0+  Si117  1  0.42637736  0.32272831  0.64818427  1
  Si0+  Si118  1  0.82175724  0.07036135  0.01524444  1
  Si0+  Si119  1  0.07375330  0.17736149  0.31667200  1
  O2-  O120  1  0.25261362  -0.00195342  0.05773112  1
  O2-  O121  1  0.24857067  -0.00446104  0.39129091  1
  O2-  O122  1  0.25710460  0.00359874  0.72969352  1
  O2-  O123  1  0.24637293  0.49225831  0.06095189  1
  O2-  O124  1  0.24438631  0.49692648  0.39409887  1
  O2-  O125  1  0.24968298  0.49211410  0.72764121  1
  O2-  O126  1  0.74910005  0.00039314  0.05699326  1
  O2-  O127  1  0.75250411  -0.00942951  0.39249445  1
  O2-  O128  1  0.75094328  -0.00002046  0.73462745  1
  O2-  O129  1  0.75654569  0.50459122  0.06109093  1
  O2-  O130  1  0.74363910  0.49844053  0.39400043  1
  O2-  O131  1  0.74559334  0.49942499  0.72595780  1
  O2-  O132  1  0.00315851  0.24367022  0.27116896  1
  O2-  O133  1  0.00437495  0.24560397  0.60562884  1
  O2-  O134  1  0.00194134  0.25061203  0.94346373  1
  O2-  O135  1  -0.00716607  0.75429503  0.27395126  1
  O2-  O136  1  -0.00061936  0.74333144  0.60675340  1
  O2-  O137  1  -0.00084573  0.74248291  0.93870271  1
  O2-  O138  1  0.49619909  0.24859259  0.27670608  1
  O2-  O139  1  0.49200702  0.25183144  0.60294141  1
  O2-  O140  1  0.50049465  0.25126919  0.93653861  1
  O2-  O141  1  0.49780097  0.74494921  0.26669215  1
  O2-  O142  1  0.49873388  0.74825867  0.60310443  1
  O2-  O143  1  0.50280370  0.74393620  0.93995065  1
  O2-  O144  1  0.07161767  0.17689196  0.09041234  1
  O2-  O145  1  0.07664570  0.17837397  0.42151359  1
  O2-  O146  1  0.07541454  0.17998440  0.75479498  1
  O2-  O147  1  0.07141922  0.67838334  0.08728481  1
  O2-  O148  1  0.07004964  0.68200657  0.43287017  1
  O2-  O149  1  0.07023137  0.68006182  0.75819395  1
  O2-  O150  1  0.57138553  0.17822980  0.09919161  1
  O2-  O151  1  0.57000711  0.18069290  0.42282944  1
  O2-  O152  1  0.57046744  0.18413898  0.76320608  1
  O2-  O153  1  0.57328771  0.67971069  0.09023305  1
  O2-  O154  1  0.57365105  0.67744601  0.42941061  1
  O2-  O155  1  0.56924449  0.67532343  0.76695517  1
  O2-  O156  1  0.17941655  0.42600438  0.24358632  1
  O2-  O157  1  0.17710185  0.42587269  0.57829816  1
  O2-  O158  1  0.17075338  0.42539596  0.91271712  1
  O2-  O159  1  0.17501611  0.93088170  0.24317697  1
  O2-  O160  1  0.18105132  0.93114485  0.56829079  1
  O2-  O161  1  0.17471539  0.93282146  0.91254780  1
  O2-  O162  1  0.67927098  0.42381240  0.24578967  1
  O2-  O163  1  0.68008556  0.42613319  0.57700117  1
  O2-  O164  1  0.68694813  0.42769340  0.90120228  1
  O2-  O165  1  0.67697504  0.93145992  0.24277649  1
  O2-  O166  1  0.67965357  0.93030974  0.56881476  1
  O2-  O167  1  0.67745299  0.92709927  0.91146706  1
  O2-  O168  1  0.42780073  0.31924802  0.10019665  1
  O2-  O169  1  0.42759398  0.31952952  0.42531720  1
  O2-  O170  1  0.42664070  0.32236195  0.75368940  1
  O2-  O171  1  0.43001024  0.82184721  0.09815944  1
  O2-  O172  1  0.42996974  0.82023754  0.43084745  1
  O2-  O173  1  0.42574183  0.81577121  0.76542941  1
  O2-  O174  1  0.92975293  0.31851596  0.09030884  1
  O2-  O175  1  0.92973841  0.31989003  0.43027527  1
  O2-  O176  1  0.93247260  0.32022476  0.76687837  1
  O2-  O177  1  0.93278649  0.82397738  0.10015801  1
  O2-  O178  1  0.92916834  0.82612982  0.42423550  1
  O2-  O179  1  0.93128345  0.82112639  0.76664005  1
  O2-  O180  1  0.32127850  0.07268806  0.23180819  1
  O2-  O181  1  0.31960792  0.07749874  0.57995932  1
  O2-  O182  1  0.31733162  0.07071786  0.90725910  1
  O2-  O183  1  0.31869708  0.56978233  0.23435333  1
  O2-  O184  1  0.31868759  0.57022935  0.56699983  1
  O2-  O185  1  0.31798042  0.57022668  0.90250398  1
  O2-  O186  1  0.81751992  0.07040180  0.23252901  1
  O2-  O187  1  0.81740191  0.07226170  0.56867147  1
  O2-  O188  1  0.82434702  0.07165268  0.91092339  1
  O2-  O189  1  0.82110460  0.56587849  0.23167898  1
  O2-  O190  1  0.82543363  0.57004195  0.56666643  1
  O2-  O191  1  0.82413628  0.57304860  0.91101870  1
  O2-  O192  1  0.04980889  0.08329178  0.26965689  1
  O2-  O193  1  0.05178011  0.08365223  0.60342686  1
  O2-  O194  1  0.04179203  0.08731941  0.93744185  1
  O2-  O195  1  0.03970817  0.58476606  0.26186474  1
  O2-  O196  1  0.05192842  0.58321417  0.60810030  1
  O2-  O197  1  0.05218590  0.58184489  0.93635014  1
  O2-  O198  1  0.54361821  0.08741826  0.27091450  1
  O2-  O199  1  0.54061563  0.08437976  0.59454484  1
  O2-  O200  1  0.54456529  0.08159154  0.93030490  1
  O2-  O201  1  0.54701947  0.57408367  0.26734330  1
  O2-  O202  1  0.54722588  0.57734996  0.60018369  1
  O2-  O203  1  0.55046920  0.58222403  0.94197738  1
  O2-  O204  1  0.16661506  0.20570845  0.26881461  1
  O2-  O205  1  0.16775099  0.20394462  0.60216416  1
  O2-  O206  1  0.16217629  0.20375911  0.93474882  1
  O2-  O207  1  0.16297644  0.71311633  0.26137132  1
  O2-  O208  1  0.16274621  0.71052732  0.60715014  1
  O2-  O209  1  0.16312519  0.70812857  0.93534817  1
  O2-  O210  1  0.65966854  0.20967742  0.26887129  1
  O2-  O211  1  0.66429035  0.21435338  0.59431938  1
  O2-  O212  1  0.67158385  0.20877908  0.93311394  1
  O2-  O213  1  0.67005444  0.70490105  0.26040160  1
  O2-  O214  1  0.66961415  0.70757748  0.60070549  1
  O2-  O215  1  0.66700357  0.70352687  0.94005874  1
  O2-  O216  1  0.08284623  0.45257573  0.06599106  1
  O2-  O217  1  0.08177436  0.45362311  0.39149668  1
  O2-  O218  1  0.08660453  0.45455477  0.73303758  1
  O2-  O219  1  0.08794142  0.96342706  0.06687669  1
  O2-  O220  1  0.08564618  0.95574683  0.39754333  1
  O2-  O221  1  0.08660734  0.96451747  0.73865689  1
  O2-  O222  1  0.58626631  0.45656522  0.07098987  1
  O2-  O223  1  0.58282786  0.44603745  0.39777661  1
  O2-  O224  1  0.58498438  0.44900313  0.72941242  1
  O2-  O225  1  0.58549071  0.95831126  0.06311649  1
  O2-  O226  1  0.58776977  0.95967530  0.39666245  1
  O2-  O227  1  0.57867128  0.96006805  0.73352888  1
  O2-  O228  1  0.19825690  0.32966340  0.06292965  1
  O2-  O229  1  0.20017323  0.33462206  0.39730875  1
  O2-  O230  1  0.19989188  0.33166277  0.72995739  1
  O2-  O231  1  0.20065393  0.83685542  0.06293560  1
  O2-  O232  1  0.20153884  0.83439373  0.39439587  1
  O2-  O233  1  0.20829006  0.83485025  0.74030411  1
  O2-  O234  1  0.71477216  0.33301408  0.07018724  1
  O2-  O235  1  0.70683940  0.33397504  0.39719453  1
  O2-  O236  1  0.71017060  0.33620677  0.72917045  1
  O2-  O237  1  0.70623682  0.83779773  0.06525601  1
  O2-  O238  1  0.69722758  0.83172355  0.39190659  1
  O2-  O239  1  0.70573862  0.83167623  0.73745229  1
  O2-  O240  1  0.45524025  0.41114201  0.27252568  1
  O2-  O241  1  0.45568236  0.41479684  0.60166247  1
  O2-  O242  1  0.46012302  0.42159297  0.93527099  1
  O2-  O243  1  0.46199574  0.91843532  0.26488877  1
  O2-  O244  1  0.44886083  0.92079034  0.60212266  1
  O2-  O245  1  0.45720968  0.91527247  0.93006704  1
  O2-  O246  1  0.96025883  0.41328526  0.25910772  1
  O2-  O247  1  0.96450697  0.41721895  0.59931497  1
  O2-  O248  1  0.95628514  0.41318149  0.93889204  1
  O2-  O249  1  0.95559885  0.91851303  0.27234230  1
  O2-  O250  1  0.96430040  0.91833935  0.60133520  1
  O2-  O251  1  0.96445646  0.91636999  0.93267176  1
  O2-  O252  1  0.33362273  0.29345705  0.27417954  1
  O2-  O253  1  0.33107270  0.30086342  0.60365797  1
  O2-  O254  1  0.32920762  0.29798184  0.93253867  1
  O2-  O255  1  0.32948077  0.79702867  0.26518357  1
  O2-  O256  1  0.32656249  0.79082309  0.60111556  1
  O2-  O257  1  0.32946035  0.79030116  0.93560894  1
  O2-  O258  1  0.83244732  0.28592536  0.26274096  1
  O2-  O259  1  0.83486249  0.29225555  0.59708800  1
  O2-  O260  1  0.83953260  0.29057190  0.93745538  1
  O2-  O261  1  0.83235352  0.80333078  0.27321021  1
  O2-  O262  1  0.83179336  0.79584812  0.60036655  1
  O2-  O263  1  0.83121942  0.79478271  0.93402492  1
  O2-  O264  1  0.41428918  0.04401126  0.05754740  1
  O2-  O265  1  0.41877129  0.04157550  0.40031004  1
  O2-  O266  1  0.41841510  0.05359407  0.72848845  1
  O2-  O267  1  0.41653286  0.54170659  0.07051899  1
  O2-  O268  1  0.41602983  0.53816130  0.40133712  1
  O2-  O269  1  0.41819251  0.53863815  0.73404831  1
  O2-  O270  1  0.91312819  0.04072765  0.06393071  1
  O2-  O271  1  0.92030400  0.05099135  0.39872226  1
  O2-  O272  1  0.92168718  0.05150540  0.73179526  1
  O2-  O273  1  0.91950761  0.54811330  0.05986290  1
  O2-  O274  1  0.91716286  0.53665271  0.39690468  1
  O2-  O275  1  0.91797957  0.53901696  0.73597789  1
  O2-  O276  1  0.29136726  0.16251981  0.05874478  1
  O2-  O277  1  0.29080654  0.16595612  0.40328448  1
  O2-  O278  1  0.29452061  0.16788864  0.73241348  1
  O2-  O279  1  0.28382296  0.66568281  0.06997104  1
  O2-  O280  1  0.28634920  0.66846409  0.39836755  1
  O2-  O281  1  0.28658772  0.66357627  0.73679544  1
  O2-  O282  1  0.79524291  0.16238403  0.06342056  1
  O2-  O283  1  0.78455862  0.16601814  0.39898218  1
  O2-  O284  1  0.78903473  0.17179965  0.73326739  1
  O2-  O285  1  0.80018262  0.66793733  0.06257650  1
  O2-  O286  1  0.79464265  0.66928951  0.39648400  1
  O2-  O287  1  0.79315199  0.66839811  0.73460768  1
