# generated using pymatgen
data_Ca2Al2SiO7
_symmetry_space_group_name_H-M   'P 1'
_cell_length_a   15.46234480
_cell_length_b   15.46212738
_cell_length_c   15.28735649
_cell_angle_alpha   90.00089063
_cell_angle_beta   89.99727107
_cell_angle_gamma   90.00724689
_symmetry_Int_Tables_number   1
_chemical_formula_structural   Ca2Al2SiO7
_chemical_formula_sum   'Ca48 Al48 Si24 O168'
_cell_volume   3654.91254349
_cell_formula_units_Z   24
loop_
 _symmetry_equiv_pos_site_id
 _symmetry_equiv_pos_as_xyz
  1  'x, y, z'
loop_
 _atom_type_symbol
 _atom_type_oxidation_number
  Ca2+  2.0
  Al0+  0.0
  Si0+  0.0
  O2-  -2.0
loop_
 _atom_site_type_symbol
 _atom_site_label
 _atom_site_symmetry_multiplicity
 _atom_site_fract_x
 _atom_site_fract_y
 _atom_site_fract_z
 _atom_site_occupancy
  Ca2+  Ca0  1  0.16836060  0.08523603  0.16373603  1
  Ca2+  Ca1  1  0.17421911  0.08496081  0.50718397  1
  Ca2+  Ca2  1  0.17308765  0.08671879  0.83835121  1
  Ca2+  Ca3  1  0.18058700  0.57808747  0.17676698  1
  Ca2+  Ca4  1  0.17214690  0.57814741  0.49829502  1
  Ca2+  Ca5  1  0.17624515  0.58267304  0.84293560  1
  Ca2+  Ca6  1  0.66986788  0.07276477  0.17728459  1
  Ca2+  Ca7  1  0.67002476  0.07476798  0.50477403  1
  Ca2+  Ca8  1  0.66644766  0.06811701  0.83719704  1
  Ca2+  Ca9  1  0.65633246  0.58028353  0.16778196  1
  Ca2+  Ca10  1  0.65889132  0.58703440  0.50068338  1
  Ca2+  Ca11  1  0.66034147  0.57920267  0.84122063  1
  Ca2+  Ca12  1  0.07943739  0.32999369  0.15777987  1
  Ca2+  Ca13  1  0.08111345  0.32850089  0.49757244  1
  Ca2+  Ca14  1  0.07380379  0.32313785  0.82735887  1
  Ca2+  Ca15  1  0.07681484  0.84157440  0.16270288  1
  Ca2+  Ca16  1  0.07403614  0.83716879  0.49236890  1
  Ca2+  Ca17  1  0.08678234  0.83693610  0.83246175  1
  Ca2+  Ca18  1  0.58264222  0.32855432  0.16487659  1
  Ca2+  Ca19  1  0.57675244  0.32258277  0.48970001  1
  Ca2+  Ca20  1  0.58434460  0.33286373  0.83219208  1
  Ca2+  Ca21  1  0.58458703  0.82708807  0.16414084  1
  Ca2+  Ca22  1  0.57845271  0.83326898  0.49279039  1
  Ca2+  Ca23  1  0.58422962  0.82670195  0.82600365  1
  Ca2+  Ca24  1  0.33416351  0.42653117  0.17741274  1
  Ca2+  Ca25  1  0.33578168  0.41805649  0.49632952  1
  Ca2+  Ca26  1  0.33341198  0.42534374  0.84237011  1
  Ca2+  Ca27  1  0.33017032  0.91780535  0.16791032  1
  Ca2+  Ca28  1  0.34065249  0.91859960  0.50663198  1
  Ca2+  Ca29  1  0.33241654  0.92693500  0.83917695  1
  Ca2+  Ca30  1  0.82847478  0.41254014  0.16688081  1
  Ca2+  Ca31  1  0.83304760  0.41747678  0.50559026  1
  Ca2+  Ca32  1  0.83132249  0.41260315  0.83816897  1
  Ca2+  Ca33  1  0.82360570  0.91888713  0.17686913  1
  Ca2+  Ca34  1  0.82317031  0.92298494  0.50168093  1
  Ca2+  Ca35  1  0.82337044  0.91975728  0.83561577  1
  Ca2+  Ca36  1  0.41826239  0.16893956  0.16658050  1
  Ca2+  Ca37  1  0.42271179  0.16642265  0.49094030  1
  Ca2+  Ca38  1  0.41191587  0.16302795  0.82965703  1
  Ca2+  Ca39  1  0.42071583  0.66683945  0.16488090  1
  Ca2+  Ca40  1  0.42590890  0.67841092  0.49219497  1
  Ca2+  Ca41  1  0.42453075  0.67327152  0.82818699  1
  Ca2+  Ca42  1  0.92075585  0.16864798  0.15735297  1
  Ca2+  Ca43  1  0.91563443  0.16122182  0.49878608  1
  Ca2+  Ca44  1  0.92354815  0.17080372  0.82583361  1
  Ca2+  Ca45  1  0.91555419  0.67446071  0.16634782  1
  Ca2+  Ca46  1  0.91707731  0.67553073  0.49290816  1
  Ca2+  Ca47  1  0.91952326  0.66810345  0.83022378  1
  Al0+  Al48  1  0.00057037  0.00100376  -0.00401415  1
  Al0+  Al49  1  -0.00034848  0.00106148  0.33162872  1
  Al0+  Al50  1  0.00048886  0.00015473  0.66602894  1
  Al0+  Al51  1  -0.00104366  0.50226591  -0.00419906  1
  Al0+  Al52  1  0.00034112  0.49874239  0.33728859  1
  Al0+  Al53  1  -0.00062445  0.49840367  0.66445710  1
  Al0+  Al54  1  0.49931661  0.00030917  0.00817333  1
  Al0+  Al55  1  0.49959604  -0.00148172  0.32815014  1
  Al0+  Al56  1  0.49918353  -0.00010387  0.67282108  1
  Al0+  Al57  1  0.50164279  0.50022714  0.00391510  1
  Al0+  Al58  1  0.49915572  0.50019599  0.33399269  1
  Al0+  Al59  1  0.49980428  0.50062205  0.66387766  1
  Al0+  Al60  1  0.25012985  0.25096372  -0.00071722  1
  Al0+  Al61  1  0.24838628  0.24996775  0.33331268  1
  Al0+  Al62  1  0.24727874  0.25109612  0.66755686  1
  Al0+  Al63  1  0.25025662  0.75210201  0.00746541  1
  Al0+  Al64  1  0.25051893  0.74845512  0.33594507  1
  Al0+  Al65  1  0.25157947  0.74837074  0.66320649  1
  Al0+  Al66  1  0.74803264  0.25088982  -0.00073456  1
  Al0+  Al67  1  0.75210943  0.25019392  0.33333018  1
  Al0+  Al68  1  0.74993715  0.25146110  0.66661802  1
  Al0+  Al69  1  0.75032620  0.74857973  -0.00152386  1
  Al0+  Al70  1  0.75065722  0.74969860  0.32939573  1
  Al0+  Al71  1  0.75239820  0.74655287  0.66755394  1
  Al0+  Al72  1  0.56952386  0.67959569  0.98506279  1
  Al0+  Al73  1  0.32134506  0.07441949  0.01799945  1
  Al0+  Al74  1  0.92751497  0.32027176  0.64826088  1
  Al0+  Al75  1  0.67771970  0.92752322  0.34870212  1
  Al0+  Al76  1  0.43007148  0.82250801  0.65370927  1
  Al0+  Al77  1  0.68054263  0.42886349  0.01405250  1
  Al0+  Al78  1  0.32016231  0.07178318  0.67818459  1
  Al0+  Al79  1  0.82190170  0.07249134  0.68348448  1
  Al0+  Al80  1  0.82248115  0.07247433  0.34740998  1
  Al0+  Al81  1  0.42587028  0.82268442  0.31542465  1
  Al0+  Al82  1  0.32179955  0.57118719  0.01349594  1
  Al0+  Al83  1  0.92663227  0.32245028  0.98459641  1
  Al0+  Al84  1  0.93103564  0.82143468  0.31966200  1
  Al0+  Al85  1  0.57273058  0.67792423  0.65181872  1
  Al0+  Al86  1  0.67899903  0.92698332  0.68205068  1
  Al0+  Al87  1  0.32359819  0.57202091  0.35310969  1
  Al0+  Al88  1  0.57377507  0.17829900  0.31830051  1
  Al0+  Al89  1  0.42812350  0.31912020  0.31864121  1
  Al0+  Al90  1  0.17771951  0.93022042  0.01520986  1
  Al0+  Al91  1  0.57144538  0.67993170  0.31650243  1
  Al0+  Al92  1  0.07202907  0.17874091  0.98301180  1
  Al0+  Al93  1  0.67989300  0.92631800  0.01520631  1
  Al0+  Al94  1  0.17811160  0.42710565  0.34944551  1
  Al0+  Al95  1  0.07103227  0.17803648  0.64837128  1
  Si0+  Si96  1  0.82439606  0.57254695  0.01703796  1
  Si0+  Si97  1  0.82353855  0.56986848  0.68183233  1
  Si0+  Si98  1  0.07267960  0.68055366  0.98652773  1
  Si0+  Si99  1  0.17789614  0.92527898  0.68033803  1
  Si0+  Si100  1  0.42658115  0.82321314  0.98344184  1
  Si0+  Si101  1  0.31955435  0.07000833  0.34749833  1
  Si0+  Si102  1  0.82030195  0.07123887  0.01438178  1
  Si0+  Si103  1  0.43065323  0.32127556  0.98539882  1
  Si0+  Si104  1  0.07068753  0.17921672  0.31738355  1
  Si0+  Si105  1  0.17779950  0.92912564  0.34797863  1
  Si0+  Si106  1  0.07251334  0.67731012  0.65201882  1
  Si0+  Si107  1  0.42772091  0.32243824  0.65398386  1
  Si0+  Si108  1  0.17768759  0.43028884  0.68404651  1
  Si0+  Si109  1  0.92896851  0.82091522  0.98349127  1
  Si0+  Si110  1  0.07081421  0.67640703  0.31745944  1
  Si0+  Si111  1  0.57014068  0.17740151  0.98423961  1
  Si0+  Si112  1  0.32084405  0.56985487  0.68253841  1
  Si0+  Si113  1  0.17701421  0.43028104  0.01410753  1
  Si0+  Si114  1  0.56961940  0.17939711  0.65535477  1
  Si0+  Si115  1  0.67942719  0.42861092  0.34910837  1
  Si0+  Si116  1  0.92945973  0.32329486  0.31778561  1
  Si0+  Si117  1  0.67780889  0.43060115  0.68013296  1
  Si0+  Si118  1  0.93025812  0.81984188  0.65253198  1
  Si0+  Si119  1  0.82154707  0.57013454  0.34807290  1
  O2-  O120  1  0.24865602  0.00218433  0.06644193  1
  O2-  O121  1  0.25282337  -0.00484384  0.39052874  1
  O2-  O122  1  0.24595138  -0.00487940  0.72280275  1
  O2-  O123  1  0.24567639  0.49743027  0.05928865  1
  O2-  O124  1  0.25133725  0.49775006  0.40061329  1
  O2-  O125  1  0.24943579  0.50024450  0.72686167  1
  O2-  O126  1  0.75399293  0.00214592  0.06060203  1
  O2-  O127  1  0.74719024  0.00345526  0.39652182  1
  O2-  O128  1  0.75014005  0.00000815  0.73294276  1
  O2-  O129  1  0.75732434  0.50204607  0.06026454  1
  O2-  O130  1  0.74911490  0.50105736  0.39117720  1
  O2-  O131  1  0.74948759  0.50130009  0.72232152  1
  O2-  O132  1  -0.00090547  0.25075729  0.27667427  1
  O2-  O133  1  -0.00365974  0.24646168  0.59675893  1
  O2-  O134  1  -0.00174520  0.25028206  0.93509326  1
  O2-  O135  1  0.00695254  0.74827225  0.27143010  1
  O2-  O136  1  0.00473228  0.75157640  0.61056890  1
  O2-  O137  1  0.00259585  0.75148156  0.94188961  1
  O2-  O138  1  0.50133797  0.24966358  0.26703649  1
  O2-  O139  1  0.49558037  0.24788285  0.61345007  1
  O2-  O140  1  0.49740664  0.24712309  0.94112730  1
  O2-  O141  1  0.49895464  0.75116825  0.26648268  1
  O2-  O142  1  0.50544270  0.75436415  0.60345595  1
  O2-  O143  1  0.49718374  0.75654215  0.93879905  1
  O2-  O144  1  0.07011666  0.18080527  0.09726548  1
  O2-  O145  1  0.07194349  0.17828273  0.42205799  1
  O2-  O146  1  0.07326002  0.18225279  0.76140204  1
  O2-  O147  1  0.06963830  0.67839227  0.09103389  1
  O2-  O148  1  0.06658706  0.67663511  0.42362960  1
  O2-  O149  1  0.07207509  0.67656143  0.75750286  1
  O2-  O150  1  0.57203102  0.18008623  0.08879384  1
  O2-  O151  1  0.57150886  0.18036481  0.43287552  1
  O2-  O152  1  0.56915071  0.18202957  0.76072673  1
  O2-  O153  1  0.56839361  0.67858736  0.09733214  1
  O2-  O154  1  0.57177465  0.68128691  0.43013103  1
  O2-  O155  1  0.56826929  0.67383281  0.76549651  1
  O2-  O156  1  0.17560886  0.43016171  0.23568277  1
  O2-  O157  1  0.17727984  0.43146526  0.57936375  1
  O2-  O158  1  0.17895136  0.43365306  0.90800976  1
  O2-  O159  1  0.17460084  0.93295487  0.24339459  1
  O2-  O160  1  0.17735071  0.92388830  0.57452430  1
  O2-  O161  1  0.18027825  0.92686800  0.90140702  1
  O2-  O162  1  0.68188995  0.42736967  0.24413516  1
  O2-  O163  1  0.67697504  0.43097266  0.57511200  1
  O2-  O164  1  0.67835671  0.43067589  0.90041249  1
  O2-  O165  1  0.68256042  0.92702818  0.23503670  1
  O2-  O166  1  0.67949498  0.92776753  0.56896917  1
  O2-  O167  1  0.68158872  0.92606155  0.90192256  1
  O2-  O168  1  0.43241157  0.32196673  0.08984798  1
  O2-  O169  1  0.43000666  0.31537714  0.43317161  1
  O2-  O170  1  0.43023035  0.32649646  0.75936679  1
  O2-  O171  1  0.42525256  0.82080766  0.08855115  1
  O2-  O172  1  0.42593997  0.82293441  0.42921575  1
  O2-  O173  1  0.42612650  0.81930276  0.76730975  1
  O2-  O174  1  0.92858109  0.32237929  0.09871822  1
  O2-  O175  1  0.92983126  0.32605434  0.42237719  1
  O2-  O176  1  0.93046643  0.32415878  0.76140030  1
  O2-  O177  1  0.92911825  0.81939926  0.08842621  1
  O2-  O178  1  0.93305698  0.81883589  0.43320780  1
  O2-  O179  1  0.93063205  0.81641150  0.75791431  1
  O2-  O180  1  0.31542478  0.07303238  0.24295796  1
  O2-  O181  1  0.32031139  0.07292012  0.56486056  1
  O2-  O182  1  0.32096737  0.07335152  0.90402555  1
  O2-  O183  1  0.32081414  0.57030829  0.23929051  1
  O2-  O184  1  0.31937084  0.56778957  0.57826183  1
  O2-  O185  1  0.31959896  0.56947672  0.89937433  1
  O2-  O186  1  0.82479543  0.07077515  0.23350425  1
  O2-  O187  1  0.81915507  0.06997609  0.57018738  1
  O2-  O188  1  0.81787761  0.06926113  0.90888358  1
  O2-  O189  1  0.82621326  0.56722314  0.24331103  1
  O2-  O190  1  0.82725480  0.56981794  0.57685537  1
  O2-  O191  1  0.82547987  0.57382492  0.91118089  1
  O2-  O192  1  0.04269260  0.08828557  0.26884368  1
  O2-  O193  1  0.04820252  0.07702985  0.59756633  1
  O2-  O194  1  0.04590881  0.07993230  0.92939650  1
  O2-  O195  1  0.04022973  0.58434774  0.27136217  1
  O2-  O196  1  0.04036965  0.58771929  0.60371551  1
  O2-  O197  1  0.04487703  0.59012833  0.93504948  1
  O2-  O198  1  0.54573790  0.08098287  0.26521401  1
  O2-  O199  1  0.54340464  0.08725312  0.60917694  1
  O2-  O200  1  0.54248347  0.08470484  0.93832301  1
  O2-  O201  1  0.54400944  0.57964903  0.26730046  1
  O2-  O202  1  0.53980247  0.58104785  0.59751583  1
  O2-  O203  1  0.53732679  0.58203146  0.93250773  1
  O2-  O204  1  0.16152468  0.20772210  0.26915268  1
  O2-  O205  1  0.16873720  0.21213317  0.59576454  1
  O2-  O206  1  0.17064208  0.20912134  0.93077006  1
  O2-  O207  1  0.16613731  0.69730031  0.27520133  1
  O2-  O208  1  0.16467928  0.70041583  0.60368623  1
  O2-  O209  1  0.16465646  0.70845761  0.93885204  1
  O2-  O210  1  0.67168023  0.20926808  0.26541882  1
  O2-  O211  1  0.65943373  0.21048650  0.60691281  1
  O2-  O212  1  0.66032768  0.20811565  0.93540073  1
  O2-  O213  1  0.67094597  0.70376122  0.26351703  1
  O2-  O214  1  0.67531238  0.69601639  0.60338213  1
  O2-  O215  1  0.66868827  0.70558107  0.93242279  1
  O2-  O216  1  0.08291033  0.45642613  0.05847089  1
  O2-  O217  1  0.08105601  0.45890400  0.40501690  1
  O2-  O218  1  0.08636107  0.46079391  0.73093397  1
  O2-  O219  1  0.07774856  0.95767737  0.06662691  1
  O2-  O220  1  0.08801102  0.96140209  0.39697632  1
  O2-  O221  1  0.08401851  0.94830269  0.72652209  1
  O2-  O222  1  0.58591334  0.46103494  0.06995681  1
  O2-  O223  1  0.58744072  0.45407699  0.39670588  1
  O2-  O224  1  0.58607294  0.45864664  0.72889519  1
  O2-  O225  1  0.58351069  0.95551347  0.06823906  1
  O2-  O226  1  0.57737558  0.95418312  0.39823114  1
  O2-  O227  1  0.58181750  0.95635379  0.73732864  1
  O2-  O228  1  0.20076720  0.33632487  0.05835413  1
  O2-  O229  1  0.20590934  0.32866296  0.40315372  1
  O2-  O230  1  0.20536791  0.33897882  0.73166616  1
  O2-  O231  1  0.20280110  0.83234294  0.07113483  1
  O2-  O232  1  0.19717006  0.83469283  0.39368074  1
  O2-  O233  1  0.20229879  0.83073915  0.72642582  1
  O2-  O234  1  0.70908844  0.33208380  0.06931048  1
  O2-  O235  1  0.70942601  0.33802593  0.39765674  1
  O2-  O236  1  0.70414894  0.33913151  0.72875089  1
  O2-  O237  1  0.71372217  0.83014209  0.06729777  1
  O2-  O238  1  0.71239276  0.82997589  0.39993920  1
  O2-  O239  1  0.71093593  0.82809106  0.73357781  1
  O2-  O240  1  0.45553377  0.41826469  0.26872257  1
  O2-  O241  1  0.45933183  0.41143841  0.60370715  1
  O2-  O242  1  0.46296774  0.41131642  0.93654769  1
  O2-  O243  1  0.44993044  0.92128394  0.26204192  1
  O2-  O244  1  0.45478856  0.92286143  0.60283757  1
  O2-  O245  1  0.45073761  0.91900543  0.94133613  1
  O2-  O246  1  0.95821489  0.41479140  0.27003712  1
  O2-  O247  1  0.95907984  0.41900722  0.59597601  1
  O2-  O248  1  0.95325345  0.42222493  0.93171140  1
  O2-  O249  1  0.96283500  0.91690452  0.26421167  1
  O2-  O250  1  0.95554996  0.91157115  0.60489485  1
  O2-  O251  1  0.95508390  0.91228300  0.93490273  1
  O2-  O252  1  0.32954876  0.29106632  0.26614258  1
  O2-  O253  1  0.33452657  0.29927181  0.60865338  1
  O2-  O254  1  0.33736267  0.29881761  0.93774267  1
  O2-  O255  1  0.32582911  0.79366810  0.26527352  1
  O2-  O256  1  0.33229182  0.79179379  0.59928388  1
  O2-  O257  1  0.33268058  0.79546088  0.93854694  1
  O2-  O258  1  0.83729300  0.29772854  0.27051314  1
  O2-  O259  1  0.82660129  0.29791631  0.59724159  1
  O2-  O260  1  0.82737402  0.29550216  0.93232131  1
  O2-  O261  1  0.83739095  0.78672573  0.26381285  1
  O2-  O262  1  0.84098384  0.78679507  0.60418222  1
  O2-  O263  1  0.83980470  0.78825106  0.93399012  1
  O2-  O264  1  0.41909564  0.04771710  0.07176342  1
  O2-  O265  1  0.41333214  0.04644547  0.39235913  1
  O2-  O266  1  0.41542853  0.04422883  0.73631819  1
  O2-  O267  1  0.41578599  0.53679830  0.06800292  1
  O2-  O268  1  0.42123457  0.54138707  0.40637136  1
  O2-  O269  1  0.41229296  0.53912622  0.72944081  1
  O2-  O270  1  0.91551484  0.04784712  0.05722038  1
  O2-  O271  1  0.91984285  0.03989697  0.40090339  1
  O2-  O272  1  0.92123367  0.04285513  0.73436462  1
  O2-  O273  1  0.91896951  0.55020001  0.06319204  1
  O2-  O274  1  0.91174321  0.54136416  0.39884161  1
  O2-  O275  1  0.91443707  0.54028302  0.73138700  1
  O2-  O276  1  0.29311669  0.17375168  0.06973441  1
  O2-  O277  1  0.28804335  0.16016742  0.39604250  1
  O2-  O278  1  0.28961268  0.16880321  0.73313928  1
  O2-  O279  1  0.29113217  0.66628046  0.06841602  1
  O2-  O280  1  0.29089028  0.66923788  0.40679599  1
  O2-  O281  1  0.29233109  0.66191061  0.72937593  1
  O2-  O282  1  0.79487534  0.16512455  0.05926210  1
  O2-  O283  1  0.79936697  0.17269493  0.39955243  1
  O2-  O284  1  0.79446813  0.17249079  0.73374159  1
  O2-  O285  1  0.79760177  0.66526363  0.06324014  1
  O2-  O286  1  0.79533515  0.66233416  0.39507878  1
  O2-  O287  1  0.80069926  0.66171298  0.73134612  1
