# generated using pymatgen
data_Ca2Al2SiO7
_symmetry_space_group_name_H-M   'P 1'
_cell_length_a   15.47279672
_cell_length_b   15.47410213
_cell_length_c   15.29388460
_cell_angle_alpha   89.98732595
_cell_angle_beta   90.01139133
_cell_angle_gamma   89.97712314
_symmetry_Int_Tables_number   1
_chemical_formula_structural   Ca2Al2SiO7
_chemical_formula_sum   'Ca48 Al48 Si24 O168'
_cell_volume   3661.77819211
_cell_formula_units_Z   24
loop_
 _symmetry_equiv_pos_site_id
 _symmetry_equiv_pos_as_xyz
  1  'x, y, z'
loop_
 _atom_type_symbol
 _atom_type_oxidation_number
  Ca2+  2.0
  Al0+  0.0
  Si0+  0.0
  O2-  -2.0
loop_
 _atom_site_type_symbol
 _atom_site_label
 _atom_site_symmetry_multiplicity
 _atom_site_fract_x
 _atom_site_fract_y
 _atom_site_fract_z
 _atom_site_occupancy
  Ca2+  Ca0  1  0.16834002  0.07023130  0.17123320  1
  Ca2+  Ca1  1  0.16618846  0.07508730  0.51037626  1
  Ca2+  Ca2  1  0.17442428  0.07467949  0.83896055  1
  Ca2+  Ca3  1  0.16298593  0.58732272  0.16923616  1
  Ca2+  Ca4  1  0.16223158  0.58683535  0.50604950  1
  Ca2+  Ca5  1  0.16152876  0.58544750  0.83700273  1
  Ca2+  Ca6  1  0.66478904  0.08408765  0.16572124  1
  Ca2+  Ca7  1  0.66664845  0.07948824  0.51253931  1
  Ca2+  Ca8  1  0.65905525  0.08070776  0.83417801  1
  Ca2+  Ca9  1  0.67987732  0.59481642  0.16790105  1
  Ca2+  Ca10  1  0.67937420  0.58013021  0.51508425  1
  Ca2+  Ca11  1  0.67466215  0.59174729  0.83662816  1
  Ca2+  Ca12  1  0.08497527  0.32538650  0.16449454  1
  Ca2+  Ca13  1  0.08120915  0.32056862  0.50197593  1
  Ca2+  Ca14  1  0.07704061  0.32634170  0.82223571  1
  Ca2+  Ca15  1  0.08285695  0.82656049  0.15840399  1
  Ca2+  Ca16  1  0.09107250  0.82615078  0.49704035  1
  Ca2+  Ca17  1  0.08648727  0.82753454  0.82936609  1
  Ca2+  Ca18  1  0.57633102  0.32631948  0.15518891  1
  Ca2+  Ca19  1  0.58974625  0.33131882  0.50499617  1
  Ca2+  Ca20  1  0.58446195  0.32336555  0.82836589  1
  Ca2+  Ca21  1  0.57481667  0.82832117  0.15366982  1
  Ca2+  Ca22  1  0.57916242  0.83730723  0.50602643  1
  Ca2+  Ca23  1  0.57522135  0.82942585  0.82577341  1
  Ca2+  Ca24  1  0.33567298  0.41680738  0.16589884  1
  Ca2+  Ca25  1  0.33028107  0.42066906  0.50503814  1
  Ca2+  Ca26  1  0.33409671  0.41590898  0.83832400  1
  Ca2+  Ca27  1  0.32406621  0.91284163  0.16445066  1
  Ca2+  Ca28  1  0.32230837  0.91947986  0.51211388  1
  Ca2+  Ca29  1  0.32936020  0.91948352  0.83723440  1
  Ca2+  Ca30  1  0.83291758  0.43084782  0.17075706  1
  Ca2+  Ca31  1  0.83429988  0.42566365  0.51140812  1
  Ca2+  Ca32  1  0.83176793  0.42572283  0.83337530  1
  Ca2+  Ca33  1  0.83439824  0.91215292  0.16513530  1
  Ca2+  Ca34  1  0.82573844  0.91804290  0.50770923  1
  Ca2+  Ca35  1  0.82724551  0.90820476  0.83580349  1
  Ca2+  Ca36  1  0.41901421  0.17052324  0.15429588  1
  Ca2+  Ca37  1  0.41927826  0.15906827  0.50544335  1
  Ca2+  Ca38  1  0.41953477  0.16219779  0.82964581  1
  Ca2+  Ca39  1  0.42464328  0.67359631  0.15354984  1
  Ca2+  Ca40  1  0.42063525  0.67386620  0.50305560  1
  Ca2+  Ca41  1  0.42395391  0.67978396  0.82663996  1
  Ca2+  Ca42  1  0.92445997  0.16434252  0.16406687  1
  Ca2+  Ca43  1  0.92512203  0.16918349  0.49973480  1
  Ca2+  Ca44  1  0.92284828  0.17428424  0.82174631  1
  Ca2+  Ca45  1  0.92310662  0.66818912  0.15885901  1
  Ca2+  Ca46  1  0.92367048  0.66044173  0.49902833  1
  Ca2+  Ca47  1  0.92242983  0.66559313  0.83188477  1
  Al0+  Al48  1  -0.00147244  -0.00113289  0.00084648  1
  Al0+  Al49  1  -0.00128666  -0.00064073  0.33380501  1
  Al0+  Al50  1  -0.00000167  -0.00169793  0.66713093  1
  Al0+  Al51  1  -0.00108368  0.49937448  0.00372640  1
  Al0+  Al52  1  0.00068600  0.49922050  0.33384938  1
  Al0+  Al53  1  -0.00016705  0.50037042  0.66327142  1
  Al0+  Al54  1  0.49956122  0.00071790  0.00002618  1
  Al0+  Al55  1  0.49837151  0.00080307  0.33095311  1
  Al0+  Al56  1  0.49957198  0.00119906  0.66495783  1
  Al0+  Al57  1  0.50058829  0.49710776  -0.00512345  1
  Al0+  Al58  1  0.50048735  0.49996206  0.33323679  1
  Al0+  Al59  1  0.50086019  0.49915889  0.66609742  1
  Al0+  Al60  1  0.24998342  0.24962656  0.00174632  1
  Al0+  Al61  1  0.25097729  0.25029870  0.32967290  1
  Al0+  Al62  1  0.25049213  0.25052354  0.66533307  1
  Al0+  Al63  1  0.25034687  0.74770170  -0.00193500  1
  Al0+  Al64  1  0.25044697  0.75009923  0.33302221  1
  Al0+  Al65  1  0.25038875  0.74991413  0.66225106  1
  Al0+  Al66  1  0.74988292  0.25067921  0.00011665  1
  Al0+  Al67  1  0.74964273  0.25063107  0.33141907  1
  Al0+  Al68  1  0.74949090  0.25291515  0.66132954  1
  Al0+  Al69  1  0.75269293  0.75052993  0.00105448  1
  Al0+  Al70  1  0.75011558  0.75046064  0.34011140  1
  Al0+  Al71  1  0.75127515  0.75043621  0.67101829  1
  Al0+  Al72  1  0.07048019  0.67935294  0.31918748  1
  Al0+  Al73  1  0.42638727  0.32041752  0.98404855  1
  Al0+  Al74  1  0.82122876  0.57048247  0.34903373  1
  Al0+  Al75  1  0.57203661  0.17920331  0.98454775  1
  Al0+  Al76  1  0.17725383  0.92617915  0.68296276  1
  Al0+  Al77  1  0.82297785  0.57093180  0.68496191  1
  Al0+  Al78  1  0.07090598  0.17744054  0.31808440  1
  Al0+  Al79  1  0.92965841  0.82287204  0.98484996  1
  Al0+  Al80  1  0.92878164  0.32145608  0.65168941  1
  Al0+  Al81  1  0.31992133  0.07204951  0.68174231  1
  Al0+  Al82  1  0.07037664  0.67750809  0.98545119  1
  Al0+  Al83  1  0.17912031  0.92890939  0.34795584  1
  Al0+  Al84  1  0.32149172  0.07107067  0.01717231  1
  Al0+  Al85  1  0.57331546  0.67829084  0.65089974  1
  Al0+  Al86  1  0.06979721  0.68113424  0.65249764  1
  Al0+  Al87  1  0.67991196  0.93086959  0.68093998  1
  Al0+  Al88  1  0.07272369  0.17668765  0.65361292  1
  Al0+  Al89  1  0.56934667  0.18040176  0.65213348  1
  Al0+  Al90  1  0.82012873  0.57094845  0.01612201  1
  Al0+  Al91  1  0.67753724  0.42780652  0.68382305  1
  Al0+  Al92  1  0.17767959  0.92657131  0.01619813  1
  Al0+  Al93  1  0.57368083  0.67845669  0.98643258  1
  Al0+  Al94  1  0.42779327  0.82127701  0.98490114  1
  Al0+  Al95  1  0.42965148  0.82212748  0.64988700  1
  Si0+  Si96  1  0.67829766  0.42629941  0.01817111  1
  Si0+  Si97  1  0.82133879  0.07447049  0.01507261  1
  Si0+  Si98  1  0.92660536  0.82298560  0.64893005  1
  Si0+  Si99  1  0.42972852  0.82092976  0.31761635  1
  Si0+  Si100  1  0.18033144  0.42759683  0.34850071  1
  Si0+  Si101  1  0.92985455  0.32063818  0.98746921  1
  Si0+  Si102  1  0.57131962  0.67950693  0.32005456  1
  Si0+  Si103  1  0.18011042  0.43031448  0.67998994  1
  Si0+  Si104  1  0.32189687  0.07345022  0.35017045  1
  Si0+  Si105  1  0.67668286  0.93111897  0.34723167  1
  Si0+  Si106  1  0.17790590  0.42862320  0.01552582  1
  Si0+  Si107  1  0.42948708  0.32294856  0.31830661  1
  Si0+  Si108  1  0.68004881  0.93015328  0.01509718  1
  Si0+  Si109  1  0.42627019  0.32357264  0.64749629  1
  Si0+  Si110  1  0.92485049  0.82179588  0.31810390  1
  Si0+  Si111  1  0.67714724  0.42729320  0.34960945  1
  Si0+  Si112  1  0.32234557  0.57063336  0.34759972  1
  Si0+  Si113  1  0.57077801  0.17865571  0.31827885  1
  Si0+  Si114  1  0.32158580  0.57115701  0.68077991  1
  Si0+  Si115  1  0.81991378  0.07265551  0.34779811  1
  Si0+  Si116  1  0.07021387  0.17847686  0.98648354  1
  Si0+  Si117  1  0.92811041  0.32091211  0.31466653  1
  Si0+  Si118  1  0.32246179  0.56909644  0.01348862  1
  Si0+  Si119  1  0.82222818  0.07328118  0.68183259  1
  O2-  O120  1  0.25005091  -0.00150406  0.06728847  1
  O2-  O121  1  0.25183682  0.00637745  0.39326780  1
  O2-  O122  1  0.24754169  0.00058027  0.73082401  1
  O2-  O123  1  0.25008359  0.49933290  0.05719449  1
  O2-  O124  1  0.24918075  0.50139811  0.38975121  1
  O2-  O125  1  0.25087058  0.50019616  0.72335025  1
  O2-  O126  1  0.75024334  0.00271821  0.05730641  1
  O2-  O127  1  0.74731928  0.00292407  0.38882205  1
  O2-  O128  1  0.75488478  0.00503226  0.72823295  1
  O2-  O129  1  0.74189053  0.49927356  0.06350542  1
  O2-  O130  1  0.74613813  0.49510777  0.39326171  1
  O2-  O131  1  0.74600928  0.50297692  0.73354379  1
  O2-  O132  1  -0.00411940  0.25171946  0.26942317  1
  O2-  O133  1  -0.00168634  0.24617622  0.60303196  1
  O2-  O134  1  -0.00084836  0.24898559  0.94455786  1
  O2-  O135  1  -0.00530780  0.75381766  0.27491804  1
  O2-  O136  1  -0.00282783  0.75678417  0.60409708  1
  O2-  O137  1  0.00315087  0.75298851  0.93519346  1
  O2-  O138  1  0.50042456  0.25093025  0.27808494  1
  O2-  O139  1  0.49543713  0.25523866  0.60336370  1
  O2-  O140  1  0.49729437  0.24796496  0.93490783  1
  O2-  O141  1  0.50165377  0.75054180  0.27583175  1
  O2-  O142  1  0.50257355  0.75068570  0.59897247  1
  O2-  O143  1  0.50107028  0.74954668  0.93734980  1
  O2-  O144  1  0.06821643  0.18042907  0.09220224  1
  O2-  O145  1  0.06949017  0.17971406  0.43045948  1
  O2-  O146  1  0.07173201  0.18147215  0.76747941  1
  O2-  O147  1  0.06797830  0.67596552  0.09954604  1
  O2-  O148  1  0.07119120  0.67932066  0.43189186  1
  O2-  O149  1  0.06999937  0.67804886  0.76484167  1
  O2-  O150  1  0.57390312  0.18254316  0.09942311  1
  O2-  O151  1  0.57172558  0.17653089  0.42275885  1
  O2-  O152  1  0.56940702  0.18042753  0.76423959  1
  O2-  O153  1  0.57194929  0.68222337  0.10168260  1
  O2-  O154  1  0.56934376  0.67907063  0.42437792  1
  O2-  O155  1  0.56991757  0.68034971  0.76396755  1
  O2-  O156  1  0.18235781  0.42573504  0.24322966  1
  O2-  O157  1  0.18240048  0.43066994  0.57438287  1
  O2-  O158  1  0.17555467  0.42793453  0.91066787  1
  O2-  O159  1  0.18129417  0.92751382  0.23514158  1
  O2-  O160  1  0.17937425  0.92654530  0.56863597  1
  O2-  O161  1  0.17651368  0.92938000  0.90360971  1
  O2-  O162  1  0.67616624  0.42610325  0.24409905  1
  O2-  O163  1  0.68009170  0.42924515  0.56920563  1
  O2-  O164  1  0.68296696  0.42080688  0.91381270  1
  O2-  O165  1  0.67545619  0.93154707  0.24204226  1
  O2-  O166  1  0.68139554  0.93382309  0.56668800  1
  O2-  O167  1  0.68098135  0.93008141  0.91067374  1
  O2-  O168  1  0.42882716  0.32091775  0.09883167  1
  O2-  O169  1  0.42813706  0.32654694  0.42274146  1
  O2-  O170  1  0.42301678  0.32374374  0.75224081  1
  O2-  O171  1  0.43009919  0.81788472  0.09996846  1
  O2-  O172  1  0.43102388  0.82163547  0.42211401  1
  O2-  O173  1  0.42962316  0.82014082  0.76279077  1
  O2-  O174  1  0.93207977  0.31925698  0.09306644  1
  O2-  O175  1  0.92783646  0.31904678  0.41955404  1
  O2-  O176  1  0.93260310  0.32092082  0.76593516  1
  O2-  O177  1  0.92839410  0.82085293  0.09927530  1
  O2-  O178  1  0.92107214  0.82240261  0.42318090  1
  O2-  O179  1  0.92633616  0.82265924  0.75402604  1
  O2-  O180  1  0.32423710  0.07316850  0.24496273  1
  O2-  O181  1  0.31826794  0.07104893  0.56717212  1
  O2-  O182  1  0.31853607  0.07379694  0.90448284  1
  O2-  O183  1  0.32533159  0.56841090  0.24251788  1
  O2-  O184  1  0.32033119  0.56907210  0.57484118  1
  O2-  O185  1  0.32177055  0.56756124  0.90879084  1
  O2-  O186  1  0.81870792  0.07400896  0.24248666  1
  O2-  O187  1  0.82001691  0.07090402  0.57543874  1
  O2-  O188  1  0.82206991  0.07913436  0.91088279  1
  O2-  O189  1  0.81938488  0.57092402  0.23567842  1
  O2-  O190  1  0.82421345  0.56795092  0.57077367  1
  O2-  O191  1  0.82354572  0.56738629  0.90428247  1
  O2-  O192  1  0.03675193  0.08176870  0.26398027  1
  O2-  O193  1  0.04495825  0.07830992  0.60056591  1
  O2-  O194  1  0.04203006  0.08734455  0.94075934  1
  O2-  O195  1  0.04332208  0.58044994  0.26721900  1
  O2-  O196  1  0.03952306  0.58461069  0.59746295  1
  O2-  O197  1  0.03957896  0.57854192  0.93492394  1
  O2-  O198  1  0.54266265  0.08747007  0.26911464  1
  O2-  O199  1  0.53845415  0.08526683  0.59499386  1
  O2-  O200  1  0.54861911  0.07932903  0.93554692  1
  O2-  O201  1  0.54368373  0.58744546  0.27264602  1
  O2-  O202  1  0.54299851  0.57987060  0.59815204  1
  O2-  O203  1  0.55023663  0.57869297  0.93704291  1
  O2-  O204  1  0.16706717  0.21122521  0.26425119  1
  O2-  O205  1  0.16820741  0.21129752  0.59802962  1
  O2-  O206  1  0.16118381  0.20833605  0.94126886  1
  O2-  O207  1  0.16879172  0.70792363  0.26647937  1
  O2-  O208  1  0.16692784  0.70774594  0.59667537  1
  O2-  O209  1  0.17080766  0.69790076  0.93537613  1
  O2-  O210  1  0.66309832  0.20485856  0.27027330  1
  O2-  O211  1  0.66534269  0.21040326  0.59548712  1
  O2-  O212  1  0.67049239  0.20893899  0.93300855  1
  O2-  O213  1  0.66377966  0.70885856  0.27491005  1
  O2-  O214  1  0.67255641  0.70737358  0.60031865  1
  O2-  O215  1  0.67133446  0.70805913  0.93638420  1
  O2-  O216  1  0.08781679  0.45641102  0.06678415  1
  O2-  O217  1  0.08797917  0.45243746  0.39499761  1
  O2-  O218  1  0.08899055  0.45852999  0.72704960  1
  O2-  O219  1  0.07873432  0.95698566  0.06923588  1
  O2-  O220  1  0.08026548  0.95621136  0.39907936  1
  O2-  O221  1  0.07707739  0.95029925  0.73336689  1
  O2-  O222  1  0.58177997  0.44651184  0.06120972  1
  O2-  O223  1  0.58306496  0.45217838  0.39523035  1
  O2-  O224  1  0.57587633  0.44812746  0.73266918  1
  O2-  O225  1  0.58889853  0.95709970  0.06481619  1
  O2-  O226  1  0.58494722  0.95995733  0.39432165  1
  O2-  O227  1  0.58379399  0.96281582  0.73289337  1
  O2-  O228  1  0.20595430  0.33774602  0.06549636  1
  O2-  O229  1  0.21234630  0.33723807  0.39659319  1
  O2-  O230  1  0.20703099  0.33887903  0.72792708  1
  O2-  O231  1  0.20750263  0.82698814  0.06812926  1
  O2-  O232  1  0.21353220  0.83262572  0.40085368  1
  O2-  O233  1  0.20893703  0.82764057  0.73287885  1
  O2-  O234  1  0.70921064  0.33499577  0.06832428  1
  O2-  O235  1  0.70162176  0.33233271  0.39427169  1
  O2-  O236  1  0.70903970  0.32949070  0.73460833  1
  O2-  O237  1  0.71013908  0.84016425  0.06555713  1
  O2-  O238  1  0.70418607  0.84036694  0.39617356  1
  O2-  O239  1  0.70967120  0.83512289  0.73548837  1
  O2-  O240  1  0.45758934  0.41432062  0.26884326  1
  O2-  O241  1  0.45139696  0.41676395  0.59988058  1
  O2-  O242  1  0.45207483  0.41847793  0.93092426  1
  O2-  O243  1  0.45724927  0.91295419  0.26989226  1
  O2-  O244  1  0.45967772  0.91909976  0.59518989  1
  O2-  O245  1  0.45549519  0.91981488  0.93550779  1
  O2-  O246  1  0.95697363  0.41363369  0.26887803  1
  O2-  O247  1  0.96359228  0.41616994  0.59613526  1
  O2-  O248  1  0.95995650  0.41101091  0.94075415  1
  O2-  O249  1  0.94753764  0.91627859  0.27250111  1
  O2-  O250  1  0.94742230  0.91793952  0.60299993  1
  O2-  O251  1  0.94922016  0.92372984  0.93349386  1
  O2-  O252  1  0.33819105  0.29642027  0.26930171  1
  O2-  O253  1  0.33353958  0.29758391  0.59891309  1
  O2-  O254  1  0.32601176  0.29677540  0.93352553  1
  O2-  O255  1  0.33925542  0.79020214  0.27029481  1
  O2-  O256  1  0.33376646  0.78834665  0.59456601  1
  O2-  O257  1  0.33118151  0.79080544  0.93247625  1
  O2-  O258  1  0.83391032  0.29607719  0.26823462  1
  O2-  O259  1  0.83150626  0.29627215  0.59581799  1
  O2-  O260  1  0.83821430  0.29384758  0.94132593  1
  O2-  O261  1  0.83075932  0.79569281  0.27165753  1
  O2-  O262  1  0.83349450  0.79644852  0.60245804  1
  O2-  O263  1  0.83206345  0.79287790  0.93335858  1
  O2-  O264  1  0.42144700  0.04524972  0.07015463  1
  O2-  O265  1  0.41607308  0.04593675  0.39518679  1
  O2-  O266  1  0.41885385  0.04424161  0.73163008  1
  O2-  O267  1  0.41381692  0.53971871  0.06285186  1
  O2-  O268  1  0.41287446  0.53993690  0.39663353  1
  O2-  O269  1  0.41274179  0.54347835  0.72781714  1
  O2-  O270  1  0.91188556  0.04569646  0.06527520  1
  O2-  O271  1  0.91062485  0.04426739  0.39599394  1
  O2-  O272  1  0.91620379  0.05039525  0.72736498  1
  O2-  O273  1  0.91491241  0.53452470  0.07223658  1
  O2-  O274  1  0.91841949  0.53827611  0.40083917  1
  O2-  O275  1  0.92044934  0.53616868  0.73590270  1
  O2-  O276  1  0.29185334  0.17022781  0.07054431  1
  O2-  O277  1  0.29977828  0.16894453  0.39381092  1
  O2-  O278  1  0.29429629  0.17212390  0.73248572  1
  O2-  O279  1  0.29659139  0.66029568  0.06314984  1
  O2-  O280  1  0.29597465  0.66233339  0.39479877  1
  O2-  O281  1  0.29274645  0.66222096  0.72683751  1
  O2-  O282  1  0.79265471  0.16471291  0.06684870  1
  O2-  O283  1  0.79297599  0.16506541  0.39457753  1
  O2-  O284  1  0.79718397  0.16778271  0.72442664  1
  O2-  O285  1  0.79098077  0.66815121  0.07160812  1
  O2-  O286  1  0.79127388  0.66693452  0.40340069  1
  O2-  O287  1  0.79888180  0.67059750  0.73571973  1
