# generated using pymatgen
data_Ca2Al2SiO7
_symmetry_space_group_name_H-M   'P 1'
_cell_length_a   15.45782334
_cell_length_b   15.45857668
_cell_length_c   15.28368541
_cell_angle_alpha   90.01216634
_cell_angle_beta   90.00663914
_cell_angle_gamma   89.98304770
_symmetry_Int_Tables_number   1
_chemical_formula_structural   Ca2Al2SiO7
_chemical_formula_sum   'Ca48 Al48 Si24 O168'
_cell_volume   3652.12726261
_cell_formula_units_Z   24
loop_
 _symmetry_equiv_pos_site_id
 _symmetry_equiv_pos_as_xyz
  1  'x, y, z'
loop_
 _atom_type_symbol
 _atom_type_oxidation_number
  Ca2+  2.0
  Al0+  0.0
  Si0+  0.0
  O2-  -2.0
loop_
 _atom_site_type_symbol
 _atom_site_label
 _atom_site_symmetry_multiplicity
 _atom_site_fract_x
 _atom_site_fract_y
 _atom_site_fract_z
 _atom_site_occupancy
  Ca2+  Ca0  1  0.16114798  0.07785678  0.17385400  1
  Ca2+  Ca1  1  0.16444491  0.07830389  0.50404512  1
  Ca2+  Ca2  1  0.16817691  0.06981508  0.83745562  1
  Ca2+  Ca3  1  0.16361740  0.58357483  0.17349590  1
  Ca2+  Ca4  1  0.16049144  0.57196124  0.50042609  1
  Ca2+  Ca5  1  0.16400535  0.57887339  0.83595421  1
  Ca2+  Ca6  1  0.66719342  0.08176789  0.17322437  1
  Ca2+  Ca7  1  0.67188129  0.09065087  0.49613081  1
  Ca2+  Ca8  1  0.66533830  0.07860717  0.84164569  1
  Ca2+  Ca9  1  0.67238533  0.58152237  0.17566201  1
  Ca2+  Ca10  1  0.66875792  0.57492732  0.50466066  1
  Ca2+  Ca11  1  0.67837973  0.57975427  0.83644358  1
  Ca2+  Ca12  1  0.08164822  0.33191488  0.17019122  1
  Ca2+  Ca13  1  0.07480744  0.33568765  0.49108168  1
  Ca2+  Ca14  1  0.07799148  0.33452129  0.82408290  1
  Ca2+  Ca15  1  0.07273981  0.82612828  0.16094662  1
  Ca2+  Ca16  1  0.08082955  0.82574814  0.49005110  1
  Ca2+  Ca17  1  0.08410648  0.83122903  0.83300702  1
  Ca2+  Ca18  1  0.59286333  0.32256677  0.16897965  1
  Ca2+  Ca19  1  0.57682974  0.33840148  0.49025739  1
  Ca2+  Ca20  1  0.58252293  0.32882884  0.82581676  1
  Ca2+  Ca21  1  0.58229639  0.83380090  0.16548576  1
  Ca2+  Ca22  1  0.57285085  0.82578958  0.49151608  1
  Ca2+  Ca23  1  0.58032765  0.83448369  0.82786131  1
  Ca2+  Ca24  1  0.32743270  0.41607621  0.17813868  1
  Ca2+  Ca25  1  0.32458958  0.40757214  0.50351412  1
  Ca2+  Ca26  1  0.32889279  0.41085959  0.83170765  1
  Ca2+  Ca27  1  0.32855657  0.91456822  0.17125156  1
  Ca2+  Ca28  1  0.33127692  0.91350065  0.50625876  1
  Ca2+  Ca29  1  0.32284321  0.90858745  0.83654301  1
  Ca2+  Ca30  1  0.83187771  0.42232370  0.17600722  1
  Ca2+  Ca31  1  0.82477889  0.41416997  0.50663142  1
  Ca2+  Ca32  1  0.83572488  0.42621973  0.83183886  1
  Ca2+  Ca33  1  0.83374942  0.91691114  0.17272800  1
  Ca2+  Ca34  1  0.84141979  0.92433827  0.49834217  1
  Ca2+  Ca35  1  0.82687755  0.91653298  0.84463748  1
  Ca2+  Ca36  1  0.42635525  0.17234711  0.16710201  1
  Ca2+  Ca37  1  0.42314152  0.17818913  0.49235059  1
  Ca2+  Ca38  1  0.42407694  0.16928402  0.82910961  1
  Ca2+  Ca39  1  0.42359616  0.66733897  0.17142398  1
  Ca2+  Ca40  1  0.41869074  0.67612227  0.49236588  1
  Ca2+  Ca41  1  0.41926894  0.67284400  0.82644480  1
  Ca2+  Ca42  1  0.91253536  0.17084233  0.17345500  1
  Ca2+  Ca43  1  0.92045871  0.17667348  0.48967699  1
  Ca2+  Ca44  1  0.91809380  0.17432875  0.82731945  1
  Ca2+  Ca45  1  0.92474032  0.66950291  0.15958315  1
  Ca2+  Ca46  1  0.91926276  0.67019050  0.49275602  1
  Ca2+  Ca47  1  0.91447950  0.66578835  0.83479502  1
  Al0+  Al48  1  -0.00044425  0.00094472  0.00010027  1
  Al0+  Al49  1  -0.00088538  0.00039680  0.33265587  1
  Al0+  Al50  1  0.00082305  -0.00114719  0.67321021  1
  Al0+  Al51  1  0.00030976  0.50047393  0.00038426  1
  Al0+  Al52  1  0.00036796  0.50052702  0.33064836  1
  Al0+  Al53  1  0.00021044  0.50016593  0.67054204  1
  Al0+  Al54  1  0.49966492  0.00165321  -0.00057703  1
  Al0+  Al55  1  0.49842756  0.00081896  0.32896716  1
  Al0+  Al56  1  0.50044724  0.00042666  0.66162183  1
  Al0+  Al57  1  0.49848349  0.49991610  -0.00135048  1
  Al0+  Al58  1  0.49843709  0.50306646  0.33023338  1
  Al0+  Al59  1  0.50033974  0.49875939  0.66811588  1
  Al0+  Al60  1  0.24997065  0.24964696  -0.00101714  1
  Al0+  Al61  1  0.24986962  0.24824846  0.33074730  1
  Al0+  Al62  1  0.25220953  0.24665785  0.66999650  1
  Al0+  Al63  1  0.24893918  0.74800095  0.00192862  1
  Al0+  Al64  1  0.25009093  0.74956986  0.32718113  1
  Al0+  Al65  1  0.24926303  0.74899752  0.66651173  1
  Al0+  Al66  1  0.74894122  0.24958928  -0.00717245  1
  Al0+  Al67  1  0.75072800  0.25014886  0.33469651  1
  Al0+  Al68  1  0.75181124  0.24955689  0.66877972  1
  Al0+  Al69  1  0.75003668  0.74993650  0.00490874  1
  Al0+  Al70  1  0.74807097  0.75161623  0.33021030  1
  Al0+  Al71  1  0.75138469  0.75094712  0.66849605  1
  Al0+  Al72  1  0.57147192  0.67875657  0.31888886  1
  Al0+  Al73  1  0.17938683  0.42840202  0.34630608  1
  Al0+  Al74  1  0.06990145  0.67794582  0.31929240  1
  Al0+  Al75  1  0.07158899  0.17846086  0.32011356  1
  Al0+  Al76  1  0.42818470  0.81994148  0.65431721  1
  Al0+  Al77  1  0.42922442  0.32086412  0.65320344  1
  Al0+  Al78  1  0.67940188  0.43039058  0.34554163  1
  Al0+  Al79  1  0.42736167  0.32293476  0.31859375  1
  Al0+  Al80  1  0.92835983  0.82284171  0.32006720  1
  Al0+  Al81  1  0.67815640  0.93009030  0.01374030  1
  Al0+  Al82  1  0.92796088  0.82156452  0.98320039  1
  Al0+  Al83  1  0.42814274  0.82258828  0.31659086  1
  Al0+  Al84  1  0.82150529  0.57293475  0.68138977  1
  Al0+  Al85  1  0.92813225  0.32199795  0.31892006  1
  Al0+  Al86  1  0.57226074  0.18093540  0.31926184  1
  Al0+  Al87  1  0.82063271  0.56902657  0.01633411  1
  Al0+  Al88  1  0.17876061  0.92867047  0.01664451  1
  Al0+  Al89  1  0.57005842  0.17974822  0.98443829  1
  Al0+  Al90  1  0.67702151  0.42711194  0.68284836  1
  Al0+  Al91  1  0.18020697  0.42751030  0.68004867  1
  Al0+  Al92  1  0.82039784  0.06914955  0.34743358  1
  Al0+  Al93  1  0.93111488  0.32155899  0.65322524  1
  Al0+  Al94  1  0.07142172  0.67844503  0.98115043  1
  Al0+  Al95  1  0.17985537  0.92736341  0.67991528  1
  Si0+  Si96  1  0.32249933  0.57072455  0.01542582  1
  Si0+  Si97  1  0.82248768  0.57405355  0.34930823  1
  Si0+  Si98  1  0.18004862  0.92899697  0.34773471  1
  Si0+  Si99  1  0.32164617  0.57226761  0.68260807  1
  Si0+  Si100  1  0.57152541  0.67767899  0.98395041  1
  Si0+  Si101  1  0.07151201  0.17579977  0.65279589  1
  Si0+  Si102  1  0.57404631  0.67879002  0.65226529  1
  Si0+  Si103  1  0.42977699  0.82018055  0.98508068  1
  Si0+  Si104  1  0.07049873  0.67959121  0.65208855  1
  Si0+  Si105  1  0.67673920  0.42756489  0.01612250  1
  Si0+  Si106  1  0.17980626  0.42828693  0.01488093  1
  Si0+  Si107  1  0.82188734  0.07042697  0.68314277  1
  Si0+  Si108  1  0.32225923  0.07071260  0.34898594  1
  Si0+  Si109  1  0.32128278  0.57347098  0.35064217  1
  Si0+  Si110  1  0.32429081  0.07027303  0.68402770  1
  Si0+  Si111  1  0.57351883  0.17756852  0.64888301  1
  Si0+  Si112  1  0.82173256  0.07478113  0.01613780  1
  Si0+  Si113  1  0.42608644  0.32292727  0.98179593  1
  Si0+  Si114  1  0.93016732  0.32061957  0.98420469  1
  Si0+  Si115  1  0.07349687  0.17880887  0.98305293  1
  Si0+  Si116  1  0.32081110  0.07255751  0.01809546  1
  Si0+  Si117  1  0.92787771  0.82283150  0.65264633  1
  Si0+  Si118  1  0.67506698  0.92748550  0.35184111  1
  Si0+  Si119  1  0.67887104  0.93035284  0.67932694  1
  O2-  O120  1  0.25146358  0.00536631  0.06348001  1
  O2-  O121  1  0.25161389  -0.00115433  0.39114478  1
  O2-  O122  1  0.25674618  -0.00012872  0.72759505  1
  O2-  O123  1  0.25223709  0.49808787  0.05575087  1
  O2-  O124  1  0.25460662  0.50253490  0.39428055  1
  O2-  O125  1  0.25665752  0.50028485  0.72809961  1
  O2-  O126  1  0.75552768  0.00293476  0.05836490  1
  O2-  O127  1  0.74565093  -0.00547307  0.39635085  1
  O2-  O128  1  0.74932646  0.00054851  0.72401971  1
  O2-  O129  1  0.74451602  0.49551381  0.06180919  1
  O2-  O130  1  0.75388408  0.50522567  0.39320058  1
  O2-  O131  1  0.74901383  0.50030666  0.73107380  1
  O2-  O132  1  0.00174767  0.25158624  0.26847300  1
  O2-  O133  1  0.00747992  0.24780709  0.60819679  1
  O2-  O134  1  0.00166110  0.24939681  0.94182553  1
  O2-  O135  1  -0.00422346  0.74747408  0.26976429  1
  O2-  O136  1  -0.00151572  0.75089386  0.61181469  1
  O2-  O137  1  0.00037225  0.75125851  0.93032025  1
  O2-  O138  1  0.50287573  0.25510532  0.26827237  1
  O2-  O139  1  0.50851858  0.25076018  0.60740181  1
  O2-  O140  1  0.49680812  0.25606104  0.93823156  1
  O2-  O141  1  0.50297361  0.75358514  0.26714781  1
  O2-  O142  1  0.50232319  0.74478625  0.60883987  1
  O2-  O143  1  0.50186855  0.75059995  0.94165166  1
  O2-  O144  1  0.07708696  0.18024699  0.08747079  1
  O2-  O145  1  0.07045041  0.17692747  0.43403647  1
  O2-  O146  1  0.06780865  0.17451273  0.75896347  1
  O2-  O147  1  0.07129445  0.67784990  0.09406487  1
  O2-  O148  1  0.07064561  0.67949912  0.43373656  1
  O2-  O149  1  0.07264351  0.68070529  0.75695725  1
  O2-  O150  1  0.57082378  0.18043177  0.09676791  1
  O2-  O151  1  0.56977798  0.18077072  0.43298606  1
  O2-  O152  1  0.57081556  0.17377138  0.75482537  1
  O2-  O153  1  0.56860567  0.67548714  0.08836406  1
  O2-  O154  1  0.56929033  0.67979257  0.43301556  1
  O2-  O155  1  0.57414167  0.68264928  0.75846383  1
  O2-  O156  1  0.18122595  0.42939113  0.23273657  1
  O2-  O157  1  0.17894723  0.42878039  0.56754540  1
  O2-  O158  1  0.18088188  0.42724987  0.90939593  1
  O2-  O159  1  0.18117340  0.93077347  0.24273512  1
  O2-  O160  1  0.17865591  0.92890167  0.56680485  1
  O2-  O161  1  0.18228248  0.92933665  0.90295700  1
  O2-  O162  1  0.68286169  0.43053111  0.23203241  1
  O2-  O163  1  0.67677013  0.42827631  0.56939599  1
  O2-  O164  1  0.67684659  0.42902293  0.91047213  1
  O2-  O165  1  0.67434738  0.92979498  0.24630164  1
  O2-  O166  1  0.67929905  0.93011423  0.57480094  1
  O2-  O167  1  0.67672540  0.93251476  0.89944526  1
  O2-  O168  1  0.42247395  0.32271773  0.08658159  1
  O2-  O169  1  0.42660461  0.31901289  0.43235080  1
  O2-  O170  1  0.42831268  0.31580702  0.76673571  1
  O2-  O171  1  0.43053452  0.81929549  0.08960161  1
  O2-  O172  1  0.42702774  0.82067923  0.43062366  1
  O2-  O173  1  0.43028000  0.81862346  0.76805592  1
  O2-  O174  1  0.92983852  0.31976054  0.08884944  1
  O2-  O175  1  0.92867606  0.32072612  0.43262771  1
  O2-  O176  1  0.93307153  0.31856300  0.76721943  1
  O2-  O177  1  0.92934408  0.82048593  0.09611012  1
  O2-  O178  1  0.93329800  0.82325975  0.43477348  1
  O2-  O179  1  0.92633781  0.82495613  0.75731198  1
  O2-  O180  1  0.32207162  0.07001800  0.24385293  1
  O2-  O181  1  0.32385900  0.07079287  0.57864973  1
  O2-  O182  1  0.31937668  0.07231787  0.91212745  1
  O2-  O183  1  0.31989678  0.57394741  0.24462305  1
  O2-  O184  1  0.31871572  0.57595445  0.57768882  1
  O2-  O185  1  0.32458701  0.57099271  0.91010564  1
  O2-  O186  1  0.81920637  0.06838116  0.23442088  1
  O2-  O187  1  0.82436082  0.06978253  0.57841217  1
  O2-  O188  1  0.81982840  0.07614920  0.90976202  1
  O2-  O189  1  0.82160186  0.57208209  0.24359465  1
  O2-  O190  1  0.82003354  0.57648577  0.56817838  1
  O2-  O191  1  0.81977040  0.56677982  0.90311534  1
  O2-  O192  1  0.04016553  0.08211155  0.26565764  1
  O2-  O193  1  0.04191769  0.08296898  0.60709873  1
  O2-  O194  1  0.04565013  0.08716018  0.93539627  1
  O2-  O195  1  0.04491119  0.58030467  0.26438669  1
  O2-  O196  1  0.04253905  0.58766673  0.60605200  1
  O2-  O197  1  0.04221125  0.57889690  0.92966742  1
  O2-  O198  1  0.54187332  0.08361548  0.26610373  1
  O2-  O199  1  0.54505659  0.08600925  0.60035043  1
  O2-  O200  1  0.53615598  0.08401287  0.92895316  1
  O2-  O201  1  0.53958218  0.58383450  0.26125952  1
  O2-  O202  1  0.55149236  0.58374208  0.60947772  1
  O2-  O203  1  0.54115181  0.58677158  0.93494518  1
  O2-  O204  1  0.16930132  0.20305095  0.26480330  1
  O2-  O205  1  0.16807760  0.19425869  0.61158696  1
  O2-  O206  1  0.16478511  0.20710227  0.93373754  1
  O2-  O207  1  0.16710707  0.70670094  0.26525851  1
  O2-  O208  1  0.16133777  0.70810715  0.60381506  1
  O2-  O209  1  0.17171134  0.70570917  0.93001417  1
  O2-  O210  1  0.67013302  0.20782410  0.26549646  1
  O2-  O211  1  0.66951916  0.19822455  0.60717073  1
  O2-  O212  1  0.66629783  0.20795653  0.92699864  1
  O2-  O213  1  0.66962367  0.70398878  0.26476013  1
  O2-  O214  1  0.66573277  0.70852467  0.60516996  1
  O2-  O215  1  0.66331361  0.70556603  0.93772756  1
  O2-  O216  1  0.08829792  0.45597758  0.06144835  1
  O2-  O217  1  0.08256504  0.46065073  0.40011276  1
  O2-  O218  1  0.08572949  0.46100553  0.73652893  1
  O2-  O219  1  0.08137090  0.96022907  0.06782756  1
  O2-  O220  1  0.08882951  0.95762223  0.39551491  1
  O2-  O221  1  0.08503462  0.95985384  0.73771284  1
  O2-  O222  1  0.58157031  0.45118029  0.05966727  1
  O2-  O223  1  0.58123730  0.46152562  0.39700964  1
  O2-  O224  1  0.57814345  0.45356486  0.73719803  1
  O2-  O225  1  0.58181082  0.96267034  0.06700485  1
  O2-  O226  1  0.58124233  0.95540925  0.39702904  1
  O2-  O227  1  0.58655242  0.95836425  0.72685257  1
  O2-  O228  1  0.20656860  0.33555384  0.06117331  1
  O2-  O229  1  0.20873324  0.33049546  0.39904455  1
  O2-  O230  1  0.20916064  0.33001791  0.73534265  1
  O2-  O231  1  0.21166280  0.83210666  0.06863752  1
  O2-  O232  1  0.20818998  0.83631651  0.39350248  1
  O2-  O233  1  0.21118893  0.83134511  0.73527111  1
  O2-  O234  1  0.70436686  0.33271030  0.05799577  1
  O2-  O235  1  0.70883186  0.33409442  0.40033144  1
  O2-  O236  1  0.70693050  0.32852692  0.73603153  1
  O2-  O237  1  0.70410647  0.83299636  0.06785786  1
  O2-  O238  1  0.69763162  0.83269639  0.39716767  1
  O2-  O239  1  0.70561833  0.83898893  0.72837930  1
  O2-  O240  1  0.44739308  0.42330711  0.26817536  1
  O2-  O241  1  0.45218671  0.42039970  0.60169625  1
  O2-  O242  1  0.44904288  0.41754931  0.93581932  1
  O2-  O243  1  0.45270491  0.92107841  0.26315120  1
  O2-  O244  1  0.45782689  0.91639767  0.59979120  1
  O2-  O245  1  0.45498828  0.91279078  0.93807499  1
  O2-  O246  1  0.95577658  0.41938972  0.26506687  1
  O2-  O247  1  0.96033636  0.41900594  0.60146925  1
  O2-  O248  1  0.96069081  0.41132416  0.93681388  1
  O2-  O249  1  0.95989298  0.91869280  0.26559565  1
  O2-  O250  1  0.95806458  0.91487451  0.60679490  1
  O2-  O251  1  0.95381552  0.92248620  0.93211658  1
  O2-  O252  1  0.33210308  0.28861067  0.26352233  1
  O2-  O253  1  0.33306485  0.28547965  0.60056796  1
  O2-  O254  1  0.33323286  0.29414157  0.93410659  1
  O2-  O255  1  0.33202906  0.79137705  0.26154205  1
  O2-  O256  1  0.33184315  0.78920185  0.59996219  1
  O2-  O257  1  0.33866493  0.78852948  0.93843775  1
  O2-  O258  1  0.83224085  0.28959498  0.26443357  1
  O2-  O259  1  0.83414446  0.28886852  0.60189593  1
  O2-  O260  1  0.83914288  0.29283448  0.93484214  1
  O2-  O261  1  0.82716464  0.80410150  0.27084246  1
  O2-  O262  1  0.83591314  0.79722567  0.60450882  1
  O2-  O263  1  0.82793481  0.79227102  0.93249322  1
  O2-  O264  1  0.41394425  0.04532606  0.06306733  1
  O2-  O265  1  0.41374936  0.04312736  0.39755038  1
  O2-  O266  1  0.41874917  0.04503251  0.72948752  1
  O2-  O267  1  0.41442153  0.54381930  0.06377468  1
  O2-  O268  1  0.41581206  0.55264249  0.39607095  1
  O2-  O269  1  0.41655893  0.55157661  0.72864672  1
  O2-  O270  1  0.91704029  0.05460863  0.05989831  1
  O2-  O271  1  0.91664009  0.03754011  0.40386645  1
  O2-  O272  1  0.91222324  0.04176931  0.73357703  1
  O2-  O273  1  0.91749437  0.53656526  0.06880083  1
  O2-  O274  1  0.91668968  0.54963104  0.39409667  1
  O2-  O275  1  0.91850229  0.54289817  0.73664232  1
  O2-  O276  1  0.29634558  0.16724138  0.06261161  1
  O2-  O277  1  0.29316015  0.16157405  0.39725237  1
  O2-  O278  1  0.29755710  0.16156779  0.73441611  1
  O2-  O279  1  0.29412585  0.66124809  0.06419484  1
  O2-  O280  1  0.29325995  0.66717630  0.39629239  1
  O2-  O281  1  0.29182029  0.66365483  0.73205634  1
  O2-  O282  1  0.79194823  0.16773788  0.06100704  1
  O2-  O283  1  0.78947311  0.16515696  0.40307246  1
  O2-  O284  1  0.79540371  0.16178445  0.73213089  1
  O2-  O285  1  0.79090940  0.66562782  0.06926081  1
  O2-  O286  1  0.79749753  0.66877402  0.39404990  1
  O2-  O287  1  0.79251466  0.67138026  0.73658329  1
