# generated using pymatgen
data_Ca2Al2SiO7
_symmetry_space_group_name_H-M   'P 1'
_cell_length_a   15.46869056
_cell_length_b   15.46777709
_cell_length_c   15.28986298
_cell_angle_alpha   89.99903472
_cell_angle_beta   90.00218567
_cell_angle_gamma   90.01449133
_symmetry_Int_Tables_number   1
_chemical_formula_structural   Ca2Al2SiO7
_chemical_formula_sum   'Ca48 Al48 Si24 O168'
_cell_volume   3658.34817149
_cell_formula_units_Z   24
loop_
 _symmetry_equiv_pos_site_id
 _symmetry_equiv_pos_as_xyz
  1  'x, y, z'
loop_
 _atom_type_symbol
 _atom_type_oxidation_number
  Ca2+  2.0
  Al0+  0.0
  Si0+  0.0
  O2-  -2.0
loop_
 _atom_site_type_symbol
 _atom_site_label
 _atom_site_symmetry_multiplicity
 _atom_site_fract_x
 _atom_site_fract_y
 _atom_site_fract_z
 _atom_site_occupancy
  Ca2+  Ca0  1  0.15703398  0.07583474  0.16816675  1
  Ca2+  Ca1  1  0.15974929  0.07780883  0.49669468  1
  Ca2+  Ca2  1  0.17009618  0.07981082  0.84969797  1
  Ca2+  Ca3  1  0.17496207  0.57823782  0.16973863  1
  Ca2+  Ca4  1  0.17793326  0.58578730  0.50469965  1
  Ca2+  Ca5  1  0.17439573  0.58461567  0.84117774  1
  Ca2+  Ca6  1  0.66873890  0.07645209  0.17123171  1
  Ca2+  Ca7  1  0.65433912  0.07341636  0.49914936  1
  Ca2+  Ca8  1  0.67314098  0.06977077  0.84311011  1
  Ca2+  Ca9  1  0.67626378  0.58177889  0.17059745  1
  Ca2+  Ca10  1  0.67154067  0.57751719  0.49451002  1
  Ca2+  Ca11  1  0.67140909  0.58353166  0.84483466  1
  Ca2+  Ca12  1  0.07569285  0.32874166  0.15768725  1
  Ca2+  Ca13  1  0.07752469  0.32506612  0.48701931  1
  Ca2+  Ca14  1  0.08237380  0.33540731  0.83925042  1
  Ca2+  Ca15  1  0.07998948  0.83580645  0.15931816  1
  Ca2+  Ca16  1  0.08772539  0.82630550  0.49371886  1
  Ca2+  Ca17  1  0.07873026  0.83294007  0.83428286  1
  Ca2+  Ca18  1  0.58157024  0.33649496  0.16864945  1
  Ca2+  Ca19  1  0.58032261  0.32831918  0.48356609  1
  Ca2+  Ca20  1  0.58106963  0.33091990  0.83167324  1
  Ca2+  Ca21  1  0.58225983  0.83164579  0.16009179  1
  Ca2+  Ca22  1  0.57707617  0.83690863  0.49029410  1
  Ca2+  Ca23  1  0.58902892  0.82960282  0.83482330  1
  Ca2+  Ca24  1  0.33364951  0.42453535  0.16962322  1
  Ca2+  Ca25  1  0.34323196  0.42872031  0.50021121  1
  Ca2+  Ca26  1  0.32492918  0.42776461  0.84413675  1
  Ca2+  Ca27  1  0.32404899  0.91933684  0.17024449  1
  Ca2+  Ca28  1  0.33022359  0.91360250  0.49622181  1
  Ca2+  Ca29  1  0.32352627  0.92336418  0.84419575  1
  Ca2+  Ca30  1  0.83809361  0.42417734  0.17391626  1
  Ca2+  Ca31  1  0.83320225  0.41366915  0.49419285  1
  Ca2+  Ca32  1  0.83582589  0.42354293  0.84397974  1
  Ca2+  Ca33  1  0.82530042  0.91678198  0.16701365  1
  Ca2+  Ca34  1  0.81852559  0.91842344  0.50222348  1
  Ca2+  Ca35  1  0.82650180  0.91660366  0.84587446  1
  Ca2+  Ca36  1  0.42117061  0.16546624  0.16473784  1
  Ca2+  Ca37  1  0.42340090  0.17650337  0.48570703  1
  Ca2+  Ca38  1  0.41235441  0.16503703  0.83393906  1
  Ca2+  Ca39  1  0.41956913  0.66720086  0.16251876  1
  Ca2+  Ca40  1  0.41451411  0.66997121  0.49034543  1
  Ca2+  Ca41  1  0.41872605  0.66200591  0.83384646  1
  Ca2+  Ca42  1  0.92328436  0.17282141  0.15800297  1
  Ca2+  Ca43  1  0.92208449  0.17285810  0.48683401  1
  Ca2+  Ca44  1  0.91838375  0.16549070  0.84001593  1
  Ca2+  Ca45  1  0.91002167  0.67050618  0.15706718  1
  Ca2+  Ca46  1  0.92231064  0.66483603  0.49614686  1
  Ca2+  Ca47  1  0.91963026  0.67153998  0.83466081  1
  Al0+  Al48  1  -0.00241988  0.00052663  -0.00289659  1
  Al0+  Al49  1  -0.00112359  -0.00359255  0.33739829  1
  Al0+  Al50  1  -0.00258906  0.00053798  0.66481330  1
  Al0+  Al51  1  0.00079986  0.50080527  0.00243408  1
  Al0+  Al52  1  0.00416305  0.50108827  0.33602822  1
  Al0+  Al53  1  0.00046449  0.49954745  0.66119839  1
  Al0+  Al54  1  0.49810489  -0.00158534  0.00314192  1
  Al0+  Al55  1  0.49702403  0.00003206  0.32913415  1
  Al0+  Al56  1  0.49912128  -0.00116610  0.67200287  1
  Al0+  Al57  1  0.50090129  0.50038549  -0.00329741  1
  Al0+  Al58  1  0.50303423  0.50105717  0.33717405  1
  Al0+  Al59  1  0.50086859  0.50109192  0.67053823  1
  Al0+  Al60  1  0.25094602  0.25134118  0.00215011  1
  Al0+  Al61  1  0.25070780  0.24898634  0.32552647  1
  Al0+  Al62  1  0.24939403  0.25194665  0.66377194  1
  Al0+  Al63  1  0.25217417  0.75156439  0.00544325  1
  Al0+  Al64  1  0.25030466  0.75082049  0.33623503  1
  Al0+  Al65  1  0.25107376  0.75106542  0.66824445  1
  Al0+  Al66  1  0.74839843  0.24895404  -0.00370576  1
  Al0+  Al67  1  0.75142396  0.25039288  0.32911833  1
  Al0+  Al68  1  0.74920363  0.24841164  0.66589343  1
  Al0+  Al69  1  0.74889902  0.74766304  -0.00226125  1
  Al0+  Al70  1  0.75061826  0.75044603  0.34431790  1
  Al0+  Al71  1  0.74923737  0.74813665  0.66789127  1
  Al0+  Al72  1  0.07031481  0.17495042  0.31751117  1
  Al0+  Al73  1  0.07152843  0.68134267  0.65373860  1
  Al0+  Al74  1  0.32102634  0.57214530  0.68204717  1
  Al0+  Al75  1  0.82530313  0.57255397  0.35026468  1
  Al0+  Al76  1  0.67629805  0.93061282  0.34688364  1
  Al0+  Al77  1  0.56935239  0.67945777  0.98712955  1
  Al0+  Al78  1  0.92734725  0.32351470  0.98355743  1
  Al0+  Al79  1  0.67819992  0.92854378  0.68208671  1
  Al0+  Al80  1  0.32367010  0.57158996  0.01619657  1
  Al0+  Al81  1  0.92849437  0.82037905  0.98832181  1
  Al0+  Al82  1  0.32104604  0.56971783  0.34716450  1
  Al0+  Al83  1  0.68181012  0.42800081  0.34682832  1
  Al0+  Al84  1  0.57176449  0.17797225  0.31658891  1
  Al0+  Al85  1  0.93056484  0.32327522  0.31739844  1
  Al0+  Al86  1  0.42964249  0.32486239  0.31666016  1
  Al0+  Al87  1  0.17695202  0.92992669  0.01400912  1
  Al0+  Al88  1  0.67953977  0.92675271  0.01556822  1
  Al0+  Al89  1  0.17814205  0.93004134  0.34883268  1
  Al0+  Al90  1  0.07130796  0.17994017  0.98387326  1
  Al0+  Al91  1  0.17818170  0.42982423  0.01571009  1
  Al0+  Al92  1  0.82045614  0.56924173  0.01059330  1
  Al0+  Al93  1  0.42759091  0.82010016  0.31905396  1
  Al0+  Al94  1  0.82035281  0.07244310  0.01544539  1
  Al0+  Al95  1  0.32189786  0.07320850  0.01581147  1
  Si0+  Si96  1  0.31870159  0.07274697  0.67894878  1
  Si0+  Si97  1  0.32175168  0.07280254  0.35067620  1
  Si0+  Si98  1  0.07263969  0.67984301  0.31896348  1
  Si0+  Si99  1  0.42709469  0.82261365  0.98140971  1
  Si0+  Si100  1  0.67716212  0.42624688  0.01382472  1
  Si0+  Si101  1  0.92596889  0.82236048  0.64809199  1
  Si0+  Si102  1  0.07209850  0.17831263  0.65123918  1
  Si0+  Si103  1  0.42955353  0.32184563  0.65265380  1
  Si0+  Si104  1  0.56875342  0.17868822  0.65330916  1
  Si0+  Si105  1  0.92788109  0.32033622  0.65077758  1
  Si0+  Si106  1  0.43020363  0.32166621  0.98283945  1
  Si0+  Si107  1  0.43097237  0.82075332  0.65251874  1
  Si0+  Si108  1  0.82131301  0.07059559  0.34973064  1
  Si0+  Si109  1  0.82226761  0.07275012  0.68352817  1
  Si0+  Si110  1  0.57241305  0.67698737  0.64964729  1
  Si0+  Si111  1  0.57382773  0.68021033  0.31875898  1
  Si0+  Si112  1  0.07460225  0.67902208  0.98601950  1
  Si0+  Si113  1  0.56980156  0.17596548  0.98232668  1
  Si0+  Si114  1  0.17747419  0.42759926  0.68210911  1
  Si0+  Si115  1  0.17987376  0.42614023  0.35084249  1
  Si0+  Si116  1  0.17781683  0.93015106  0.68081018  1
  Si0+  Si117  1  0.67964591  0.42748617  0.68195975  1
  Si0+  Si118  1  0.92779564  0.81754704  0.32097718  1
  Si0+  Si119  1  0.82245223  0.56849066  0.68242445  1
  O2-  O120  1  0.24606616  0.00463712  0.06383371  1
  O2-  O121  1  0.25067895  0.00694612  0.39654236  1
  O2-  O122  1  0.24337861  0.00665265  0.72142015  1
  O2-  O123  1  0.25042295  0.50139196  0.06526981  1
  O2-  O124  1  0.25094322  0.49173523  0.39659529  1
  O2-  O125  1  0.24472961  0.49792506  0.72585564  1
  O2-  O126  1  0.74856777  0.00086985  0.06548793  1
  O2-  O127  1  0.74721098  0.00830351  0.39573074  1
  O2-  O128  1  0.75687993  0.00012198  0.72589749  1
  O2-  O129  1  0.75128188  0.48936811  0.05568159  1
  O2-  O130  1  0.75575802  0.49707294  0.39945007  1
  O2-  O131  1  0.75097650  0.49763969  0.72447708  1
  O2-  O132  1  0.00179890  0.25036690  0.26899246  1
  O2-  O133  1  -0.00082548  0.24827173  0.61048320  1
  O2-  O134  1  -0.00046501  0.25191902  0.93191859  1
  O2-  O135  1  -0.00466850  0.74394416  0.27829589  1
  O2-  O136  1  -0.00241167  0.75636345  0.60430162  1
  O2-  O137  1  0.00649678  0.74851309  0.94161631  1
  O2-  O138  1  0.50120759  0.25196505  0.26720740  1
  O2-  O139  1  0.49995504  0.25082751  0.60993926  1
  O2-  O140  1  0.49859403  0.24759636  0.93959267  1
  O2-  O141  1  0.50540282  0.74837602  0.27430808  1
  O2-  O142  1  0.50186183  0.74951426  0.60929690  1
  O2-  O143  1  0.49500963  0.75321235  0.93681210  1
  O2-  O144  1  0.06879390  0.17947007  0.09647927  1
  O2-  O145  1  0.06705811  0.17619258  0.43287837  1
  O2-  O146  1  0.07521322  0.17715589  0.75544390  1
  O2-  O147  1  0.07425798  0.67952266  0.09148886  1
  O2-  O148  1  0.07394455  0.68279742  0.42476116  1
  O2-  O149  1  0.07023785  0.68313544  0.76659234  1
  O2-  O150  1  0.57015283  0.17590333  0.08657511  1
  O2-  O151  1  0.56702813  0.17756648  0.43177830  1
  O2-  O152  1  0.56734965  0.18006994  0.75832270  1
  O2-  O153  1  0.56971724  0.67948866  0.09978445  1
  O2-  O154  1  0.57254296  0.68151523  0.42528649  1
  O2-  O155  1  0.57300113  0.67533616  0.75453304  1
  O2-  O156  1  0.17770687  0.43069291  0.24606219  1
  O2-  O157  1  0.17953964  0.42484222  0.57681233  1
  O2-  O158  1  0.18032382  0.43239518  0.90088957  1
  O2-  O159  1  0.17662585  0.92874770  0.23689409  1
  O2-  O160  1  0.17971960  0.92939542  0.57576417  1
  O2-  O161  1  0.17978588  0.92932131  0.89901382  1
  O2-  O162  1  0.67928946  0.43258164  0.23386098  1
  O2-  O163  1  0.67914101  0.42622089  0.57752314  1
  O2-  O164  1  0.67541196  0.42900646  0.90703692  1
  O2-  O165  1  0.67968714  0.92723625  0.23498895  1
  O2-  O166  1  0.67505194  0.93214776  0.56895881  1
  O2-  O167  1  0.68123480  0.92831668  0.90121551  1
  O2-  O168  1  0.43437381  0.32563399  0.08696884  1
  O2-  O169  1  0.43206175  0.32340213  0.43179191  1
  O2-  O170  1  0.42979329  0.32011964  0.75771471  1
  O2-  O171  1  0.42690642  0.82263284  0.08648962  1
  O2-  O172  1  0.42862927  0.81828915  0.43357099  1
  O2-  O173  1  0.43079477  0.82188705  0.75718237  1
  O2-  O174  1  0.92830634  0.32454929  0.09608389  1
  O2-  O175  1  0.93283287  0.31992437  0.43259253  1
  O2-  O176  1  0.92632107  0.32240479  0.75522415  1
  O2-  O177  1  0.92668243  0.81662316  0.10145545  1
  O2-  O178  1  0.92948774  0.81756052  0.42665147  1
  O2-  O179  1  0.92555608  0.82208944  0.75347300  1
  O2-  O180  1  0.32437705  0.06945982  0.24607417  1
  O2-  O181  1  0.32031750  0.07269832  0.57432456  1
  O2-  O182  1  0.32120654  0.06967861  0.90032059  1
  O2-  O183  1  0.31871623  0.57084854  0.23501578  1
  O2-  O184  1  0.32230951  0.57106949  0.56895983  1
  O2-  O185  1  0.32234989  0.56925248  0.90185077  1
  O2-  O186  1  0.82347461  0.06551966  0.24505989  1
  O2-  O187  1  0.82271701  0.07497749  0.57805766  1
  O2-  O188  1  0.81688440  0.07066586  0.90083926  1
  O2-  O189  1  0.82192407  0.57610474  0.23726567  1
  O2-  O190  1  0.82234117  0.56766052  0.57771357  1
  O2-  O191  1  0.81817398  0.56972137  0.89650956  1
  O2-  O192  1  0.03780200  0.07635890  0.26880149  1
  O2-  O193  1  0.04511898  0.08570413  0.60363120  1
  O2-  O194  1  0.04149439  0.08212926  0.92874928  1
  O2-  O195  1  0.05302335  0.58569634  0.27453179  1
  O2-  O196  1  0.04183270  0.58444031  0.59850312  1
  O2-  O197  1  0.04789784  0.58659931  0.93853938  1
  O2-  O198  1  0.54028962  0.08134993  0.26349700  1
  O2-  O199  1  0.53792343  0.08688173  0.60747130  1
  O2-  O200  1  0.53981969  0.08451450  0.93422020  1
  O2-  O201  1  0.54908639  0.58659712  0.27469598  1
  O2-  O202  1  0.54333903  0.58484575  0.60314999  1
  O2-  O203  1  0.53987181  0.58333063  0.92870467  1
  O2-  O204  1  0.17122861  0.19411958  0.26857533  1
  O2-  O205  1  0.16324559  0.20702039  0.60187731  1
  O2-  O206  1  0.17144340  0.20801722  0.93159339  1
  O2-  O207  1  0.16123900  0.71416083  0.27137326  1
  O2-  O208  1  0.16831886  0.71361339  0.59938899  1
  O2-  O209  1  0.16844552  0.70530397  0.93974087  1
  O2-  O210  1  0.67110193  0.20191730  0.26581150  1
  O2-  O211  1  0.66153561  0.20360737  0.60634235  1
  O2-  O212  1  0.66022586  0.20414505  0.93165623  1
  O2-  O213  1  0.66846919  0.70681494  0.27647417  1
  O2-  O214  1  0.66512485  0.70253865  0.60287528  1
  O2-  O215  1  0.66414590  0.71073685  0.92878077  1
  O2-  O216  1  0.08105706  0.45800650  0.06917121  1
  O2-  O217  1  0.08865090  0.45517190  0.40069619  1
  O2-  O218  1  0.08254125  0.45172297  0.72569211  1
  O2-  O219  1  0.07732754  0.95425933  0.06395716  1
  O2-  O220  1  0.08192038  0.95816495  0.40707349  1
  O2-  O221  1  0.08277473  0.95212789  0.72437613  1
  O2-  O222  1  0.58640635  0.45799967  0.05990546  1
  O2-  O223  1  0.58574439  0.45989026  0.40456147  1
  O2-  O224  1  0.58845718  0.45580333  0.73059577  1
  O2-  O225  1  0.57967656  0.95175798  0.06423120  1
  O2-  O226  1  0.57856845  0.96090987  0.40061912  1
  O2-  O227  1  0.58298637  0.96177032  0.73764726  1
  O2-  O228  1  0.20611300  0.33197317  0.06685686  1
  O2-  O229  1  0.20121181  0.32983416  0.39356565  1
  O2-  O230  1  0.20551445  0.33459068  0.72907855  1
  O2-  O231  1  0.20648038  0.83303323  0.06786642  1
  O2-  O232  1  0.21391597  0.83558892  0.40518036  1
  O2-  O233  1  0.21072800  0.84113353  0.72922410  1
  O2-  O234  1  0.69371640  0.33029868  0.05587933  1
  O2-  O235  1  0.70695229  0.32814356  0.40107841  1
  O2-  O236  1  0.70496236  0.33431795  0.72877720  1
  O2-  O237  1  0.70994397  0.82926396  0.06648708  1
  O2-  O238  1  0.70961735  0.83699214  0.40596714  1
  O2-  O239  1  0.70598219  0.82950318  0.73263894  1
  O2-  O240  1  0.46140839  0.42304261  0.26584392  1
  O2-  O241  1  0.45935991  0.41403470  0.60725242  1
  O2-  O242  1  0.46207200  0.41089543  0.93145044  1
  O2-  O243  1  0.45333195  0.91696456  0.26596967  1
  O2-  O244  1  0.45927147  0.91316573  0.60534659  1
  O2-  O245  1  0.45303830  0.91605235  0.93393025  1
  O2-  O246  1  0.95984036  0.42296591  0.26878635  1
  O2-  O247  1  0.95509111  0.41135580  0.60166986  1
  O2-  O248  1  0.95876062  0.42219488  0.92996729  1
  O2-  O249  1  0.95804507  0.90829041  0.27495082  1
  O2-  O250  1  0.94756564  0.91775697  0.60311910  1
  O2-  O251  1  0.95566110  0.91594631  0.93030410  1
  O2-  O252  1  0.33101282  0.29974583  0.26477734  1
  O2-  O253  1  0.33762364  0.29590104  0.60431357  1
  O2-  O254  1  0.33810491  0.29633168  0.93457527  1
  O2-  O255  1  0.33191691  0.78691105  0.26624935  1
  O2-  O256  1  0.33884797  0.79378774  0.60521678  1
  O2-  O257  1  0.33322365  0.79672967  0.93467448  1
  O2-  O258  1  0.83093650  0.30090569  0.26714585  1
  O2-  O259  1  0.83562514  0.29154298  0.60344916  1
  O2-  O260  1  0.82793729  0.29601369  0.92928472  1
  O2-  O261  1  0.83451523  0.79212964  0.27619518  1
  O2-  O262  1  0.83305813  0.79245266  0.60227883  1
  O2-  O263  1  0.83521373  0.78405691  0.93047377  1
  O2-  O264  1  0.41833455  0.04201457  0.06881747  1
  O2-  O265  1  0.41345269  0.04334817  0.39946341  1
  O2-  O266  1  0.40836315  0.04156327  0.72872460  1
  O2-  O267  1  0.42160109  0.53939642  0.06632681  1
  O2-  O268  1  0.41857017  0.54319999  0.40257888  1
  O2-  O269  1  0.41782980  0.54042365  0.73554646  1
  O2-  O270  1  0.91861020  0.04491615  0.06561021  1
  O2-  O271  1  0.91089413  0.03778094  0.40087114  1
  O2-  O272  1  0.91747360  0.05074606  0.72849167  1
  O2-  O273  1  0.91795032  0.54711021  0.06452140  1
  O2-  O274  1  0.92483360  0.54660937  0.40353599  1
  O2-  O275  1  0.91470042  0.53994304  0.72816833  1
  O2-  O276  1  0.30394908  0.17408036  0.06477344  1
  O2-  O277  1  0.30005807  0.16852610  0.39505391  1
  O2-  O278  1  0.29550041  0.16654966  0.72536698  1
  O2-  O279  1  0.30016883  0.67085225  0.06701174  1
  O2-  O280  1  0.28552180  0.66444108  0.40277754  1
  O2-  O281  1  0.29125288  0.66921248  0.73540782  1
  O2-  O282  1  0.79178597  0.17153534  0.06543487  1
  O2-  O283  1  0.80254957  0.16683707  0.39271646  1
  O2-  O284  1  0.79258926  0.16503483  0.73031189  1
  O2-  O285  1  0.78403412  0.66254455  0.06507099  1
  O2-  O286  1  0.79300390  0.66751724  0.40927566  1
  O2-  O287  1  0.79497828  0.66108014  0.72806801  1
