# generated using pymatgen
data_Ca2Al2SiO7
_symmetry_space_group_name_H-M   'P 1'
_cell_length_a   15.45922376
_cell_length_b   15.45766425
_cell_length_c   15.28347559
_cell_angle_alpha   89.99640231
_cell_angle_beta   90.01121528
_cell_angle_gamma   90.00010885
_symmetry_Int_Tables_number   1
_chemical_formula_structural   Ca2Al2SiO7
_chemical_formula_sum   'Ca48 Al48 Si24 O168'
_cell_volume   3652.19259522
_cell_formula_units_Z   24
loop_
 _symmetry_equiv_pos_site_id
 _symmetry_equiv_pos_as_xyz
  1  'x, y, z'
loop_
 _atom_type_symbol
 _atom_type_oxidation_number
  Ca2+  2.0
  Al0+  0.0
  Si0+  0.0
  O2-  -2.0
loop_
 _atom_site_type_symbol
 _atom_site_label
 _atom_site_symmetry_multiplicity
 _atom_site_fract_x
 _atom_site_fract_y
 _atom_site_fract_z
 _atom_site_occupancy
  Ca2+  Ca0  1  0.17906669  0.09050723  0.17018940  1
  Ca2+  Ca1  1  0.17358865  0.08509656  0.49963738  1
  Ca2+  Ca2  1  0.17336449  0.08514768  0.84628291  1
  Ca2+  Ca3  1  0.16969547  0.57784749  0.17011953  1
  Ca2+  Ca4  1  0.16616202  0.58252221  0.50012692  1
  Ca2+  Ca5  1  0.16067445  0.57998753  0.84258278  1
  Ca2+  Ca6  1  0.65500270  0.07234136  0.17061318  1
  Ca2+  Ca7  1  0.65830791  0.07383086  0.50302448  1
  Ca2+  Ca8  1  0.65770502  0.07665814  0.83814706  1
  Ca2+  Ca9  1  0.66086899  0.57521108  0.17152981  1
  Ca2+  Ca10  1  0.67121483  0.57789512  0.50298335  1
  Ca2+  Ca11  1  0.68007332  0.57948112  0.84624553  1
  Ca2+  Ca12  1  0.08166773  0.33843930  0.16179922  1
  Ca2+  Ca13  1  0.07097694  0.33952749  0.49355385  1
  Ca2+  Ca14  1  0.08057216  0.33221082  0.83188038  1
  Ca2+  Ca15  1  0.07485452  0.82922248  0.15998427  1
  Ca2+  Ca16  1  0.07395662  0.82682055  0.49258184  1
  Ca2+  Ca17  1  0.08260607  0.81844483  0.82880134  1
  Ca2+  Ca18  1  0.58965234  0.32469881  0.16123039  1
  Ca2+  Ca19  1  0.59012242  0.32064785  0.49020891  1
  Ca2+  Ca20  1  0.59508193  0.32127471  0.83313974  1
  Ca2+  Ca21  1  0.58571350  0.82306739  0.15984492  1
  Ca2+  Ca22  1  0.59084616  0.82780676  0.49187822  1
  Ca2+  Ca23  1  0.58408266  0.83608716  0.83753447  1
  Ca2+  Ca24  1  0.32078239  0.41942764  0.17526876  1
  Ca2+  Ca25  1  0.32980521  0.42274381  0.49587992  1
  Ca2+  Ca26  1  0.32465835  0.41795697  0.84227496  1
  Ca2+  Ca27  1  0.34309638  0.92619578  0.16721707  1
  Ca2+  Ca28  1  0.33651907  0.92324763  0.49995784  1
  Ca2+  Ca29  1  0.33551592  0.92171091  0.84338040  1
  Ca2+  Ca30  1  0.82528234  0.42108578  0.16861820  1
  Ca2+  Ca31  1  0.83322815  0.41556896  0.50252385  1
  Ca2+  Ca32  1  0.83420046  0.42422175  0.83858184  1
  Ca2+  Ca33  1  0.82366001  0.91463356  0.17272994  1
  Ca2+  Ca34  1  0.82279211  0.91170002  0.50168860  1
  Ca2+  Ca35  1  0.82000907  0.91819550  0.83944866  1
  Ca2+  Ca36  1  0.42308691  0.16144002  0.16163432  1
  Ca2+  Ca37  1  0.42588565  0.16594696  0.49420383  1
  Ca2+  Ca38  1  0.42502441  0.16519242  0.83508467  1
  Ca2+  Ca39  1  0.42571123  0.66757035  0.16051415  1
  Ca2+  Ca40  1  0.42338232  0.66777748  0.48863649  1
  Ca2+  Ca41  1  0.42328540  0.67168199  0.83479618  1
  Ca2+  Ca42  1  0.92279428  0.17504270  0.16203106  1
  Ca2+  Ca43  1  0.91297075  0.18026374  0.49285497  1
  Ca2+  Ca44  1  0.92101891  0.17411748  0.82971169  1
  Ca2+  Ca45  1  0.91723205  0.66846517  0.16215923  1
  Ca2+  Ca46  1  0.91661401  0.66697616  0.49757914  1
  Ca2+  Ca47  1  0.92313653  0.65413169  0.83173354  1
  Al0+  Al48  1  0.00007366  0.00109649  -0.00538948  1
  Al0+  Al49  1  -0.00030673  0.00082156  0.32992298  1
  Al0+  Al50  1  0.00046038  -0.00147699  0.66669875  1
  Al0+  Al51  1  -0.00120398  0.50113388  0.00538291  1
  Al0+  Al52  1  -0.00070762  0.50039459  0.33150131  1
  Al0+  Al53  1  0.00067323  0.49930999  0.66112845  1
  Al0+  Al54  1  0.49965032  0.00086693  -0.00030692  1
  Al0+  Al55  1  0.49982188  -0.00083108  0.34025507  1
  Al0+  Al56  1  0.49814846  0.00009213  0.66728547  1
  Al0+  Al57  1  0.49983766  0.49994918  -0.00295838  1
  Al0+  Al58  1  0.49947120  0.49734207  0.33903531  1
  Al0+  Al59  1  0.49832390  0.49939874  0.66842125  1
  Al0+  Al60  1  0.25033361  0.25007184  0.00378140  1
  Al0+  Al61  1  0.25027409  0.25026217  0.34615672  1
  Al0+  Al62  1  0.25176375  0.25090322  0.66626795  1
  Al0+  Al63  1  0.24838538  0.75146518  -0.00748283  1
  Al0+  Al64  1  0.24988939  0.75193060  0.33627556  1
  Al0+  Al65  1  0.25088298  0.75008173  0.66171927  1
  Al0+  Al66  1  0.75160780  0.25023830  -0.00247243  1
  Al0+  Al67  1  0.75160216  0.24917699  0.32581278  1
  Al0+  Al68  1  0.75075144  0.24713103  0.65807718  1
  Al0+  Al69  1  0.75077928  0.75118242  0.00313685  1
  Al0+  Al70  1  0.75003650  0.74957523  0.32896365  1
  Al0+  Al71  1  0.74997188  0.74951187  0.67698567  1
  Al0+  Al72  1  0.32155883  0.57322743  0.34729855  1
  Al0+  Al73  1  0.57358102  0.67611958  0.98356368  1
  Al0+  Al74  1  0.67983477  0.93241713  0.01538442  1
  Al0+  Al75  1  0.06812168  0.67987014  0.98785761  1
  Al0+  Al76  1  0.07078917  0.67912682  0.65086884  1
  Al0+  Al77  1  0.82060805  0.56837573  0.67948787  1
  Al0+  Al78  1  0.57108152  0.18057575  0.98682072  1
  Al0+  Al79  1  0.56991339  0.67673949  0.32197512  1
  Al0+  Al80  1  0.56813625  0.17961941  0.65171999  1
  Al0+  Al81  1  0.07319816  0.17997740  0.98805027  1
  Al0+  Al82  1  0.32097729  0.06964714  0.34951413  1
  Al0+  Al83  1  0.92846007  0.82157006  0.31982697  1
  Al0+  Al84  1  0.67725191  0.42726123  0.01401177  1
  Al0+  Al85  1  0.92941390  0.32253437  0.31589717  1
  Al0+  Al86  1  0.67966905  0.42614318  0.34729102  1
  Al0+  Al87  1  0.93157091  0.31866939  0.65301536  1
  Al0+  Al88  1  0.18018759  0.42992978  0.01236968  1
  Al0+  Al89  1  0.43058333  0.82119767  0.98601356  1
  Al0+  Al90  1  0.67878086  0.93030989  0.68221602  1
  Al0+  Al91  1  0.82128075  0.57130533  0.01740433  1
  Al0+  Al92  1  0.17649405  0.43030584  0.35121436  1
  Al0+  Al93  1  0.31948060  0.06939793  0.01318331  1
  Al0+  Al94  1  0.68128656  0.92903632  0.34668088  1
  Al0+  Al95  1  0.56918342  0.17801538  0.31850683  1
  Si0+  Si96  1  0.82361222  0.07383516  0.68233763  1
  Si0+  Si97  1  0.82038216  0.57177910  0.34994136  1
  Si0+  Si98  1  0.82454913  0.07195950  0.34876599  1
  Si0+  Si99  1  0.57214194  0.67887270  0.65330030  1
  Si0+  Si100  1  0.42505995  0.32416130  0.64823534  1
  Si0+  Si101  1  0.31841771  0.07004354  0.68380880  1
  Si0+  Si102  1  0.92629169  0.82245700  0.65124874  1
  Si0+  Si103  1  0.32246229  0.57373936  0.68367553  1
  Si0+  Si104  1  0.17593233  0.92647068  0.01505121  1
  Si0+  Si105  1  0.42637261  0.32077662  0.31800302  1
  Si0+  Si106  1  0.07527910  0.17576781  0.64970174  1
  Si0+  Si107  1  0.67701832  0.42486100  0.68131992  1
  Si0+  Si108  1  0.07325963  0.67947235  0.31572763  1
  Si0+  Si109  1  0.42625757  0.32258675  0.98513661  1
  Si0+  Si110  1  0.82551690  0.07321621  0.01621509  1
  Si0+  Si111  1  0.92982968  0.32199352  0.98270824  1
  Si0+  Si112  1  0.42701030  0.82223620  0.31873892  1
  Si0+  Si113  1  0.17838784  0.92720037  0.68141731  1
  Si0+  Si114  1  0.92644984  0.82439068  0.98109212  1
  Si0+  Si115  1  0.42984687  0.82017622  0.65006381  1
  Si0+  Si116  1  0.18051785  0.43161057  0.68167649  1
  Si0+  Si117  1  0.32188814  0.57524300  0.01361774  1
  Si0+  Si118  1  0.07402615  0.17897131  0.31827823  1
  Si0+  Si119  1  0.17445121  0.92821199  0.35040205  1
  O2-  O120  1  0.24362497  -0.00444034  0.05984160  1
  O2-  O121  1  0.24466809  -0.00459672  0.39543960  1
  O2-  O122  1  0.24367278  0.00273554  0.72519956  1
  O2-  O123  1  0.25589477  0.50410404  0.05747979  1
  O2-  O124  1  0.24728802  0.50457781  0.40006426  1
  O2-  O125  1  0.25167228  0.50195127  0.72515049  1
  O2-  O126  1  0.75607709  0.00608322  0.06118550  1
  O2-  O127  1  0.75590173  0.00361064  0.39414992  1
  O2-  O128  1  0.75455942  0.00566862  0.72676473  1
  O2-  O129  1  0.74355055  0.50407903  0.06490400  1
  O2-  O130  1  0.75343961  0.50161066  0.39482590  1
  O2-  O131  1  0.74384938  0.49507818  0.72530687  1
  O2-  O132  1  0.00781406  0.24928786  0.27335157  1
  O2-  O133  1  0.00413587  0.24123160  0.60559699  1
  O2-  O134  1  -0.00172795  0.25251855  0.93883812  1
  O2-  O135  1  0.00485627  0.74882349  0.27298660  1
  O2-  O136  1  -0.00430169  0.75458023  0.60649320  1
  O2-  O137  1  -0.00610659  0.75362098  0.93796252  1
  O2-  O138  1  0.49517426  0.25356661  0.27218196  1
  O2-  O139  1  0.49837398  0.25947732  0.60578759  1
  O2-  O140  1  0.50061553  0.25989118  0.94021339  1
  O2-  O141  1  0.49182204  0.74925803  0.27707748  1
  O2-  O142  1  0.50123698  0.74923163  0.60889880  1
  O2-  O143  1  0.50169018  0.74917637  0.93376942  1
  O2-  O144  1  0.07274889  0.18146407  0.10083800  1
  O2-  O145  1  0.07106875  0.17760019  0.42433850  1
  O2-  O146  1  0.07763392  0.17778160  0.75525688  1
  O2-  O147  1  0.06923605  0.68238087  0.10062375  1
  O2-  O148  1  0.07232582  0.68086142  0.42179386  1
  O2-  O149  1  0.07107992  0.67866123  0.76395267  1
  O2-  O150  1  0.56747399  0.17822293  0.09944752  1
  O2-  O151  1  0.56711283  0.17748748  0.43214131  1
  O2-  O152  1  0.56544879  0.17910115  0.76492592  1
  O2-  O153  1  0.56997715  0.67584222  0.09720438  1
  O2-  O154  1  0.57176652  0.68004757  0.43619130  1
  O2-  O155  1  0.56954116  0.67912484  0.75783136  1
  O2-  O156  1  0.17844889  0.43015410  0.23767106  1
  O2-  O157  1  0.18172986  0.43274835  0.57706632  1
  O2-  O158  1  0.18052835  0.43053437  0.89830365  1
  O2-  O159  1  0.17256959  0.92804724  0.24528038  1
  O2-  O160  1  0.18048667  0.92755290  0.57634078  1
  O2-  O161  1  0.17746607  0.92770055  0.90886787  1
  O2-  O162  1  0.67985313  0.42652638  0.23476064  1
  O2-  O163  1  0.67750892  0.42605106  0.57565600  1
  O2-  O164  1  0.68332994  0.42442626  0.89975217  1
  O2-  O165  1  0.68037993  0.92954518  0.23410561  1
  O2-  O166  1  0.67967170  0.92860471  0.56899190  1
  O2-  O167  1  0.67984636  0.93556493  0.90177145  1
  O2-  O168  1  0.42224171  0.31970094  0.09023963  1
  O2-  O169  1  0.42773691  0.31868030  0.42411349  1
  O2-  O170  1  0.41815024  0.32276282  0.75351771  1
  O2-  O171  1  0.43085551  0.82057542  0.09948588  1
  O2-  O172  1  0.42855633  0.82257769  0.42513363  1
  O2-  O173  1  0.42756306  0.82052274  0.75476696  1
  O2-  O174  1  0.93049090  0.32083879  0.08805650  1
  O2-  O175  1  0.92979820  0.32086086  0.42957359  1
  O2-  O176  1  0.93507317  0.31840401  0.76609314  1
  O2-  O177  1  0.92972386  0.82678573  0.08671815  1
  O2-  O178  1  0.92908894  0.81889564  0.43356334  1
  O2-  O179  1  0.92912100  0.82504733  0.75639119  1
  O2-  O180  1  0.32085727  0.06864289  0.23670937  1
  O2-  O181  1  0.31866783  0.06805689  0.57873142  1
  O2-  O182  1  0.31822678  0.06880912  0.89943320  1
  O2-  O183  1  0.31988209  0.57222475  0.23370854  1
  O2-  O184  1  0.32379608  0.57423413  0.57898839  1
  O2-  O185  1  0.31916902  0.57409749  0.90729110  1
  O2-  O186  1  0.82736979  0.06951923  0.24341356  1
  O2-  O187  1  0.82469612  0.07348813  0.57692386  1
  O2-  O188  1  0.82660579  0.07175924  0.91015078  1
  O2-  O189  1  0.81979503  0.57180167  0.24483710  1
  O2-  O190  1  0.81849769  0.56971263  0.56631412  1
  O2-  O191  1  0.82504688  0.56509815  0.90332270  1
  O2-  O192  1  0.04928610  0.08599097  0.27107445  1
  O2-  O193  1  0.05442272  0.07985298  0.60595521  1
  O2-  O194  1  0.04571822  0.08319736  0.93109713  1
  O2-  O195  1  0.04705250  0.58612737  0.27103512  1
  O2-  O196  1  0.03967604  0.58408563  0.59531860  1
  O2-  O197  1  0.03654924  0.58272440  0.93398939  1
  O2-  O198  1  0.53430076  0.08076078  0.26856536  1
  O2-  O199  1  0.53102085  0.08421631  0.59858715  1
  O2-  O200  1  0.53376200  0.08699425  0.93129518  1
  O2-  O201  1  0.54015938  0.57887855  0.27056699  1
  O2-  O202  1  0.54509610  0.58551226  0.60752103  1
  O2-  O203  1  0.54596040  0.57792753  0.92819476  1
  O2-  O204  1  0.16989581  0.20363163  0.27746378  1
  O2-  O205  1  0.16828061  0.20413518  0.60343220  1
  O2-  O206  1  0.16880866  0.21230343  0.93223879  1
  O2-  O207  1  0.16744217  0.70508431  0.27130325  1
  O2-  O208  1  0.16723389  0.71100197  0.59656510  1
  O2-  O209  1  0.16341585  0.70930389  0.92933475  1
  O2-  O210  1  0.66628864  0.20472165  0.26499342  1
  O2-  O211  1  0.66620702  0.20264192  0.59705047  1
  O2-  O212  1  0.66912369  0.20656013  0.93144615  1
  O2-  O213  1  0.66428852  0.70946441  0.26656677  1
  O2-  O214  1  0.66468242  0.70796955  0.60847972  1
  O2-  O215  1  0.67272931  0.70630614  0.93323307  1
  O2-  O216  1  0.08525249  0.46119402  0.06724698  1
  O2-  O217  1  0.07793129  0.46055659  0.40334750  1
  O2-  O218  1  0.08882355  0.45994874  0.72793353  1
  O2-  O219  1  0.08139628  0.95125656  0.05896818  1
  O2-  O220  1  0.08209170  0.95636520  0.39881432  1
  O2-  O221  1  0.08427183  0.94779197  0.72784790  1
  O2-  O222  1  0.57549923  0.44867955  0.06343871  1
  O2-  O223  1  0.58297310  0.45259718  0.40330455  1
  O2-  O224  1  0.58149038  0.44610115  0.72583975  1
  O2-  O225  1  0.58380791  0.96482794  0.06792172  1
  O2-  O226  1  0.58561372  0.95864447  0.40346703  1
  O2-  O227  1  0.58151855  0.96295961  0.73433152  1
  O2-  O228  1  0.21074139  0.33484175  0.06811023  1
  O2-  O229  1  0.20484751  0.33356151  0.40793536  1
  O2-  O230  1  0.20785060  0.33822259  0.72754585  1
  O2-  O231  1  0.20130128  0.83281441  0.06028086  1
  O2-  O232  1  0.19895811  0.83492525  0.39820960  1
  O2-  O233  1  0.21150463  0.83653899  0.72827146  1
  O2-  O234  1  0.70980262  0.32940225  0.06618252  1
  O2-  O235  1  0.71406394  0.32918097  0.39932488  1
  O2-  O236  1  0.70539003  0.33049774  0.72407581  1
  O2-  O237  1  0.70826065  0.83492468  0.06766686  1
  O2-  O238  1  0.71439820  0.83234052  0.40049275  1
  O2-  O239  1  0.70878219  0.83513288  0.73904915  1
  O2-  O240  1  0.44850518  0.41542404  0.27422256  1
  O2-  O241  1  0.44577245  0.42011102  0.60447263  1
  O2-  O242  1  0.44319295  0.41777067  0.93845307  1
  O2-  O243  1  0.45705455  0.91460546  0.27429273  1
  O2-  O244  1  0.45677181  0.91253536  0.60344593  1
  O2-  O245  1  0.46089037  0.91831370  0.93053084  1
  O2-  O246  1  0.95876431  0.41965866  0.26280864  1
  O2-  O247  1  0.96501362  0.41284517  0.59642761  1
  O2-  O248  1  0.95869616  0.41494294  0.93794613  1
  O2-  O249  1  0.95761859  0.91833617  0.26508804  1
  O2-  O250  1  0.95081526  0.91634124  0.60384924  1
  O2-  O251  1  0.95231546  0.91699775  0.93261567  1
  O2-  O252  1  0.33125560  0.29382014  0.27613158  1
  O2-  O253  1  0.33388617  0.29335937  0.59912080  1
  O2-  O254  1  0.33599542  0.28961811  0.93539103  1
  O2-  O255  1  0.33098722  0.80444816  0.27454050  1
  O2-  O256  1  0.33877911  0.79300832  0.60048635  1
  O2-  O257  1  0.33183221  0.79603717  0.93008782  1
  O2-  O258  1  0.83590039  0.28830445  0.25934871  1
  O2-  O259  1  0.83554881  0.28995715  0.59620815  1
  O2-  O260  1  0.83748116  0.29589749  0.93444025  1
  O2-  O261  1  0.83437907  0.78914982  0.26329075  1
  O2-  O262  1  0.83235658  0.79360698  0.60769866  1
  O2-  O263  1  0.83237776  0.80054771  0.93660048  1
  O2-  O264  1  0.41450596  0.03661864  0.06766326  1
  O2-  O265  1  0.41432891  0.03493514  0.40789731  1
  O2-  O266  1  0.40849935  0.03767061  0.73109831  1
  O2-  O267  1  0.41686161  0.55333519  0.05691593  1
  O2-  O268  1  0.41706099  0.54104190  0.40517943  1
  O2-  O269  1  0.41407417  0.54608429  0.73248899  1
  O2-  O270  1  0.91950560  0.04762660  0.06203328  1
  O2-  O271  1  0.91829619  0.04833984  0.39643716  1
  O2-  O272  1  0.91849707  0.04970855  0.72833005  1
  O2-  O273  1  0.91674094  0.53902534  0.07329903  1
  O2-  O274  1  0.91502115  0.54787979  0.39462722  1
  O2-  O275  1  0.91791431  0.53455246  0.73113228  1
  O2-  O276  1  0.28922169  0.16487381  0.06852239  1
  O2-  O277  1  0.29145185  0.16412289  0.40877391  1
  O2-  O278  1  0.29474789  0.16410603  0.72905585  1
  O2-  O279  1  0.29279643  0.66800771  0.05853529  1
  O2-  O280  1  0.29690608  0.67295554  0.40169092  1
  O2-  O281  1  0.29424154  0.66639087  0.72891381  1
  O2-  O282  1  0.80261041  0.16792238  0.05972580  1
  O2-  O283  1  0.79734277  0.16574794  0.39278209  1
  O2-  O284  1  0.79790483  0.16762595  0.72802450  1
  O2-  O285  1  0.80189961  0.67277857  0.06619758  1
  O2-  O286  1  0.79308339  0.66477075  0.39620551  1
  O2-  O287  1  0.79382530  0.66418668  0.73673262  1
