# generated using pymatgen
data_Ca2Al2SiO7
_symmetry_space_group_name_H-M   'P 1'
_cell_length_a   15.47421995
_cell_length_b   15.47410183
_cell_length_c   15.29613689
_cell_angle_alpha   90.00367620
_cell_angle_beta   89.99569114
_cell_angle_gamma   89.98108164
_symmetry_Int_Tables_number   1
_chemical_formula_structural   Ca2Al2SiO7
_chemical_formula_sum   'Ca48 Al48 Si24 O168'
_cell_volume   3662.65448599
_cell_formula_units_Z   24
loop_
 _symmetry_equiv_pos_site_id
 _symmetry_equiv_pos_as_xyz
  1  'x, y, z'
loop_
 _atom_type_symbol
 _atom_type_oxidation_number
  Ca2+  2.0
  Al0+  0.0
  Si0+  0.0
  O2-  -2.0
loop_
 _atom_site_type_symbol
 _atom_site_label
 _atom_site_symmetry_multiplicity
 _atom_site_fract_x
 _atom_site_fract_y
 _atom_site_fract_z
 _atom_site_occupancy
  Ca2+  Ca0  1  0.16893198  0.07731008  0.17123441  1
  Ca2+  Ca1  1  0.17698365  0.07811215  0.51037772  1
  Ca2+  Ca2  1  0.17470357  0.08018885  0.83335071  1
  Ca2+  Ca3  1  0.17148446  0.58147581  0.17568337  1
  Ca2+  Ca4  1  0.17634600  0.58019154  0.50295611  1
  Ca2+  Ca5  1  0.17195364  0.58709519  0.82890519  1
  Ca2+  Ca6  1  0.66053473  0.07808941  0.17694296  1
  Ca2+  Ca7  1  0.64808832  0.07503193  0.50501702  1
  Ca2+  Ca8  1  0.65336762  0.07684142  0.83143360  1
  Ca2+  Ca9  1  0.67394781  0.59295957  0.16577668  1
  Ca2+  Ca10  1  0.67252080  0.58123380  0.51496117  1
  Ca2+  Ca11  1  0.67236071  0.59144473  0.83680269  1
  Ca2+  Ca12  1  0.07842535  0.34007526  0.16115241  1
  Ca2+  Ca13  1  0.08698637  0.34232619  0.49801030  1
  Ca2+  Ca14  1  0.07636676  0.34463522  0.82855237  1
  Ca2+  Ca15  1  0.08472698  0.81728598  0.16176046  1
  Ca2+  Ca16  1  0.08468377  0.81729929  0.49706223  1
  Ca2+  Ca17  1  0.08016630  0.81875173  0.82646951  1
  Ca2+  Ca18  1  0.57013642  0.33438573  0.16372111  1
  Ca2+  Ca19  1  0.57296044  0.33229733  0.49718799  1
  Ca2+  Ca20  1  0.57401343  0.32978167  0.82224570  1
  Ca2+  Ca21  1  0.57496042  0.83049036  0.16461029  1
  Ca2+  Ca22  1  0.57854183  0.83147609  0.50067045  1
  Ca2+  Ca23  1  0.57952936  0.82481575  0.82761156  1
  Ca2+  Ca24  1  0.33178174  0.42346803  0.17734306  1
  Ca2+  Ca25  1  0.32772777  0.42090454  0.50902884  1
  Ca2+  Ca26  1  0.33737467  0.42090789  0.83357334  1
  Ca2+  Ca27  1  0.33974756  0.91280261  0.17160996  1
  Ca2+  Ca28  1  0.34551041  0.92163468  0.50756186  1
  Ca2+  Ca29  1  0.34914371  0.92112040  0.83236390  1
  Ca2+  Ca30  1  0.83417533  0.41950864  0.16508109  1
  Ca2+  Ca31  1  0.82245412  0.42066961  0.50995020  1
  Ca2+  Ca32  1  0.82465146  0.42374061  0.83363978  1
  Ca2+  Ca33  1  0.82358752  0.91894800  0.17542239  1
  Ca2+  Ca34  1  0.81807509  0.91826531  0.50706157  1
  Ca2+  Ca35  1  0.82534916  0.91463439  0.83384718  1
  Ca2+  Ca36  1  0.41787530  0.17947802  0.16788632  1
  Ca2+  Ca37  1  0.42002269  0.17773908  0.50210673  1
  Ca2+  Ca38  1  0.41576399  0.17777841  0.82417236  1
  Ca2+  Ca39  1  0.41749981  0.67529875  0.16023913  1
  Ca2+  Ca40  1  0.40856617  0.67380044  0.49776006  1
  Ca2+  Ca41  1  0.42482149  0.67490738  0.82135268  1
  Ca2+  Ca42  1  0.91914855  0.17511313  0.16036439  1
  Ca2+  Ca43  1  0.92027107  0.16763643  0.49785620  1
  Ca2+  Ca44  1  0.91818582  0.17345488  0.83114096  1
  Ca2+  Ca45  1  0.92929622  0.65763223  0.16047270  1
  Ca2+  Ca46  1  0.92772116  0.65382176  0.50068011  1
  Ca2+  Ca47  1  0.92587919  0.64926640  0.82864652  1
  Al0+  Al48  1  0.00065866  -0.00067222  0.00305674  1
  Al0+  Al49  1  -0.00125560  0.00010391  0.33328831  1
  Al0+  Al50  1  -0.00060525  -0.00022268  0.66692960  1
  Al0+  Al51  1  -0.00119022  0.49835366  -0.00406657  1
  Al0+  Al52  1  0.00068249  0.49911058  0.33147565  1
  Al0+  Al53  1  -0.00099977  0.49830358  0.66654517  1
  Al0+  Al54  1  0.49955191  0.00120286  0.00310328  1
  Al0+  Al55  1  0.49990069  -0.00122096  0.32946721  1
  Al0+  Al56  1  0.49947233  0.00063701  0.67177519  1
  Al0+  Al57  1  0.50060179  0.49983200  -0.00453712  1
  Al0+  Al58  1  0.50267625  0.50286274  0.33214356  1
  Al0+  Al59  1  0.49892903  0.50018449  0.66651576  1
  Al0+  Al60  1  0.25030409  0.24744646  -0.00058820  1
  Al0+  Al61  1  0.24864994  0.24792952  0.33207295  1
  Al0+  Al62  1  0.24751988  0.24751049  0.67197355  1
  Al0+  Al63  1  0.24834079  0.75196763  -0.00775146  1
  Al0+  Al64  1  0.24823044  0.74965559  0.32757212  1
  Al0+  Al65  1  0.24667452  0.74910294  0.66173368  1
  Al0+  Al66  1  0.75125679  0.24986366  -0.00271648  1
  Al0+  Al67  1  0.75313489  0.24929816  0.32964217  1
  Al0+  Al68  1  0.75200133  0.24862243  0.66635777  1
  Al0+  Al69  1  0.75169778  0.75182482  0.00621195  1
  Al0+  Al70  1  0.75105046  0.75323876  0.33967387  1
  Al0+  Al71  1  0.75176219  0.75332858  0.67282175  1
  Al0+  Al72  1  0.42562311  0.32295749  0.65264655  1
  Al0+  Al73  1  0.17921761  0.42781435  0.34568067  1
  Al0+  Al74  1  0.43062750  0.81829893  0.32017584  1
  Al0+  Al75  1  0.06802453  0.67707038  0.65005576  1
  Al0+  Al76  1  0.32319960  0.57349206  0.34542482  1
  Al0+  Al77  1  0.42902712  0.82211839  0.98429789  1
  Al0+  Al78  1  0.67832008  0.93157807  0.34902411  1
  Al0+  Al79  1  0.57024391  0.18006912  0.31903213  1
  Al0+  Al80  1  0.32019840  0.06840160  0.68094817  1
  Al0+  Al81  1  0.82067551  0.56937740  0.01561513  1
  Al0+  Al82  1  0.57358708  0.68000743  0.98674728  1
  Al0+  Al83  1  0.67588568  0.42637086  0.68015377  1
  Al0+  Al84  1  0.32147041  0.57340658  0.68207543  1
  Al0+  Al85  1  0.92973105  0.31992003  0.98417756  1
  Al0+  Al86  1  0.42726655  0.32098146  0.98610043  1
  Al0+  Al87  1  0.17969675  0.42868697  0.68290413  1
  Al0+  Al88  1  0.42993134  0.81937920  0.65118340  1
  Al0+  Al89  1  0.42679241  0.32438302  0.31916332  1
  Al0+  Al90  1  0.06932600  0.67835839  0.98409044  1
  Al0+  Al91  1  0.67902788  0.93169540  0.68306451  1
  Al0+  Al92  1  0.81886105  0.57061108  0.68100690  1
  Al0+  Al93  1  0.57172265  0.17995022  0.65374952  1
  Al0+  Al94  1  0.06791642  0.67913894  0.31814716  1
  Al0+  Al95  1  0.57449749  0.67844616  0.65205283  1
  Si0+  Si96  1  0.82298018  0.07238707  0.01645847  1
  Si0+  Si97  1  0.82328709  0.07393651  0.35068736  1
  Si0+  Si98  1  0.92853058  0.82566415  0.64904250  1
  Si0+  Si99  1  0.68048701  0.42693176  0.34522732  1
  Si0+  Si100  1  0.32056791  0.07028351  0.01874522  1
  Si0+  Si101  1  0.82089539  0.57018729  0.34677916  1
  Si0+  Si102  1  0.07058059  0.17645281  0.65163746  1
  Si0+  Si103  1  0.18016334  0.42915455  0.01342143  1
  Si0+  Si104  1  0.67721095  0.42574944  0.01779808  1
  Si0+  Si105  1  0.57842601  0.67765943  0.31822974  1
  Si0+  Si106  1  0.93104780  0.31983672  0.31790197  1
  Si0+  Si107  1  0.92714217  0.82344567  0.31682585  1
  Si0+  Si108  1  0.67931953  0.93173403  0.01851922  1
  Si0+  Si109  1  0.82611601  0.07214946  0.68545772  1
  Si0+  Si110  1  0.17655313  0.92847420  0.34726062  1
  Si0+  Si111  1  0.07162562  0.17516391  0.31816287  1
  Si0+  Si112  1  0.57193052  0.17901808  0.98530958  1
  Si0+  Si113  1  0.92855285  0.82400159  0.98510100  1
  Si0+  Si114  1  0.32118890  0.57288888  0.01284426  1
  Si0+  Si115  1  0.31954067  0.06890356  0.34762335  1
  Si0+  Si116  1  0.07189160  0.17560599  0.98301069  1
  Si0+  Si117  1  0.17531670  0.92726955  0.68305506  1
  Si0+  Si118  1  0.93056785  0.31926232  0.64968340  1
  Si0+  Si119  1  0.17767387  0.92846951  0.01637334  1
  O2-  O120  1  0.25133378  -0.00343782  0.05983777  1
  O2-  O121  1  0.24838150  -0.00224421  0.38962264  1
  O2-  O122  1  0.24850208  -0.00969492  0.72825725  1
  O2-  O123  1  0.25191113  0.49924426  0.05550148  1
  O2-  O124  1  0.25708816  0.49425331  0.39326038  1
  O2-  O125  1  0.25387798  0.49730646  0.73380374  1
  O2-  O126  1  0.75035120  0.00406634  0.05969470  1
  O2-  O127  1  0.75190626  0.00888302  0.39432905  1
  O2-  O128  1  0.75372674  0.00779770  0.72954134  1
  O2-  O129  1  0.74320237  0.49746330  0.06323248  1
  O2-  O130  1  0.74508047  0.50419965  0.38712790  1
  O2-  O131  1  0.74040787  0.50541701  0.73068064  1
  O2-  O132  1  0.00397317  0.24969642  0.27667494  1
  O2-  O133  1  0.00198249  0.24848416  0.60760541  1
  O2-  O134  1  0.00583895  0.24594311  0.93835304  1
  O2-  O135  1  -0.00686862  0.75374447  0.27067377  1
  O2-  O136  1  -0.00728389  0.75285613  0.60507839  1
  O2-  O137  1  -0.00812268  0.75182380  0.93956250  1
  O2-  O138  1  0.50153064  0.25462195  0.26846955  1
  O2-  O139  1  0.50409576  0.25625926  0.60473723  1
  O2-  O140  1  0.50594267  0.24954201  0.94203469  1
  O2-  O141  1  0.50330249  0.74057321  0.27566183  1
  O2-  O142  1  0.49821093  0.74473614  0.59986901  1
  O2-  O143  1  0.49817575  0.74749561  0.93624464  1
  O2-  O144  1  0.07032473  0.17439305  0.08905574  1
  O2-  O145  1  0.06914700  0.16979761  0.42273043  1
  O2-  O146  1  0.06709169  0.17242614  0.75650648  1
  O2-  O147  1  0.06969883  0.67916831  0.09754796  1
  O2-  O148  1  0.06540457  0.67902803  0.43057689  1
  O2-  O149  1  0.06585760  0.67889029  0.76325350  1
  O2-  O150  1  0.57075193  0.17836893  0.09105500  1
  O2-  O151  1  0.56783802  0.18105876  0.43171008  1
  O2-  O152  1  0.56840082  0.17984425  0.76783243  1
  O2-  O153  1  0.57348659  0.68396002  0.10102393  1
  O2-  O154  1  0.58585770  0.68020153  0.42272898  1
  O2-  O155  1  0.57637729  0.68465050  0.76547083  1
  O2-  O156  1  0.17500138  0.43059995  0.23141515  1
  O2-  O157  1  0.17888086  0.42971433  0.56933333  1
  O2-  O158  1  0.17993209  0.42863484  0.90902704  1
  O2-  O159  1  0.17505455  0.93139220  0.24178300  1
  O2-  O160  1  0.17097675  0.93256936  0.57735926  1
  O2-  O161  1  0.17135926  0.93230931  0.91216243  1
  O2-  O162  1  0.68427852  0.42422414  0.24006798  1
  O2-  O163  1  0.68342776  0.42297155  0.56584969  1
  O2-  O164  1  0.68049109  0.42141014  0.91316922  1
  O2-  O165  1  0.68157633  0.93295359  0.23535905  1
  O2-  O166  1  0.67974389  0.93405501  0.56995681  1
  O2-  O167  1  0.67962779  0.93326437  0.91389922  1
  O2-  O168  1  0.42499347  0.31928380  0.09945988  1
  O2-  O169  1  0.42458917  0.32152333  0.43172531  1
  O2-  O170  1  0.42356401  0.31686484  0.76637192  1
  O2-  O171  1  0.43033391  0.82203519  0.09836166  1
  O2-  O172  1  0.43090645  0.82224732  0.43224585  1
  O2-  O173  1  0.43338894  0.82074302  0.76456696  1
  O2-  O174  1  0.93232109  0.31838514  0.09801200  1
  O2-  O175  1  0.92955412  0.31895512  0.42266978  1
  O2-  O176  1  0.93186062  0.31792571  0.75464889  1
  O2-  O177  1  0.93230889  0.82683717  0.09081957  1
  O2-  O178  1  0.92929807  0.82587000  0.42179929  1
  O2-  O179  1  0.93317126  0.83252243  0.75448605  1
  O2-  O180  1  0.31623260  0.06871609  0.24199382  1
  O2-  O181  1  0.31720236  0.06837779  0.56740349  1
  O2-  O182  1  0.31956778  0.07113229  0.91414606  1
  O2-  O183  1  0.31860171  0.57502103  0.23070982  1
  O2-  O184  1  0.31636854  0.57632760  0.56875988  1
  O2-  O185  1  0.31965544  0.57327760  0.90843492  1
  O2-  O186  1  0.82673342  0.07255012  0.24482777  1
  O2-  O187  1  0.83424326  0.06889193  0.58031893  1
  O2-  O188  1  0.82658526  0.07065809  0.91198999  1
  O2-  O189  1  0.82274608  0.56825406  0.24144862  1
  O2-  O190  1  0.82175437  0.56531706  0.56658738  1
  O2-  O191  1  0.82167716  0.56712415  0.90364957  1
  O2-  O192  1  0.03973970  0.08560454  0.26700537  1
  O2-  O193  1  0.04040574  0.08613336  0.60181058  1
  O2-  O194  1  0.04281117  0.08296893  0.93733439  1
  O2-  O195  1  0.03534059  0.58306744  0.26329351  1
  O2-  O196  1  0.03360000  0.58146981  0.59663682  1
  O2-  O197  1  0.03866264  0.58231472  0.93128403  1
  O2-  O198  1  0.53787283  0.08363918  0.26391991  1
  O2-  O199  1  0.53513975  0.08377399  0.60265377  1
  O2-  O200  1  0.54297204  0.08604130  0.94093455  1
  O2-  O201  1  0.56226833  0.58215134  0.27245132  1
  O2-  O202  1  0.55556267  0.57663846  0.60366024  1
  O2-  O203  1  0.55429523  0.57905652  0.93733414  1
  O2-  O204  1  0.16364388  0.19754020  0.26929031  1
  O2-  O205  1  0.16226665  0.20179564  0.60435282  1
  O2-  O206  1  0.16632631  0.19763630  0.93890606  1
  O2-  O207  1  0.16238078  0.71234357  0.26167285  1
  O2-  O208  1  0.16249643  0.71002672  0.59425978  1
  O2-  O209  1  0.16320859  0.71290933  0.92878429  1
  O2-  O210  1  0.67207808  0.20176894  0.26801857  1
  O2-  O211  1  0.67426568  0.19618169  0.60387317  1
  O2-  O212  1  0.66723403  0.19771755  0.94067342  1
  O2-  O213  1  0.66968870  0.71129132  0.27008710  1
  O2-  O214  1  0.67340378  0.71174181  0.60165057  1
  O2-  O215  1  0.67228973  0.71271281  0.93736064  1
  O2-  O216  1  0.08783718  0.45745028  0.05985157  1
  O2-  O217  1  0.08129030  0.45935077  0.39875603  1
  O2-  O218  1  0.08164885  0.46093473  0.73427579  1
  O2-  O219  1  0.08798354  0.95969732  0.06787698  1
  O2-  O220  1  0.08545413  0.95814717  0.39498211  1
  O2-  O221  1  0.08483172  0.96006354  0.73189811  1
  O2-  O222  1  0.58204924  0.44878644  0.06231015  1
  O2-  O223  1  0.58652147  0.44720768  0.39020881  1
  O2-  O224  1  0.57454052  0.44255341  0.72939024  1
  O2-  O225  1  0.58793870  0.96115847  0.06673197  1
  O2-  O226  1  0.58119847  0.96262908  0.40073950  1
  O2-  O227  1  0.58475436  0.96405054  0.73989194  1
  O2-  O228  1  0.20353120  0.33478933  0.05943173  1
  O2-  O229  1  0.19645344  0.32509070  0.39499292  1
  O2-  O230  1  0.19700438  0.32729569  0.73450024  1
  O2-  O231  1  0.20407964  0.83553580  0.06257101  1
  O2-  O232  1  0.20171395  0.83572585  0.39175316  1
  O2-  O233  1  0.19409725  0.83165996  0.72523560  1
  O2-  O234  1  0.70821234  0.33314279  0.06483883  1
  O2-  O235  1  0.71631908  0.33787965  0.39275794  1
  O2-  O236  1  0.71408153  0.33065555  0.73410718  1
  O2-  O237  1  0.70869541  0.84161406  0.06809481  1
  O2-  O238  1  0.71190300  0.83682482  0.40483214  1
  O2-  O239  1  0.71350430  0.83810071  0.74037321  1
  O2-  O240  1  0.45508418  0.42346501  0.26575981  1
  O2-  O241  1  0.44587761  0.42293364  0.60111376  1
  O2-  O242  1  0.45340756  0.41830500  0.93333641  1
  O2-  O243  1  0.46328560  0.91334151  0.26340343  1
  O2-  O244  1  0.46198101  0.91835882  0.60216968  1
  O2-  O245  1  0.46084078  0.92128406  0.93554863  1
  O2-  O246  1  0.95885816  0.41061193  0.26848065  1
  O2-  O247  1  0.95940624  0.40946218  0.60077705  1
  O2-  O248  1  0.96125995  0.41434582  0.92894017  1
  O2-  O249  1  0.95296975  0.91714772  0.26955710  1
  O2-  O250  1  0.95790643  0.91711027  0.59987867  1
  O2-  O251  1  0.95726185  0.91650083  0.93823948  1
  O2-  O252  1  0.32924058  0.29074564  0.26519186  1
  O2-  O253  1  0.32859332  0.28485568  0.60200260  1
  O2-  O254  1  0.33229384  0.28479238  0.93295565  1
  O2-  O255  1  0.33283463  0.79275244  0.26466386  1
  O2-  O256  1  0.32838936  0.79899857  0.60066749  1
  O2-  O257  1  0.32861237  0.80313777  0.93320397  1
  O2-  O258  1  0.84169686  0.29044383  0.26635054  1
  O2-  O259  1  0.84029326  0.28989350  0.60051942  1
  O2-  O260  1  0.83435606  0.28706817  0.93003467  1
  O2-  O261  1  0.83261998  0.79951595  0.27218179  1
  O2-  O262  1  0.83320577  0.80428000  0.60686902  1
  O2-  O263  1  0.83272810  0.80422699  0.94341770  1
  O2-  O264  1  0.41249839  0.04420225  0.06708759  1
  O2-  O265  1  0.41068598  0.03885444  0.39258659  1
  O2-  O266  1  0.41476767  0.03973888  0.73901540  1
  O2-  O267  1  0.41425184  0.54751489  0.05939170  1
  O2-  O268  1  0.42614962  0.55816550  0.39346352  1
  O2-  O269  1  0.42164506  0.55150036  0.73351239  1
  O2-  O270  1  0.91416786  0.04356602  0.06623019  1
  O2-  O271  1  0.91625858  0.04576897  0.39762704  1
  O2-  O272  1  0.91747527  0.04249032  0.73513437  1
  O2-  O273  1  0.91668645  0.53238693  0.06919203  1
  O2-  O274  1  0.91040945  0.53569846  0.39378736  1
  O2-  O275  1  0.91372491  0.53137177  0.73338271  1
  O2-  O276  1  0.28831156  0.16042365  0.06788179  1
  O2-  O277  1  0.29074543  0.16001425  0.39482582  1
  O2-  O278  1  0.28291740  0.16095087  0.73845003  1
  O2-  O279  1  0.29015388  0.66530337  0.05810398  1
  O2-  O280  1  0.28527752  0.66940908  0.39753181  1
  O2-  O281  1  0.28568019  0.67073270  0.73459961  1
  O2-  O282  1  0.79783939  0.16538401  0.06334156  1
  O2-  O283  1  0.80391946  0.16939269  0.39507128  1
  O2-  O284  1  0.80562049  0.16731378  0.72925165  1
  O2-  O285  1  0.79561996  0.66797508  0.07104909  1
  O2-  O286  1  0.80124282  0.66410613  0.39275421  1
  O2-  O287  1  0.80369534  0.67199640  0.73261725  1
