# generated using pymatgen
data_Ca2Al2SiO7
_symmetry_space_group_name_H-M   'P 1'
_cell_length_a   15.46550354
_cell_length_b   15.46333435
_cell_length_c   15.28744194
_cell_angle_alpha   90.00400547
_cell_angle_beta   90.00163985
_cell_angle_gamma   90.00171952
_symmetry_Int_Tables_number   1
_chemical_formula_structural   Ca2Al2SiO7
_chemical_formula_sum   'Ca48 Al48 Si24 O168'
_cell_volume   3655.96500709
_cell_formula_units_Z   24
loop_
 _symmetry_equiv_pos_site_id
 _symmetry_equiv_pos_as_xyz
  1  'x, y, z'
loop_
 _atom_type_symbol
 _atom_type_oxidation_number
  Ca2+  2.0
  Al0+  0.0
  Si0+  0.0
  O2-  -2.0
loop_
 _atom_site_type_symbol
 _atom_site_label
 _atom_site_symmetry_multiplicity
 _atom_site_fract_x
 _atom_site_fract_y
 _atom_site_fract_z
 _atom_site_occupancy
  Ca2+  Ca0  1  0.16209157  0.07890220  0.17528215  1
  Ca2+  Ca1  1  0.15471873  0.07093321  0.49924696  1
  Ca2+  Ca2  1  0.16188451  0.07775091  0.83863392  1
  Ca2+  Ca3  1  0.15690697  0.58127854  0.16702587  1
  Ca2+  Ca4  1  0.17235642  0.59092891  0.50389651  1
  Ca2+  Ca5  1  0.16962191  0.58172666  0.84173787  1
  Ca2+  Ca6  1  0.66840014  0.08275863  0.17005358  1
  Ca2+  Ca7  1  0.67144316  0.08024802  0.50121503  1
  Ca2+  Ca8  1  0.66652762  0.07446230  0.83996673  1
  Ca2+  Ca9  1  0.67971666  0.58195311  0.16643136  1
  Ca2+  Ca10  1  0.68020567  0.57967454  0.50858113  1
  Ca2+  Ca11  1  0.67949290  0.57328254  0.83922771  1
  Ca2+  Ca12  1  0.08655917  0.32197271  0.15753351  1
  Ca2+  Ca13  1  0.07532105  0.32850286  0.49619708  1
  Ca2+  Ca14  1  0.08264852  0.33033711  0.83256419  1
  Ca2+  Ca15  1  0.07297445  0.82450977  0.16230911  1
  Ca2+  Ca16  1  0.07525133  0.83137963  0.49200020  1
  Ca2+  Ca17  1  0.07002464  0.82942511  0.82956541  1
  Ca2+  Ca18  1  0.58307095  0.32378040  0.15613672  1
  Ca2+  Ca19  1  0.58571175  0.33215648  0.49473336  1
  Ca2+  Ca20  1  0.59307531  0.33384214  0.83144540  1
  Ca2+  Ca21  1  0.57708462  0.83767431  0.15494575  1
  Ca2+  Ca22  1  0.58414778  0.83568753  0.50015183  1
  Ca2+  Ca23  1  0.58219901  0.83876816  0.83151592  1
  Ca2+  Ca24  1  0.32803300  0.40787315  0.16312962  1
  Ca2+  Ca25  1  0.32978271  0.42404852  0.50715399  1
  Ca2+  Ca26  1  0.33011624  0.42017425  0.84163872  1
  Ca2+  Ca27  1  0.32616808  0.91478180  0.17103255  1
  Ca2+  Ca28  1  0.31550899  0.91559873  0.50529181  1
  Ca2+  Ca29  1  0.32672776  0.91513389  0.83778147  1
  Ca2+  Ca30  1  0.83864816  0.43118262  0.16826639  1
  Ca2+  Ca31  1  0.83410367  0.42750545  0.50945622  1
  Ca2+  Ca32  1  0.83430006  0.42478040  0.83961077  1
  Ca2+  Ca33  1  0.83464759  0.91742440  0.17004032  1
  Ca2+  Ca34  1  0.83849886  0.92135716  0.50422051  1
  Ca2+  Ca35  1  0.82555939  0.90833001  0.83848411  1
  Ca2+  Ca36  1  0.42981171  0.16866487  0.15641424  1
  Ca2+  Ca37  1  0.42626166  0.16701059  0.49391876  1
  Ca2+  Ca38  1  0.42342935  0.17401530  0.83722645  1
  Ca2+  Ca39  1  0.41990690  0.67582568  0.15894584  1
  Ca2+  Ca40  1  0.41832250  0.66397529  0.49793982  1
  Ca2+  Ca41  1  0.41553210  0.66866749  0.83085865  1
  Ca2+  Ca42  1  0.92625894  0.15941729  0.16475748  1
  Ca2+  Ca43  1  0.91394224  0.17331670  0.49342827  1
  Ca2+  Ca44  1  0.91967254  0.17401529  0.83059205  1
  Ca2+  Ca45  1  0.91662151  0.67338965  0.16105191  1
  Ca2+  Ca46  1  0.91257526  0.67625811  0.49379911  1
  Ca2+  Ca47  1  0.91081473  0.67103704  0.83037273  1
  Al0+  Al48  1  -0.00042278  -0.00257231  -0.00821901  1
  Al0+  Al49  1  -0.00288037  0.00041488  0.33502964  1
  Al0+  Al50  1  0.00037929  -0.00134837  0.66937929  1
  Al0+  Al51  1  0.00365954  0.49903826  0.00642627  1
  Al0+  Al52  1  0.00024936  0.50042396  0.33817877  1
  Al0+  Al53  1  0.00296309  0.49913395  0.66485606  1
  Al0+  Al54  1  0.49907537  0.00143931  -0.00524089  1
  Al0+  Al55  1  0.49841795  0.00162325  0.33078416  1
  Al0+  Al56  1  0.49881458  0.00066125  0.66734779  1
  Al0+  Al57  1  0.49947574  0.50129296  0.00245207  1
  Al0+  Al58  1  0.49763957  0.50075091  0.33132556  1
  Al0+  Al59  1  0.49980168  0.50055793  0.67227425  1
  Al0+  Al60  1  0.25284863  0.24893003  -0.00473994  1
  Al0+  Al61  1  0.25018851  0.25054322  0.33425578  1
  Al0+  Al62  1  0.25376837  0.24881435  0.66290681  1
  Al0+  Al63  1  0.24955718  0.75052773  -0.00624861  1
  Al0+  Al64  1  0.24931322  0.74953350  0.33442655  1
  Al0+  Al65  1  0.25007014  0.75214890  0.67493058  1
  Al0+  Al66  1  0.75216220  0.24790288  -0.00047062  1
  Al0+  Al67  1  0.74829138  0.24947740  0.33167553  1
  Al0+  Al68  1  0.75126806  0.24819312  0.66272500  1
  Al0+  Al69  1  0.74735997  0.75078809  0.00586665  1
  Al0+  Al70  1  0.74711654  0.74900740  0.33376584  1
  Al0+  Al71  1  0.74855862  0.75037576  0.66792122  1
  Al0+  Al72  1  0.07288445  0.67847915  0.31945848  1
  Al0+  Al73  1  0.92700651  0.81924044  0.65158265  1
  Al0+  Al74  1  0.57469268  0.18017587  0.98225594  1
  Al0+  Al75  1  0.67792310  0.93148193  0.01398952  1
  Al0+  Al76  1  0.92622969  0.82117246  0.31864889  1
  Al0+  Al77  1  0.07038077  0.67648607  0.98403933  1
  Al0+  Al78  1  0.68012674  0.42705812  0.67947992  1
  Al0+  Al79  1  0.92648259  0.81868288  0.98379403  1
  Al0+  Al80  1  0.43074007  0.32233403  0.98435705  1
  Al0+  Al81  1  0.32028020  0.57093465  0.68084838  1
  Al0+  Al82  1  0.82235327  0.57091892  0.01653620  1
  Al0+  Al83  1  0.67865817  0.93081395  0.67921831  1
  Al0+  Al84  1  0.07234354  0.17739432  0.98636669  1
  Al0+  Al85  1  0.92985170  0.32100196  0.65333807  1
  Al0+  Al86  1  0.18184478  0.42796565  0.01373855  1
  Al0+  Al87  1  0.42882914  0.82177013  0.98521942  1
  Al0+  Al88  1  0.67809835  0.42601605  0.01652745  1
  Al0+  Al89  1  0.06935408  0.18033918  0.32144961  1
  Al0+  Al90  1  0.17774013  0.93122904  0.68327247  1
  Al0+  Al91  1  0.81953772  0.07068231  0.34633640  1
  Al0+  Al92  1  0.17931077  0.92934066  0.34496951  1
  Al0+  Al93  1  0.82131664  0.57189444  0.34953743  1
  Al0+  Al94  1  0.82404793  0.57125929  0.68144757  1
  Al0+  Al95  1  0.57076382  0.17944170  0.31935094  1
  Si0+  Si96  1  0.56849621  0.67892316  0.65202975  1
  Si0+  Si97  1  0.43022951  0.32287247  0.65004669  1
  Si0+  Si98  1  0.18000892  0.42508670  0.68203175  1
  Si0+  Si99  1  0.67385981  0.92834519  0.34920126  1
  Si0+  Si100  1  0.92731664  0.32311753  0.31653927  1
  Si0+  Si101  1  0.32259116  0.07317484  0.34987733  1
  Si0+  Si102  1  0.56959352  0.67758156  0.31886131  1
  Si0+  Si103  1  0.32160110  0.57477782  0.01872236  1
  Si0+  Si104  1  0.07426935  0.67911640  0.65091062  1
  Si0+  Si105  1  0.32338736  0.07265657  0.68429874  1
  Si0+  Si106  1  0.57051503  0.17786313  0.64988924  1
  Si0+  Si107  1  0.67678430  0.42964358  0.34832781  1
  Si0+  Si108  1  0.31940950  0.06981430  0.01456033  1
  Si0+  Si109  1  0.32073284  0.57057628  0.34743382  1
  Si0+  Si110  1  0.82275157  0.07217704  0.68378115  1
  Si0+  Si111  1  0.17799826  0.92863858  0.01538073  1
  Si0+  Si112  1  0.82474323  0.07089220  0.01553871  1
  Si0+  Si113  1  0.42901957  0.82025812  0.32106645  1
  Si0+  Si114  1  0.07416748  0.17765547  0.64955602  1
  Si0+  Si115  1  0.42769830  0.32397680  0.31707089  1
  Si0+  Si116  1  0.42775423  0.82206017  0.65005511  1
  Si0+  Si117  1  0.17909361  0.42606847  0.34988933  1
  Si0+  Si118  1  0.93023352  0.32213329  0.98609977  1
  Si0+  Si119  1  0.57144382  0.67858003  0.98269560  1
  O2-  O120  1  0.24765952  0.00058928  0.05854441  1
  O2-  O121  1  0.25191079  0.00657004  0.39369089  1
  O2-  O122  1  0.25051744  0.00893117  0.72860374  1
  O2-  O123  1  0.25462107  0.50437517  0.06290235  1
  O2-  O124  1  0.24840209  0.50063347  0.38965152  1
  O2-  O125  1  0.24557947  0.49639038  0.72605218  1
  O2-  O126  1  0.75365884  0.00470061  0.05998810  1
  O2-  O127  1  0.74576261  -0.00607243  0.39248009  1
  O2-  O128  1  0.75582103  0.00172734  0.72699706  1
  O2-  O129  1  0.75135370  0.49668226  0.06624909  1
  O2-  O130  1  0.74669168  0.49556052  0.39415299  1
  O2-  O131  1  0.75593087  0.49448566  0.72920099  1
  O2-  O132  1  -0.00341354  0.25506105  0.27216770  1
  O2-  O133  1  0.00501850  0.24609790  0.60618663  1
  O2-  O134  1  -0.00172801  0.25284486  0.94119328  1
  O2-  O135  1  -0.00310069  0.74663160  0.27063568  1
  O2-  O136  1  0.00163163  0.74316528  0.60625235  1
  O2-  O137  1  -0.00490148  0.74373173  0.93321051  1
  O2-  O138  1  0.49622607  0.25493269  0.27478704  1
  O2-  O139  1  0.50275392  0.25307438  0.60796017  1
  O2-  O140  1  0.50945306  0.25889128  0.93231195  1
  O2-  O141  1  0.50341554  0.75388908  0.27780884  1
  O2-  O142  1  0.49794892  0.75052678  0.60740103  1
  O2-  O143  1  0.50242714  0.74673595  0.93762022  1
  O2-  O144  1  0.07195437  0.17666026  0.09972709  1
  O2-  O145  1  0.06896379  0.18285064  0.43463751  1
  O2-  O146  1  0.07573041  0.17986343  0.75512739  1
  O2-  O147  1  0.07170268  0.68075835  0.09759077  1
  O2-  O148  1  0.07807669  0.68226469  0.43311702  1
  O2-  O149  1  0.07654272  0.68090967  0.75596744  1
  O2-  O150  1  0.56950923  0.17694738  0.09587790  1
  O2-  O151  1  0.56801551  0.17925185  0.43316004  1
  O2-  O152  1  0.56857193  0.17597122  0.75418501  1
  O2-  O153  1  0.56865035  0.68121878  0.08905135  1
  O2-  O154  1  0.56615910  0.67474915  0.42411616  1
  O2-  O155  1  0.56607004  0.67957429  0.75654077  1
  O2-  O156  1  0.18165358  0.42141565  0.24533153  1
  O2-  O157  1  0.18355704  0.42336248  0.57599192  1
  O2-  O158  1  0.18439518  0.42692857  0.90056152  1
  O2-  O159  1  0.18366766  0.92977602  0.23202271  1
  O2-  O160  1  0.17940891  0.93088135  0.56961472  1
  O2-  O161  1  0.17993552  0.93080385  0.91026228  1
  O2-  O162  1  0.67509963  0.43246695  0.24338322  1
  O2-  O163  1  0.67791794  0.43065766  0.56528053  1
  O2-  O164  1  0.68214383  0.42862908  0.90294296  1
  O2-  O165  1  0.66863678  0.93073212  0.24407107  1
  O2-  O166  1  0.67467763  0.93464322  0.56590451  1
  O2-  O167  1  0.67774302  0.93271556  0.90078857  1
  O2-  O168  1  0.42772654  0.31466095  0.09815154  1
  O2-  O169  1  0.42863573  0.32639256  0.42316952  1
  O2-  O170  1  0.42682503  0.32171466  0.75409487  1
  O2-  O171  1  0.42839267  0.82061122  0.09933344  1
  O2-  O172  1  0.42854490  0.81823776  0.42637125  1
  O2-  O173  1  0.42887663  0.82273572  0.75469539  1
  O2-  O174  1  0.93228145  0.32121088  0.09179137  1
  O2-  O175  1  0.92909815  0.32176127  0.42252648  1
  O2-  O176  1  0.93136738  0.31883261  0.76637608  1
  O2-  O177  1  0.92966853  0.82243026  0.09722684  1
  O2-  O178  1  0.92813900  0.82130155  0.43265862  1
  O2-  O179  1  0.92652711  0.81883255  0.76411442  1
  O2-  O180  1  0.32456974  0.07151822  0.24448735  1
  O2-  O181  1  0.32658426  0.07030872  0.57847897  1
  O2-  O182  1  0.31829060  0.06838087  0.90931700  1
  O2-  O183  1  0.32456895  0.57158741  0.24318488  1
  O2-  O184  1  0.32076958  0.56979583  0.56668966  1
  O2-  O185  1  0.31990505  0.57488120  0.91303309  1
  O2-  O186  1  0.81946750  0.07055523  0.23354931  1
  O2-  O187  1  0.82101179  0.07317433  0.57785051  1
  O2-  O188  1  0.82518743  0.07087812  0.90987103  1
  O2-  O189  1  0.81997325  0.57192073  0.23690048  1
  O2-  O190  1  0.81991362  0.57210759  0.56750051  1
  O2-  O191  1  0.82152977  0.56998578  0.90308486  1
  O2-  O192  1  0.03842721  0.08414395  0.26787516  1
  O2-  O193  1  0.04746545  0.08347288  0.60626183  1
  O2-  O194  1  0.04089430  0.08300178  0.92942468  1
  O2-  O195  1  0.05017770  0.57645350  0.27207144  1
  O2-  O196  1  0.05811038  0.58257326  0.60678675  1
  O2-  O197  1  0.05101663  0.57424205  0.93575526  1
  O2-  O198  1  0.53810077  0.08349930  0.26469789  1
  O2-  O199  1  0.53585965  0.08841818  0.60087421  1
  O2-  O200  1  0.53591370  0.08572587  0.92792227  1
  O2-  O201  1  0.53565089  0.58904343  0.26891005  1
  O2-  O202  1  0.53800361  0.58781405  0.60369681  1
  O2-  O203  1  0.54608447  0.58495513  0.93756293  1
  O2-  O204  1  0.16828444  0.20805504  0.26961119  1
  O2-  O205  1  0.16846181  0.20149968  0.60283909  1
  O2-  O206  1  0.16785862  0.20781424  0.93113702  1
  O2-  O207  1  0.17097961  0.70799096  0.26555807  1
  O2-  O208  1  0.16744116  0.71085537  0.60562594  1
  O2-  O209  1  0.16760385  0.70752664  0.93039290  1
  O2-  O210  1  0.66684907  0.20809895  0.26434683  1
  O2-  O211  1  0.66325681  0.20054221  0.60201163  1
  O2-  O212  1  0.67569096  0.19925500  0.93071992  1
  O2-  O213  1  0.66174894  0.70080331  0.27155740  1
  O2-  O214  1  0.65913493  0.70798981  0.60311582  1
  O2-  O215  1  0.66425432  0.70561054  0.93800233  1
  O2-  O216  1  0.08630550  0.45340762  0.07194982  1
  O2-  O217  1  0.08713707  0.45034400  0.39820884  1
  O2-  O218  1  0.08545705  0.44631338  0.72628459  1
  O2-  O219  1  0.08537866  0.95650810  0.05995365  1
  O2-  O220  1  0.08359340  0.96063369  0.39987825  1
  O2-  O221  1  0.08184309  0.96051381  0.73876643  1
  O2-  O222  1  0.57874947  0.45470873  0.06834001  1
  O2-  O223  1  0.58231192  0.45667645  0.39394652  1
  O2-  O224  1  0.58311957  0.45724855  0.73324923  1
  O2-  O225  1  0.58008438  0.96341459  0.06595969  1
  O2-  O226  1  0.58112561  0.95726004  0.39723112  1
  O2-  O227  1  0.58204567  0.96298171  0.73275732  1
  O2-  O228  1  0.21700155  0.33128413  0.06714486  1
  O2-  O229  1  0.21051730  0.33671959  0.40122147  1
  O2-  O230  1  0.20916975  0.33190318  0.72706692  1
  O2-  O231  1  0.20942400  0.83720428  0.06073247  1
  O2-  O232  1  0.21528396  0.83502816  0.40135093  1
  O2-  O233  1  0.21318715  0.83773140  0.73874170  1
  O2-  O234  1  0.70341747  0.32521439  0.06610638  1
  O2-  O235  1  0.69888842  0.33449969  0.39246057  1
  O2-  O236  1  0.70284407  0.32573373  0.72759357  1
  O2-  O237  1  0.70251566  0.83450222  0.06963381  1
  O2-  O238  1  0.69349465  0.83262270  0.39312778  1
  O2-  O239  1  0.70374201  0.83298489  0.73208991  1
  O2-  O240  1  0.45078452  0.41743181  0.26956399  1
  O2-  O241  1  0.45696194  0.41549009  0.60282845  1
  O2-  O242  1  0.44663664  0.42551406  0.93731473  1
  O2-  O243  1  0.45155870  0.91330963  0.27373623  1
  O2-  O244  1  0.45641583  0.91361255  0.60202545  1
  O2-  O245  1  0.45872398  0.91701993  0.92937136  1
  O2-  O246  1  0.95424852  0.41698641  0.27319548  1
  O2-  O247  1  0.96136291  0.41697378  0.59677318  1
  O2-  O248  1  0.95827452  0.41473615  0.94071254  1
  O2-  O249  1  0.95574355  0.91931859  0.26720990  1
  O2-  O250  1  0.95938565  0.91776414  0.60116328  1
  O2-  O251  1  0.95768984  0.91490787  0.92792961  1
  O2-  O252  1  0.33390336  0.29789787  0.27257479  1
  O2-  O253  1  0.33972145  0.29361052  0.59895947  1
  O2-  O254  1  0.33682739  0.28518034  0.92762869  1
  O2-  O255  1  0.33959911  0.78827576  0.27223278  1
  O2-  O256  1  0.33552481  0.79259033  0.60422592  1
  O2-  O257  1  0.33363967  0.79135445  0.92910540  1
  O2-  O258  1  0.83345304  0.29884115  0.27211803  1
  O2-  O259  1  0.83429137  0.28928517  0.59618473  1
  O2-  O260  1  0.83739990  0.29669089  0.93914086  1
  O2-  O261  1  0.82562783  0.79593041  0.26831762  1
  O2-  O262  1  0.82906350  0.79158422  0.59770776  1
  O2-  O263  1  0.82543663  0.79317640  0.93535351  1
  O2-  O264  1  0.41066082  0.03978488  0.06152748  1
  O2-  O265  1  0.41493104  0.04438379  0.39779438  1
  O2-  O266  1  0.41412572  0.04214630  0.73240334  1
  O2-  O267  1  0.41621293  0.55373264  0.06448458  1
  O2-  O268  1  0.41164104  0.54105463  0.39763627  1
  O2-  O269  1  0.41551593  0.54068793  0.73630063  1
  O2-  O270  1  0.91777242  0.04075062  0.06106755  1
  O2-  O271  1  0.91514886  0.04270856  0.40387396  1
  O2-  O272  1  0.91718457  0.05082867  0.72884265  1
  O2-  O273  1  0.92038544  0.54243474  0.07051733  1
  O2-  O274  1  0.91817032  0.54275208  0.40429389  1
  O2-  O275  1  0.92483703  0.54693231  0.73056318  1
  O2-  O276  1  0.29372587  0.16163135  0.06183536  1
  O2-  O277  1  0.30079460  0.16780236  0.39619442  1
  O2-  O278  1  0.30287405  0.16862090  0.72749484  1
  O2-  O279  1  0.29446468  0.66895420  0.06352744  1
  O2-  O280  1  0.29434287  0.66190143  0.39726173  1
  O2-  O281  1  0.29317860  0.66733367  0.73590166  1
  O2-  O282  1  0.80408738  0.16530224  0.06159906  1
  O2-  O283  1  0.78691114  0.16742491  0.40122741  1
  O2-  O284  1  0.79470607  0.16481592  0.72951869  1
  O2-  O285  1  0.78867197  0.66728571  0.07081802  1
  O2-  O286  1  0.78590354  0.66771007  0.40316955  1
  O2-  O287  1  0.78844301  0.66722832  0.73341450  1
