# generated using pymatgen
data_Ca2Al2SiO7
_symmetry_space_group_name_H-M   'P 1'
_cell_length_a   15.45518813
_cell_length_b   15.45552338
_cell_length_c   15.28198195
_cell_angle_alpha   90.00308136
_cell_angle_beta   90.00210864
_cell_angle_gamma   90.00163489
_symmetry_Int_Tables_number   1
_chemical_formula_structural   Ca2Al2SiO7
_chemical_formula_sum   'Ca48 Al48 Si24 O168'
_cell_volume   3650.37678360
_cell_formula_units_Z   24
loop_
 _symmetry_equiv_pos_site_id
 _symmetry_equiv_pos_as_xyz
  1  'x, y, z'
loop_
 _atom_type_symbol
 _atom_type_oxidation_number
  Ca2+  2.0
  Al0+  0.0
  Si0+  0.0
  O2-  -2.0
loop_
 _atom_site_type_symbol
 _atom_site_label
 _atom_site_symmetry_multiplicity
 _atom_site_fract_x
 _atom_site_fract_y
 _atom_site_fract_z
 _atom_site_occupancy
  Ca2+  Ca0  1  0.16382978  0.06993182  0.17041242  1
  Ca2+  Ca1  1  0.16339087  0.07965910  0.50107852  1
  Ca2+  Ca2  1  0.16106500  0.08027997  0.83946609  1
  Ca2+  Ca3  1  0.17477916  0.57678388  0.17538571  1
  Ca2+  Ca4  1  0.17377015  0.58588507  0.49839505  1
  Ca2+  Ca5  1  0.17945567  0.57836810  0.84379465  1
  Ca2+  Ca6  1  0.67591571  0.08343513  0.17361428  1
  Ca2+  Ca7  1  0.67117756  0.08090801  0.50035860  1
  Ca2+  Ca8  1  0.67000000  0.08662732  0.84089100  1
  Ca2+  Ca9  1  0.66419324  0.58133826  0.17307627  1
  Ca2+  Ca10  1  0.65744145  0.57098078  0.50101856  1
  Ca2+  Ca11  1  0.66476443  0.57779729  0.83740493  1
  Ca2+  Ca12  1  0.07434821  0.34148300  0.16182105  1
  Ca2+  Ca13  1  0.08026772  0.33073178  0.48985222  1
  Ca2+  Ca14  1  0.07999877  0.33308211  0.83093945  1
  Ca2+  Ca15  1  0.08711594  0.83011067  0.16335031  1
  Ca2+  Ca16  1  0.07932037  0.82910905  0.49168981  1
  Ca2+  Ca17  1  0.07190106  0.84238496  0.83180439  1
  Ca2+  Ca18  1  0.57866681  0.33150466  0.15786935  1
  Ca2+  Ca19  1  0.59128127  0.33226152  0.49740530  1
  Ca2+  Ca20  1  0.58200960  0.32446190  0.83203199  1
  Ca2+  Ca21  1  0.58337507  0.82497333  0.16589376  1
  Ca2+  Ca22  1  0.57556725  0.82612798  0.48480300  1
  Ca2+  Ca23  1  0.58387222  0.82396648  0.83190460  1
  Ca2+  Ca24  1  0.32666763  0.42148882  0.17038298  1
  Ca2+  Ca25  1  0.33290521  0.43177471  0.50356909  1
  Ca2+  Ca26  1  0.33114268  0.42335046  0.84407294  1
  Ca2+  Ca27  1  0.32547046  0.91125519  0.17270058  1
  Ca2+  Ca28  1  0.32714698  0.90746821  0.49735525  1
  Ca2+  Ca29  1  0.32359907  0.92076358  0.84138393  1
  Ca2+  Ca30  1  0.82871352  0.41114346  0.17568171  1
  Ca2+  Ca31  1  0.82511931  0.41365025  0.49846755  1
  Ca2+  Ca32  1  0.82781598  0.41055667  0.83712470  1
  Ca2+  Ca33  1  0.83173713  0.92796795  0.17248068  1
  Ca2+  Ca34  1  0.83041840  0.91717819  0.50055024  1
  Ca2+  Ca35  1  0.83776718  0.92226416  0.84404761  1
  Ca2+  Ca36  1  0.42495488  0.17433093  0.15628349  1
  Ca2+  Ca37  1  0.42443002  0.16799633  0.49562619  1
  Ca2+  Ca38  1  0.42503510  0.17161879  0.82984009  1
  Ca2+  Ca39  1  0.42238236  0.66122158  0.16723653  1
  Ca2+  Ca40  1  0.41658179  0.66716446  0.48887529  1
  Ca2+  Ca41  1  0.41691350  0.65826635  0.83593023  1
  Ca2+  Ca42  1  0.90854953  0.17499845  0.16301635  1
  Ca2+  Ca43  1  0.91991423  0.17114857  0.49421465  1
  Ca2+  Ca44  1  0.92031799  0.16993982  0.83327418  1
  Ca2+  Ca45  1  0.92682151  0.67041847  0.16119027  1
  Ca2+  Ca46  1  0.92245834  0.67134518  0.49240365  1
  Ca2+  Ca47  1  0.91689288  0.68152236  0.82996936  1
  Al0+  Al48  1  -0.00151012  0.00094640  0.00675510  1
  Al0+  Al49  1  0.00139421  0.00213705  0.34222506  1
  Al0+  Al50  1  -0.00188452  0.00127330  0.65760495  1
  Al0+  Al51  1  -0.00091228  0.50148135  -0.00560035  1
  Al0+  Al52  1  -0.00077757  0.49990528  0.32971415  1
  Al0+  Al53  1  -0.00081719  0.50233629  0.66728439  1
  Al0+  Al54  1  0.50048530  -0.00318108  -0.00426515  1
  Al0+  Al55  1  0.50033275  -0.00028946  0.33105304  1
  Al0+  Al56  1  0.49995833  -0.00021134  0.66343934  1
  Al0+  Al57  1  0.50078190  0.49965689  -0.00470609  1
  Al0+  Al58  1  0.49974206  0.49871850  0.33775213  1
  Al0+  Al59  1  0.50011384  0.49860563  0.67657002  1
  Al0+  Al60  1  0.24976743  0.24992197  0.00034494  1
  Al0+  Al61  1  0.24938298  0.24803582  0.33529364  1
  Al0+  Al62  1  0.25110470  0.24996021  0.66136838  1
  Al0+  Al63  1  0.25223287  0.74882299  0.00598798  1
  Al0+  Al64  1  0.24913479  0.75064814  0.33335831  1
  Al0+  Al65  1  0.24899179  0.75049209  0.67459081  1
  Al0+  Al66  1  0.75173260  0.24955017  -0.00424580  1
  Al0+  Al67  1  0.75177205  0.24985869  0.33872105  1
  Al0+  Al68  1  0.74998149  0.24860079  0.66746833  1
  Al0+  Al69  1  0.74985109  0.74938716  -0.00839088  1
  Al0+  Al70  1  0.75035226  0.75108883  0.33324306  1
  Al0+  Al71  1  0.74818528  0.75006689  0.66144680  1
  Al0+  Al72  1  0.57077591  0.67935309  0.98461572  1
  Al0+  Al73  1  0.82053909  0.07161206  0.35174478  1
  Al0+  Al74  1  0.93173568  0.82155149  0.98952176  1
  Al0+  Al75  1  0.67912155  0.43034343  0.34427327  1
  Al0+  Al76  1  0.57135007  0.17867270  0.65001359  1
  Al0+  Al77  1  0.67792047  0.92759652  0.34785310  1
  Al0+  Al78  1  0.92954923  0.32313456  0.98543129  1
  Al0+  Al79  1  0.17908155  0.93095424  0.01284790  1
  Al0+  Al80  1  0.07195625  0.18087659  0.65260944  1
  Al0+  Al81  1  0.92791653  0.82116313  0.65069437  1
  Al0+  Al82  1  0.06991671  0.67998215  0.31947402  1
  Al0+  Al83  1  0.17601888  0.42721156  0.01445210  1
  Al0+  Al84  1  0.93012982  0.31859261  0.32049071  1
  Al0+  Al85  1  0.32386543  0.56944703  0.01896114  1
  Al0+  Al86  1  0.17563623  0.42736777  0.34901757  1
  Al0+  Al87  1  0.57210028  0.17732622  0.98650782  1
  Al0+  Al88  1  0.57186618  0.67631355  0.31970715  1
  Al0+  Al89  1  0.31980428  0.56932675  0.34863831  1
  Al0+  Al90  1  0.68217815  0.42841718  0.68384283  1
  Al0+  Al91  1  0.31920811  0.57140241  0.68325430  1
  Al0+  Al92  1  0.18076315  0.92932565  0.34882248  1
  Al0+  Al93  1  0.42730598  0.32091765  0.98512215  1
  Al0+  Al94  1  0.42824561  0.82197998  0.31745101  1
  Al0+  Al95  1  0.81842382  0.07104135  0.01292775  1
  Si0+  Si96  1  0.82057471  0.57410549  0.01293803  1
  Si0+  Si97  1  0.07427396  0.67873303  0.98219154  1
  Si0+  Si98  1  0.92816631  0.82508440  0.31635390  1
  Si0+  Si99  1  0.07308589  0.67951010  0.65171505  1
  Si0+  Si100  1  0.42977260  0.32279505  0.64809866  1
  Si0+  Si101  1  0.42567504  0.82154048  0.98111841  1
  Si0+  Si102  1  0.32515642  0.07206287  0.01498468  1
  Si0+  Si103  1  0.67706041  0.92790717  0.68236175  1
  Si0+  Si104  1  0.07378607  0.17655303  0.31470152  1
  Si0+  Si105  1  0.07091237  0.17739923  0.98710616  1
  Si0+  Si106  1  0.82291867  0.57504453  0.68405890  1
  Si0+  Si107  1  0.82328987  0.57364120  0.34756415  1
  Si0+  Si108  1  0.32292919  0.07211074  0.68072357  1
  Si0+  Si109  1  0.17824637  0.93219181  0.68154580  1
  Si0+  Si110  1  0.32368613  0.07308860  0.35003361  1
  Si0+  Si111  1  0.82055241  0.06797321  0.68326038  1
  Si0+  Si112  1  0.57165070  0.17998548  0.31921774  1
  Si0+  Si113  1  0.42773428  0.82072158  0.65358741  1
  Si0+  Si114  1  0.56864539  0.67767737  0.65159457  1
  Si0+  Si115  1  0.17673263  0.42581947  0.68234217  1
  Si0+  Si116  1  0.92810769  0.32362008  0.64964145  1
  Si0+  Si117  1  0.42794550  0.32029306  0.32050393  1
  Si0+  Si118  1  0.67688709  0.92443258  0.01448968  1
  Si0+  Si119  1  0.68268354  0.42994072  0.01368450  1
  O2-  O120  1  0.25651871  0.00338161  0.05897933  1
  O2-  O121  1  0.25638500  0.00334303  0.39555597  1
  O2-  O122  1  0.24830517  0.00457407  0.72355429  1
  O2-  O123  1  0.24865672  0.49842318  0.06458641  1
  O2-  O124  1  0.24780798  0.49805964  0.40036999  1
  O2-  O125  1  0.24398482  0.49547517  0.72702934  1
  O2-  O126  1  0.74106243  -0.00213481  0.05730157  1
  O2-  O127  1  0.75046416  -0.00282618  0.40135568  1
  O2-  O128  1  0.74940672  -0.00298690  0.72613052  1
  O2-  O129  1  0.75356905  0.50026267  0.05656729  1
  O2-  O130  1  0.75022612  0.50885357  0.39122187  1
  O2-  O131  1  0.75801384  0.50307016  0.72946847  1
  O2-  O132  1  0.00672723  0.24697325  0.27151573  1
  O2-  O133  1  0.00222138  0.26045460  0.60642337  1
  O2-  O134  1  0.00842823  0.25127667  0.94131553  1
  O2-  O135  1  -0.00425655  0.75552897  0.27229462  1
  O2-  O136  1  0.00129274  0.74438579  0.60637526  1
  O2-  O137  1  0.00770186  0.75009892  0.93841372  1
  O2-  O138  1  0.49909840  0.24934236  0.27799873  1
  O2-  O139  1  0.49831528  0.25450180  0.60233343  1
  O2-  O140  1  0.49735349  0.24612275  0.93566348  1
  O2-  O141  1  0.50173835  0.75019359  0.26958258  1
  O2-  O142  1  0.49687268  0.74824563  0.61105493  1
  O2-  O143  1  0.49486719  0.75301646  0.93701892  1
  O2-  O144  1  0.06773145  0.17414012  0.09207618  1
  O2-  O145  1  0.07265411  0.17736123  0.42077769  1
  O2-  O146  1  0.06874261  0.17773597  0.76599564  1
  O2-  O147  1  0.07133773  0.67793746  0.08758980  1
  O2-  O148  1  0.06802303  0.68206481  0.43329818  1
  O2-  O149  1  0.07323789  0.68248610  0.75726254  1
  O2-  O150  1  0.57256593  0.18110928  0.10040584  1
  O2-  O151  1  0.57063721  0.18090858  0.42470353  1
  O2-  O152  1  0.56931570  0.17756520  0.76281510  1
  O2-  O153  1  0.57394875  0.68000779  0.09700376  1
  O2-  O154  1  0.56828680  0.67517487  0.43401934  1
  O2-  O155  1  0.57034348  0.68013545  0.75681499  1
  O2-  O156  1  0.17693496  0.42835735  0.23580355  1
  O2-  O157  1  0.17744983  0.42629614  0.57708595  1
  O2-  O158  1  0.17587743  0.42951581  0.90000280  1
  O2-  O159  1  0.17987235  0.93106774  0.23578381  1
  O2-  O160  1  0.18075016  0.93006227  0.57688643  1
  O2-  O161  1  0.17778444  0.93496676  0.89875935  1
  O2-  O162  1  0.67977785  0.42751345  0.23111436  1
  O2-  O163  1  0.68251522  0.43014074  0.57064081  1
  O2-  O164  1  0.68494822  0.43048676  0.90828608  1
  O2-  O165  1  0.67899804  0.93012081  0.23410191  1
  O2-  O166  1  0.67646604  0.92864775  0.57778089  1
  O2-  O167  1  0.67954034  0.92330646  0.90814210  1
  O2-  O168  1  0.43103540  0.32036699  0.09927821  1
  O2-  O169  1  0.42910485  0.31868966  0.42583037  1
  O2-  O170  1  0.42931902  0.31985511  0.75347182  1
  O2-  O171  1  0.42597560  0.82465290  0.08588594  1
  O2-  O172  1  0.42842823  0.81971693  0.43223834  1
  O2-  O173  1  0.42916686  0.82302153  0.75861607  1
  O2-  O174  1  0.92480120  0.32102595  0.09800408  1
  O2-  O175  1  0.92925305  0.31666013  0.43389420  1
  O2-  O176  1  0.92771686  0.32084122  0.75546807  1
  O2-  O177  1  0.93164311  0.81914092  0.10196630  1
  O2-  O178  1  0.92981181  0.82215738  0.42250975  1
  O2-  O179  1  0.93024976  0.82386073  0.76417959  1
  O2-  O180  1  0.32226260  0.07512409  0.24456064  1
  O2-  O181  1  0.32462823  0.06963739  0.57598649  1
  O2-  O182  1  0.32425673  0.06997737  0.90870866  1
  O2-  O183  1  0.32182615  0.56569330  0.23583618  1
  O2-  O184  1  0.31932685  0.57365643  0.57056638  1
  O2-  O185  1  0.32095769  0.56828277  0.90463547  1
  O2-  O186  1  0.81759614  0.07342843  0.23807424  1
  O2-  O187  1  0.81942581  0.06749192  0.57860741  1
  O2-  O188  1  0.82062827  0.06906306  0.89909424  1
  O2-  O189  1  0.82431932  0.57201798  0.24176183  1
  O2-  O190  1  0.82282559  0.57614223  0.57866207  1
  O2-  O191  1  0.81776580  0.57522952  0.90758555  1
  O2-  O192  1  0.04585935  0.08235080  0.27166360  1
  O2-  O193  1  0.03730207  0.08712742  0.59540720  1
  O2-  O194  1  0.03789159  0.08674254  0.93836266  1
  O2-  O195  1  0.03838260  0.58472918  0.26385201  1
  O2-  O196  1  0.05175061  0.58423087  0.60680987  1
  O2-  O197  1  0.04551641  0.58769818  0.93267526  1
  O2-  O198  1  0.54632004  0.08822963  0.27141735  1
  O2-  O199  1  0.53845087  0.08229081  0.59599742  1
  O2-  O200  1  0.54882972  0.07713788  0.93329513  1
  O2-  O201  1  0.54226416  0.57749690  0.26763418  1
  O2-  O202  1  0.54052641  0.58415261  0.60863836  1
  O2-  O203  1  0.54134145  0.58343345  0.92843448  1
  O2-  O204  1  0.16911119  0.19681312  0.27027734  1
  O2-  O205  1  0.17037859  0.20343692  0.59739822  1
  O2-  O206  1  0.16669454  0.19437966  0.94175607  1
  O2-  O207  1  0.16531616  0.71187650  0.26545826  1
  O2-  O208  1  0.16558150  0.71058689  0.60634869  1
  O2-  O209  1  0.16938166  0.70287930  0.93913785  1
  O2-  O210  1  0.66314310  0.21049421  0.27416829  1
  O2-  O211  1  0.66874953  0.20955221  0.59793842  1
  O2-  O212  1  0.66761516  0.21047979  0.93044982  1
  O2-  O213  1  0.67197752  0.70195281  0.26812397  1
  O2-  O214  1  0.66008308  0.70409742  0.60348999  1
  O2-  O215  1  0.66510231  0.71149774  0.92526299  1
  O2-  O216  1  0.07588787  0.45697311  0.06354093  1
  O2-  O217  1  0.07717381  0.45715910  0.40110693  1
  O2-  O218  1  0.08128743  0.44905952  0.72672055  1
  O2-  O219  1  0.08526377  0.96357001  0.07003633  1
  O2-  O220  1  0.08599458  0.96076656  0.40613537  1
  O2-  O221  1  0.08522174  0.96211213  0.72554889  1
  O2-  O222  1  0.59009494  0.45751241  0.05802984  1
  O2-  O223  1  0.58375561  0.45689657  0.40333378  1
  O2-  O224  1  0.58646737  0.45928869  0.73914960  1
  O2-  O225  1  0.58085018  0.94337500  0.05733752  1
  O2-  O226  1  0.57916065  0.95700474  0.40050811  1
  O2-  O227  1  0.58512368  0.95662135  0.72963034  1
  O2-  O228  1  0.20008343  0.32703949  0.06602889  1
  O2-  O229  1  0.20191293  0.32705966  0.39964024  1
  O2-  O230  1  0.20280278  0.33131187  0.72692849  1
  O2-  O231  1  0.20748047  0.83386382  0.06579172  1
  O2-  O232  1  0.21118296  0.83381415  0.40485559  1
  O2-  O233  1  0.20602100  0.84191735  0.73186760  1
  O2-  O234  1  0.71057836  0.33794865  0.05967860  1
  O2-  O235  1  0.71434963  0.33695169  0.40211346  1
  O2-  O236  1  0.71320654  0.33111305  0.73711052  1
  O2-  O237  1  0.70791826  0.83236377  0.05960792  1
  O2-  O238  1  0.70409499  0.82846461  0.40204452  1
  O2-  O239  1  0.70320776  0.83426225  0.72760922  1
  O2-  O240  1  0.45723581  0.41126809  0.27389670  1
  O2-  O241  1  0.45839113  0.41715403  0.60551420  1
  O2-  O242  1  0.45987578  0.41649815  0.92974697  1
  O2-  O243  1  0.45377162  0.92141126  0.26433116  1
  O2-  O244  1  0.45537822  0.91142555  0.60441838  1
  O2-  O245  1  0.45010204  0.91467585  0.93223702  1
  O2-  O246  1  0.95476228  0.41622121  0.26613695  1
  O2-  O247  1  0.94554368  0.42056863  0.60701126  1
  O2-  O248  1  0.95400030  0.42022785  0.92798335  1
  O2-  O249  1  0.95590053  0.91990182  0.27521322  1
  O2-  O250  1  0.96035816  0.91543887  0.59447217  1
  O2-  O251  1  0.96324230  0.91851172  0.93498148  1
  O2-  O252  1  0.33639837  0.29186653  0.27303037  1
  O2-  O253  1  0.33644142  0.29817040  0.60126937  1
  O2-  O254  1  0.32818875  0.29450997  0.93136565  1
  O2-  O255  1  0.32999746  0.79386013  0.26591629  1
  O2-  O256  1  0.33395056  0.79396043  0.60941079  1
  O2-  O257  1  0.33205079  0.79496029  0.93438731  1
  O2-  O258  1  0.83349224  0.28466604  0.26724932  1
  O2-  O259  1  0.83658153  0.29116670  0.60416267  1
  O2-  O260  1  0.83626385  0.28659272  0.92830318  1
  O2-  O261  1  0.83357283  0.80291772  0.27216544  1
  O2-  O262  1  0.83069949  0.79188704  0.59679145  1
  O2-  O263  1  0.83725196  0.78992983  0.93096910  1
  O2-  O264  1  0.41918993  0.04633148  0.06027680  1
  O2-  O265  1  0.41794909  0.04936776  0.39550710  1
  O2-  O266  1  0.41298612  0.03984691  0.72962513  1
  O2-  O267  1  0.42346794  0.53957875  0.06781747  1
  O2-  O268  1  0.41693320  0.53909738  0.40413064  1
  O2-  O269  1  0.41499448  0.54008678  0.73824628  1
  O2-  O270  1  0.91240756  0.03911709  0.06997111  1
  O2-  O271  1  0.91933869  0.04706001  0.40528543  1
  O2-  O272  1  0.91327617  0.03878230  0.72833429  1
  O2-  O273  1  0.91456672  0.55091710  0.05702344  1
  O2-  O274  1  0.91386362  0.54314955  0.39664759  1
  O2-  O275  1  0.91838414  0.55534144  0.72984822  1
  O2-  O276  1  0.30194663  0.16585031  0.06070730  1
  O2-  O277  1  0.29716230  0.16501585  0.39969589  1
  O2-  O278  1  0.29871559  0.16579405  0.72626506  1
  O2-  O279  1  0.29969214  0.66931967  0.06943343  1
  O2-  O280  1  0.29049151  0.66792972  0.40043922  1
  O2-  O281  1  0.28888608  0.66757044  0.73997083  1
  O2-  O282  1  0.78767946  0.16793176  0.06639229  1
  O2-  O283  1  0.78785237  0.16724335  0.40774805  1
  O2-  O284  1  0.79355069  0.16040199  0.72964456  1
  O2-  O285  1  0.78957053  0.66453319  0.06058950  1
  O2-  O286  1  0.80396947  0.66857447  0.39339927  1
  O2-  O287  1  0.79161736  0.66779385  0.72995713  1
