# generated using pymatgen
data_Ca2Al2SiO7
_symmetry_space_group_name_H-M   'P 1'
_cell_length_a   15.45751300
_cell_length_b   15.45930654
_cell_length_c   15.28367613
_cell_angle_alpha   89.99978439
_cell_angle_beta   89.99371584
_cell_angle_gamma   90.00875859
_symmetry_Int_Tables_number   1
_chemical_formula_structural   Ca2Al2SiO7
_chemical_formula_sum   'Ca48 Al48 Si24 O168'
_cell_volume   3652.22434893
_cell_formula_units_Z   24
loop_
 _symmetry_equiv_pos_site_id
 _symmetry_equiv_pos_as_xyz
  1  'x, y, z'
loop_
 _atom_type_symbol
 _atom_type_oxidation_number
  Ca2+  2.0
  Al0+  0.0
  Si0+  0.0
  O2-  -2.0
loop_
 _atom_site_type_symbol
 _atom_site_label
 _atom_site_symmetry_multiplicity
 _atom_site_fract_x
 _atom_site_fract_y
 _atom_site_fract_z
 _atom_site_occupancy
  Ca2+  Ca0  1  0.16957987  0.06879550  0.17528970  1
  Ca2+  Ca1  1  0.16739648  0.08207120  0.49787401  1
  Ca2+  Ca2  1  0.16614150  0.07757482  0.83984786  1
  Ca2+  Ca3  1  0.16636955  0.58302533  0.17306041  1
  Ca2+  Ca4  1  0.16721668  0.58054819  0.51080405  1
  Ca2+  Ca5  1  0.17040464  0.58771330  0.82870300  1
  Ca2+  Ca6  1  0.67639609  0.07985441  0.16879092  1
  Ca2+  Ca7  1  0.67042027  0.07876116  0.50382284  1
  Ca2+  Ca8  1  0.67157226  0.07166436  0.84134447  1
  Ca2+  Ca9  1  0.67486281  0.59218858  0.16466007  1
  Ca2+  Ca10  1  0.67991114  0.58830862  0.50370607  1
  Ca2+  Ca11  1  0.67511604  0.58489683  0.84389290  1
  Ca2+  Ca12  1  0.08183108  0.32251741  0.16571725  1
  Ca2+  Ca13  1  0.09036924  0.32285679  0.49707345  1
  Ca2+  Ca14  1  0.08395091  0.32686134  0.82393418  1
  Ca2+  Ca15  1  0.08250886  0.83338841  0.16227099  1
  Ca2+  Ca16  1  0.08794900  0.81938666  0.49294908  1
  Ca2+  Ca17  1  0.07603281  0.83151667  0.83185826  1
  Ca2+  Ca18  1  0.57530238  0.33616156  0.15815149  1
  Ca2+  Ca19  1  0.57531172  0.33271666  0.49225747  1
  Ca2+  Ca20  1  0.58254192  0.33874192  0.83628434  1
  Ca2+  Ca21  1  0.57456674  0.83376711  0.15676888  1
  Ca2+  Ca22  1  0.57386076  0.83768177  0.49880174  1
  Ca2+  Ca23  1  0.57955225  0.83734910  0.82944618  1
  Ca2+  Ca24  1  0.33837405  0.41581835  0.17034620  1
  Ca2+  Ca25  1  0.32851701  0.42333387  0.50818831  1
  Ca2+  Ca26  1  0.32964774  0.42020796  0.83569814  1
  Ca2+  Ca27  1  0.32657674  0.91234414  0.17408964  1
  Ca2+  Ca28  1  0.33245871  0.91509926  0.50003005  1
  Ca2+  Ca29  1  0.32837261  0.90962846  0.83884687  1
  Ca2+  Ca30  1  0.82659798  0.42721618  0.16938968  1
  Ca2+  Ca31  1  0.83823364  0.42806036  0.50337555  1
  Ca2+  Ca32  1  0.83032345  0.43028275  0.84150099  1
  Ca2+  Ca33  1  0.83264069  0.91981203  0.16540181  1
  Ca2+  Ca34  1  0.82765427  0.92046549  0.50269139  1
  Ca2+  Ca35  1  0.82396784  0.91614864  0.84448480  1
  Ca2+  Ca36  1  0.40806455  0.17646262  0.16532972  1
  Ca2+  Ca37  1  0.41387051  0.17224080  0.48961283  1
  Ca2+  Ca38  1  0.41642254  0.17289741  0.83259065  1
  Ca2+  Ca39  1  0.42239039  0.67936028  0.15811593  1
  Ca2+  Ca40  1  0.40920115  0.67816399  0.49671899  1
  Ca2+  Ca41  1  0.42215514  0.67628775  0.82993922  1
  Ca2+  Ca42  1  0.91958415  0.15317211  0.16363640  1
  Ca2+  Ca43  1  0.92782765  0.16334899  0.49254858  1
  Ca2+  Ca44  1  0.92007614  0.16537151  0.82850947  1
  Ca2+  Ca45  1  0.91896272  0.66814729  0.16212923  1
  Ca2+  Ca46  1  0.92504217  0.65949903  0.49590093  1
  Ca2+  Ca47  1  0.91318621  0.66972142  0.82946121  1
  Al0+  Al48  1  0.00338050  -0.00362390  0.00111569  1
  Al0+  Al49  1  -0.00026257  -0.00293191  0.33913341  1
  Al0+  Al50  1  0.00063842  0.00057104  0.66076248  1
  Al0+  Al51  1  0.00213459  0.49688962  0.00336312  1
  Al0+  Al52  1  0.00019304  0.49808984  0.33215180  1
  Al0+  Al53  1  -0.00042998  0.49906903  0.67269146  1
  Al0+  Al54  1  0.49891475  0.00460403  0.00007709  1
  Al0+  Al55  1  0.49899698  0.00168356  0.33154363  1
  Al0+  Al56  1  0.49929734  0.00140455  0.66632328  1
  Al0+  Al57  1  0.49853739  0.50065752  -0.00615675  1
  Al0+  Al58  1  0.50062299  0.50034833  0.33056506  1
  Al0+  Al59  1  0.50083828  0.50248413  0.66804339  1
  Al0+  Al60  1  0.24978410  0.25028434  -0.00485160  1
  Al0+  Al61  1  0.24852371  0.24826735  0.32701463  1
  Al0+  Al62  1  0.24989884  0.24967625  0.66635269  1
  Al0+  Al63  1  0.25014862  0.74793605  0.00048416  1
  Al0+  Al64  1  0.24957783  0.74814084  0.32810849  1
  Al0+  Al65  1  0.24928883  0.75089613  0.66391842  1
  Al0+  Al66  1  0.75121332  0.25192402  0.00594770  1
  Al0+  Al67  1  0.74971431  0.25069394  0.33890520  1
  Al0+  Al68  1  0.75012816  0.25053099  0.66449475  1
  Al0+  Al69  1  0.75143673  0.75136725  0.00218142  1
  Al0+  Al70  1  0.75122771  0.74937374  0.33982377  1
  Al0+  Al71  1  0.74760310  0.75176492  0.67239587  1
  Al0+  Al72  1  0.06866007  0.17695524  0.31737464  1
  Al0+  Al73  1  0.42964918  0.32093433  0.32036189  1
  Al0+  Al74  1  0.42999493  0.82144572  0.31906912  1
  Al0+  Al75  1  0.82146096  0.57008126  0.34862628  1
  Al0+  Al76  1  0.17971417  0.92546609  0.35105508  1
  Al0+  Al77  1  0.07017970  0.67677461  0.31944880  1
  Al0+  Al78  1  0.42930963  0.82129243  0.65159241  1
  Al0+  Al79  1  0.32191648  0.57439710  0.68215715  1
  Al0+  Al80  1  0.82109383  0.07134875  0.34930533  1
  Al0+  Al81  1  0.57171281  0.68133523  0.98484015  1
  Al0+  Al82  1  0.82059273  0.57019240  0.68145832  1
  Al0+  Al83  1  0.93179867  0.81978584  0.98783043  1
  Al0+  Al84  1  0.18037664  0.42756859  0.68198624  1
  Al0+  Al85  1  0.67689097  0.43048530  0.01523289  1
  Al0+  Al86  1  0.82284997  0.07053415  0.01284086  1
  Al0+  Al87  1  0.67601009  0.92879790  0.01623375  1
  Al0+  Al88  1  0.07164070  0.17821104  0.65178850  1
  Al0+  Al89  1  0.18234109  0.92752079  0.01208879  1
  Al0+  Al90  1  0.67807281  0.93231529  0.68031272  1
  Al0+  Al91  1  0.32018070  0.07148723  0.34768069  1
  Al0+  Al92  1  0.06772461  0.68018117  0.65468507  1
  Al0+  Al93  1  0.82318971  0.57285444  0.01676430  1
  Al0+  Al94  1  0.42763340  0.82462563  0.98449496  1
  Al0+  Al95  1  0.42858511  0.32101958  0.98327286  1
  Si0+  Si96  1  0.17972869  0.42828457  0.34619462  1
  Si0+  Si97  1  0.32185499  0.56983936  0.34587714  1
  Si0+  Si98  1  0.92664160  0.82051641  0.31833643  1
  Si0+  Si99  1  0.06889727  0.17903594  0.98506581  1
  Si0+  Si100  1  0.82365944  0.07239072  0.68195362  1
  Si0+  Si101  1  0.57069929  0.17953961  0.65198664  1
  Si0+  Si102  1  0.57442713  0.17829653  0.31637693  1
  Si0+  Si103  1  0.17989587  0.42521471  0.01730426  1
  Si0+  Si104  1  0.57423224  0.67886553  0.31839029  1
  Si0+  Si105  1  0.32075696  0.07185884  0.68180769  1
  Si0+  Si106  1  0.67680426  0.42586834  0.68240020  1
  Si0+  Si107  1  0.07262105  0.67341124  0.98270554  1
  Si0+  Si108  1  0.67653116  0.92808385  0.35050499  1
  Si0+  Si109  1  0.67604874  0.42863177  0.35135514  1
  Si0+  Si110  1  0.92466155  0.82240503  0.64929745  1
  Si0+  Si111  1  0.17862432  0.92925652  0.68088543  1
  Si0+  Si112  1  0.57336031  0.67789940  0.64869469  1
  Si0+  Si113  1  0.92695010  0.32133284  0.31620531  1
  Si0+  Si114  1  0.57545335  0.18023742  0.98281566  1
  Si0+  Si115  1  0.31938164  0.56908360  0.01554296  1
  Si0+  Si116  1  0.92869838  0.32211864  0.98545730  1
  Si0+  Si117  1  0.42983345  0.32190521  0.65172343  1
  Si0+  Si118  1  0.92730117  0.32150914  0.65044117  1
  Si0+  Si119  1  0.32086978  0.07539665  0.01505333  1
  O2-  O120  1  0.26127807  -0.00160046  0.05745871  1
  O2-  O121  1  0.25189927  -0.00209491  0.40106743  1
  O2-  O122  1  0.24880771  0.00144077  0.72306990  1
  O2-  O123  1  0.24882300  0.49792086  0.05929806  1
  O2-  O124  1  0.25085694  0.49893579  0.38816956  1
  O2-  O125  1  0.25155208  0.50025651  0.73257462  1
  O2-  O126  1  0.74922742  0.00095228  0.06402618  1
  O2-  O127  1  0.74447809  -0.00196007  0.39487044  1
  O2-  O128  1  0.75644515  0.00342686  0.72643426  1
  O2-  O129  1  0.74726981  0.50367100  0.06568826  1
  O2-  O130  1  0.74584759  0.49601179  0.39577499  1
  O2-  O131  1  0.74450626  0.49561404  0.72540921  1
  O2-  O132  1  -0.01078705  0.24713795  0.27061935  1
  O2-  O133  1  -0.00438045  0.25248344  0.60600420  1
  O2-  O134  1  -0.00352851  0.24811255  0.94241255  1
  O2-  O135  1  -0.00406215  0.75206216  0.27461690  1
  O2-  O136  1  -0.00803908  0.75234733  0.60512208  1
  O2-  O137  1  0.00114954  0.73999844  0.94029342  1
  O2-  O138  1  0.50487485  0.24685712  0.27327831  1
  O2-  O139  1  0.50337911  0.25399753  0.60928362  1
  O2-  O140  1  0.50559322  0.24806755  0.93750536  1
  O2-  O141  1  0.50743478  0.74906038  0.27443811  1
  O2-  O142  1  0.50184062  0.74392563  0.60469172  1
  O2-  O143  1  0.50425410  0.75776442  0.93400320  1
  O2-  O144  1  0.06952615  0.18086976  0.08997289  1
  O2-  O145  1  0.07044384  0.18172489  0.43050559  1
  O2-  O146  1  0.07011767  0.17753975  0.76544854  1
  O2-  O147  1  0.07349197  0.67283686  0.08842002  1
  O2-  O148  1  0.06993517  0.67439775  0.43277353  1
  O2-  O149  1  0.06818127  0.68412800  0.76764578  1
  O2-  O150  1  0.57600506  0.18141011  0.08816455  1
  O2-  O151  1  0.57420377  0.18043105  0.42274292  1
  O2-  O152  1  0.56976588  0.17933114  0.75680279  1
  O2-  O153  1  0.56660919  0.68050071  0.09897046  1
  O2-  O154  1  0.57354394  0.67790085  0.42420642  1
  O2-  O155  1  0.57449313  0.67848027  0.75377026  1
  O2-  O156  1  0.17985120  0.42919919  0.24077037  1
  O2-  O157  1  0.18375889  0.42551086  0.56787619  1
  O2-  O158  1  0.18035350  0.42164123  0.91254581  1
  O2-  O159  1  0.18079975  0.92601651  0.23736358  1
  O2-  O160  1  0.17984890  0.92862375  0.57619088  1
  O2-  O161  1  0.17968506  0.93141519  0.89824606  1
  O2-  O162  1  0.67482280  0.42842381  0.24636106  1
  O2-  O163  1  0.67642329  0.42409225  0.57665272  1
  O2-  O164  1  0.68153669  0.43004296  0.90118907  1
  O2-  O165  1  0.67713338  0.92732122  0.24543371  1
  O2-  O166  1  0.67751132  0.93578881  0.56692583  1
  O2-  O167  1  0.67755116  0.93194064  0.90233021  1
  O2-  O168  1  0.42586732  0.31811596  0.09631088  1
  O2-  O169  1  0.43067143  0.32167841  0.43406721  1
  O2-  O170  1  0.42916535  0.31925082  0.75667107  1
  O2-  O171  1  0.42538638  0.81975595  0.09802994  1
  O2-  O172  1  0.43022656  0.81927197  0.43256070  1
  O2-  O173  1  0.43021946  0.82286337  0.76416438  1
  O2-  O174  1  0.93248465  0.32478629  0.09025393  1
  O2-  O175  1  0.93137354  0.32344795  0.42193460  1
  O2-  O176  1  0.92567924  0.31841129  0.75620574  1
  O2-  O177  1  0.93603088  0.82213854  0.10083307  1
  O2-  O178  1  0.92470468  0.81835267  0.42425362  1
  O2-  O179  1  0.92678200  0.82432540  0.75491568  1
  O2-  O180  1  0.31677629  0.07337723  0.23434703  1
  O2-  O181  1  0.32187130  0.07413729  0.57703727  1
  O2-  O182  1  0.31541733  0.08082907  0.90904301  1
  O2-  O183  1  0.32183447  0.56791280  0.24062110  1
  O2-  O184  1  0.32025758  0.57188095  0.56777670  1
  O2-  O185  1  0.31671166  0.56930317  0.91058938  1
  O2-  O186  1  0.81988153  0.06929968  0.23658743  1
  O2-  O187  1  0.82157256  0.07240673  0.57627673  1
  O2-  O188  1  0.82281826  0.07031635  0.89879944  1
  O2-  O189  1  0.82114094  0.56971296  0.23627654  1
  O2-  O190  1  0.82104730  0.56795133  0.56798473  1
  O2-  O191  1  0.82498006  0.56901327  0.90313326  1
  O2-  O192  1  0.04004075  0.07790549  0.26769516  1
  O2-  O193  1  0.04250550  0.08243277  0.59503883  1
  O2-  O194  1  0.04345966  0.08689114  0.93765087  1
  O2-  O195  1  0.04027722  0.58006799  0.26468183  1
  O2-  O196  1  0.04031727  0.58069564  0.60381243  1
  O2-  O197  1  0.05170522  0.57776820  0.93850157  1
  O2-  O198  1  0.55098896  0.08474770  0.27062219  1
  O2-  O199  1  0.53890006  0.09048918  0.60208443  1
  O2-  O200  1  0.54877329  0.08744542  0.93531220  1
  O2-  O201  1  0.54802021  0.58586607  0.27190895  1
  O2-  O202  1  0.55270776  0.58250932  0.60312189  1
  O2-  O203  1  0.53960416  0.58471051  0.93008287  1
  O2-  O204  1  0.16214302  0.21269089  0.26088909  1
  O2-  O205  1  0.16810622  0.21093323  0.59790806  1
  O2-  O206  1  0.15909655  0.21015138  0.93613854  1
  O2-  O207  1  0.16614491  0.70539981  0.26346885  1
  O2-  O208  1  0.16373491  0.71144792  0.59953023  1
  O2-  O209  1  0.16517891  0.70251099  0.93697647  1
  O2-  O210  1  0.66836716  0.20484086  0.27172841  1
  O2-  O211  1  0.66373303  0.20364677  0.60383996  1
  O2-  O212  1  0.66882842  0.20727367  0.93620607  1
  O2-  O213  1  0.66895157  0.70334449  0.27449303  1
  O2-  O214  1  0.66578312  0.70843900  0.60196330  1
  O2-  O215  1  0.67290761  0.70261966  0.93556114  1
  O2-  O216  1  0.08814679  0.45022167  0.06575191  1
  O2-  O217  1  0.08826743  0.45479103  0.39420691  1
  O2-  O218  1  0.08174041  0.45217852  0.73545308  1
  O2-  O219  1  0.08897250  0.96292502  0.06824399  1
  O2-  O220  1  0.08124619  0.95166181  0.40407673  1
  O2-  O221  1  0.08560428  0.95738103  0.72632829  1
  O2-  O222  1  0.57556929  0.45478174  0.06383853  1
  O2-  O223  1  0.58269743  0.45604114  0.39845003  1
  O2-  O224  1  0.58267954  0.44928709  0.72782174  1
  O2-  O225  1  0.57725242  0.95926572  0.06806345  1
  O2-  O226  1  0.58308631  0.95499601  0.39625590  1
  O2-  O227  1  0.58319772  0.96801128  0.73459143  1
  O2-  O228  1  0.21043888  0.33411687  0.06490139  1
  O2-  O229  1  0.20853384  0.33656264  0.39226059  1
  O2-  O230  1  0.21110446  0.32970095  0.73611399  1
  O2-  O231  1  0.20735345  0.82955135  0.06621225  1
  O2-  O232  1  0.21065090  0.82609599  0.40152156  1
  O2-  O233  1  0.20757351  0.83870958  0.72897702  1
  O2-  O234  1  0.70611055  0.33334395  0.07017967  1
  O2-  O235  1  0.69890815  0.33489541  0.39886723  1
  O2-  O236  1  0.70220994  0.33189336  0.72855100  1
  O2-  O237  1  0.70405314  0.83118496  0.06906058  1
  O2-  O238  1  0.70325988  0.83568048  0.39903703  1
  O2-  O239  1  0.70395779  0.83530730  0.73450963  1
  O2-  O240  1  0.45974369  0.41753578  0.26518459  1
  O2-  O241  1  0.45451364  0.41530260  0.60552324  1
  O2-  O242  1  0.45605000  0.41700669  0.92737218  1
  O2-  O243  1  0.45560649  0.91980624  0.26647846  1
  O2-  O244  1  0.46206022  0.91828635  0.59831936  1
  O2-  O245  1  0.44640934  0.92731472  0.93577853  1
  O2-  O246  1  0.95944826  0.41146993  0.26745682  1
  O2-  O247  1  0.95408604  0.41516238  0.60586021  1
  O2-  O248  1  0.96138461  0.41171121  0.93595596  1
  O2-  O249  1  0.95222074  0.91423674  0.27382484  1
  O2-  O250  1  0.95089443  0.91561978  0.60256751  1
  O2-  O251  1  0.96828045  0.91365368  0.93035338  1
  O2-  O252  1  0.33407341  0.29041089  0.26421817  1
  O2-  O253  1  0.33922190  0.29079753  0.60432285  1
  O2-  O254  1  0.33315659  0.28654444  0.92750165  1
  O2-  O255  1  0.33557213  0.78606887  0.26444575  1
  O2-  O256  1  0.33279163  0.79107463  0.59712474  1
  O2-  O257  1  0.33056336  0.78860312  0.93192714  1
  O2-  O258  1  0.82991425  0.30293738  0.27519805  1
  O2-  O259  1  0.83351622  0.29848946  0.60221393  1
  O2-  O260  1  0.83582166  0.29778194  0.93892474  1
  O2-  O261  1  0.83297461  0.79413200  0.27285834  1
  O2-  O262  1  0.82983398  0.79864023  0.60528980  1
  O2-  O263  1  0.83377446  0.79485940  0.93441476  1
  O2-  O264  1  0.41785350  0.06341770  0.05714913  1
  O2-  O265  1  0.42125029  0.04954719  0.39916015  1
  O2-  O266  1  0.41208902  0.04472577  0.72985356  1
  O2-  O267  1  0.41083188  0.53991329  0.06150052  1
  O2-  O268  1  0.41372539  0.54306570  0.39385856  1
  O2-  O269  1  0.42155838  0.54825076  0.73331317  1
  O2-  O270  1  0.92001455  0.03784093  0.06556821  1
  O2-  O271  1  0.91594999  0.03881585  0.40518128  1
  O2-  O272  1  0.91875349  0.04881910  0.72558820  1
  O2-  O273  1  0.92116811  0.53927606  0.06871884  1
  O2-  O274  1  0.91762020  0.53451710  0.40170356  1
  O2-  O275  1  0.91527786  0.53893271  0.73781447  1
  O2-  O276  1  0.28574683  0.16548766  0.06288824  1
  O2-  O277  1  0.28799784  0.17009705  0.40004128  1
  O2-  O278  1  0.29278188  0.16301006  0.73038264  1
  O2-  O279  1  0.29113397  0.65984247  0.06457468  1
  O2-  O280  1  0.29246244  0.66087025  0.39272599  1
  O2-  O281  1  0.28912001  0.67143461  0.73527107  1
  O2-  O282  1  0.79944219  0.16970078  0.06651139  1
  O2-  O283  1  0.79348562  0.16905498  0.40425471  1
  O2-  O284  1  0.79796998  0.16695626  0.72608876  1
  O2-  O285  1  0.79835207  0.67151100  0.06968085  1
  O2-  O286  1  0.79230532  0.66611874  0.40541519  1
  O2-  O287  1  0.79086092  0.66730701  0.73394453  1
