# generated using pymatgen
data_Ca2Al2SiO7
_symmetry_space_group_name_H-M   'P 1'
_cell_length_a   15.45973544
_cell_length_b   15.45826833
_cell_length_c   15.28484416
_cell_angle_alpha   89.99987212
_cell_angle_beta   90.00058069
_cell_angle_gamma   89.99716202
_symmetry_Int_Tables_number   1
_chemical_formula_structural   Ca2Al2SiO7
_chemical_formula_sum   'Ca48 Al48 Si24 O168'
_cell_volume   3652.78334280
_cell_formula_units_Z   24
loop_
 _symmetry_equiv_pos_site_id
 _symmetry_equiv_pos_as_xyz
  1  'x, y, z'
loop_
 _atom_type_symbol
 _atom_type_oxidation_number
  Ca2+  2.0
  Al0+  0.0
  Si0+  0.0
  O2-  -2.0
loop_
 _atom_site_type_symbol
 _atom_site_label
 _atom_site_symmetry_multiplicity
 _atom_site_fract_x
 _atom_site_fract_y
 _atom_site_fract_z
 _atom_site_occupancy
  Ca2+  Ca0  1  0.17444273  0.08036515  0.17818640  1
  Ca2+  Ca1  1  0.16826724  0.07849351  0.50451094  1
  Ca2+  Ca2  1  0.17494196  0.08832538  0.83198130  1
  Ca2+  Ca3  1  0.15835729  0.57694804  0.16640722  1
  Ca2+  Ca4  1  0.17507295  0.57854865  0.51342050  1
  Ca2+  Ca5  1  0.15823897  0.57414904  0.83466533  1
  Ca2+  Ca6  1  0.67566551  0.08521500  0.16863056  1
  Ca2+  Ca7  1  0.66878800  0.07543799  0.50811105  1
  Ca2+  Ca8  1  0.67179160  0.07798110  0.83618939  1
  Ca2+  Ca9  1  0.67136110  0.58763937  0.17083845  1
  Ca2+  Ca10  1  0.66504086  0.58263322  0.50904503  1
  Ca2+  Ca11  1  0.66999822  0.57785666  0.83246877  1
  Ca2+  Ca12  1  0.08477406  0.32851448  0.16620466  1
  Ca2+  Ca13  1  0.08514120  0.32255295  0.49898890  1
  Ca2+  Ca14  1  0.08126808  0.33224240  0.82127678  1
  Ca2+  Ca15  1  0.08326756  0.83148393  0.16545312  1
  Ca2+  Ca16  1  0.08884279  0.83238055  0.49591056  1
  Ca2+  Ca17  1  0.08682705  0.82288673  0.82562213  1
  Ca2+  Ca18  1  0.57430857  0.33171077  0.16667857  1
  Ca2+  Ca19  1  0.57071108  0.33905122  0.49861836  1
  Ca2+  Ca20  1  0.57736538  0.33302865  0.82193265  1
  Ca2+  Ca21  1  0.57728034  0.83342647  0.16914396  1
  Ca2+  Ca22  1  0.57857181  0.82527550  0.49516262  1
  Ca2+  Ca23  1  0.58305807  0.82870252  0.82334739  1
  Ca2+  Ca24  1  0.32741826  0.41491088  0.17050769  1
  Ca2+  Ca25  1  0.33266489  0.41827392  0.51095883  1
  Ca2+  Ca26  1  0.32257181  0.41818652  0.82901116  1
  Ca2+  Ca27  1  0.32911399  0.92526598  0.17907171  1
  Ca2+  Ca28  1  0.32652542  0.92394401  0.50596809  1
  Ca2+  Ca29  1  0.32803915  0.92688154  0.83357269  1
  Ca2+  Ca30  1  0.83762375  0.42378649  0.17138857  1
  Ca2+  Ca31  1  0.82884687  0.41084466  0.50646414  1
  Ca2+  Ca32  1  0.83159358  0.41815461  0.83537022  1
  Ca2+  Ca33  1  0.83893050  0.92030778  0.17214887  1
  Ca2+  Ca34  1  0.82974426  0.91243611  0.50448404  1
  Ca2+  Ca35  1  0.82780165  0.92031735  0.83473163  1
  Ca2+  Ca36  1  0.40608567  0.16825350  0.16641877  1
  Ca2+  Ca37  1  0.40470898  0.17527198  0.49834913  1
  Ca2+  Ca38  1  0.40949707  0.17035107  0.82617566  1
  Ca2+  Ca39  1  0.41811170  0.67403517  0.16812739  1
  Ca2+  Ca40  1  0.42626383  0.66565599  0.49510483  1
  Ca2+  Ca41  1  0.42239874  0.66397242  0.82165927  1
  Ca2+  Ca42  1  0.92266677  0.16766910  0.16434902  1
  Ca2+  Ca43  1  0.92756390  0.17632965  0.49524663  1
  Ca2+  Ca44  1  0.92308441  0.17157368  0.82141669  1
  Ca2+  Ca45  1  0.91924894  0.67290270  0.16046167  1
  Ca2+  Ca46  1  0.92542443  0.67261616  0.49809150  1
  Ca2+  Ca47  1  0.92590814  0.66025892  0.83089407  1
  Al0+  Al48  1  -0.00077255  -0.00010966  0.00090748  1
  Al0+  Al49  1  0.00118376  -0.00021653  0.33013760  1
  Al0+  Al50  1  -0.00006361  -0.00067012  0.66756148  1
  Al0+  Al51  1  -0.00192086  0.49957543  0.00570836  1
  Al0+  Al52  1  -0.00119715  0.49989379  0.33417116  1
  Al0+  Al53  1  -0.00101949  0.50238685  0.65973736  1
  Al0+  Al54  1  0.49979055  0.00093361  0.00345978  1
  Al0+  Al55  1  0.50219669  0.00077795  0.33378166  1
  Al0+  Al56  1  0.50118578  -0.00030450  0.67557172  1
  Al0+  Al57  1  0.49763769  0.49984333  -0.00025174  1
  Al0+  Al58  1  0.50155173  0.49804126  0.32238930  1
  Al0+  Al59  1  0.50209027  0.49949924  0.66813052  1
  Al0+  Al60  1  0.24857586  0.25109152  0.00669017  1
  Al0+  Al61  1  0.24958155  0.25083504  0.32841957  1
  Al0+  Al62  1  0.24933078  0.25138106  0.66585106  1
  Al0+  Al63  1  0.25073587  0.74920479  -0.00538371  1
  Al0+  Al64  1  0.25236191  0.74846876  0.33159301  1
  Al0+  Al65  1  0.25229530  0.75215946  0.66969621  1
  Al0+  Al66  1  0.74734737  0.24877356  0.00432227  1
  Al0+  Al67  1  0.74969884  0.25221926  0.33065751  1
  Al0+  Al68  1  0.74844953  0.25004258  0.66736807  1
  Al0+  Al69  1  0.74812816  0.74932315  0.00260751  1
  Al0+  Al70  1  0.75337164  0.74925771  0.32648883  1
  Al0+  Al71  1  0.74977856  0.74953499  0.66864159  1
  Al0+  Al72  1  0.42905938  0.31922552  0.31837587  1
  Al0+  Al73  1  0.07194826  0.17795167  0.65234598  1
  Al0+  Al74  1  0.17584071  0.92762041  0.68334262  1
  Al0+  Al75  1  0.42892855  0.82259548  0.31968798  1
  Al0+  Al76  1  0.32359184  0.57191067  0.67946154  1
  Al0+  Al77  1  0.57078905  0.67975541  0.65490239  1
  Al0+  Al78  1  0.07044594  0.17976512  0.31627888  1
  Al0+  Al79  1  0.06905698  0.67866146  0.98618737  1
  Al0+  Al80  1  0.43062183  0.31915687  0.65569346  1
  Al0+  Al81  1  0.31971047  0.07225587  0.68165216  1
  Al0+  Al82  1  0.07364034  0.68009719  0.65270079  1
  Al0+  Al83  1  0.17903315  0.43110645  0.01491798  1
  Al0+  Al84  1  0.32261339  0.07276743  0.35041028  1
  Al0+  Al85  1  0.17856606  0.92703618  0.34798799  1
  Al0+  Al86  1  0.67946882  0.42827554  0.67837385  1
  Al0+  Al87  1  0.92609961  0.32282072  0.65301178  1
  Al0+  Al88  1  0.81886967  0.56899009  0.01417528  1
  Al0+  Al89  1  0.82134999  0.07063637  0.01379934  1
  Al0+  Al90  1  0.57215668  0.67836144  0.31667139  1
  Al0+  Al91  1  0.93102680  0.82043853  0.32028244  1
  Al0+  Al92  1  0.92700494  0.32202709  0.31575182  1
  Al0+  Al93  1  0.67973535  0.92751314  0.67900078  1
  Al0+  Al94  1  0.31918040  0.06990635  0.01588482  1
  Al0+  Al95  1  0.17716200  0.43087850  0.67873123  1
  Si0+  Si96  1  0.17847421  0.43044219  0.34900404  1
  Si0+  Si97  1  0.42747173  0.31989118  0.98347627  1
  Si0+  Si98  1  0.82090795  0.57224457  0.35003299  1
  Si0+  Si99  1  0.57150424  0.17921507  0.98440114  1
  Si0+  Si100  1  0.43025177  0.82276375  0.98344189  1
  Si0+  Si101  1  0.57261327  0.17522692  0.65187507  1
  Si0+  Si102  1  0.32343274  0.56904908  0.34575036  1
  Si0+  Si103  1  0.32391603  0.57353136  0.01802342  1
  Si0+  Si104  1  0.82143647  0.07244226  0.34853697  1
  Si0+  Si105  1  0.17852973  0.92496727  0.01624870  1
  Si0+  Si106  1  0.92741766  0.31996325  0.98617997  1
  Si0+  Si107  1  0.67856578  0.43022795  0.34761314  1
  Si0+  Si108  1  0.67814098  0.92772448  0.01930345  1
  Si0+  Si109  1  0.68155192  0.92781714  0.34751653  1
  Si0+  Si110  1  0.57080865  0.67889008  0.98294396  1
  Si0+  Si111  1  0.07081765  0.17946074  0.98508612  1
  Si0+  Si112  1  0.07403002  0.67714387  0.31741354  1
  Si0+  Si113  1  0.82195381  0.57273382  0.68181464  1
  Si0+  Si114  1  0.42924287  0.82518416  0.65174487  1
  Si0+  Si115  1  0.92790828  0.82149007  0.65253001  1
  Si0+  Si116  1  0.82148999  0.07244703  0.68117131  1
  Si0+  Si117  1  0.57424729  0.17672529  0.31674477  1
  Si0+  Si118  1  0.67455214  0.42739098  0.01868506  1
  Si0+  Si119  1  0.92597977  0.82321872  0.98178071  1
  O2-  O120  1  0.24556111  -0.00573184  0.06151630  1
  O2-  O121  1  0.25135301  -0.00133913  0.39731747  1
  O2-  O122  1  0.24639532  0.00175417  0.73252671  1
  O2-  O123  1  0.25280032  0.50729656  0.06202868  1
  O2-  O124  1  0.25011787  0.50147376  0.38914337  1
  O2-  O125  1  0.24588662  0.50594337  0.72990260  1
  O2-  O126  1  0.74978502  -0.00633167  0.06304606  1
  O2-  O127  1  0.75096178  0.00038664  0.39032603  1
  O2-  O128  1  0.75333854  0.00315104  0.72564158  1
  O2-  O129  1  0.74298072  0.49610648  0.06307179  1
  O2-  O130  1  0.74998526  0.50050455  0.39058403  1
  O2-  O131  1  0.75737209  0.49934502  0.72504317  1
  O2-  O132  1  -0.00172726  0.25097590  0.26408232  1
  O2-  O133  1  -0.00033657  0.25166590  0.60466542  1
  O2-  O134  1  -0.00374282  0.24736889  0.94351660  1
  O2-  O135  1  0.00814244  0.74861288  0.27351795  1
  O2-  O136  1  0.00166065  0.75849664  0.60791195  1
  O2-  O137  1  -0.00436052  0.75510811  0.93875228  1
  O2-  O138  1  0.50028756  0.24016915  0.27253708  1
  O2-  O139  1  0.50299464  0.24244209  0.60777274  1
  O2-  O140  1  0.49986054  0.24954669  0.94221385  1
  O2-  O141  1  0.50046240  0.75087568  0.26695647  1
  O2-  O142  1  0.49481446  0.75273990  0.60849259  1
  O2-  O143  1  0.49955574  0.74957534  0.94090645  1
  O2-  O144  1  0.07047448  0.18054334  0.08986208  1
  O2-  O145  1  0.06949437  0.18096262  0.42939924  1
  O2-  O146  1  0.06968613  0.17980398  0.76701907  1
  O2-  O147  1  0.06645560  0.67990762  0.09951449  1
  O2-  O148  1  0.07258729  0.67560798  0.42276936  1
  O2-  O149  1  0.06790192  0.67730529  0.76595526  1
  O2-  O150  1  0.57356935  0.18065105  0.08939677  1
  O2-  O151  1  0.58053436  0.17869826  0.42179364  1
  O2-  O152  1  0.57425264  0.17717015  0.75795353  1
  O2-  O153  1  0.57072061  0.67949300  0.08776449  1
  O2-  O154  1  0.57194989  0.67753001  0.43015158  1
  O2-  O155  1  0.57174605  0.68144880  0.76857383  1
  O2-  O156  1  0.17827370  0.43244215  0.24338141  1
  O2-  O157  1  0.18058972  0.43059953  0.56503003  1
  O2-  O158  1  0.17866868  0.42957432  0.90230599  1
  O2-  O159  1  0.17929009  0.92740960  0.23372312  1
  O2-  O160  1  0.17754458  0.92701859  0.57012645  1
  O2-  O161  1  0.18013781  0.92502370  0.91099757  1
  O2-  O162  1  0.67880898  0.43117139  0.24223305  1
  O2-  O163  1  0.67790321  0.43117713  0.56520863  1
  O2-  O164  1  0.67398786  0.42723451  0.91317610  1
  O2-  O165  1  0.68314057  0.92904205  0.24213442  1
  O2-  O166  1  0.68194715  0.92737592  0.56561282  1
  O2-  O167  1  0.67787299  0.92813308  0.91363742  1
  O2-  O168  1  0.42917478  0.31944350  0.08872241  1
  O2-  O169  1  0.43153999  0.32393796  0.43099424  1
  O2-  O170  1  0.43188330  0.31876093  0.76929429  1
  O2-  O171  1  0.43201548  0.82235762  0.08839100  1
  O2-  O172  1  0.43157771  0.82077207  0.43285675  1
  O2-  O173  1  0.43361787  0.82606704  0.75796192  1
  O2-  O174  1  0.92845968  0.31906282  0.09103819  1
  O2-  O175  1  0.92446845  0.31984283  0.42858018  1
  O2-  O176  1  0.92498608  0.32008063  0.76761689  1
  O2-  O177  1  0.92620142  0.82275118  0.08746878  1
  O2-  O178  1  0.92516172  0.81610144  0.43297944  1
  O2-  O179  1  0.92454348  0.81881426  0.75823417  1
  O2-  O180  1  0.31980185  0.07070823  0.23620656  1
  O2-  O181  1  0.32198487  0.07068151  0.56882370  1
  O2-  O182  1  0.31900825  0.07144589  0.90319506  1
  O2-  O183  1  0.32216085  0.56756392  0.24029233  1
  O2-  O184  1  0.32526616  0.56818131  0.56529572  1
  O2-  O185  1  0.32909717  0.57140787  0.91306110  1
  O2-  O186  1  0.81870521  0.07169797  0.24303547  1
  O2-  O187  1  0.81938069  0.07216203  0.57551221  1
  O2-  O188  1  0.81755427  0.07069207  0.90087313  1
  O2-  O189  1  0.82048850  0.57188301  0.24466417  1
  O2-  O190  1  0.81901725  0.57739673  0.57632622  1
  O2-  O191  1  0.81839994  0.56596825  0.90117290  1
  O2-  O192  1  0.04185727  0.08181811  0.26270899  1
  O2-  O193  1  0.04287061  0.07928102  0.60048420  1
  O2-  O194  1  0.04626137  0.08592604  0.93951713  1
  O2-  O195  1  0.04269127  0.58521908  0.27108603  1
  O2-  O196  1  0.04040534  0.58660590  0.59451534  1
  O2-  O197  1  0.03322734  0.58196564  0.93471938  1
  O2-  O198  1  0.55630206  0.08167916  0.27056111  1
  O2-  O199  1  0.54991142  0.08013994  0.60820471  1
  O2-  O200  1  0.54572432  0.08574486  0.93911365  1
  O2-  O201  1  0.54417400  0.58182051  0.25966709  1
  O2-  O202  1  0.54166664  0.58338164  0.60077169  1
  O2-  O203  1  0.54362155  0.58545701  0.93778452  1
  O2-  O204  1  0.16706227  0.21113129  0.26132171  1
  O2-  O205  1  0.16868571  0.20800902  0.59844751  1
  O2-  O206  1  0.16203848  0.21209971  0.93964614  1
  O2-  O207  1  0.16824102  0.69711344  0.27042053  1
  O2-  O208  1  0.17227583  0.70717496  0.60102747  1
  O2-  O209  1  0.16759492  0.70360275  0.93282646  1
  O2-  O210  1  0.66412859  0.20959779  0.26613482  1
  O2-  O211  1  0.66545051  0.20025321  0.60478314  1
  O2-  O212  1  0.66299321  0.20761718  0.93596401  1
  O2-  O213  1  0.66950557  0.70858425  0.26255836  1
  O2-  O214  1  0.66704214  0.71152462  0.60087792  1
  O2-  O215  1  0.66319465  0.70652044  0.93647089  1
  O2-  O216  1  0.08346987  0.46150787  0.07133633  1
  O2-  O217  1  0.08628755  0.45713298  0.39556784  1
  O2-  O218  1  0.07714285  0.45811446  0.72993093  1
  O2-  O219  1  0.08290456  0.94803328  0.05921422  1
  O2-  O220  1  0.07876817  0.95422086  0.39894098  1
  O2-  O221  1  0.07557410  0.95040968  0.73594440  1
  O2-  O222  1  0.58068950  0.45407213  0.06422695  1
  O2-  O223  1  0.58593828  0.45907209  0.39250571  1
  O2-  O224  1  0.58679355  0.46281641  0.73714412  1
  O2-  O225  1  0.58635360  0.95799099  0.06630656  1
  O2-  O226  1  0.58969196  0.95334709  0.39496557  1
  O2-  O227  1  0.58609394  0.95738258  0.73897182  1
  O2-  O228  1  0.21286461  0.33694895  0.07197021  1
  O2-  O229  1  0.20752583  0.33818233  0.39278883  1
  O2-  O230  1  0.20812680  0.33429911  0.73323749  1
  O2-  O231  1  0.20475434  0.83092906  0.06129537  1
  O2-  O232  1  0.20586225  0.82664345  0.39815819  1
  O2-  O233  1  0.20717947  0.83085638  0.73818358  1
  O2-  O234  1  0.69860233  0.33361373  0.06480659  1
  O2-  O235  1  0.70474357  0.33780404  0.39436692  1
  O2-  O236  1  0.70484422  0.33083850  0.73470786  1
  O2-  O237  1  0.69968273  0.83312702  0.06460850  1
  O2-  O238  1  0.71273201  0.83597752  0.39267264  1
  O2-  O239  1  0.71265921  0.83312951  0.73683879  1
  O2-  O240  1  0.46434756  0.41168716  0.25829121  1
  O2-  O241  1  0.46598453  0.41383784  0.60122231  1
  O2-  O242  1  0.45421824  0.41290343  0.93814265  1
  O2-  O243  1  0.46040026  0.92021884  0.26522800  1
  O2-  O244  1  0.46089796  0.91702810  0.60626270  1
  O2-  O245  1  0.46129983  0.91432023  0.93702489  1
  O2-  O246  1  0.95608847  0.42178159  0.26519550  1
  O2-  O247  1  0.94764938  0.42194333  0.59960701  1
  O2-  O248  1  0.95637844  0.41180484  0.94070028  1
  O2-  O249  1  0.95699443  0.91720228  0.26441935  1
  O2-  O250  1  0.94500386  0.91704165  0.60791775  1
  O2-  O251  1  0.94919647  0.91778797  0.93641667  1
  O2-  O252  1  0.33290057  0.29256566  0.26169902  1
  O2-  O253  1  0.33440460  0.29194345  0.60043821  1
  O2-  O254  1  0.33528033  0.28994214  0.93880134  1
  O2-  O255  1  0.33229685  0.79160584  0.26311889  1
  O2-  O256  1  0.33445483  0.80512451  0.60790195  1
  O2-  O257  1  0.33792188  0.79796316  0.93615735  1
  O2-  O258  1  0.82801029  0.29568606  0.26220227  1
  O2-  O259  1  0.82783556  0.29227466  0.59987053  1
  O2-  O260  1  0.83291561  0.29491199  0.94218921  1
  O2-  O261  1  0.83756104  0.78748836  0.26073729  1
  O2-  O262  1  0.83679467  0.78965679  0.60458560  1
  O2-  O263  1  0.83101410  0.79694763  0.93845157  1
  O2-  O264  1  0.41769431  0.04237976  0.06830234  1
  O2-  O265  1  0.42458006  0.05044340  0.39877661  1
  O2-  O266  1  0.41794040  0.04460597  0.73715988  1
  O2-  O267  1  0.41618147  0.54482531  0.06644973  1
  O2-  O268  1  0.41593533  0.53793215  0.38947265  1
  O2-  O269  1  0.41875285  0.53772444  0.73564213  1
  O2-  O270  1  0.91848306  0.04238332  0.06863123  1
  O2-  O271  1  0.91309485  0.04448114  0.39417555  1
  O2-  O272  1  0.91415870  0.04753289  0.72873854  1
  O2-  O273  1  0.91293708  0.53745108  0.07203781  1
  O2-  O274  1  0.91307871  0.54569961  0.39735297  1
  O2-  O275  1  0.91625668  0.54956273  0.72652436  1
  O2-  O276  1  0.28765615  0.16595170  0.06998795  1
  O2-  O277  1  0.29196662  0.17267313  0.39836798  1
  O2-  O278  1  0.29064730  0.17035424  0.73541140  1
  O2-  O279  1  0.30047989  0.66894639  0.06128734  1
  O2-  O280  1  0.30071722  0.66200491  0.39221239  1
  O2-  O281  1  0.30533067  0.67271337  0.73049341  1
  O2-  O282  1  0.78670278  0.16544792  0.07023837  1
  O2-  O283  1  0.79132586  0.16421999  0.39418232  1
  O2-  O284  1  0.79427287  0.16447995  0.72955205  1
  O2-  O285  1  0.78904819  0.66660404  0.06806879  1
  O2-  O286  1  0.79220180  0.66415382  0.39607398  1
  O2-  O287  1  0.79163173  0.66286556  0.73221425  1
