# generated using pymatgen
data_Ca2Al2SiO7
_symmetry_space_group_name_H-M   'P 1'
_cell_length_a   15.47131365
_cell_length_b   15.47813519
_cell_length_c   15.29722473
_cell_angle_alpha   90.00186250
_cell_angle_beta   89.99686336
_cell_angle_gamma   89.98096979
_symmetry_Int_Tables_number   1
_chemical_formula_structural   Ca2Al2SiO7
_chemical_formula_sum   'Ca48 Al48 Si24 O168'
_cell_volume   3663.18159352
_cell_formula_units_Z   24
loop_
 _symmetry_equiv_pos_site_id
 _symmetry_equiv_pos_as_xyz
  1  'x, y, z'
loop_
 _atom_type_symbol
 _atom_type_oxidation_number
  Ca2+  2.0
  Al0+  0.0
  Si0+  0.0
  O2-  -2.0
loop_
 _atom_site_type_symbol
 _atom_site_label
 _atom_site_symmetry_multiplicity
 _atom_site_fract_x
 _atom_site_fract_y
 _atom_site_fract_z
 _atom_site_occupancy
  Ca2+  Ca0  1  0.17364593  0.08085381  0.18030746  1
  Ca2+  Ca1  1  0.17586989  0.08302133  0.50650091  1
  Ca2+  Ca2  1  0.17336206  0.08797738  0.82736278  1
  Ca2+  Ca3  1  0.16583588  0.56758557  0.17088625  1
  Ca2+  Ca4  1  0.16461466  0.57494537  0.50276831  1
  Ca2+  Ca5  1  0.16711908  0.57688551  0.83789325  1
  Ca2+  Ca6  1  0.67552996  0.10196109  0.16922625  1
  Ca2+  Ca7  1  0.67677088  0.10127769  0.50321339  1
  Ca2+  Ca8  1  0.67514114  0.09988938  0.83565565  1
  Ca2+  Ca9  1  0.66501644  0.57186719  0.17030062  1
  Ca2+  Ca10  1  0.66372278  0.58216833  0.50665100  1
  Ca2+  Ca11  1  0.66217855  0.57654018  0.83956801  1
  Ca2+  Ca12  1  0.07862351  0.33193496  0.16619040  1
  Ca2+  Ca13  1  0.08139424  0.31761665  0.49140709  1
  Ca2+  Ca14  1  0.07804878  0.32993566  0.83045203  1
  Ca2+  Ca15  1  0.08548328  0.83628391  0.16551425  1
  Ca2+  Ca16  1  0.09894731  0.83065985  0.49816364  1
  Ca2+  Ca17  1  0.08566174  0.82883119  0.82129871  1
  Ca2+  Ca18  1  0.57411820  0.32455947  0.16162076  1
  Ca2+  Ca19  1  0.56916416  0.32241834  0.49829182  1
  Ca2+  Ca20  1  0.57694202  0.32921230  0.83112314  1
  Ca2+  Ca21  1  0.57664176  0.83668430  0.16766289  1
  Ca2+  Ca22  1  0.57069685  0.83690230  0.49881024  1
  Ca2+  Ca23  1  0.57811840  0.82486521  0.82300215  1
  Ca2+  Ca24  1  0.32571373  0.40678570  0.17175317  1
  Ca2+  Ca25  1  0.33138988  0.40684881  0.50207362  1
  Ca2+  Ca26  1  0.33094104  0.40977977  0.83911131  1
  Ca2+  Ca27  1  0.32917540  0.92377568  0.17905903  1
  Ca2+  Ca28  1  0.33179443  0.92614085  0.50401239  1
  Ca2+  Ca29  1  0.33431929  0.91961954  0.82893367  1
  Ca2+  Ca30  1  0.82998461  0.40429056  0.16892659  1
  Ca2+  Ca31  1  0.83388854  0.41247243  0.50132579  1
  Ca2+  Ca32  1  0.82595736  0.41435913  0.84337646  1
  Ca2+  Ca33  1  0.82914997  0.93271241  0.17238359  1
  Ca2+  Ca34  1  0.83045208  0.93028448  0.50497845  1
  Ca2+  Ca35  1  0.83170969  0.93139361  0.83600674  1
  Ca2+  Ca36  1  0.42113997  0.17138095  0.16264096  1
  Ca2+  Ca37  1  0.41946104  0.16558148  0.49046529  1
  Ca2+  Ca38  1  0.42528872  0.17563622  0.82323046  1
  Ca2+  Ca39  1  0.41044933  0.67459220  0.16806165  1
  Ca2+  Ca40  1  0.41558424  0.68014496  0.50072999  1
  Ca2+  Ca41  1  0.42145410  0.67224932  0.82150071  1
  Ca2+  Ca42  1  0.91891725  0.16986136  0.16530874  1
  Ca2+  Ca43  1  0.92610381  0.16029266  0.49385109  1
  Ca2+  Ca44  1  0.91758244  0.16758415  0.82914614  1
  Ca2+  Ca45  1  0.91802297  0.67014550  0.16426775  1
  Ca2+  Ca46  1  0.92337526  0.67054440  0.49869934  1
  Ca2+  Ca47  1  0.92475224  0.66953897  0.82562620  1
  Al0+  Al48  1  -0.00080393  -0.00067553  0.00267491  1
  Al0+  Al49  1  -0.00224395  -0.00371428  0.33590569  1
  Al0+  Al50  1  -0.00181082  0.00031745  0.67268306  1
  Al0+  Al51  1  0.00108347  0.50096109  0.00010195  1
  Al0+  Al52  1  0.00002121  0.50133282  0.33458580  1
  Al0+  Al53  1  -0.00097417  0.50271145  0.66400097  1
  Al0+  Al54  1  0.50131287  -0.00130229  -0.00562026  1
  Al0+  Al55  1  0.50170693  -0.00279989  0.32606253  1
  Al0+  Al56  1  0.50347326  0.00011068  0.66468336  1
  Al0+  Al57  1  0.49923880  0.50214195  0.00417384  1
  Al0+  Al58  1  0.50057237  0.50040545  0.33182652  1
  Al0+  Al59  1  0.49952549  0.49922299  0.66001802  1
  Al0+  Al60  1  0.24884313  0.24854353  0.00164464  1
  Al0+  Al61  1  0.24797964  0.24896634  0.33463445  1
  Al0+  Al62  1  0.24582167  0.24997990  0.66698930  1
  Al0+  Al63  1  0.24991277  0.74909438  -0.00021306  1
  Al0+  Al64  1  0.25141720  0.74640668  0.32955314  1
  Al0+  Al65  1  0.25024493  0.74723410  0.66303158  1
  Al0+  Al66  1  0.75184547  0.25312040  0.00218217  1
  Al0+  Al67  1  0.74954636  0.25290058  0.33509692  1
  Al0+  Al68  1  0.74730672  0.25516302  0.66962765  1
  Al0+  Al69  1  0.75089203  0.75294333  -0.00021568  1
  Al0+  Al70  1  0.75128514  0.74902240  0.33326810  1
  Al0+  Al71  1  0.75312337  0.74949277  0.66521295  1
  Al0+  Al72  1  0.81752433  0.07232797  0.34788551  1
  Al0+  Al73  1  0.57124897  0.17816933  0.31802773  1
  Al0+  Al74  1  0.07003198  0.17453117  0.31864340  1
  Al0+  Al75  1  0.17890630  0.42826516  0.01320813  1
  Al0+  Al76  1  0.81832579  0.07284652  0.68145313  1
  Al0+  Al77  1  0.18102895  0.92786593  0.68206770  1
  Al0+  Al78  1  0.32205665  0.07049534  0.34600616  1
  Al0+  Al79  1  0.06774391  0.17813310  0.65449073  1
  Al0+  Al80  1  0.42920260  0.82242900  0.65164783  1
  Al0+  Al81  1  0.93060426  0.32207114  0.31946099  1
  Al0+  Al82  1  0.42679248  0.32140087  0.31765266  1
  Al0+  Al83  1  0.07135922  0.67913046  0.65192219  1
  Al0+  Al84  1  0.17868829  0.42911661  0.34867163  1
  Al0+  Al85  1  0.42934491  0.81936851  0.31789728  1
  Al0+  Al86  1  0.17805250  0.92596051  0.34654303  1
  Al0+  Al87  1  0.57162299  0.17985899  0.98370443  1
  Al0+  Al88  1  0.42645330  0.31957387  0.65239817  1
  Al0+  Al89  1  0.32440816  0.07330256  0.68245948  1
  Al0+  Al90  1  0.42625056  0.32198328  0.98532087  1
  Al0+  Al91  1  0.93147069  0.32116204  0.98623522  1
  Al0+  Al92  1  0.57316024  0.67760351  0.65287911  1
  Al0+  Al93  1  0.81959848  0.07163441  0.01502257  1
  Al0+  Al94  1  0.57266028  0.17950572  0.65206487  1
  Al0+  Al95  1  0.67866843  0.43117548  0.01543740  1
  Si0+  Si96  1  0.92727977  0.32342845  0.65216409  1
  Si0+  Si97  1  0.07075327  0.67915118  0.31610370  1
  Si0+  Si98  1  0.92664042  0.81945726  0.31698555  1
  Si0+  Si99  1  0.92922441  0.82249540  0.98422816  1
  Si0+  Si100  1  0.67912444  0.92434693  0.34995721  1
  Si0+  Si101  1  0.32321061  0.57090276  0.35133413  1
  Si0+  Si102  1  0.92946489  0.82263614  0.64963140  1
  Si0+  Si103  1  0.82248312  0.57471631  0.01643530  1
  Si0+  Si104  1  0.67933711  0.92435481  0.68342075  1
  Si0+  Si105  1  0.18039497  0.92636265  0.01370572  1
  Si0+  Si106  1  0.32137177  0.57417056  0.01705313  1
  Si0+  Si107  1  0.42775455  0.81987261  0.98395211  1
  Si0+  Si108  1  0.07022049  0.68072560  0.98533660  1
  Si0+  Si109  1  0.82077268  0.57293107  0.34992511  1
  Si0+  Si110  1  0.67884047  0.43389153  0.68258368  1
  Si0+  Si111  1  0.57199368  0.68000562  0.98748026  1
  Si0+  Si112  1  0.82323047  0.57248300  0.68268426  1
  Si0+  Si113  1  0.32054024  0.56824897  0.68011981  1
  Si0+  Si114  1  0.67844628  0.43077396  0.35143630  1
  Si0+  Si115  1  0.07179909  0.17433620  0.98284273  1
  Si0+  Si116  1  0.57460294  0.67811657  0.31495360  1
  Si0+  Si117  1  0.32214519  0.06869283  0.01299846  1
  Si0+  Si118  1  0.67744227  0.92571330  0.01681303  1
  Si0+  Si119  1  0.17603027  0.42930338  0.68201178  1
  O2-  O120  1  0.25004501  -0.00198892  0.05483900  1
  O2-  O121  1  0.24688898  0.00078452  0.39521854  1
  O2-  O122  1  0.25313784  -0.00081138  0.73318200  1
  O2-  O123  1  0.25815288  0.49964483  0.05898642  1
  O2-  O124  1  0.25899935  0.49833216  0.39549749  1
  O2-  O125  1  0.25123107  0.49646822  0.72396553  1
  O2-  O126  1  0.74062733  -0.00029353  0.06002586  1
  O2-  O127  1  0.74029592  -0.00064234  0.39403415  1
  O2-  O128  1  0.74145809  -0.00085321  0.72777698  1
  O2-  O129  1  0.75466057  0.50642869  0.06170976  1
  O2-  O130  1  0.75050232  0.50209992  0.39261481  1
  O2-  O131  1  0.74978578  0.50538311  0.72541509  1
  O2-  O132  1  0.00009067  0.24860872  0.26826185  1
  O2-  O133  1  -0.00781195  0.25210445  0.60863657  1
  O2-  O134  1  0.00439342  0.24521854  0.93957860  1
  O2-  O135  1  0.00274461  0.75336760  0.27423256  1
  O2-  O136  1  0.00224345  0.75857578  0.60475861  1
  O2-  O137  1  0.00055312  0.75202769  0.94183152  1
  O2-  O138  1  0.49574656  0.24654723  0.26826130  1
  O2-  O139  1  0.49006625  0.23967445  0.60341829  1
  O2-  O140  1  0.49781587  0.25050670  0.93479292  1
  O2-  O141  1  0.50523127  0.74539394  0.27010606  1
  O2-  O142  1  0.50541262  0.75297265  0.60348100  1
  O2-  O143  1  0.50047548  0.74947782  0.94414613  1
  O2-  O144  1  0.07116024  0.17099161  0.08798204  1
  O2-  O145  1  0.06786391  0.17463323  0.43222455  1
  O2-  O146  1  0.06772251  0.18225317  0.76805997  1
  O2-  O147  1  0.06940331  0.68226838  0.09039779  1
  O2-  O148  1  0.06865335  0.67808255  0.42096304  1
  O2-  O149  1  0.06785981  0.67658256  0.76562812  1
  O2-  O150  1  0.56917166  0.18062807  0.09684956  1
  O2-  O151  1  0.57218397  0.18208917  0.43134753  1
  O2-  O152  1  0.57680437  0.18838341  0.76521131  1
  O2-  O153  1  0.57330626  0.68202012  0.09229140  1
  O2-  O154  1  0.57718680  0.67946849  0.42002205  1
  O2-  O155  1  0.57021385  0.67674663  0.76731580  1
  O2-  O156  1  0.17583897  0.43409024  0.23538112  1
  O2-  O157  1  0.17280619  0.43248254  0.57739198  1
  O2-  O158  1  0.17640619  0.43368188  0.89989614  1
  O2-  O159  1  0.18110422  0.92541358  0.23177999  1
  O2-  O160  1  0.18292847  0.92742908  0.56932210  1
  O2-  O161  1  0.18144494  0.92033112  0.90934278  1
  O2-  O162  1  0.67876968  0.43341774  0.24632122  1
  O2-  O163  1  0.68159099  0.43522057  0.57761693  1
  O2-  O164  1  0.67946266  0.43569951  0.90207603  1
  O2-  O165  1  0.68558622  0.91625350  0.24461165  1
  O2-  O166  1  0.68507380  0.91629028  0.57860911  1
  O2-  O167  1  0.68175095  0.91598324  0.91206793  1
  O2-  O168  1  0.42548702  0.31972672  0.09827333  1
  O2-  O169  1  0.43069763  0.32365482  0.43086668  1
  O2-  O170  1  0.43060257  0.32515943  0.76591955  1
  O2-  O171  1  0.42581177  0.81830805  0.08883591  1
  O2-  O172  1  0.42954438  0.81694553  0.43008783  1
  O2-  O173  1  0.42904386  0.81615162  0.76611839  1
  O2-  O174  1  0.93319976  0.32157061  0.09863147  1
  O2-  O175  1  0.93198813  0.32386000  0.43316112  1
  O2-  O176  1  0.92899173  0.32616367  0.75798674  1
  O2-  O177  1  0.92978627  0.82103378  0.08933526  1
  O2-  O178  1  0.92083644  0.81497542  0.42129836  1
  O2-  O179  1  0.92861112  0.81802263  0.75575844  1
  O2-  O180  1  0.32172480  0.06701253  0.23139501  1
  O2-  O181  1  0.32219821  0.07375625  0.56956823  1
  O2-  O182  1  0.32168837  0.06723633  0.90823406  1
  O2-  O183  1  0.31946157  0.57424487  0.24543219  1
  O2-  O184  1  0.31884788  0.56853920  0.57543701  1
  O2-  O185  1  0.31859729  0.58123564  0.91166486  1
  O2-  O186  1  0.81765552  0.07028638  0.23464030  1
  O2-  O187  1  0.81845989  0.07141434  0.56864802  1
  O2-  O188  1  0.82112476  0.06841646  0.90198075  1
  O2-  O189  1  0.81971922  0.57676513  0.24486836  1
  O2-  O190  1  0.82601933  0.57098753  0.57774875  1
  O2-  O191  1  0.82161275  0.57649217  0.91081790  1
  O2-  O192  1  0.04121655  0.07533474  0.26664439  1
  O2-  O193  1  0.03737618  0.08087460  0.60327872  1
  O2-  O194  1  0.04391930  0.08129215  0.93640937  1
  O2-  O195  1  0.03616327  0.59039967  0.26735629  1
  O2-  O196  1  0.03362399  0.58590648  0.59558497  1
  O2-  O197  1  0.04171280  0.59014714  0.93678926  1
  O2-  O198  1  0.55454824  0.07711370  0.26591425  1
  O2-  O199  1  0.56409301  0.07561906  0.60616632  1
  O2-  O200  1  0.54954530  0.07872421  0.93225243  1
  O2-  O201  1  0.54879550  0.58471785  0.26906140  1
  O2-  O202  1  0.54134688  0.58279106  0.59641763  1
  O2-  O203  1  0.54502510  0.58837512  0.94029662  1
  O2-  O204  1  0.16842841  0.20262792  0.26680499  1
  O2-  O205  1  0.16300543  0.20996938  0.60033773  1
  O2-  O206  1  0.16552861  0.20011834  0.93796931  1
  O2-  O207  1  0.16266723  0.70223293  0.26719186  1
  O2-  O208  1  0.16821042  0.70277156  0.59694171  1
  O2-  O209  1  0.16245100  0.70762580  0.93807036  1
  O2-  O210  1  0.66744402  0.21589492  0.26668202  1
  O2-  O211  1  0.66643731  0.22216746  0.59847116  1
  O2-  O212  1  0.67004885  0.21273249  0.93453777  1
  O2-  O213  1  0.66804266  0.70405770  0.26805060  1
  O2-  O214  1  0.67458284  0.69880585  0.60323194  1
  O2-  O215  1  0.66413769  0.70730759  0.93960087  1
  O2-  O216  1  0.08500854  0.46697216  0.06820063  1
  O2-  O217  1  0.08489078  0.46936499  0.40262212  1
  O2-  O218  1  0.08592724  0.46436916  0.72959418  1
  O2-  O219  1  0.08709404  0.95106126  0.05964748  1
  O2-  O220  1  0.07619515  0.94186325  0.39614228  1
  O2-  O221  1  0.08131909  0.95346507  0.73512704  1
  O2-  O222  1  0.58341538  0.46474610  0.07130528  1
  O2-  O223  1  0.58742688  0.46146389  0.39856881  1
  O2-  O224  1  0.58702505  0.46359913  0.72901374  1
  O2-  O225  1  0.58075654  0.94524774  0.05889625  1
  O2-  O226  1  0.58205619  0.94182051  0.38930382  1
  O2-  O227  1  0.58307424  0.94061919  0.72658062  1
  O2-  O228  1  0.20348948  0.33013142  0.06685066  1
  O2-  O229  1  0.20303104  0.33129565  0.40176076  1
  O2-  O230  1  0.19792820  0.33716119  0.73043796  1
  O2-  O231  1  0.20822207  0.83489704  0.06308695  1
  O2-  O232  1  0.20935603  0.82659637  0.39557599  1
  O2-  O233  1  0.20831273  0.82678332  0.73330566  1
  O2-  O234  1  0.71193018  0.33673252  0.07026885  1
  O2-  O235  1  0.70801304  0.34112112  0.40044654  1
  O2-  O236  1  0.70804254  0.34442017  0.73301892  1
  O2-  O237  1  0.70863113  0.83500547  0.06725712  1
  O2-  O238  1  0.71135018  0.83345991  0.39856214  1
  O2-  O239  1  0.71181014  0.83293708  0.73296307  1
  O2-  O240  1  0.45696510  0.42078245  0.26599287  1
  O2-  O241  1  0.46172590  0.41448671  0.59707101  1
  O2-  O242  1  0.45239684  0.42406070  0.93762448  1
  O2-  O243  1  0.46038681  0.91299458  0.25861429  1
  O2-  O244  1  0.45516087  0.92068374  0.59879216  1
  O2-  O245  1  0.45424843  0.91061283  0.93514613  1
  O2-  O246  1  0.95745664  0.42179922  0.26727881  1
  O2-  O247  1  0.95404820  0.41628752  0.60561956  1
  O2-  O248  1  0.96063790  0.41929241  0.93261651  1
  O2-  O249  1  0.95032400  0.91134167  0.26866950  1
  O2-  O250  1  0.94878908  0.91794175  0.60719941  1
  O2-  O251  1  0.95743252  0.91349824  0.93637033  1
  O2-  O252  1  0.32660148  0.29716522  0.26804458  1
  O2-  O253  1  0.32394471  0.30260989  0.60555034  1
  O2-  O254  1  0.32679563  0.29414476  0.93367797  1
  O2-  O255  1  0.33473541  0.78368311  0.26100481  1
  O2-  O256  1  0.33416916  0.78638137  0.59847459  1
  O2-  O257  1  0.33664328  0.78921514  0.93677928  1
  O2-  O258  1  0.83090027  0.29612132  0.26944033  1
  O2-  O259  1  0.83215888  0.30277881  0.60877826  1
  O2-  O260  1  0.83434556  0.29319823  0.93286344  1
  O2-  O261  1  0.83854407  0.78440421  0.26590276  1
  O2-  O262  1  0.83908559  0.79065610  0.60147616  1
  O2-  O263  1  0.83790045  0.79408730  0.93617779  1
  O2-  O264  1  0.41421421  0.03895690  0.05869119  1
  O2-  O265  1  0.42133827  0.03804122  0.39485026  1
  O2-  O266  1  0.42476498  0.04653939  0.73374117  1
  O2-  O267  1  0.41659964  0.55787399  0.06272709  1
  O2-  O268  1  0.41954558  0.55291172  0.39434946  1
  O2-  O269  1  0.41367087  0.54259700  0.72665421  1
  O2-  O270  1  0.91498666  0.03512099  0.06894590  1
  O2-  O271  1  0.91250114  0.03547707  0.40095442  1
  O2-  O272  1  0.91285291  0.03969796  0.73852160  1
  O2-  O273  1  0.91674410  0.55125902  0.06156581  1
  O2-  O274  1  0.91261731  0.54632867  0.39742583  1
  O2-  O275  1  0.91382773  0.54240133  0.73225590  1
  O2-  O276  1  0.29479512  0.16002868  0.06059874  1
  O2-  O277  1  0.29688812  0.16899064  0.39861195  1
  O2-  O278  1  0.28903069  0.17032559  0.73674556  1
  O2-  O279  1  0.28789625  0.66468477  0.06683638  1
  O2-  O280  1  0.29094618  0.66208995  0.39767349  1
  O2-  O281  1  0.29126570  0.65885735  0.72928067  1
  O2-  O282  1  0.79302356  0.16898315  0.06819911  1
  O2-  O283  1  0.78986584  0.16967583  0.40208362  1
  O2-  O284  1  0.78877530  0.17112116  0.73442105  1
  O2-  O285  1  0.79701025  0.66879492  0.06273716  1
  O2-  O286  1  0.79239630  0.66374743  0.39929860  1
  O2-  O287  1  0.80075724  0.66559920  0.73037105  1
