# generated using pymatgen
data_Ca2Al2SiO7
_symmetry_space_group_name_H-M   'P 1'
_cell_length_a   15.45390074
_cell_length_b   15.45410753
_cell_length_c   15.28114999
_cell_angle_alpha   89.99703855
_cell_angle_beta   89.99939189
_cell_angle_gamma   90.00665102
_symmetry_Int_Tables_number   1
_chemical_formula_structural   Ca2Al2SiO7
_chemical_formula_sum   'Ca48 Al48 Si24 O168'
_cell_volume   3649.53962349
_cell_formula_units_Z   24
loop_
 _symmetry_equiv_pos_site_id
 _symmetry_equiv_pos_as_xyz
  1  'x, y, z'
loop_
 _atom_type_symbol
 _atom_type_oxidation_number
  Ca2+  2.0
  Al0+  0.0
  Si0+  0.0
  O2-  -2.0
loop_
 _atom_site_type_symbol
 _atom_site_label
 _atom_site_symmetry_multiplicity
 _atom_site_fract_x
 _atom_site_fract_y
 _atom_site_fract_z
 _atom_site_occupancy
  Ca2+  Ca0  1  0.17307678  0.07848419  0.17556093  1
  Ca2+  Ca1  1  0.16849968  0.07804588  0.50113185  1
  Ca2+  Ca2  1  0.16288743  0.08563428  0.83793923  1
  Ca2+  Ca3  1  0.16740153  0.57639156  0.16454052  1
  Ca2+  Ca4  1  0.17153226  0.58080314  0.50732868  1
  Ca2+  Ca5  1  0.17210741  0.58308184  0.84109568  1
  Ca2+  Ca6  1  0.66821079  0.08036483  0.16804783  1
  Ca2+  Ca7  1  0.66867290  0.07490590  0.50517715  1
  Ca2+  Ca8  1  0.67837552  0.09038001  0.83922551  1
  Ca2+  Ca9  1  0.66806885  0.58589242  0.16766659  1
  Ca2+  Ca10  1  0.67144490  0.58288194  0.51108123  1
  Ca2+  Ca11  1  0.67581860  0.57116799  0.83912441  1
  Ca2+  Ca12  1  0.08714929  0.33119474  0.15838703  1
  Ca2+  Ca13  1  0.07885397  0.33321541  0.49897159  1
  Ca2+  Ca14  1  0.08138905  0.32526876  0.82618080  1
  Ca2+  Ca15  1  0.08775719  0.82867519  0.15949715  1
  Ca2+  Ca16  1  0.08470616  0.82832884  0.49875345  1
  Ca2+  Ca17  1  0.08193513  0.81880258  0.82932988  1
  Ca2+  Ca18  1  0.58308575  0.32709883  0.15752485  1
  Ca2+  Ca19  1  0.57648507  0.34125994  0.50167725  1
  Ca2+  Ca20  1  0.58733774  0.33494163  0.82873139  1
  Ca2+  Ca21  1  0.57566137  0.83346143  0.16500958  1
  Ca2+  Ca22  1  0.57599864  0.82890528  0.48882707  1
  Ca2+  Ca23  1  0.57003154  0.83124343  0.82884290  1
  Ca2+  Ca24  1  0.32109496  0.41873747  0.16833269  1
  Ca2+  Ca25  1  0.32961526  0.42155340  0.50871428  1
  Ca2+  Ca26  1  0.33217404  0.42854962  0.83934045  1
  Ca2+  Ca27  1  0.33343122  0.91928554  0.17473621  1
  Ca2+  Ca28  1  0.33549503  0.91522233  0.49937576  1
  Ca2+  Ca29  1  0.33423608  0.91243162  0.83645761  1
  Ca2+  Ca30  1  0.82926860  0.42098473  0.16230192  1
  Ca2+  Ca31  1  0.82552706  0.41952995  0.51297718  1
  Ca2+  Ca32  1  0.82966436  0.41878368  0.83566811  1
  Ca2+  Ca33  1  0.82885009  0.92321122  0.17134283  1
  Ca2+  Ca34  1  0.82564984  0.91930808  0.50614054  1
  Ca2+  Ca35  1  0.83730398  0.93009925  0.83723183  1
  Ca2+  Ca36  1  0.42038409  0.16414173  0.16020093  1
  Ca2+  Ca37  1  0.41241042  0.17193839  0.49791697  1
  Ca2+  Ca38  1  0.42547929  0.17743285  0.82863698  1
  Ca2+  Ca39  1  0.41367161  0.67820934  0.16152126  1
  Ca2+  Ca40  1  0.41990663  0.67368406  0.49594444  1
  Ca2+  Ca41  1  0.40643490  0.67331146  0.82709201  1
  Ca2+  Ca42  1  0.92315287  0.16741969  0.15532760  1
  Ca2+  Ca43  1  0.91630863  0.16859821  0.50475722  1
  Ca2+  Ca44  1  0.92247376  0.16893044  0.82508278  1
  Ca2+  Ca45  1  0.92146736  0.66810397  0.15755500  1
  Ca2+  Ca46  1  0.92286401  0.65695875  0.49977250  1
  Ca2+  Ca47  1  0.92610239  0.65208229  0.83057017  1
  Al0+  Al48  1  0.00000796  0.00004042  0.00141808  1
  Al0+  Al49  1  0.00154674  0.00095659  0.33692745  1
  Al0+  Al50  1  0.00058653  -0.00251059  0.66593632  1
  Al0+  Al51  1  -0.00087864  0.49936101  0.00384394  1
  Al0+  Al52  1  -0.00077658  0.49853924  0.33467276  1
  Al0+  Al53  1  0.00050943  0.49684672  0.65990958  1
  Al0+  Al54  1  0.50046122  0.00117587  -0.01057590  1
  Al0+  Al55  1  0.50177705  0.00143053  0.33859502  1
  Al0+  Al56  1  0.49731894  0.00013953  0.66386270  1
  Al0+  Al57  1  0.49946670  0.50245270  0.00991039  1
  Al0+  Al58  1  0.50024652  0.49903558  0.32691456  1
  Al0+  Al59  1  0.49869251  0.50118111  0.67076013  1
  Al0+  Al60  1  0.25145208  0.24946006  -0.00142028  1
  Al0+  Al61  1  0.24874111  0.25059839  0.34043734  1
  Al0+  Al62  1  0.25176403  0.24709390  0.65926112  1
  Al0+  Al63  1  0.24850109  0.75085400  -0.00375415  1
  Al0+  Al64  1  0.24982736  0.74937167  0.33233403  1
  Al0+  Al65  1  0.24828134  0.75049870  0.66016454  1
  Al0+  Al66  1  0.75110535  0.24932569  0.00560109  1
  Al0+  Al67  1  0.75105379  0.25331791  0.33241593  1
  Al0+  Al68  1  0.75076896  0.24698142  0.66787766  1
  Al0+  Al69  1  0.74772091  0.75222589  0.00119446  1
  Al0+  Al70  1  0.75181061  0.75078338  0.33389522  1
  Al0+  Al71  1  0.74982168  0.75033935  0.67483014  1
  Al0+  Al72  1  0.42934470  0.82194314  0.31739392  1
  Al0+  Al73  1  0.82117887  0.57279582  0.01660594  1
  Al0+  Al74  1  0.92825703  0.31906192  0.65128143  1
  Al0+  Al75  1  0.32271772  0.07082134  0.34859873  1
  Al0+  Al76  1  0.07226701  0.17536512  0.64869689  1
  Al0+  Al77  1  0.17794283  0.42999370  0.34939084  1
  Al0+  Al78  1  0.32012578  0.57544046  0.01657125  1
  Al0+  Al79  1  0.07296150  0.17784041  0.98838005  1
  Al0+  Al80  1  0.82425913  0.57181402  0.68169218  1
  Al0+  Al81  1  0.06896706  0.67774518  0.65233146  1
  Al0+  Al82  1  0.57394366  0.67794698  0.31781163  1
  Al0+  Al83  1  0.17821497  0.92649214  0.34884865  1
  Al0+  Al84  1  0.68105461  0.92930917  0.34604251  1
  Al0+  Al85  1  0.57197247  0.18089735  0.98686648  1
  Al0+  Al86  1  0.82031133  0.06792126  0.67989865  1
  Al0+  Al87  1  0.42959177  0.81962292  0.98486770  1
  Al0+  Al88  1  0.43107974  0.32323870  0.65428243  1
  Al0+  Al89  1  0.17957958  0.42695646  0.01232567  1
  Al0+  Al90  1  0.06792612  0.67884836  0.98763080  1
  Al0+  Al91  1  0.67770690  0.42881653  0.68043039  1
  Al0+  Al92  1  0.42840907  0.82105825  0.65012770  1
  Al0+  Al93  1  0.82223067  0.07025443  0.01474516  1
  Al0+  Al94  1  0.67839049  0.42841857  0.01764246  1
  Al0+  Al95  1  0.31832590  0.57200002  0.67833785  1
  Si0+  Si96  1  0.42808173  0.32376955  0.98544158  1
  Si0+  Si97  1  0.42663955  0.32043488  0.31720277  1
  Si0+  Si98  1  0.92988662  0.82257403  0.31931235  1
  Si0+  Si99  1  0.67544413  0.93061660  0.01532123  1
  Si0+  Si100  1  0.57248776  0.67936258  0.65318686  1
  Si0+  Si101  1  0.81967818  0.57075765  0.34794033  1
  Si0+  Si102  1  0.92905924  0.32058379  0.98464518  1
  Si0+  Si103  1  0.67835808  0.42843787  0.34834801  1
  Si0+  Si104  1  0.06976969  0.67789002  0.31739615  1
  Si0+  Si105  1  0.92565578  0.82309136  0.98420976  1
  Si0+  Si106  1  0.07059214  0.17981867  0.31787621  1
  Si0+  Si107  1  0.57202246  0.18106049  0.31988023  1
  Si0+  Si108  1  0.32140947  0.07191761  0.68431635  1
  Si0+  Si109  1  0.57320574  0.67669569  0.98163754  1
  Si0+  Si110  1  0.32281429  0.57059154  0.34980345  1
  Si0+  Si111  1  0.17978377  0.93000054  0.01243839  1
  Si0+  Si112  1  0.67446913  0.92768750  0.68534768  1
  Si0+  Si113  1  0.92869255  0.32150736  0.31546556  1
  Si0+  Si114  1  0.92710956  0.82182126  0.65116689  1
  Si0+  Si115  1  0.17881766  0.42527440  0.68165525  1
  Si0+  Si116  1  0.32230572  0.07029655  0.01097906  1
  Si0+  Si117  1  0.18012072  0.92939724  0.68292596  1
  Si0+  Si118  1  0.82270284  0.07430712  0.35045261  1
  Si0+  Si119  1  0.57240614  0.17837171  0.64871206  1
  O2-  O120  1  0.24967921  0.00194877  0.05412664  1
  O2-  O121  1  0.25275540  -0.00379851  0.39851769  1
  O2-  O122  1  0.24982098  0.00139153  0.72629036  1
  O2-  O123  1  0.25066315  0.49941793  0.06425715  1
  O2-  O124  1  0.25348397  0.50353887  0.39550306  1
  O2-  O125  1  0.24544654  0.49561696  0.72552585  1
  O2-  O126  1  0.74747453  -0.00444739  0.06070294  1
  O2-  O127  1  0.75484108  0.00464277  0.39371244  1
  O2-  O128  1  0.74460910  -0.00477456  0.72869054  1
  O2-  O129  1  0.74668314  0.50417275  0.06844017  1
  O2-  O130  1  0.74436687  0.50414825  0.38942083  1
  O2-  O131  1  0.75203512  0.49899072  0.72925691  1
  O2-  O132  1  -0.00116194  0.24919434  0.27425510  1
  O2-  O133  1  0.00163387  0.24905429  0.59906453  1
  O2-  O134  1  -0.00002405  0.25354820  0.94168170  1
  O2-  O135  1  0.00321723  0.75408717  0.27643946  1
  O2-  O136  1  -0.01141108  0.74719788  0.60568772  1
  O2-  O137  1  -0.01142186  0.74895576  0.94061745  1
  O2-  O138  1  0.49834745  0.24904106  0.27662671  1
  O2-  O139  1  0.50656318  0.24997320  0.60467571  1
  O2-  O140  1  0.50239810  0.26085309  0.94130647  1
  O2-  O141  1  0.50029132  0.74870509  0.26763363  1
  O2-  O142  1  0.50691779  0.74955208  0.60635032  1
  O2-  O143  1  0.50079189  0.74166389  0.93742572  1
  O2-  O144  1  0.07190177  0.17648248  0.10199614  1
  O2-  O145  1  0.06868936  0.17980264  0.42254214  1
  O2-  O146  1  0.07118908  0.17601490  0.76263283  1
  O2-  O147  1  0.06832325  0.68331063  0.10132279  1
  O2-  O148  1  0.06682245  0.67634379  0.42249601  1
  O2-  O149  1  0.07075321  0.68108531  0.76532130  1
  O2-  O150  1  0.56746063  0.17782345  0.10067811  1
  O2-  O151  1  0.57500847  0.18447880  0.42474428  1
  O2-  O152  1  0.57059622  0.17710340  0.75435299  1
  O2-  O153  1  0.57497469  0.68185122  0.08716421  1
  O2-  O154  1  0.57523145  0.67826443  0.43180683  1
  O2-  O155  1  0.57124577  0.68074746  0.75852969  1
  O2-  O156  1  0.17777493  0.42948356  0.23633576  1
  O2-  O157  1  0.18096048  0.42780515  0.57560331  1
  O2-  O158  1  0.18170057  0.42516738  0.89897744  1
  O2-  O159  1  0.17546253  0.93032090  0.23470621  1
  O2-  O160  1  0.18060418  0.92943317  0.57790599  1
  O2-  O161  1  0.17973335  0.92973268  0.90723046  1
  O2-  O162  1  0.68193598  0.42389455  0.24386878  1
  O2-  O163  1  0.67720366  0.43252859  0.56585591  1
  O2-  O164  1  0.68144682  0.42679565  0.90448473  1
  O2-  O165  1  0.68269790  0.93251883  0.23280773  1
  O2-  O166  1  0.67571448  0.92819019  0.57937938  1
  O2-  O167  1  0.67515801  0.93280164  0.90987282  1
  O2-  O168  1  0.42517592  0.31674849  0.09136002  1
  O2-  O169  1  0.42871200  0.32232332  0.42237509  1
  O2-  O170  1  0.43084611  0.32046837  0.76723019  1
  O2-  O171  1  0.43066689  0.82389967  0.09766166  1
  O2-  O172  1  0.43145603  0.81951442  0.43088249  1
  O2-  O173  1  0.42788367  0.82045214  0.76340783  1
  O2-  O174  1  0.92961017  0.31824220  0.09109294  1
  O2-  O175  1  0.92645111  0.32159479  0.42009435  1
  O2-  O176  1  0.92945184  0.31819340  0.76486735  1
  O2-  O177  1  0.92922501  0.82573595  0.09027763  1
  O2-  O178  1  0.92813151  0.82077050  0.42429533  1
  O2-  O179  1  0.93252752  0.82717696  0.75640929  1
  O2-  O180  1  0.32052277  0.07279195  0.23404771  1
  O2-  O181  1  0.32238291  0.07111073  0.57941249  1
  O2-  O182  1  0.32163252  0.06973348  0.90593456  1
  O2-  O183  1  0.32071041  0.56942682  0.24433190  1
  O2-  O184  1  0.31809333  0.57075609  0.56489057  1
  O2-  O185  1  0.31650957  0.57597032  0.90278378  1
  O2-  O186  1  0.82325647  0.07380802  0.24474305  1
  O2-  O187  1  0.81748475  0.06509780  0.56633143  1
  O2-  O188  1  0.82307663  0.06853472  0.90188155  1
  O2-  O189  1  0.82197623  0.56935688  0.24314359  1
  O2-  O190  1  0.82072273  0.57193663  0.56720677  1
  O2-  O191  1  0.82259250  0.56854559  0.90366336  1
  O2-  O192  1  0.04451085  0.08656154  0.27152357  1
  O2-  O193  1  0.04071326  0.07734898  0.59632476  1
  O2-  O194  1  0.04136640  0.08134531  0.93443231  1
  O2-  O195  1  0.03595461  0.58758024  0.27031817  1
  O2-  O196  1  0.04388498  0.58110237  0.59542624  1
  O2-  O197  1  0.04152083  0.58046101  0.93518382  1
  O2-  O198  1  0.54733995  0.08811249  0.27384940  1
  O2-  O199  1  0.54158635  0.08628464  0.60202735  1
  O2-  O200  1  0.53813029  0.08852331  0.92747363  1
  O2-  O201  1  0.54914759  0.57841810  0.26452859  1
  O2-  O202  1  0.54497416  0.58661124  0.60685404  1
  O2-  O203  1  0.55171268  0.58002105  0.94124372  1
  O2-  O204  1  0.16316237  0.20896466  0.27274467  1
  O2-  O205  1  0.17122443  0.20006260  0.59560811  1
  O2-  O206  1  0.16994162  0.20538617  0.93323893  1
  O2-  O207  1  0.16307824  0.70101591  0.27130269  1
  O2-  O208  1  0.16138188  0.71549584  0.59464223  1
  O2-  O209  1  0.16135789  0.71544537  0.93178490  1
  O2-  O210  1  0.66300107  0.21185463  0.27099221  1
  O2-  O211  1  0.66696861  0.19802307  0.60312498  1
  O2-  O212  1  0.67058998  0.20836070  0.93563747  1
  O2-  O213  1  0.67253041  0.70860512  0.26528154  1
  O2-  O214  1  0.66813400  0.70270564  0.60901138  1
  O2-  O215  1  0.66579099  0.70572247  0.93461130  1
  O2-  O216  1  0.08167379  0.45376727  0.06720320  1
  O2-  O217  1  0.08113559  0.46167378  0.40279670  1
  O2-  O218  1  0.08365265  0.44794303  0.72376047  1
  O2-  O219  1  0.08819860  0.95538830  0.06147187  1
  O2-  O220  1  0.08082657  0.95735941  0.40380007  1
  O2-  O221  1  0.08797036  0.95498811  0.73040597  1
  O2-  O222  1  0.57897716  0.45073649  0.07172042  1
  O2-  O223  1  0.58321679  0.45022305  0.39176694  1
  O2-  O224  1  0.58104721  0.45784443  0.73564940  1
  O2-  O225  1  0.58340407  0.96299141  0.06086296  1
  O2-  O226  1  0.58660699  0.96053947  0.40307310  1
  O2-  O227  1  0.58067003  0.95591952  0.72936462  1
  O2-  O228  1  0.21075047  0.32909185  0.06795455  1
  O2-  O229  1  0.20725110  0.33420274  0.40420828  1
  O2-  O230  1  0.20543122  0.33045453  0.72392672  1
  O2-  O231  1  0.20898674  0.83958350  0.06083134  1
  O2-  O232  1  0.20240453  0.82640760  0.40063396  1
  O2-  O233  1  0.21066593  0.83803903  0.72914223  1
  O2-  O234  1  0.71108174  0.33182172  0.07301202  1
  O2-  O235  1  0.71113930  0.33893000  0.39785367  1
  O2-  O236  1  0.70340338  0.32866865  0.73000666  1
  O2-  O237  1  0.69665774  0.83618417  0.06114141  1
  O2-  O238  1  0.71416212  0.83401216  0.40191229  1
  O2-  O239  1  0.69696152  0.83437740  0.73283490  1
  O2-  O240  1  0.45383329  0.41107884  0.26758904  1
  O2-  O241  1  0.46059946  0.41979643  0.59815499  1
  O2-  O242  1  0.44738171  0.42113566  0.94559859  1
  O2-  O243  1  0.45904757  0.92236694  0.26832810  1
  O2-  O244  1  0.45598390  0.91918958  0.59751049  1
  O2-  O245  1  0.46215825  0.91425201  0.92739026  1
  O2-  O246  1  0.95847156  0.41293726  0.26811691  1
  O2-  O247  1  0.95476310  0.41623310  0.59399344  1
  O2-  O248  1  0.95154715  0.41508984  0.94073990  1
  O2-  O249  1  0.95471630  0.91627096  0.27298538  1
  O2-  O250  1  0.95946478  0.91106822  0.60033862  1
  O2-  O251  1  0.95893250  0.91374932  0.93669894  1
  O2-  O252  1  0.33433750  0.29108358  0.27169595  1
  O2-  O253  1  0.33685782  0.28967123  0.59699365  1
  O2-  O254  1  0.33823239  0.29199189  0.93597571  1
  O2-  O255  1  0.32916114  0.79527787  0.26557396  1
  O2-  O256  1  0.33355309  0.78840901  0.59504357  1
  O2-  O257  1  0.33223551  0.79155954  0.93064910  1
  O2-  O258  1  0.83671344  0.29434706  0.26711434  1
  O2-  O259  1  0.83043541  0.28736107  0.59672952  1
  O2-  O260  1  0.83644007  0.29144343  0.94025245  1
  O2-  O261  1  0.83979657  0.79311532  0.26974571  1
  O2-  O262  1  0.82945426  0.80381986  0.61015048  1
  O2-  O263  1  0.82935587  0.80674171  0.94056182  1
  O2-  O264  1  0.41387546  0.04001191  0.05744661  1
  O2-  O265  1  0.42147609  0.04849477  0.40336602  1
  O2-  O266  1  0.41345930  0.04345734  0.73124988  1
  O2-  O267  1  0.41915628  0.55379815  0.07021237  1
  O2-  O268  1  0.41716502  0.54289821  0.39348620  1
  O2-  O269  1  0.41433542  0.54406615  0.73404000  1
  O2-  O270  1  0.91790990  0.03766496  0.07092064  1
  O2-  O271  1  0.91617272  0.04948509  0.39621838  1
  O2-  O272  1  0.91688841  0.03501582  0.73310874  1
  O2-  O273  1  0.91806676  0.54217753  0.07218626  1
  O2-  O274  1  0.90968543  0.53770185  0.39564069  1
  O2-  O275  1  0.92349809  0.54074580  0.73063151  1
  O2-  O276  1  0.29769158  0.16205427  0.05971904  1
  O2-  O277  1  0.29095361  0.16737515  0.40357209  1
  O2-  O278  1  0.29463644  0.16448794  0.73068744  1
  O2-  O279  1  0.28534239  0.67224526  0.06958025  1
  O2-  O280  1  0.29777777  0.66485184  0.39412758  1
  O2-  O281  1  0.28401540  0.66841186  0.73048016  1
  O2-  O282  1  0.79204892  0.16500496  0.07155026  1
  O2-  O283  1  0.79445581  0.16803455  0.39482024  1
  O2-  O284  1  0.79157012  0.16406711  0.73483123  1
  O2-  O285  1  0.79607288  0.67401847  0.06731641  1
  O2-  O286  1  0.79827978  0.66386994  0.39525774  1
  O2-  O287  1  0.80049340  0.67076157  0.73584557  1
