# generated using pymatgen
data_Ca2Al2SiO7
_symmetry_space_group_name_H-M   'P 1'
_cell_length_a   15.46151219
_cell_length_b   15.46057921
_cell_length_c   15.28544547
_cell_angle_alpha   90.00875179
_cell_angle_beta   90.00735505
_cell_angle_gamma   89.98914601
_symmetry_Int_Tables_number   1
_chemical_formula_structural   Ca2Al2SiO7
_chemical_formula_sum   'Ca48 Al48 Si24 O168'
_cell_volume   3653.89287611
_cell_formula_units_Z   24
loop_
 _symmetry_equiv_pos_site_id
 _symmetry_equiv_pos_as_xyz
  1  'x, y, z'
loop_
 _atom_type_symbol
 _atom_type_oxidation_number
  Ca2+  2.0
  Al0+  0.0
  Si0+  0.0
  O2-  -2.0
loop_
 _atom_site_type_symbol
 _atom_site_label
 _atom_site_symmetry_multiplicity
 _atom_site_fract_x
 _atom_site_fract_y
 _atom_site_fract_z
 _atom_site_occupancy
  Ca2+  Ca0  1  0.16554899  0.08007510  0.17370704  1
  Ca2+  Ca1  1  0.16268440  0.08401646  0.50139359  1
  Ca2+  Ca2  1  0.16471700  0.08560485  0.83787670  1
  Ca2+  Ca3  1  0.17791773  0.57735494  0.16975801  1
  Ca2+  Ca4  1  0.17534156  0.57568897  0.50435044  1
  Ca2+  Ca5  1  0.17163811  0.56792166  0.84029384  1
  Ca2+  Ca6  1  0.66706792  0.08534981  0.17236960  1
  Ca2+  Ca7  1  0.65386612  0.08068301  0.50241166  1
  Ca2+  Ca8  1  0.67188859  0.08990421  0.84085726  1
  Ca2+  Ca9  1  0.66836681  0.58225593  0.17662684  1
  Ca2+  Ca10  1  0.66740503  0.56893094  0.50162491  1
  Ca2+  Ca11  1  0.66227666  0.57802856  0.83507579  1
  Ca2+  Ca12  1  0.08575632  0.32369386  0.16077076  1
  Ca2+  Ca13  1  0.08715877  0.32627083  0.49709517  1
  Ca2+  Ca14  1  0.08440905  0.32681256  0.82383730  1
  Ca2+  Ca15  1  0.08587580  0.83339913  0.16617614  1
  Ca2+  Ca16  1  0.07713803  0.83635738  0.49513739  1
  Ca2+  Ca17  1  0.07607046  0.83003714  0.82643233  1
  Ca2+  Ca18  1  0.58345089  0.33138485  0.16650907  1
  Ca2+  Ca19  1  0.58347213  0.32979684  0.49352514  1
  Ca2+  Ca20  1  0.58138402  0.32419194  0.82307028  1
  Ca2+  Ca21  1  0.57512542  0.82879553  0.16099527  1
  Ca2+  Ca22  1  0.57123465  0.83575566  0.49200883  1
  Ca2+  Ca23  1  0.57252825  0.82550919  0.83023082  1
  Ca2+  Ca24  1  0.33832168  0.42638896  0.17190581  1
  Ca2+  Ca25  1  0.33805522  0.41700388  0.50644327  1
  Ca2+  Ca26  1  0.32359243  0.41075324  0.83862692  1
  Ca2+  Ca27  1  0.33262939  0.91549401  0.17576137  1
  Ca2+  Ca28  1  0.33128595  0.91473490  0.50218107  1
  Ca2+  Ca29  1  0.33719880  0.91493686  0.83583185  1
  Ca2+  Ca30  1  0.82483844  0.42465363  0.17646470  1
  Ca2+  Ca31  1  0.82512618  0.41203288  0.50465795  1
  Ca2+  Ca32  1  0.82763984  0.40501153  0.83197976  1
  Ca2+  Ca33  1  0.82324725  0.92429620  0.17289576  1
  Ca2+  Ca34  1  0.82539845  0.91712605  0.50327234  1
  Ca2+  Ca35  1  0.83334346  0.92371436  0.83885898  1
  Ca2+  Ca36  1  0.42943394  0.17099729  0.16649324  1
  Ca2+  Ca37  1  0.42463638  0.18224867  0.49569134  1
  Ca2+  Ca38  1  0.42811101  0.17104192  0.82646039  1
  Ca2+  Ca39  1  0.41140456  0.67353989  0.16144729  1
  Ca2+  Ca40  1  0.41031819  0.67497633  0.49349053  1
  Ca2+  Ca41  1  0.41154853  0.67222773  0.83646542  1
  Ca2+  Ca42  1  0.92562029  0.16106005  0.16233584  1
  Ca2+  Ca43  1  0.92635846  0.17298066  0.50012773  1
  Ca2+  Ca44  1  0.92637367  0.16895866  0.82847184  1
  Ca2+  Ca45  1  0.91369081  0.66667924  0.16493519  1
  Ca2+  Ca46  1  0.91372992  0.66821061  0.49699596  1
  Ca2+  Ca47  1  0.91694925  0.67414810  0.82572892  1
  Al0+  Al48  1  -0.00111199  0.00134118  0.00091063  1
  Al0+  Al49  1  -0.00090910  -0.00087942  0.33342231  1
  Al0+  Al50  1  -0.00108859  -0.00199165  0.66033339  1
  Al0+  Al51  1  -0.00193177  0.49896205  0.00427644  1
  Al0+  Al52  1  0.00211800  0.50182255  0.33565739  1
  Al0+  Al53  1  0.00097339  0.50078664  0.66798901  1
  Al0+  Al54  1  0.49942140  -0.00052320  -0.00735831  1
  Al0+  Al55  1  0.49812876  0.00205248  0.32992248  1
  Al0+  Al56  1  0.49843243  -0.00298615  0.66255655  1
  Al0+  Al57  1  0.49875222  0.50118067  -0.00025083  1
  Al0+  Al58  1  0.50091003  0.50234322  0.33952015  1
  Al0+  Al59  1  0.50173934  0.50237900  0.67239996  1
  Al0+  Al60  1  0.24965029  0.24562341  0.00191430  1
  Al0+  Al61  1  0.25092309  0.24972396  0.32318289  1
  Al0+  Al62  1  0.25357185  0.24745573  0.66447984  1
  Al0+  Al63  1  0.24689291  0.74865921  -0.00231845  1
  Al0+  Al64  1  0.24691608  0.75004782  0.33829536  1
  Al0+  Al65  1  0.24849207  0.75044456  0.66559172  1
  Al0+  Al66  1  0.75268732  0.24960599  0.00428432  1
  Al0+  Al67  1  0.75371552  0.25038056  0.33323395  1
  Al0+  Al68  1  0.75354032  0.24702508  0.66408531  1
  Al0+  Al69  1  0.74733334  0.75037510  -0.00448778  1
  Al0+  Al70  1  0.74984503  0.75401864  0.34094798  1
  Al0+  Al71  1  0.74891635  0.75050019  0.66422298  1
  Al0+  Al72  1  0.18137286  0.42715585  0.67894487  1
  Al0+  Al73  1  0.68030771  0.42834816  0.34857328  1
  Al0+  Al74  1  0.43015318  0.32572736  0.31688596  1
  Al0+  Al75  1  0.82372098  0.57341286  0.34905620  1
  Al0+  Al76  1  0.57320277  0.17992997  0.31754099  1
  Al0+  Al77  1  0.07345532  0.17874748  0.65153532  1
  Al0+  Al78  1  0.17886344  0.93039988  0.34751053  1
  Al0+  Al79  1  0.68099181  0.42725227  0.68246777  1
  Al0+  Al80  1  0.31989222  0.57057758  0.01550311  1
  Al0+  Al81  1  0.32065073  0.57084273  0.34811415  1
  Al0+  Al82  1  0.57307716  0.18100565  0.98654410  1
  Al0+  Al83  1  0.17737426  0.42475767  0.01667928  1
  Al0+  Al84  1  0.67663759  0.93311588  0.34661964  1
  Al0+  Al85  1  0.82077138  0.07074636  0.01411099  1
  Al0+  Al86  1  0.42841807  0.81801382  0.65060953  1
  Al0+  Al87  1  0.57241067  0.67672728  0.98486822  1
  Al0+  Al88  1  0.42641133  0.81993803  0.31979735  1
  Al0+  Al89  1  0.07111805  0.17859164  0.98595068  1
  Al0+  Al90  1  0.43016931  0.32302935  0.65495037  1
  Al0+  Al91  1  0.06931707  0.17893311  0.31734131  1
  Al0+  Al92  1  0.42592822  0.82060565  0.98482697  1
  Al0+  Al93  1  0.92804762  0.82033565  0.65210287  1
  Al0+  Al94  1  0.92996484  0.32274417  0.65201536  1
  Al0+  Al95  1  0.57317422  0.17868847  0.65260977  1
  Si0+  Si96  1  0.32189615  0.57494000  0.68531569  1
  Si0+  Si97  1  0.42857642  0.32187703  0.98445617  1
  Si0+  Si98  1  0.32349144  0.06876835  0.01473284  1
  Si0+  Si99  1  0.07031887  0.67921540  0.31784021  1
  Si0+  Si100  1  0.06882983  0.67727423  0.98567167  1
  Si0+  Si101  1  0.82160858  0.57335392  0.68483479  1
  Si0+  Si102  1  0.67969373  0.42917674  0.01361801  1
  Si0+  Si103  1  0.92849623  0.82073886  0.98708084  1
  Si0+  Si104  1  0.32145846  0.06805162  0.68167072  1
  Si0+  Si105  1  0.82200720  0.06757499  0.68163747  1
  Si0+  Si106  1  0.07111353  0.67822347  0.64939581  1
  Si0+  Si107  1  0.92963143  0.32508372  0.31534761  1
  Si0+  Si108  1  0.92753817  0.82054927  0.31665165  1
  Si0+  Si109  1  0.67706305  0.92794716  0.01437664  1
  Si0+  Si110  1  0.17985132  0.42602583  0.34897060  1
  Si0+  Si111  1  0.32135612  0.07360022  0.34988053  1
  Si0+  Si112  1  0.17786820  0.92929561  0.01279202  1
  Si0+  Si113  1  0.82011313  0.57461225  0.01309463  1
  Si0+  Si114  1  0.67657432  0.92826603  0.68339068  1
  Si0+  Si115  1  0.57265144  0.68128079  0.31998752  1
  Si0+  Si116  1  0.92923117  0.32343951  0.98499120  1
  Si0+  Si117  1  0.57314707  0.67770403  0.64755481  1
  Si0+  Si118  1  0.17714529  0.92912852  0.68252765  1
  Si0+  Si119  1  0.82337730  0.07162506  0.35198845  1
  O2-  O120  1  0.25213462  -0.00362786  0.05494243  1
  O2-  O121  1  0.25209277  0.00549569  0.39514422  1
  O2-  O122  1  0.24776505  -0.00065059  0.72566069  1
  O2-  O123  1  0.25156106  0.49506562  0.06583462  1
  O2-  O124  1  0.25183618  0.49040486  0.39403598  1
  O2-  O125  1  0.25801061  0.50021754  0.72688722  1
  O2-  O126  1  0.74261737  -0.00098772  0.05956403  1
  O2-  O127  1  0.74733002  0.01103982  0.39576364  1
  O2-  O128  1  0.74705825  0.00032613  0.72495755  1
  O2-  O129  1  0.74717284  0.50520933  0.05387243  1
  O2-  O130  1  0.75488411  0.49875236  0.39818840  1
  O2-  O131  1  0.75676525  0.50184930  0.73059427  1
  O2-  O132  1  -0.00337166  0.25534522  0.27006089  1
  O2-  O133  1  0.00671164  0.25580336  0.60221165  1
  O2-  O134  1  0.00184659  0.25867631  0.94123812  1
  O2-  O135  1  -0.00415504  0.74690103  0.27431976  1
  O2-  O136  1  0.00029608  0.74422266  0.60450131  1
  O2-  O137  1  -0.00344790  0.74748946  0.94371502  1
  O2-  O138  1  0.50447796  0.25524704  0.26768507  1
  O2-  O139  1  0.50752449  0.25716785  0.60468415  1
  O2-  O140  1  0.49980424  0.25631815  0.93947650  1
  O2-  O141  1  0.50197443  0.74645879  0.27337231  1
  O2-  O142  1  0.50086227  0.74230099  0.60342301  1
  O2-  O143  1  0.49797223  0.74753962  0.93642933  1
  O2-  O144  1  0.06722601  0.17391754  0.09874240  1
  O2-  O145  1  0.06799994  0.17889258  0.43014164  1
  O2-  O146  1  0.07021963  0.17560757  0.76531884  1
  O2-  O147  1  0.06869707  0.67964471  0.09085454  1
  O2-  O148  1  0.07036288  0.68126503  0.42274520  1
  O2-  O149  1  0.07059153  0.68147894  0.75559648  1
  O2-  O150  1  0.57263466  0.18169698  0.09911591  1
  O2-  O151  1  0.56896970  0.17901994  0.43071521  1
  O2-  O152  1  0.57196491  0.17814393  0.76677699  1
  O2-  O153  1  0.57954874  0.68061395  0.09809542  1
  O2-  O154  1  0.57224881  0.68453665  0.42541901  1
  O2-  O155  1  0.57556086  0.68117767  0.75326877  1
  O2-  O156  1  0.17722252  0.42987056  0.24353850  1
  O2-  O157  1  0.18223958  0.43003461  0.56591185  1
  O2-  O158  1  0.17709147  0.42629596  0.90268595  1
  O2-  O159  1  0.17860555  0.93001503  0.23371046  1
  O2-  O160  1  0.17693093  0.92850594  0.57778651  1
  O2-  O161  1  0.17450587  0.93035886  0.90746542  1
  O2-  O162  1  0.68123997  0.43154462  0.23407233  1
  O2-  O163  1  0.68197681  0.42813282  0.57014416  1
  O2-  O164  1  0.68322324  0.42684004  0.90859196  1
  O2-  O165  1  0.68069450  0.92994972  0.23331881  1
  O2-  O166  1  0.67692417  0.92882305  0.57835359  1
  O2-  O167  1  0.68103399  0.92686600  0.90860013  1
  O2-  O168  1  0.43106095  0.32147475  0.08982865  1
  O2-  O169  1  0.42935811  0.32385034  0.43031162  1
  O2-  O170  1  0.42866141  0.31715420  0.76891703  1
  O2-  O171  1  0.42520823  0.82068531  0.09827806  1
  O2-  O172  1  0.42633451  0.81822057  0.43291555  1
  O2-  O173  1  0.42844572  0.81820952  0.76363066  1
  O2-  O174  1  0.92837041  0.32384551  0.09041643  1
  O2-  O175  1  0.93168380  0.32493554  0.42069483  1
  O2-  O176  1  0.92957634  0.31793424  0.76608558  1
  O2-  O177  1  0.92868947  0.81947991  0.09215995  1
  O2-  O178  1  0.92932749  0.82140779  0.42156810  1
  O2-  O179  1  0.93093174  0.82064610  0.76613801  1
  O2-  O180  1  0.32041507  0.07058220  0.24374708  1
  O2-  O181  1  0.32141259  0.06536745  0.57700509  1
  O2-  O182  1  0.32299593  0.06915147  0.90933888  1
  O2-  O183  1  0.31672028  0.57378344  0.23525882  1
  O2-  O184  1  0.31800424  0.57873984  0.57976733  1
  O2-  O185  1  0.31478467  0.57201311  0.90199668  1
  O2-  O186  1  0.82615852  0.06608661  0.24609488  1
  O2-  O187  1  0.82500914  0.06396253  0.57698793  1
  O2-  O188  1  0.82300199  0.06773933  0.90077858  1
  O2-  O189  1  0.82107944  0.57395619  0.23440021  1
  O2-  O190  1  0.81857117  0.57585449  0.57981437  1
  O2-  O191  1  0.82308596  0.57697867  0.90841897  1
  O2-  O192  1  0.03516715  0.08192530  0.26468068  1
  O2-  O193  1  0.03969237  0.08221006  0.59827453  1
  O2-  O194  1  0.03542833  0.08307298  0.93141385  1
  O2-  O195  1  0.04641399  0.58681320  0.26923750  1
  O2-  O196  1  0.04884158  0.58439422  0.60364931  1
  O2-  O197  1  0.04031377  0.58541420  0.93887811  1
  O2-  O198  1  0.54024855  0.08340701  0.26252151  1
  O2-  O199  1  0.53813299  0.08205133  0.60120073  1
  O2-  O200  1  0.54352523  0.08436268  0.93211669  1
  O2-  O201  1  0.55135945  0.58622776  0.27662580  1
  O2-  O202  1  0.55172803  0.58208334  0.60547955  1
  O2-  O203  1  0.54535991  0.57824664  0.93088540  1
  O2-  O204  1  0.16621398  0.20478554  0.26175987  1
  O2-  O205  1  0.17303643  0.20066358  0.59962093  1
  O2-  O206  1  0.17034690  0.20137732  0.93343028  1
  O2-  O207  1  0.15913463  0.71328878  0.26906959  1
  O2-  O208  1  0.16281915  0.70778678  0.60266870  1
  O2-  O209  1  0.15790085  0.70707463  0.93509758  1
  O2-  O210  1  0.67492775  0.20240666  0.26795576  1
  O2-  O211  1  0.67370586  0.19701828  0.60189270  1
  O2-  O212  1  0.67133807  0.21086286  0.93506403  1
  O2-  O213  1  0.66615569  0.71033932  0.27470031  1
  O2-  O214  1  0.66506440  0.70635845  0.60091282  1
  O2-  O215  1  0.66922583  0.70703017  0.92731539  1
  O2-  O216  1  0.07913790  0.45631426  0.06939222  1
  O2-  O217  1  0.08792511  0.45601895  0.39605048  1
  O2-  O218  1  0.08457195  0.45938358  0.73357107  1
  O2-  O219  1  0.08768436  0.95934630  0.06231334  1
  O2-  O220  1  0.08155184  0.96018754  0.40106253  1
  O2-  O221  1  0.08442439  0.95621877  0.72929192  1
  O2-  O222  1  0.58629617  0.45249517  0.05890459  1
  O2-  O223  1  0.58401320  0.45898185  0.40380994  1
  O2-  O224  1  0.58494114  0.45904475  0.73854868  1
  O2-  O225  1  0.58161445  0.95019023  0.05711613  1
  O2-  O226  1  0.57888600  0.96094498  0.40022747  1
  O2-  O227  1  0.58384681  0.95387708  0.72990289  1
  O2-  O228  1  0.20222125  0.32449427  0.06702012  1
  O2-  O229  1  0.20110076  0.32979794  0.39032491  1
  O2-  O230  1  0.21097068  0.32933567  0.73248073  1
  O2-  O231  1  0.20021990  0.83562987  0.05884283  1
  O2-  O232  1  0.20714839  0.83472924  0.40383874  1
  O2-  O233  1  0.20422606  0.83669961  0.73023363  1
  O2-  O234  1  0.71258214  0.34060082  0.06394789  1
  O2-  O235  1  0.70908762  0.32934958  0.40044252  1
  O2-  O236  1  0.71419041  0.32959324  0.73493265  1
  O2-  O237  1  0.70660412  0.83545279  0.06096005  1
  O2-  O238  1  0.71139636  0.83976243  0.40444565  1
  O2-  O239  1  0.70711192  0.83667026  0.73010797  1
  O2-  O240  1  0.45833817  0.42571429  0.26651696  1
  O2-  O241  1  0.44996956  0.42570433  0.60860419  1
  O2-  O242  1  0.44799429  0.41693698  0.93972201  1
  O2-  O243  1  0.45428165  0.91741493  0.26720780  1
  O2-  O244  1  0.46015006  0.91346849  0.59620555  1
  O2-  O245  1  0.45501731  0.91745602  0.92883139  1
  O2-  O246  1  0.95539937  0.41949906  0.27004743  1
  O2-  O247  1  0.94964549  0.42443353  0.60303491  1
  O2-  O248  1  0.94784438  0.41894672  0.93917233  1
  O2-  O249  1  0.95916643  0.91045173  0.26809433  1
  O2-  O250  1  0.96146031  0.91342158  0.59473091  1
  O2-  O251  1  0.96073508  0.91058569  0.93889622  1
  O2-  O252  1  0.33309239  0.29638070  0.26146527  1
  O2-  O253  1  0.33561043  0.28904976  0.59869549  1
  O2-  O254  1  0.33570408  0.29065291  0.94040723  1
  O2-  O255  1  0.32877733  0.78798664  0.26830748  1
  O2-  O256  1  0.32962525  0.79103610  0.59892091  1
  O2-  O257  1  0.32683835  0.79265566  0.93098495  1
  O2-  O258  1  0.83573549  0.30138510  0.26932011  1
  O2-  O259  1  0.83560238  0.28699415  0.59652807  1
  O2-  O260  1  0.83761380  0.29177819  0.93859125  1
  O2-  O261  1  0.83484689  0.79473596  0.26989006  1
  O2-  O262  1  0.83097013  0.79220688  0.59843777  1
  O2-  O263  1  0.83684169  0.79635999  0.93783712  1
  O2-  O264  1  0.41520589  0.04044726  0.06204340  1
  O2-  O265  1  0.41406839  0.04753462  0.39594707  1
  O2-  O266  1  0.41161869  0.03521078  0.73060062  1
  O2-  O267  1  0.42068340  0.54836591  0.06713492  1
  O2-  O268  1  0.41831009  0.54906109  0.40329255  1
  O2-  O269  1  0.41806823  0.55900116  0.72907958  1
  O2-  O270  1  0.91492142  0.03386727  0.06993595  1
  O2-  O271  1  0.91255940  0.03572194  0.39989765  1
  O2-  O272  1  0.91234072  0.03345897  0.72971697  1
  O2-  O273  1  0.91072374  0.54681561  0.06335889  1
  O2-  O274  1  0.92422434  0.55035869  0.40050612  1
  O2-  O275  1  0.91771037  0.55481805  0.72909007  1
  O2-  O276  1  0.29538287  0.15900926  0.06420903  1
  O2-  O277  1  0.29432061  0.16788228  0.39316670  1
  O2-  O278  1  0.29693021  0.15996450  0.73022802  1
  O2-  O279  1  0.28504285  0.66849667  0.06730253  1
  O2-  O280  1  0.28093378  0.66352692  0.40420418  1
  O2-  O281  1  0.28781986  0.66613925  0.73269764  1
  O2-  O282  1  0.79466639  0.16728560  0.07049662  1
  O2-  O283  1  0.80946106  0.16884715  0.39310518  1
  O2-  O284  1  0.79920255  0.16025532  0.72921179  1
  O2-  O285  1  0.79440214  0.66725307  0.06081634  1
  O2-  O286  1  0.79614987  0.67161326  0.40226070  1
  O2-  O287  1  0.79227277  0.66687081  0.73150495  1
