# generated using pymatgen
data_Ca2Al2SiO7
_symmetry_space_group_name_H-M   'P 1'
_cell_length_a   15.46416591
_cell_length_b   15.46348539
_cell_length_c   15.28736033
_cell_angle_alpha   89.99566112
_cell_angle_beta   90.01517910
_cell_angle_gamma   89.97806381
_symmetry_Int_Tables_number   1
_chemical_formula_structural   Ca2Al2SiO7
_chemical_formula_sum   'Ca48 Al48 Si24 O168'
_cell_volume   3655.66459593
_cell_formula_units_Z   24
loop_
 _symmetry_equiv_pos_site_id
 _symmetry_equiv_pos_as_xyz
  1  'x, y, z'
loop_
 _atom_type_symbol
 _atom_type_oxidation_number
  Ca2+  2.0
  Al0+  0.0
  Si0+  0.0
  O2-  -2.0
loop_
 _atom_site_type_symbol
 _atom_site_label
 _atom_site_symmetry_multiplicity
 _atom_site_fract_x
 _atom_site_fract_y
 _atom_site_fract_z
 _atom_site_occupancy
  Ca2+  Ca0  1  0.16613477  0.07993499  0.17540793  1
  Ca2+  Ca1  1  0.15712262  0.07059840  0.50286221  1
  Ca2+  Ca2  1  0.16250065  0.07911130  0.83456778  1
  Ca2+  Ca3  1  0.16531911  0.57100145  0.17685742  1
  Ca2+  Ca4  1  0.16001781  0.58380377  0.50219474  1
  Ca2+  Ca5  1  0.16734041  0.58088113  0.83997173  1
  Ca2+  Ca6  1  0.67056862  0.08878347  0.17680044  1
  Ca2+  Ca7  1  0.67337584  0.08555244  0.49942023  1
  Ca2+  Ca8  1  0.66650700  0.08191141  0.83896148  1
  Ca2+  Ca9  1  0.66887392  0.57968806  0.17553352  1
  Ca2+  Ca10  1  0.67431566  0.58195174  0.50922209  1
  Ca2+  Ca11  1  0.66767212  0.59138536  0.83379610  1
  Ca2+  Ca12  1  0.09129085  0.32467524  0.16163524  1
  Ca2+  Ca13  1  0.08675679  0.32197393  0.49172601  1
  Ca2+  Ca14  1  0.09292587  0.32218106  0.83137295  1
  Ca2+  Ca15  1  0.08047013  0.83123988  0.17311648  1
  Ca2+  Ca16  1  0.07907159  0.82530914  0.49441710  1
  Ca2+  Ca17  1  0.07872332  0.82779577  0.81912386  1
  Ca2+  Ca18  1  0.58563608  0.32575608  0.16239239  1
  Ca2+  Ca19  1  0.59086031  0.33344091  0.49385849  1
  Ca2+  Ca20  1  0.58262469  0.33373441  0.83086157  1
  Ca2+  Ca21  1  0.57077243  0.83055033  0.15872143  1
  Ca2+  Ca22  1  0.57303949  0.83188863  0.49633488  1
  Ca2+  Ca23  1  0.57314562  0.82348194  0.82744070  1
  Ca2+  Ca24  1  0.32560205  0.40964531  0.16844427  1
  Ca2+  Ca25  1  0.32623372  0.41664880  0.50092493  1
  Ca2+  Ca26  1  0.33015574  0.41728578  0.84183030  1
  Ca2+  Ca27  1  0.33077414  0.91398119  0.17536742  1
  Ca2+  Ca28  1  0.32348521  0.90755596  0.50339358  1
  Ca2+  Ca29  1  0.32952754  0.90856100  0.83428174  1
  Ca2+  Ca30  1  0.82586261  0.42385484  0.17998883  1
  Ca2+  Ca31  1  0.82453054  0.42926199  0.50333463  1
  Ca2+  Ca32  1  0.82957592  0.42390175  0.83140015  1
  Ca2+  Ca33  1  0.83203544  0.92329624  0.17708346  1
  Ca2+  Ca34  1  0.84755132  0.92046980  0.50155117  1
  Ca2+  Ca35  1  0.83426707  0.91376074  0.83397426  1
  Ca2+  Ca36  1  0.42970566  0.17132333  0.16178364  1
  Ca2+  Ca37  1  0.42507006  0.16832387  0.49338694  1
  Ca2+  Ca38  1  0.41822132  0.17356002  0.83629759  1
  Ca2+  Ca39  1  0.41862524  0.67713050  0.16260309  1
  Ca2+  Ca40  1  0.41808230  0.67596339  0.49846411  1
  Ca2+  Ca41  1  0.42423074  0.67285528  0.82728635  1
  Ca2+  Ca42  1  0.92671395  0.16312275  0.16784741  1
  Ca2+  Ca43  1  0.92521670  0.16535960  0.49315864  1
  Ca2+  Ca44  1  0.92863118  0.16930503  0.82835652  1
  Ca2+  Ca45  1  0.91687384  0.66510576  0.17094145  1
  Ca2+  Ca46  1  0.91915265  0.67039285  0.49390526  1
  Ca2+  Ca47  1  0.92211843  0.67139170  0.82064439  1
  Al0+  Al48  1  -0.00012676  0.00055158  -0.00276679  1
  Al0+  Al49  1  0.00038835  -0.00044894  0.33247061  1
  Al0+  Al50  1  0.00229694  0.00063425  0.66757578  1
  Al0+  Al51  1  -0.00092425  0.49907321  0.00510018  1
  Al0+  Al52  1  -0.00096604  0.49846780  0.33877990  1
  Al0+  Al53  1  -0.00236607  0.49650917  0.66998935  1
  Al0+  Al54  1  0.49862865  -0.00015988  -0.00689648  1
  Al0+  Al55  1  0.50043767  0.00239851  0.32545757  1
  Al0+  Al56  1  0.49944807  0.00346065  0.66517985  1
  Al0+  Al57  1  0.50094663  0.50103950  -0.00381545  1
  Al0+  Al58  1  0.49618210  0.50002482  0.33647275  1
  Al0+  Al59  1  0.49791079  0.49883128  0.66663967  1
  Al0+  Al60  1  0.25140565  0.24660235  -0.00350919  1
  Al0+  Al61  1  0.25216272  0.24852998  0.33470577  1
  Al0+  Al62  1  0.25277297  0.24760015  0.66252572  1
  Al0+  Al63  1  0.24753744  0.74914330  0.00004436  1
  Al0+  Al64  1  0.24880082  0.74888350  0.32808615  1
  Al0+  Al65  1  0.24877947  0.74918713  0.66645784  1
  Al0+  Al66  1  0.75361869  0.25066442  -0.00318672  1
  Al0+  Al67  1  0.75230919  0.24894068  0.33798957  1
  Al0+  Al68  1  0.75095705  0.25056117  0.67264912  1
  Al0+  Al69  1  0.75015512  0.75241215  0.00006561  1
  Al0+  Al70  1  0.74859241  0.75182454  0.33286449  1
  Al0+  Al71  1  0.74933971  0.75267160  0.66417523  1
  Al0+  Al72  1  0.57296941  0.67988383  0.98626821  1
  Al0+  Al73  1  0.42827747  0.82297390  0.65060253  1
  Al0+  Al74  1  0.57039368  0.67809791  0.64981818  1
  Al0+  Al75  1  0.07191586  0.17920151  0.31932923  1
  Al0+  Al76  1  0.57304500  0.18251811  0.32176726  1
  Al0+  Al77  1  0.92752787  0.82132992  0.31689178  1
  Al0+  Al78  1  0.42915978  0.82082978  0.31905711  1
  Al0+  Al79  1  0.82028296  0.57387377  0.68371822  1
  Al0+  Al80  1  0.18074192  0.92902397  0.34597611  1
  Al0+  Al81  1  0.17954146  0.42642279  0.34786238  1
  Al0+  Al82  1  0.92873606  0.82166290  0.65268310  1
  Al0+  Al83  1  0.57497690  0.17960715  0.98382263  1
  Al0+  Al84  1  0.82111257  0.06881890  0.34712541  1
  Al0+  Al85  1  0.42983494  0.32059980  0.98572689  1
  Al0+  Al86  1  0.06996503  0.67585363  0.31662807  1
  Al0+  Al87  1  0.07091639  0.67477532  0.65375833  1
  Al0+  Al88  1  0.42495795  0.82100734  0.98364227  1
  Al0+  Al89  1  0.18077858  0.42803236  0.01289965  1
  Al0+  Al90  1  0.18113712  0.92989424  0.68092508  1
  Al0+  Al91  1  0.07049207  0.17905512  0.98583206  1
  Al0+  Al92  1  0.67716786  0.42940354  0.68495907  1
  Al0+  Al93  1  0.07189731  0.18112956  0.65136889  1
  Al0+  Al94  1  0.67683135  0.42909070  0.34658799  1
  Al0+  Al95  1  0.81989624  0.57453057  0.34915761  1
  Si0+  Si96  1  0.42928168  0.32099647  0.65021359  1
  Si0+  Si97  1  0.67938488  0.42852265  0.01478391  1
  Si0+  Si98  1  0.82041439  0.57306821  0.01599551  1
  Si0+  Si99  1  0.67895584  0.93079493  0.01379708  1
  Si0+  Si100  1  0.82199034  0.07113774  0.01447602  1
  Si0+  Si101  1  0.57099438  0.67652455  0.31802994  1
  Si0+  Si102  1  0.92880486  0.32481136  0.98284171  1
  Si0+  Si103  1  0.93035792  0.82119488  0.98570791  1
  Si0+  Si104  1  0.32265853  0.57290077  0.01711061  1
  Si0+  Si105  1  0.67555325  0.93127243  0.68171843  1
  Si0+  Si106  1  0.32139021  0.06928004  0.01542889  1
  Si0+  Si107  1  0.17936882  0.42494463  0.68092558  1
  Si0+  Si108  1  0.82168235  0.07022264  0.68377050  1
  Si0+  Si109  1  0.42718883  0.32359360  0.31752402  1
  Si0+  Si110  1  0.31980895  0.57276565  0.35074831  1
  Si0+  Si111  1  0.06827069  0.67651508  0.98699433  1
  Si0+  Si112  1  0.17720017  0.92839442  0.01568739  1
  Si0+  Si113  1  0.32450239  0.07386006  0.68550667  1
  Si0+  Si114  1  0.92597449  0.32019410  0.64913404  1
  Si0+  Si115  1  0.92929488  0.32059917  0.31799014  1
  Si0+  Si116  1  0.32446329  0.07114817  0.34938133  1
  Si0+  Si117  1  0.57341463  0.18062896  0.65152856  1
  Si0+  Si118  1  0.31869892  0.56977114  0.68190754  1
  Si0+  Si119  1  0.67498919  0.92949703  0.34873181  1
  O2-  O120  1  0.25230444  -0.00433066  0.05683435  1
  O2-  O121  1  0.25642511  0.00254577  0.39362617  1
  O2-  O122  1  0.25766714  0.00273689  0.72898752  1
  O2-  O123  1  0.25571421  0.50209018  0.06090021  1
  O2-  O124  1  0.25095503  0.50389456  0.39508615  1
  O2-  O125  1  0.24446522  0.50101738  0.72367403  1
  O2-  O126  1  0.74585873  0.00565519  0.05645489  1
  O2-  O127  1  0.74827298  -0.00758771  0.39449959  1
  O2-  O128  1  0.75023920  -0.00097924  0.72507639  1
  O2-  O129  1  0.74832730  0.50197407  0.05641703  1
  O2-  O130  1  0.74315618  0.50599102  0.39644620  1
  O2-  O131  1  0.74543746  0.50501073  0.73568202  1
  O2-  O132  1  0.00156189  0.25707193  0.27108471  1
  O2-  O133  1  -0.00136740  0.25635352  0.60443941  1
  O2-  O134  1  -0.00039576  0.25752835  0.93930819  1
  O2-  O135  1  -0.00376954  0.74640769  0.26593671  1
  O2-  O136  1  -0.00379404  0.74451646  0.60506920  1
  O2-  O137  1  -0.00008172  0.74918817  0.94398000  1
  O2-  O138  1  0.50140613  0.25998660  0.27546563  1
  O2-  O139  1  0.50469294  0.25380154  0.60980142  1
  O2-  O140  1  0.50519289  0.25326041  0.93319713  1
  O2-  O141  1  0.50517614  0.74736462  0.27283342  1
  O2-  O142  1  0.50067925  0.75218509  0.60003549  1
  O2-  O143  1  0.49712749  0.74805758  0.93662930  1
  O2-  O144  1  0.06882502  0.17670994  0.09862780  1
  O2-  O145  1  0.06975320  0.17929942  0.43220778  1
  O2-  O146  1  0.07102541  0.18218304  0.76504994  1
  O2-  O147  1  0.06682363  0.67528438  0.09148056  1
  O2-  O148  1  0.07090499  0.67740699  0.42972670  1
  O2-  O149  1  0.07160034  0.67763887  0.76860212  1
  O2-  O150  1  0.57605309  0.18092720  0.09732689  1
  O2-  O151  1  0.57087468  0.18135377  0.43517641  1
  O2-  O152  1  0.57285958  0.17994517  0.75653977  1
  O2-  O153  1  0.57482475  0.68325066  0.09998408  1
  O2-  O154  1  0.56810532  0.67664183  0.42322598  1
  O2-  O155  1  0.56720429  0.67996837  0.76357114  1
  O2-  O156  1  0.18380127  0.42430767  0.23449582  1
  O2-  O157  1  0.18391810  0.42209419  0.57629895  1
  O2-  O158  1  0.18132690  0.43099147  0.89928877  1
  O2-  O159  1  0.18205803  0.93164202  0.23202839  1
  O2-  O160  1  0.18060227  0.93102782  0.56831363  1
  O2-  O161  1  0.17489379  0.92939188  0.91073219  1
  O2-  O162  1  0.67925074  0.42875347  0.23213126  1
  O2-  O163  1  0.68069729  0.42635290  0.57191662  1
  O2-  O164  1  0.68181547  0.42682812  0.91019105  1
  O2-  O165  1  0.67422955  0.93370158  0.24262531  1
  O2-  O166  1  0.67042167  0.93639155  0.57724659  1
  O2-  O167  1  0.68323617  0.92996595  0.90860446  1
  O2-  O168  1  0.42997143  0.31663296  0.09909474  1
  O2-  O169  1  0.42438104  0.32083318  0.42328843  1
  O2-  O170  1  0.42560306  0.31897592  0.75510801  1
  O2-  O171  1  0.42639969  0.82097242  0.09742237  1
  O2-  O172  1  0.42966146  0.82037256  0.43171954  1
  O2-  O173  1  0.42957729  0.82046952  0.76411746  1
  O2-  O174  1  0.92654127  0.32454041  0.08803699  1
  O2-  O175  1  0.92945088  0.31636741  0.42339486  1
  O2-  O176  1  0.92561320  0.31703137  0.75529850  1
  O2-  O177  1  0.92989661  0.82325469  0.09018184  1
  O2-  O178  1  0.93221660  0.82343346  0.42962662  1
  O2-  O179  1  0.93211820  0.82284999  0.76756977  1
  O2-  O180  1  0.32433377  0.07121559  0.24345514  1
  O2-  O181  1  0.32628985  0.07765354  0.58041145  1
  O2-  O182  1  0.31980899  0.07132791  0.91028178  1
  O2-  O183  1  0.32081638  0.57152685  0.24502087  1
  O2-  O184  1  0.32018839  0.56747284  0.57695278  1
  O2-  O185  1  0.31884428  0.57420805  0.91128414  1
  O2-  O186  1  0.81953064  0.06947476  0.23335561  1
  O2-  O187  1  0.82097860  0.07171801  0.57897108  1
  O2-  O188  1  0.82440074  0.06784668  0.90926531  1
  O2-  O189  1  0.81818640  0.57071762  0.23432264  1
  O2-  O190  1  0.82058175  0.57120977  0.57091010  1
  O2-  O191  1  0.82239818  0.57390339  0.91137158  1
  O2-  O192  1  0.03728807  0.08484983  0.26429416  1
  O2-  O193  1  0.03790707  0.08519632  0.60045999  1
  O2-  O194  1  0.03481117  0.08441574  0.93006777  1
  O2-  O195  1  0.04258757  0.57541434  0.26601823  1
  O2-  O196  1  0.04837010  0.57325905  0.60532574  1
  O2-  O197  1  0.03991937  0.58503454  0.93935440  1
  O2-  O198  1  0.54058241  0.08864510  0.26336315  1
  O2-  O199  1  0.54375803  0.09044568  0.60293555  1
  O2-  O200  1  0.54431487  0.08226489  0.93048214  1
  O2-  O201  1  0.54203630  0.58343525  0.27169376  1
  O2-  O202  1  0.53970055  0.57935552  0.59952845  1
  O2-  O203  1  0.55065769  0.58045976  0.93386778  1
  O2-  O204  1  0.17052229  0.20693739  0.26750138  1
  O2-  O205  1  0.16901549  0.20937640  0.59801528  1
  O2-  O206  1  0.16696945  0.20664225  0.93083908  1
  O2-  O207  1  0.16698225  0.70579161  0.26141548  1
  O2-  O208  1  0.16839047  0.70375874  0.60134419  1
  O2-  O209  1  0.16111206  0.70177744  0.94084172  1
  O2-  O210  1  0.67036095  0.21064850  0.26789418  1
  O2-  O211  1  0.66675418  0.20630568  0.60665344  1
  O2-  O212  1  0.67456072  0.20449267  0.93117973  1
  O2-  O213  1  0.66546031  0.69848152  0.27300823  1
  O2-  O214  1  0.66895721  0.70630518  0.59925572  1
  O2-  O215  1  0.66973790  0.71390478  0.93215358  1
  O2-  O216  1  0.08357544  0.45681983  0.06721441  1
  O2-  O217  1  0.08199179  0.45113149  0.40160821  1
  O2-  O218  1  0.08481473  0.44247994  0.72683205  1
  O2-  O219  1  0.08638832  0.96117755  0.06249636  1
  O2-  O220  1  0.08534590  0.96238561  0.39901845  1
  O2-  O221  1  0.08582686  0.96448017  0.73723665  1
  O2-  O222  1  0.58598795  0.45256093  0.06066172  1
  O2-  O223  1  0.57521458  0.44828692  0.39693828  1
  O2-  O224  1  0.57541145  0.45121896  0.73432287  1
  O2-  O225  1  0.58445359  0.95412360  0.05779182  1
  O2-  O226  1  0.58367490  0.96230853  0.39512929  1
  O2-  O227  1  0.58620968  0.96413789  0.73216119  1
  O2-  O228  1  0.21234335  0.33001631  0.06419134  1
  O2-  O229  1  0.21510979  0.33147465  0.40328730  1
  O2-  O230  1  0.21531735  0.33531566  0.72877936  1
  O2-  O231  1  0.20021971  0.83468430  0.06200393  1
  O2-  O232  1  0.21063795  0.83125219  0.39728012  1
  O2-  O233  1  0.20949775  0.83221529  0.73585565  1
  O2-  O234  1  0.71060052  0.33676429  0.06139070  1
  O2-  O235  1  0.71082749  0.33321757  0.40097073  1
  O2-  O236  1  0.71026232  0.33172897  0.73945094  1
  O2-  O237  1  0.71062427  0.84120617  0.06353537  1
  O2-  O238  1  0.69232946  0.83358610  0.39177346  1
  O2-  O239  1  0.70080664  0.83894039  0.72899515  1
  O2-  O240  1  0.44439854  0.41927976  0.27265504  1
  O2-  O241  1  0.45100969  0.41346953  0.60262823  1
  O2-  O242  1  0.45161836  0.42062931  0.93362252  1
  O2-  O243  1  0.45895638  0.91710959  0.26344756  1
  O2-  O244  1  0.45467063  0.92324964  0.60054998  1
  O2-  O245  1  0.45219520  0.91886251  0.93034479  1
  O2-  O246  1  0.94903896  0.41580079  0.27384741  1
  O2-  O247  1  0.94652596  0.41541850  0.60632172  1
  O2-  O248  1  0.95291320  0.41891407  0.93691560  1
  O2-  O249  1  0.96052666  0.91813047  0.26230788  1
  O2-  O250  1  0.96216523  0.91886299  0.60166345  1
  O2-  O251  1  0.95875404  0.91201027  0.93660001  1
  O2-  O252  1  0.33708723  0.29070898  0.26907706  1
  O2-  O253  1  0.34057758  0.28798921  0.59975532  1
  O2-  O254  1  0.33430901  0.28655843  0.92956650  1
  O2-  O255  1  0.33440675  0.78813583  0.26314709  1
  O2-  O256  1  0.33076235  0.79052579  0.59980587  1
  O2-  O257  1  0.32563404  0.79242470  0.93218967  1
  O2-  O258  1  0.83780937  0.28957742  0.27060940  1
  O2-  O259  1  0.83410356  0.28872888  0.60381595  1
  O2-  O260  1  0.83768186  0.29615418  0.93352520  1
  O2-  O261  1  0.82631040  0.79934893  0.26461900  1
  O2-  O262  1  0.82749622  0.80592571  0.60231457  1
  O2-  O263  1  0.83806968  0.79521129  0.93880431  1
  O2-  O264  1  0.41500440  0.04422823  0.06140410  1
  O2-  O265  1  0.41884190  0.04643842  0.39438629  1
  O2-  O266  1  0.41905693  0.05215987  0.73220207  1
  O2-  O267  1  0.41799324  0.55079336  0.06104621  1
  O2-  O268  1  0.41238517  0.54729346  0.39933539  1
  O2-  O269  1  0.40860036  0.53829227  0.73102782  1
  O2-  O270  1  0.91199070  0.03761747  0.06268433  1
  O2-  O271  1  0.91735187  0.03892990  0.40158935  1
  O2-  O272  1  0.91282135  0.04166705  0.73244386  1
  O2-  O273  1  0.91110173  0.54378578  0.06497335  1
  O2-  O274  1  0.91653405  0.54257000  0.40240270  1
  O2-  O275  1  0.91796305  0.54038452  0.73892094  1
  O2-  O276  1  0.29133767  0.15968267  0.06379815  1
  O2-  O277  1  0.30063263  0.16452741  0.39635785  1
  O2-  O278  1  0.29402857  0.16623601  0.73285048  1
  O2-  O279  1  0.29382416  0.66557756  0.06417586  1
  O2-  O280  1  0.29308653  0.66576672  0.39629804  1
  O2-  O281  1  0.29297698  0.66133205  0.73076693  1
  O2-  O282  1  0.80053892  0.16536771  0.05994846  1
  O2-  O283  1  0.78926678  0.16326278  0.40419350  1
  O2-  O284  1  0.79326369  0.16089467  0.73339957  1
  O2-  O285  1  0.79337712  0.66548560  0.06303494  1
  O2-  O286  1  0.79643423  0.67491314  0.39973766  1
  O2-  O287  1  0.79539717  0.67490124  0.73490693  1
