# generated using pymatgen
data_Ca2Al2SiO7
_symmetry_space_group_name_H-M   'P 1'
_cell_length_a   15.46673471
_cell_length_b   15.46968695
_cell_length_c   15.29064326
_cell_angle_alpha   90.03345319
_cell_angle_beta   90.00747369
_cell_angle_gamma   90.01684197
_symmetry_Int_Tables_number   1
_chemical_formula_structural   Ca2Al2SiO7
_chemical_formula_sum   'Ca48 Al48 Si24 O168'
_cell_volume   3658.52326889
_cell_formula_units_Z   24
loop_
 _symmetry_equiv_pos_site_id
 _symmetry_equiv_pos_as_xyz
  1  'x, y, z'
loop_
 _atom_type_symbol
 _atom_type_oxidation_number
  Ca2+  2.0
  Al0+  0.0
  Si0+  0.0
  O2-  -2.0
loop_
 _atom_site_type_symbol
 _atom_site_label
 _atom_site_symmetry_multiplicity
 _atom_site_fract_x
 _atom_site_fract_y
 _atom_site_fract_z
 _atom_site_occupancy
  Ca2+  Ca0  1  0.17097648  0.07850132  0.16127949  1
  Ca2+  Ca1  1  0.17167063  0.07601160  0.50872897  1
  Ca2+  Ca2  1  0.17735262  0.07339760  0.83690771  1
  Ca2+  Ca3  1  0.17138219  0.57692084  0.17578655  1
  Ca2+  Ca4  1  0.17274983  0.58405271  0.50408050  1
  Ca2+  Ca5  1  0.17119342  0.57489539  0.83402342  1
  Ca2+  Ca6  1  0.66461241  0.06681940  0.17010028  1
  Ca2+  Ca7  1  0.66840665  0.07644878  0.50074954  1
  Ca2+  Ca8  1  0.66919670  0.07581234  0.84011209  1
  Ca2+  Ca9  1  0.66087363  0.57468862  0.16958124  1
  Ca2+  Ca10  1  0.66678326  0.57324025  0.50643058  1
  Ca2+  Ca11  1  0.65720713  0.57916158  0.83614496  1
  Ca2+  Ca12  1  0.08267665  0.34094631  0.16229869  1
  Ca2+  Ca13  1  0.07590472  0.34492971  0.49535669  1
  Ca2+  Ca14  1  0.08170321  0.33863788  0.82579066  1
  Ca2+  Ca15  1  0.07766615  0.82951544  0.15951958  1
  Ca2+  Ca16  1  0.08239719  0.82825540  0.49003281  1
  Ca2+  Ca17  1  0.08079471  0.84483050  0.83058949  1
  Ca2+  Ca18  1  0.57812569  0.33672332  0.15769527  1
  Ca2+  Ca19  1  0.58586200  0.33562660  0.49617577  1
  Ca2+  Ca20  1  0.57772855  0.33952799  0.83113010  1
  Ca2+  Ca21  1  0.58174742  0.82725869  0.15399619  1
  Ca2+  Ca22  1  0.57732881  0.82794113  0.49783587  1
  Ca2+  Ca23  1  0.57579686  0.82537325  0.82957724  1
  Ca2+  Ca24  1  0.32661350  0.42128683  0.17203668  1
  Ca2+  Ca25  1  0.32134937  0.43108492  0.50555012  1
  Ca2+  Ca26  1  0.32895129  0.42138068  0.84064916  1
  Ca2+  Ca27  1  0.33763056  0.91806430  0.16548040  1
  Ca2+  Ca28  1  0.32732257  0.92029103  0.51398804  1
  Ca2+  Ca29  1  0.33551714  0.92168043  0.83956520  1
  Ca2+  Ca30  1  0.82220880  0.41516212  0.17262541  1
  Ca2+  Ca31  1  0.82759286  0.40905831  0.50535272  1
  Ca2+  Ca32  1  0.82318119  0.41664762  0.83588410  1
  Ca2+  Ca33  1  0.82520153  0.90353718  0.16924947  1
  Ca2+  Ca34  1  0.82807977  0.90736763  0.49907587  1
  Ca2+  Ca35  1  0.82841587  0.91450070  0.84481035  1
  Ca2+  Ca36  1  0.41505512  0.17396350  0.15729355  1
  Ca2+  Ca37  1  0.41468862  0.16658129  0.49936113  1
  Ca2+  Ca38  1  0.40730465  0.16987740  0.83305799  1
  Ca2+  Ca39  1  0.42260893  0.66784777  0.15733879  1
  Ca2+  Ca40  1  0.41370390  0.66332471  0.50182767  1
  Ca2+  Ca41  1  0.42263366  0.67367997  0.82695292  1
  Ca2+  Ca42  1  0.91775442  0.17297856  0.16577089  1
  Ca2+  Ca43  1  0.91920838  0.17894119  0.49549583  1
  Ca2+  Ca44  1  0.92073948  0.17390312  0.82539295  1
  Ca2+  Ca45  1  0.92282340  0.67290298  0.16553726  1
  Ca2+  Ca46  1  0.92748751  0.67037910  0.49006634  1
  Ca2+  Ca47  1  0.91847171  0.67107105  0.83392300  1
  Al0+  Al48  1  0.00209067  0.00245993  -0.00039433  1
  Al0+  Al49  1  -0.00123249  0.00341321  0.32852239  1
  Al0+  Al50  1  -0.00172210  0.00388077  0.66599754  1
  Al0+  Al51  1  -0.00148798  0.50108341  0.00236891  1
  Al0+  Al52  1  -0.00252041  0.50044240  0.32471401  1
  Al0+  Al53  1  -0.00367356  0.50291019  0.66566274  1
  Al0+  Al54  1  0.50280022  0.00130855  0.00500845  1
  Al0+  Al55  1  0.50217535  -0.00052191  0.33835144  1
  Al0+  Al56  1  0.50132483  0.00055136  0.66602938  1
  Al0+  Al57  1  0.49956894  0.49780030  -0.00388390  1
  Al0+  Al58  1  0.49900690  0.49912565  0.34110136  1
  Al0+  Al59  1  0.49957742  0.49922504  0.66835593  1
  Al0+  Al60  1  0.24922789  0.24943354  0.00290347  1
  Al0+  Al61  1  0.25006422  0.25000247  0.33708772  1
  Al0+  Al62  1  0.24850262  0.24769189  0.66923608  1
  Al0+  Al63  1  0.24959996  0.74910596  -0.00119032  1
  Al0+  Al64  1  0.25157515  0.75169119  0.33196895  1
  Al0+  Al65  1  0.24758223  0.74993943  0.67130163  1
  Al0+  Al66  1  0.75071392  0.25084288  0.00347957  1
  Al0+  Al67  1  0.75048559  0.24596678  0.33143038  1
  Al0+  Al68  1  0.74936765  0.24985320  0.66710225  1
  Al0+  Al69  1  0.75375430  0.74829099  -0.00437214  1
  Al0+  Al70  1  0.74747327  0.74769660  0.33619360  1
  Al0+  Al71  1  0.74915815  0.74767213  0.66268751  1
  Al0+  Al72  1  0.32155132  0.57177371  0.68499157  1
  Al0+  Al73  1  0.42811434  0.82156123  0.65122841  1
  Al0+  Al74  1  0.32395007  0.07020744  0.68184329  1
  Al0+  Al75  1  0.57067739  0.67682319  0.64792813  1
  Al0+  Al76  1  0.67988963  0.92674078  0.34900018  1
  Al0+  Al77  1  0.68230248  0.92823866  0.01162892  1
  Al0+  Al78  1  0.68016194  0.42802558  0.68107530  1
  Al0+  Al79  1  0.32091031  0.57370965  0.34777401  1
  Al0+  Al80  1  0.93253915  0.82120916  0.98551516  1
  Al0+  Al81  1  0.92939618  0.32161116  0.65422314  1
  Al0+  Al82  1  0.68022150  0.42672735  0.34701368  1
  Al0+  Al83  1  0.92850360  0.32070744  0.31742611  1
  Al0+  Al84  1  0.17642093  0.42855060  0.34769401  1
  Al0+  Al85  1  0.17601783  0.43057019  0.68041001  1
  Al0+  Al86  1  0.42841122  0.31866555  0.98710328  1
  Al0+  Al87  1  0.42850774  0.82312125  0.98609453  1
  Al0+  Al88  1  0.57218028  0.67725937  0.98589504  1
  Al0+  Al89  1  0.17623461  0.92846252  0.67932524  1
  Al0+  Al90  1  0.17834038  0.42967528  0.01356863  1
  Al0+  Al91  1  0.92756505  0.82190742  0.31863621  1
  Al0+  Al92  1  0.32254219  0.07010344  0.01677584  1
  Al0+  Al93  1  0.67859638  0.43030042  0.01367433  1
  Al0+  Al94  1  0.07426022  0.67974321  0.31699650  1
  Al0+  Al95  1  0.17834280  0.92704742  0.01676391  1
  Si0+  Si96  1  0.07080850  0.18077573  0.98324838  1
  Si0+  Si97  1  0.68121631  0.92751643  0.68144563  1
  Si0+  Si98  1  0.07154424  0.17865419  0.64872334  1
  Si0+  Si99  1  0.43045000  0.82365974  0.31914362  1
  Si0+  Si100  1  0.32238941  0.57091048  0.01557890  1
  Si0+  Si101  1  0.32227918  0.07075883  0.34864218  1
  Si0+  Si102  1  0.81907740  0.07161995  0.68063889  1
  Si0+  Si103  1  0.17847394  0.93103394  0.34561372  1
  Si0+  Si104  1  0.43062149  0.31963747  0.32076744  1
  Si0+  Si105  1  0.57067134  0.17645943  0.31798040  1
  Si0+  Si106  1  0.82401663  0.07348173  0.01704079  1
  Si0+  Si107  1  0.82097410  0.57401750  0.68409205  1
  Si0+  Si108  1  0.82042919  0.57112784  0.34967819  1
  Si0+  Si109  1  0.92818552  0.82447743  0.65216440  1
  Si0+  Si110  1  0.07478686  0.17867388  0.31422032  1
  Si0+  Si111  1  0.57440859  0.17858992  0.98432546  1
  Si0+  Si112  1  0.07239368  0.67610136  0.98129581  1
  Si0+  Si113  1  0.56834155  0.67732946  0.31960920  1
  Si0+  Si114  1  0.92803859  0.32185550  0.98409257  1
  Si0+  Si115  1  0.06874396  0.68023691  0.65316348  1
  Si0+  Si116  1  0.82288841  0.07158322  0.35120918  1
  Si0+  Si117  1  0.82307901  0.57174820  0.01853083  1
  Si0+  Si118  1  0.42662193  0.32006063  0.65086132  1
  Si0+  Si119  1  0.57205897  0.17955903  0.65125663  1
  O2-  O120  1  0.25559215  -0.00648991  0.06743153  1
  O2-  O121  1  0.25018474  0.00056020  0.38921098  1
  O2-  O122  1  0.25448979  -0.00576820  0.72837486  1
  O2-  O123  1  0.25170729  0.50492412  0.06054062  1
  O2-  O124  1  0.24402485  0.50527049  0.39590467  1
  O2-  O125  1  0.25210592  0.49594686  0.73307321  1
  O2-  O126  1  0.75750832  0.00228776  0.06011989  1
  O2-  O127  1  0.75860727  -0.00174759  0.39512698  1
  O2-  O128  1  0.75450800  -0.00410214  0.72384942  1
  O2-  O129  1  0.75089109  0.50606958  0.06164248  1
  O2-  O130  1  0.75757991  0.49755359  0.39492516  1
  O2-  O131  1  0.75046335  0.50674586  0.72733968  1
  O2-  O132  1  0.00881972  0.25111386  0.27099913  1
  O2-  O133  1  0.00843631  0.25274865  0.60524824  1
  O2-  O134  1  0.00041592  0.25300846  0.94146567  1
  O2-  O135  1  0.00274652  0.75364783  0.26863566  1
  O2-  O136  1  0.00287101  0.75723462  0.61169223  1
  O2-  O137  1  0.00980250  0.75059455  0.93642177  1
  O2-  O138  1  0.50171730  0.24934401  0.27654245  1
  O2-  O139  1  0.49910504  0.24907335  0.60918286  1
  O2-  O140  1  0.50438112  0.24499803  0.93934284  1
  O2-  O141  1  0.49787273  0.74891969  0.27782124  1
  O2-  O142  1  0.49716670  0.74791192  0.59812750  1
  O2-  O143  1  0.50050328  0.75043581  0.93743110  1
  O2-  O144  1  0.06900053  0.18061354  0.08857172  1
  O2-  O145  1  0.07365286  0.17442858  0.41956962  1
  O2-  O146  1  0.06701115  0.17499061  0.75405000  1
  O2-  O147  1  0.06819314  0.67413451  0.08657303  1
  O2-  O148  1  0.07315792  0.68284904  0.43138205  1
  O2-  O149  1  0.06398603  0.67623314  0.75787260  1
  O2-  O150  1  0.57550584  0.18068834  0.09019670  1
  O2-  O151  1  0.56921803  0.17454089  0.42338800  1
  O2-  O152  1  0.57666416  0.17943415  0.75587447  1
  O2-  O153  1  0.57051279  0.67668968  0.10047031  1
  O2-  O154  1  0.56874132  0.67791200  0.42429234  1
  O2-  O155  1  0.57413954  0.68134261  0.76101292  1
  O2-  O156  1  0.18266080  0.42677583  0.23414226  1
  O2-  O157  1  0.17461935  0.43530747  0.56704501  1
  O2-  O158  1  0.17732548  0.43070277  0.90065475  1
  O2-  O159  1  0.18001716  0.93230561  0.24104895  1
  O2-  O160  1  0.17383260  0.93255148  0.56474499  1
  O2-  O161  1  0.17393489  0.93418038  0.90392393  1
  O2-  O162  1  0.67785358  0.42904122  0.23402024  1
  O2-  O163  1  0.68436801  0.42506705  0.56782111  1
  O2-  O164  1  0.68171973  0.42764887  0.90085457  1
  O2-  O165  1  0.67779565  0.92825827  0.23612507  1
  O2-  O166  1  0.68242972  0.92934275  0.57610939  1
  O2-  O167  1  0.68464602  0.93165264  0.89820840  1
  O2-  O168  1  0.43028544  0.31875643  0.10086651  1
  O2-  O169  1  0.43198079  0.31648015  0.42588973  1
  O2-  O170  1  0.42722752  0.31861995  0.75589704  1
  O2-  O171  1  0.43208611  0.82099424  0.10065049  1
  O2-  O172  1  0.43181307  0.82747080  0.42385751  1
  O2-  O173  1  0.43383995  0.82464965  0.76416127  1
  O2-  O174  1  0.92681263  0.31926889  0.08909973  1
  O2-  O175  1  0.92592702  0.31610007  0.43058518  1
  O2-  O176  1  0.92775840  0.31724640  0.76748515  1
  O2-  O177  1  0.93085537  0.81830321  0.09813529  1
  O2-  O178  1  0.93007177  0.81984812  0.43302033  1
  O2-  O179  1  0.92658748  0.82499179  0.75709007  1
  O2-  O180  1  0.32475861  0.07135351  0.24410209  1
  O2-  O181  1  0.32143740  0.07084073  0.56725530  1
  O2-  O182  1  0.31911644  0.07208333  0.90380881  1
  O2-  O183  1  0.32582504  0.56992766  0.23417946  1
  O2-  O184  1  0.31815611  0.57067891  0.57128048  1
  O2-  O185  1  0.32204591  0.56796935  0.91033906  1
  O2-  O186  1  0.81966722  0.07569338  0.24601403  1
  O2-  O187  1  0.81700438  0.07251689  0.57572320  1
  O2-  O188  1  0.82205653  0.07537409  0.91094397  1
  O2-  O189  1  0.81538529  0.57306028  0.24426232  1
  O2-  O190  1  0.82273268  0.57446809  0.57863237  1
  O2-  O191  1  0.82764193  0.56843243  0.91297540  1
  O2-  O192  1  0.04447680  0.08777148  0.26456250  1
  O2-  O193  1  0.03812959  0.08844981  0.59855404  1
  O2-  O194  1  0.04115568  0.09059032  0.93410305  1
  O2-  O195  1  0.04437120  0.58276524  0.26236855  1
  O2-  O196  1  0.03415903  0.59234526  0.60200106  1
  O2-  O197  1  0.03755220  0.58528347  0.93393350  1
  O2-  O198  1  0.53980484  0.08536040  0.27047771  1
  O2-  O199  1  0.54640842  0.08777012  0.60192859  1
  O2-  O200  1  0.55205101  0.08409316  0.93962080  1
  O2-  O201  1  0.53974688  0.58483951  0.27342205  1
  O2-  O202  1  0.54450590  0.57634286  0.59734307  1
  O2-  O203  1  0.54263855  0.57995532  0.93207224  1
  O2-  O204  1  0.17005321  0.20123596  0.26978485  1
  O2-  O205  1  0.16720224  0.19666196  0.60402246  1
  O2-  O206  1  0.16218809  0.20840251  0.93646314  1
  O2-  O207  1  0.17282030  0.70753864  0.26388692  1
  O2-  O208  1  0.16177758  0.70256533  0.60649662  1
  O2-  O209  1  0.16826985  0.69320460  0.93798074  1
  O2-  O210  1  0.66315058  0.19941165  0.27092039  1
  O2-  O211  1  0.66215576  0.20967549  0.60093804  1
  O2-  O212  1  0.66826101  0.20478506  0.93807232  1
  O2-  O213  1  0.66034372  0.70448367  0.27306916  1
  O2-  O214  1  0.66963078  0.70630303  0.59457639  1
  O2-  O215  1  0.67140407  0.70229486  0.93362387  1
  O2-  O216  1  0.08086983  0.45922388  0.06664456  1
  O2-  O217  1  0.07366472  0.45136614  0.39269520  1
  O2-  O218  1  0.07808751  0.46286812  0.73280191  1
  O2-  O219  1  0.08211666  0.96420400  0.07039305  1
  O2-  O220  1  0.08585545  0.95957103  0.39126498  1
  O2-  O221  1  0.07915358  0.96398136  0.73203125  1
  O2-  O222  1  0.58088138  0.45852606  0.06681166  1
  O2-  O223  1  0.58526190  0.45854730  0.40283050  1
  O2-  O224  1  0.58199842  0.45384859  0.73266070  1
  O2-  O225  1  0.58797911  0.95975588  0.06923180  1
  O2-  O226  1  0.58628656  0.96415638  0.40555680  1
  O2-  O227  1  0.59100239  0.95968237  0.72739800  1
  O2-  O228  1  0.20779508  0.33339616  0.06752131  1
  O2-  O229  1  0.20691273  0.33089494  0.40187685  1
  O2-  O230  1  0.19666381  0.32838809  0.72781186  1
  O2-  O231  1  0.19820316  0.82516306  0.06578204  1
  O2-  O232  1  0.20502637  0.83927964  0.39300268  1
  O2-  O233  1  0.19222660  0.82830616  0.73101780  1
  O2-  O234  1  0.71056897  0.33394015  0.06837978  1
  O2-  O235  1  0.70756948  0.32754754  0.39771319  1
  O2-  O236  1  0.71397200  0.33261623  0.73558171  1
  O2-  O237  1  0.71415409  0.83122885  0.06407428  1
  O2-  O238  1  0.70799758  0.83037796  0.40464487  1
  O2-  O239  1  0.70817918  0.83500236  0.72649376  1
  O2-  O240  1  0.45908331  0.41177085  0.27492012  1
  O2-  O241  1  0.45491264  0.41143263  0.60390310  1
  O2-  O242  1  0.45954983  0.41335815  0.93064467  1
  O2-  O243  1  0.46284685  0.91440062  0.27190848  1
  O2-  O244  1  0.45982350  0.92010084  0.59775722  1
  O2-  O245  1  0.45873932  0.92263797  0.93690726  1
  O2-  O246  1  0.94906041  0.41829686  0.26159861  1
  O2-  O247  1  0.95329057  0.41998854  0.60034780  1
  O2-  O248  1  0.95370756  0.41481738  0.93872650  1
  O2-  O249  1  0.94847127  0.92304591  0.26830336  1
  O2-  O250  1  0.94991264  0.91817941  0.60527953  1
  O2-  O251  1  0.95804734  0.92064036  0.93323225  1
  O2-  O252  1  0.33857451  0.29076356  0.27424449  1
  O2-  O253  1  0.33538761  0.29013134  0.60295367  1
  O2-  O254  1  0.33206994  0.28673729  0.93327412  1
  O2-  O255  1  0.33732120  0.80185813  0.27258219  1
  O2-  O256  1  0.32631405  0.79677711  0.60243745  1
  O2-  O257  1  0.32861550  0.79831912  0.93477401  1
  O2-  O258  1  0.83364163  0.28240063  0.26283484  1
  O2-  O259  1  0.83494487  0.28295731  0.60010743  1
  O2-  O260  1  0.83666228  0.29121895  0.93699515  1
  O2-  O261  1  0.82879793  0.78843910  0.26877204  1
  O2-  O262  1  0.83804751  0.79281374  0.60372192  1
  O2-  O263  1  0.83810177  0.78776488  0.92855920  1
  O2-  O264  1  0.42287928  0.04986098  0.07003019  1
  O2-  O265  1  0.41337607  0.04282900  0.39735132  1
  O2-  O266  1  0.42432634  0.04792120  0.73331371  1
  O2-  O267  1  0.41478769  0.54134286  0.06151818  1
  O2-  O268  1  0.41558718  0.53929559  0.40476942  1
  O2-  O269  1  0.42074187  0.54465150  0.73536789  1
  O2-  O270  1  0.91810584  0.05156582  0.06200760  1
  O2-  O271  1  0.91862703  0.05256447  0.39591466  1
  O2-  O272  1  0.91238196  0.05025952  0.72752134  1
  O2-  O273  1  0.91382382  0.54211651  0.06791285  1
  O2-  O274  1  0.91674978  0.55086862  0.39138041  1
  O2-  O275  1  0.91240554  0.54612016  0.73259083  1
  O2-  O276  1  0.28660323  0.16592636  0.07130775  1
  O2-  O277  1  0.29537374  0.16219237  0.39726968  1
  O2-  O278  1  0.29236980  0.16725228  0.73487352  1
  O2-  O279  1  0.30113974  0.66582166  0.06022689  1
  O2-  O280  1  0.29716543  0.67403526  0.40007522  1
  O2-  O281  1  0.29133111  0.66898470  0.73775782  1
  O2-  O282  1  0.79649450  0.16573336  0.06504816  1
  O2-  O283  1  0.78989409  0.16159547  0.40055364  1
  O2-  O284  1  0.78625240  0.16009137  0.73105886  1
  O2-  O285  1  0.80129145  0.66651122  0.06247721  1
  O2-  O286  1  0.79097634  0.66177914  0.39954335  1
  O2-  O287  1  0.79691745  0.66822092  0.73046402  1
