# generated using pymatgen
data_Ca2Al2SiO7
_symmetry_space_group_name_H-M   'P 1'
_cell_length_a   15.46856795
_cell_length_b   15.46726420
_cell_length_c   15.29071282
_cell_angle_alpha   89.99758759
_cell_angle_beta   89.99897085
_cell_angle_gamma   90.02517956
_symmetry_Int_Tables_number   1
_chemical_formula_structural   Ca2Al2SiO7
_chemical_formula_sum   'Ca48 Al48 Si24 O168'
_cell_volume   3658.40096049
_cell_formula_units_Z   24
loop_
 _symmetry_equiv_pos_site_id
 _symmetry_equiv_pos_as_xyz
  1  'x, y, z'
loop_
 _atom_type_symbol
 _atom_type_oxidation_number
  Ca2+  2.0
  Al0+  0.0
  Si0+  0.0
  O2-  -2.0
loop_
 _atom_site_type_symbol
 _atom_site_label
 _atom_site_symmetry_multiplicity
 _atom_site_fract_x
 _atom_site_fract_y
 _atom_site_fract_z
 _atom_site_occupancy
  Ca2+  Ca0  1  0.16575050  0.07627924  0.17292332  1
  Ca2+  Ca1  1  0.16475729  0.07440766  0.51066034  1
  Ca2+  Ca2  1  0.16042371  0.08161319  0.82616209  1
  Ca2+  Ca3  1  0.17254908  0.57483339  0.17140617  1
  Ca2+  Ca4  1  0.17240633  0.57593592  0.51072465  1
  Ca2+  Ca5  1  0.16511107  0.57840179  0.83977348  1
  Ca2+  Ca6  1  0.67635099  0.07496876  0.17118599  1
  Ca2+  Ca7  1  0.67711649  0.07811290  0.50466201  1
  Ca2+  Ca8  1  0.67984941  0.07608057  0.84193337  1
  Ca2+  Ca9  1  0.67344953  0.58373688  0.17552250  1
  Ca2+  Ca10  1  0.66994566  0.59329878  0.50094722  1
  Ca2+  Ca11  1  0.66735297  0.58551275  0.83279829  1
  Ca2+  Ca12  1  0.08164547  0.33595989  0.15918727  1
  Ca2+  Ca13  1  0.08834226  0.33121699  0.50171153  1
  Ca2+  Ca14  1  0.07619286  0.33420369  0.82476856  1
  Ca2+  Ca15  1  0.08567144  0.82606237  0.16173682  1
  Ca2+  Ca16  1  0.08527592  0.83552688  0.50071450  1
  Ca2+  Ca17  1  0.08339726  0.82361916  0.82301361  1
  Ca2+  Ca18  1  0.57458913  0.33318981  0.15871408  1
  Ca2+  Ca19  1  0.58037929  0.33085416  0.49600053  1
  Ca2+  Ca20  1  0.57335267  0.33506880  0.82994186  1
  Ca2+  Ca21  1  0.58931311  0.83250534  0.16634754  1
  Ca2+  Ca22  1  0.58155476  0.82537729  0.49290127  1
  Ca2+  Ca23  1  0.58318910  0.83025150  0.82657672  1
  Ca2+  Ca24  1  0.32519631  0.42261035  0.16970706  1
  Ca2+  Ca25  1  0.32156262  0.42420445  0.50520013  1
  Ca2+  Ca26  1  0.32030157  0.42535766  0.83886784  1
  Ca2+  Ca27  1  0.32578713  0.91630287  0.17150521  1
  Ca2+  Ca28  1  0.32137715  0.92030081  0.50639710  1
  Ca2+  Ca29  1  0.32891112  0.91944906  0.82967516  1
  Ca2+  Ca30  1  0.83879003  0.42340557  0.17048391  1
  Ca2+  Ca31  1  0.83492845  0.42203828  0.50333075  1
  Ca2+  Ca32  1  0.83799796  0.41223168  0.83650523  1
  Ca2+  Ca33  1  0.82586018  0.92577896  0.17394499  1
  Ca2+  Ca34  1  0.83555628  0.92464286  0.50698569  1
  Ca2+  Ca35  1  0.83948867  0.92640601  0.83626251  1
  Ca2+  Ca36  1  0.41720590  0.17524309  0.15699141  1
  Ca2+  Ca37  1  0.41253083  0.16466747  0.49682624  1
  Ca2+  Ca38  1  0.41159911  0.17190647  0.82684963  1
  Ca2+  Ca39  1  0.41738085  0.66010946  0.16528338  1
  Ca2+  Ca40  1  0.42446620  0.65446359  0.49617469  1
  Ca2+  Ca41  1  0.41964415  0.65908273  0.82734336  1
  Ca2+  Ca42  1  0.91290626  0.17014206  0.16124540  1
  Ca2+  Ca43  1  0.91603342  0.16694723  0.50180739  1
  Ca2+  Ca44  1  0.91680279  0.17403425  0.82431477  1
  Ca2+  Ca45  1  0.92319187  0.66559059  0.16101038  1
  Ca2+  Ca46  1  0.92186325  0.67120287  0.50015838  1
  Ca2+  Ca47  1  0.93177801  0.67187918  0.82494638  1
  Al0+  Al48  1  0.00039215  0.00053589  0.00587208  1
  Al0+  Al49  1  0.00000071  0.00109919  0.33732136  1
  Al0+  Al50  1  -0.00084346  0.00166627  0.66953071  1
  Al0+  Al51  1  0.00037157  0.49867907  -0.00396282  1
  Al0+  Al52  1  -0.00102394  0.49962483  0.34060304  1
  Al0+  Al53  1  -0.00251379  0.50178518  0.66242952  1
  Al0+  Al54  1  0.50056727  -0.00214859  0.00312326  1
  Al0+  Al55  1  0.50126285  -0.00078688  0.33258770  1
  Al0+  Al56  1  0.50060242  -0.00039966  0.66849464  1
  Al0+  Al57  1  0.49980882  0.50000318  -0.00197619  1
  Al0+  Al58  1  0.50055870  0.49855828  0.32922736  1
  Al0+  Al59  1  0.50050644  0.49830537  0.66441775  1
  Al0+  Al60  1  0.24935374  0.25008192  -0.00213085  1
  Al0+  Al61  1  0.24873769  0.25047991  0.33235364  1
  Al0+  Al62  1  0.24854905  0.25217564  0.66876083  1
  Al0+  Al63  1  0.25360693  0.74923849  -0.00104623  1
  Al0+  Al64  1  0.25231859  0.74975838  0.33906390  1
  Al0+  Al65  1  0.25333721  0.75100071  0.66948950  1
  Al0+  Al66  1  0.74915671  0.24938096  0.00030564  1
  Al0+  Al67  1  0.75018889  0.25023606  0.33361041  1
  Al0+  Al68  1  0.74775763  0.25012792  0.66652738  1
  Al0+  Al69  1  0.75004261  0.75001852  0.00205870  1
  Al0+  Al70  1  0.74973475  0.75015825  0.33470305  1
  Al0+  Al71  1  0.74920710  0.74925955  0.66062812  1
  Al0+  Al72  1  0.32374322  0.57050636  0.68205260  1
  Al0+  Al73  1  0.17572141  0.43163583  0.68379605  1
  Al0+  Al74  1  0.93001761  0.82196624  0.65245427  1
  Al0+  Al75  1  0.17685007  0.42832766  0.01536620  1
  Al0+  Al76  1  0.32247131  0.07216368  0.68091199  1
  Al0+  Al77  1  0.07203406  0.68009852  0.98911040  1
  Al0+  Al78  1  0.81993829  0.07188208  0.68236721  1
  Al0+  Al79  1  0.82086749  0.57168238  0.34700296  1
  Al0+  Al80  1  0.17949880  0.92854941  0.34532122  1
  Al0+  Al81  1  0.67797834  0.92851899  0.35110991  1
  Al0+  Al82  1  0.67817923  0.92677486  0.01565196  1
  Al0+  Al83  1  0.56844788  0.67858275  0.65277858  1
  Al0+  Al84  1  0.92510255  0.32193833  0.64885543  1
  Al0+  Al85  1  0.82072727  0.07253800  0.35106971  1
  Al0+  Al86  1  0.57101005  0.67934476  0.31678824  1
  Al0+  Al87  1  0.17789279  0.92874934  0.68346677  1
  Al0+  Al88  1  0.32246124  0.57168079  0.01648218  1
  Al0+  Al89  1  0.92881499  0.31931732  0.98824134  1
  Al0+  Al90  1  0.07065636  0.18147684  0.65096473  1
  Al0+  Al91  1  0.17735297  0.42755287  0.34963779  1
  Al0+  Al92  1  0.07477233  0.67968770  0.65027309  1
  Al0+  Al93  1  0.32258515  0.56967931  0.34883388  1
  Al0+  Al94  1  0.42826504  0.32126225  0.98425311  1
  Al0+  Al95  1  0.82249705  0.07220027  0.01657055  1
  Si0+  Si96  1  0.92797364  0.82217776  0.98656807  1
  Si0+  Si97  1  0.67773339  0.42933411  0.01326162  1
  Si0+  Si98  1  0.67888672  0.42833347  0.68143430  1
  Si0+  Si99  1  0.57219301  0.17824637  0.31707813  1
  Si0+  Si100  1  0.81882150  0.57233465  0.68226457  1
  Si0+  Si101  1  0.92859601  0.32178250  0.31796286  1
  Si0+  Si102  1  0.32171693  0.07106786  0.01435072  1
  Si0+  Si103  1  0.67780612  0.42821984  0.34807276  1
  Si0+  Si104  1  0.57256735  0.67936026  0.98522035  1
  Si0+  Si105  1  0.18055830  0.92824421  0.01456449  1
  Si0+  Si106  1  0.07291377  0.17483175  0.98414666  1
  Si0+  Si107  1  0.32181112  0.07272501  0.34532680  1
  Si0+  Si108  1  0.07059558  0.17882837  0.31753012  1
  Si0+  Si109  1  0.82077004  0.56965644  0.01220064  1
  Si0+  Si110  1  0.42876234  0.31893617  0.31704082  1
  Si0+  Si111  1  0.56985817  0.17801479  0.65172699  1
  Si0+  Si112  1  0.42773853  0.82282962  0.31495977  1
  Si0+  Si113  1  0.07194297  0.67847414  0.31954533  1
  Si0+  Si114  1  0.42939678  0.82213952  0.98421834  1
  Si0+  Si115  1  0.67927000  0.92665387  0.68304711  1
  Si0+  Si116  1  0.57004243  0.17704792  0.98285508  1
  Si0+  Si117  1  0.42936843  0.31981291  0.65001643  1
  Si0+  Si118  1  0.93038102  0.82216449  0.31785350  1
  Si0+  Si119  1  0.42926162  0.82535163  0.64880240  1
  O2-  O120  1  0.24911243  0.00203223  0.05696883  1
  O2-  O121  1  0.25500828  0.00337227  0.38916878  1
  O2-  O122  1  0.25014780  0.00177542  0.73272481  1
  O2-  O123  1  0.24941602  0.50006265  0.06480219  1
  O2-  O124  1  0.24668189  0.50235536  0.39806747  1
  O2-  O125  1  0.24444285  0.50753290  0.73275861  1
  O2-  O126  1  0.75124554  -0.00172998  0.06438524  1
  O2-  O127  1  0.75076847  -0.00114228  0.40107410  1
  O2-  O128  1  0.74845644  -0.00633336  0.72824538  1
  O2-  O129  1  0.75032290  0.49830466  0.05555279  1
  O2-  O130  1  0.74396790  0.49834391  0.39276245  1
  O2-  O131  1  0.75126920  0.49752869  0.72425890  1
  O2-  O132  1  0.00014364  0.25095812  0.27585002  1
  O2-  O133  1  -0.00084334  0.25268986  0.59822926  1
  O2-  O134  1  0.00272179  0.24349078  0.94327321  1
  O2-  O135  1  0.00152278  0.75040435  0.27583651  1
  O2-  O136  1  0.00503695  0.75421766  0.60014258  1
  O2-  O137  1  -0.00148477  0.75607140  0.94272282  1
  O2-  O138  1  0.49916195  0.24701143  0.27427353  1
  O2-  O139  1  0.49554035  0.24425410  0.60697367  1
  O2-  O140  1  0.50113684  0.24438959  0.93689659  1
  O2-  O141  1  0.49612560  0.75393908  0.26956887  1
  O2-  O142  1  0.49272288  0.75144490  0.60559186  1
  O2-  O143  1  0.50187580  0.75106224  0.94433468  1
  O2-  O144  1  0.07409580  0.17304434  0.09029333  1
  O2-  O145  1  0.07309674  0.17817316  0.42172428  1
  O2-  O146  1  0.06846470  0.18222749  0.76485143  1
  O2-  O147  1  0.06942338  0.68136013  0.10306103  1
  O2-  O148  1  0.07043146  0.67941463  0.42398665  1
  O2-  O149  1  0.07024013  0.67912645  0.76431593  1
  O2-  O150  1  0.56800555  0.17965809  0.08888557  1
  O2-  O151  1  0.57160460  0.18048011  0.42226026  1
  O2-  O152  1  0.57028540  0.18119839  0.75668437  1
  O2-  O153  1  0.57429088  0.67819203  0.09000557  1
  O2-  O154  1  0.56835954  0.67892370  0.42946153  1
  O2-  O155  1  0.57022442  0.67964294  0.76657465  1
  O2-  O156  1  0.17833834  0.42606921  0.23590714  1
  O2-  O157  1  0.18072263  0.42967155  0.57026412  1
  O2-  O158  1  0.17546586  0.42980544  0.90260225  1
  O2-  O159  1  0.18067810  0.93003591  0.23120566  1
  O2-  O160  1  0.18034912  0.93133460  0.56981044  1
  O2-  O161  1  0.18107219  0.92790938  0.91024388  1
  O2-  O162  1  0.67886454  0.42747429  0.24205877  1
  O2-  O163  1  0.67690291  0.42758163  0.57636286  1
  O2-  O164  1  0.67617413  0.43113400  0.90816694  1
  O2-  O165  1  0.67984106  0.93111703  0.23740849  1
  O2-  O166  1  0.67806691  0.92906205  0.57780944  1
  O2-  O167  1  0.67709169  0.92683730  0.90210978  1
  O2-  O168  1  0.43153516  0.31862807  0.09794235  1
  O2-  O169  1  0.43020753  0.31684179  0.42212154  1
  O2-  O170  1  0.43407834  0.32057675  0.75501559  1
  O2-  O171  1  0.42692142  0.82407241  0.08909966  1
  O2-  O172  1  0.42885170  0.82694676  0.41981485  1
  O2-  O173  1  0.43446549  0.83045694  0.75460548  1
  O2-  O174  1  0.92913874  0.32093109  0.10189384  1
  O2-  O175  1  0.92522611  0.32092259  0.42219506  1
  O2-  O176  1  0.92293197  0.31852945  0.76263543  1
  O2-  O177  1  0.92836041  0.81983019  0.09262505  1
  O2-  O178  1  0.93126333  0.82288937  0.42244306  1
  O2-  O179  1  0.92811031  0.81750677  0.76667254  1
  O2-  O180  1  0.31986775  0.07391916  0.23914999  1
  O2-  O181  1  0.32464020  0.06885439  0.56695418  1
  O2-  O182  1  0.32471796  0.06928006  0.90997419  1
  O2-  O183  1  0.32187778  0.56719368  0.23512753  1
  O2-  O184  1  0.32780937  0.56282207  0.56897179  1
  O2-  O185  1  0.32435329  0.57070841  0.90362718  1
  O2-  O186  1  0.81912316  0.07335741  0.23738941  1
  O2-  O187  1  0.81530423  0.07307894  0.56963408  1
  O2-  O188  1  0.82114380  0.07181052  0.90322239  1
  O2-  O189  1  0.82238469  0.56846927  0.23290182  1
  O2-  O190  1  0.81575187  0.57308629  0.57726119  1
  O2-  O191  1  0.81795849  0.57107811  0.90731002  1
  O2-  O192  1  0.04208524  0.08708252  0.26907562  1
  O2-  O193  1  0.04243332  0.08214002  0.60053897  1
  O2-  O194  1  0.04804001  0.08033241  0.93924840  1
  O2-  O195  1  0.04088154  0.58634493  0.27379047  1
  O2-  O196  1  0.04077890  0.58357642  0.59679684  1
  O2-  O197  1  0.03770154  0.58584839  0.93396792  1
  O2-  O198  1  0.54645452  0.08611569  0.26923491  1
  O2-  O199  1  0.54600982  0.08516703  0.60443660  1
  O2-  O200  1  0.54542663  0.08239393  0.93923570  1
  O2-  O201  1  0.54328540  0.58084056  0.26281641  1
  O2-  O202  1  0.54150613  0.58076160  0.59826274  1
  O2-  O203  1  0.54545100  0.58775586  0.93695006  1
  O2-  O204  1  0.16281719  0.20522351  0.26834042  1
  O2-  O205  1  0.17043940  0.20814043  0.59835151  1
  O2-  O206  1  0.16646871  0.19825090  0.93794800  1
  O2-  O207  1  0.16468464  0.70664775  0.27364614  1
  O2-  O208  1  0.17553005  0.70424342  0.60092087  1
  O2-  O209  1  0.16869238  0.71015954  0.93575634  1
  O2-  O210  1  0.66250056  0.20977192  0.26858740  1
  O2-  O211  1  0.65838970  0.21167679  0.60200054  1
  O2-  O212  1  0.66319746  0.20433110  0.93757449  1
  O2-  O213  1  0.66908013  0.70901499  0.26339320  1
  O2-  O214  1  0.66391138  0.70950074  0.59738340  1
  O2-  O215  1  0.66475523  0.70619788  0.93699780  1
  O2-  O216  1  0.07831075  0.45846160  0.06821478  1
  O2-  O217  1  0.07876161  0.45105887  0.40204866  1
  O2-  O218  1  0.07431768  0.45626121  0.73221977  1
  O2-  O219  1  0.08865749  0.95277165  0.06385877  1
  O2-  O220  1  0.08460014  0.96019519  0.39950145  1
  O2-  O221  1  0.08047380  0.95749494  0.73754340  1
  O2-  O222  1  0.58788198  0.45943844  0.06284491  1
  O2-  O223  1  0.58350277  0.45008438  0.39329786  1
  O2-  O224  1  0.58865478  0.45902800  0.73019118  1
  O2-  O225  1  0.57994747  0.95518644  0.07003898  1
  O2-  O226  1  0.57889261  0.95756464  0.40205640  1
  O2-  O227  1  0.58640544  0.95397109  0.72949495  1
  O2-  O228  1  0.20528603  0.32840510  0.06645069  1
  O2-  O229  1  0.20989612  0.32951736  0.40106724  1
  O2-  O230  1  0.20743536  0.33403705  0.73534694  1
  O2-  O231  1  0.21300507  0.83846242  0.06300635  1
  O2-  O232  1  0.20914165  0.83371702  0.40119182  1
  O2-  O233  1  0.20847572  0.83141401  0.73718585  1
  O2-  O234  1  0.70090283  0.33654970  0.06058033  1
  O2-  O235  1  0.70418783  0.33561026  0.39517652  1
  O2-  O236  1  0.70318979  0.33681288  0.73077611  1
  O2-  O237  1  0.70617559  0.82817559  0.06940547  1
  O2-  O238  1  0.70305869  0.82900328  0.40064481  1
  O2-  O239  1  0.70341148  0.83186709  0.72712185  1
  O2-  O240  1  0.45929743  0.40872642  0.26769655  1
  O2-  O241  1  0.46543090  0.40756757  0.60060212  1
  O2-  O242  1  0.46480730  0.41580207  0.93006068  1
  O2-  O243  1  0.45306413  0.91681594  0.26692275  1
  O2-  O244  1  0.45962541  0.91674402  0.59999682  1
  O2-  O245  1  0.45733688  0.91393537  0.93630539  1
  O2-  O246  1  0.95595853  0.41479194  0.27171530  1
  O2-  O247  1  0.94747331  0.42243460  0.59878491  1
  O2-  O248  1  0.95679124  0.41550924  0.93218855  1
  O2-  O249  1  0.95917713  0.91407214  0.27009819  1
  O2-  O250  1  0.95377416  0.92185381  0.60170241  1
  O2-  O251  1  0.95257456  0.91724212  0.94364559  1
  O2-  O252  1  0.33729869  0.29073805  0.26860596  1
  O2-  O253  1  0.33686711  0.29578203  0.60364625  1
  O2-  O254  1  0.33197120  0.29045279  0.93076529  1
  O2-  O255  1  0.33352074  0.79667293  0.26890559  1
  O2-  O256  1  0.33356310  0.80632008  0.60624644  1
  O2-  O257  1  0.33919887  0.79417591  0.93435249  1
  O2-  O258  1  0.83627373  0.29459307  0.26962130  1
  O2-  O259  1  0.82588924  0.29259390  0.59677552  1
  O2-  O260  1  0.83018063  0.29303005  0.93477140  1
  O2-  O261  1  0.83864980  0.79327853  0.27098687  1
  O2-  O262  1  0.83347914  0.78942763  0.59773572  1
  O2-  O263  1  0.83493832  0.79539534  0.94045857  1
  O2-  O264  1  0.41236764  0.04245370  0.06398677  1
  O2-  O265  1  0.41655619  0.05084748  0.38952675  1
  O2-  O266  1  0.42104812  0.04374824  0.73525580  1
  O2-  O267  1  0.42166644  0.54126775  0.06775471  1
  O2-  O268  1  0.42070846  0.53576195  0.39854542  1
  O2-  O269  1  0.42036069  0.53381117  0.73504385  1
  O2-  O270  1  0.92098874  0.04598722  0.07139380  1
  O2-  O271  1  0.91955773  0.04574954  0.40176244  1
  O2-  O272  1  0.91615549  0.04408950  0.73680518  1
  O2-  O273  1  0.91145695  0.54075706  0.06048537  1
  O2-  O274  1  0.91441415  0.53991708  0.40422930  1
  O2-  O275  1  0.91130489  0.54783900  0.72872876  1
  O2-  O276  1  0.29552857  0.16320333  0.06175497  1
  O2-  O277  1  0.29639790  0.16546139  0.39190288  1
  O2-  O278  1  0.29610593  0.17097467  0.73287762  1
  O2-  O279  1  0.29692886  0.67145856  0.06850517  1
  O2-  O280  1  0.30318880  0.67020844  0.39933289  1
  O2-  O281  1  0.31023878  0.67367314  0.72906094  1
  O2-  O282  1  0.79015070  0.17006734  0.06940280  1
  O2-  O283  1  0.78957938  0.17089113  0.40200691  1
  O2-  O284  1  0.78324101  0.16730551  0.73522865  1
  O2-  O285  1  0.79334340  0.66078335  0.06127248  1
  O2-  O286  1  0.79083790  0.66730061  0.40109910  1
  O2-  O287  1  0.78536662  0.66204246  0.73029000  1
