# generated using pymatgen
data_Ca2Al2SiO7
_symmetry_space_group_name_H-M   'P 1'
_cell_length_a   15.45551376
_cell_length_b   15.45532012
_cell_length_c   15.28126011
_cell_angle_alpha   89.98564583
_cell_angle_beta   89.98899143
_cell_angle_gamma   89.98949325
_symmetry_Int_Tables_number   1
_chemical_formula_structural   Ca2Al2SiO7
_chemical_formula_sum   'Ca48 Al48 Si24 O168'
_cell_volume   3650.23302526
_cell_formula_units_Z   24
loop_
 _symmetry_equiv_pos_site_id
 _symmetry_equiv_pos_as_xyz
  1  'x, y, z'
loop_
 _atom_type_symbol
 _atom_type_oxidation_number
  Ca2+  2.0
  Al0+  0.0
  Si0+  0.0
  O2-  -2.0
loop_
 _atom_site_type_symbol
 _atom_site_label
 _atom_site_symmetry_multiplicity
 _atom_site_fract_x
 _atom_site_fract_y
 _atom_site_fract_z
 _atom_site_occupancy
  Ca2+  Ca0  1  0.17178297  0.09149550  0.16613579  1
  Ca2+  Ca1  1  0.17149958  0.08206708  0.50624514  1
  Ca2+  Ca2  1  0.17740558  0.08849320  0.84052707  1
  Ca2+  Ca3  1  0.17435455  0.59201117  0.17108548  1
  Ca2+  Ca4  1  0.17710529  0.58510637  0.50204899  1
  Ca2+  Ca5  1  0.17561870  0.58188136  0.84212691  1
  Ca2+  Ca6  1  0.67255504  0.08493042  0.17547710  1
  Ca2+  Ca7  1  0.67358790  0.08538326  0.49645152  1
  Ca2+  Ca8  1  0.67534519  0.09101280  0.83996816  1
  Ca2+  Ca9  1  0.66470562  0.57487950  0.17817557  1
  Ca2+  Ca10  1  0.65824069  0.57842170  0.50133514  1
  Ca2+  Ca11  1  0.66484130  0.58129723  0.83462624  1
  Ca2+  Ca12  1  0.07040650  0.32881834  0.16021680  1
  Ca2+  Ca13  1  0.07080105  0.33364912  0.49544210  1
  Ca2+  Ca14  1  0.07387807  0.32903402  0.83272107  1
  Ca2+  Ca15  1  0.08223725  0.82523936  0.16697523  1
  Ca2+  Ca16  1  0.07786156  0.82930208  0.49016607  1
  Ca2+  Ca17  1  0.08740559  0.82841406  0.83550889  1
  Ca2+  Ca18  1  0.58417041  0.32444190  0.17033296  1
  Ca2+  Ca19  1  0.57396146  0.33011015  0.49076110  1
  Ca2+  Ca20  1  0.57722116  0.32567757  0.83124344  1
  Ca2+  Ca21  1  0.58225873  0.83165329  0.16537044  1
  Ca2+  Ca22  1  0.58850854  0.82253998  0.49308704  1
  Ca2+  Ca23  1  0.57696436  0.82759050  0.83115883  1
  Ca2+  Ca24  1  0.33629052  0.42774646  0.17515312  1
  Ca2+  Ca25  1  0.34299287  0.42424013  0.50357791  1
  Ca2+  Ca26  1  0.34015948  0.42645325  0.83675211  1
  Ca2+  Ca27  1  0.33752823  0.91912738  0.16501886  1
  Ca2+  Ca28  1  0.33236868  0.92455880  0.50411195  1
  Ca2+  Ca29  1  0.33707003  0.92540656  0.84104113  1
  Ca2+  Ca30  1  0.82961904  0.41029749  0.17466895  1
  Ca2+  Ca31  1  0.82669997  0.40722865  0.49984133  1
  Ca2+  Ca32  1  0.83522406  0.41150657  0.83703002  1
  Ca2+  Ca33  1  0.83076807  0.92779999  0.17770257  1
  Ca2+  Ca34  1  0.83179430  0.92369341  0.50105046  1
  Ca2+  Ca35  1  0.83068294  0.92920655  0.83944117  1
  Ca2+  Ca36  1  0.42931209  0.16485845  0.15954632  1
  Ca2+  Ca37  1  0.41681212  0.17758262  0.49152052  1
  Ca2+  Ca38  1  0.41918528  0.16504096  0.82695251  1
  Ca2+  Ca39  1  0.41748876  0.66830658  0.16379425  1
  Ca2+  Ca40  1  0.42408447  0.65980144  0.49484486  1
  Ca2+  Ca41  1  0.41445271  0.66946491  0.82951198  1
  Ca2+  Ca42  1  0.91162227  0.17289290  0.15943347  1
  Ca2+  Ca43  1  0.90762334  0.17119660  0.49574459  1
  Ca2+  Ca44  1  0.91291888  0.17242630  0.83123370  1
  Ca2+  Ca45  1  0.92598676  0.67082455  0.16388089  1
  Ca2+  Ca46  1  0.92454610  0.67526377  0.48618871  1
  Ca2+  Ca47  1  0.92572112  0.66500953  0.83051233  1
  Al0+  Al48  1  0.00092546  0.00008418  0.00081139  1
  Al0+  Al49  1  0.00186371  0.00074099  0.33456483  1
  Al0+  Al50  1  -0.00062893  -0.00084261  0.67282875  1
  Al0+  Al51  1  -0.00018434  0.50106746  -0.00800456  1
  Al0+  Al52  1  0.00261890  0.49890997  0.32592703  1
  Al0+  Al53  1  -0.00016594  0.49889875  0.66173745  1
  Al0+  Al54  1  0.50054103  -0.00148406  -0.00558718  1
  Al0+  Al55  1  0.50148017  -0.00060922  0.33666622  1
  Al0+  Al56  1  0.50114905  -0.00270191  0.66884005  1
  Al0+  Al57  1  0.50135672  0.49973419  0.00541551  1
  Al0+  Al58  1  0.50050462  0.50100562  0.33340588  1
  Al0+  Al59  1  0.50043425  0.49886994  0.66697092  1
  Al0+  Al60  1  0.24854516  0.25281027  0.00263129  1
  Al0+  Al61  1  0.24831300  0.25487657  0.33115872  1
  Al0+  Al62  1  0.24800394  0.25090864  0.66667884  1
  Al0+  Al63  1  0.25118506  0.75091183  -0.00430379  1
  Al0+  Al64  1  0.25143747  0.75111388  0.33683050  1
  Al0+  Al65  1  0.25076623  0.74986721  0.66946730  1
  Al0+  Al66  1  0.74707471  0.25068391  -0.00402066  1
  Al0+  Al67  1  0.74801393  0.25100167  0.33571112  1
  Al0+  Al68  1  0.74865806  0.24980803  0.66794359  1
  Al0+  Al69  1  0.75048490  0.74900150  -0.00094151  1
  Al0+  Al70  1  0.75056964  0.75100489  0.32709121  1
  Al0+  Al71  1  0.75047200  0.74869884  0.66516952  1
  Al0+  Al72  1  0.32081492  0.07195509  0.67880486  1
  Al0+  Al73  1  0.07342270  0.67947141  0.31914561  1
  Al0+  Al74  1  0.07079391  0.68093723  0.98439410  1
  Al0+  Al75  1  0.56861580  0.17907720  0.98534668  1
  Al0+  Al76  1  0.42719615  0.32322583  0.31682724  1
  Al0+  Al77  1  0.56845928  0.17820052  0.31992290  1
  Al0+  Al78  1  0.92848775  0.31815823  0.32035375  1
  Al0+  Al79  1  0.32199341  0.07254381  0.01414234  1
  Al0+  Al80  1  0.32137763  0.56851571  0.68196117  1
  Al0+  Al81  1  0.92833172  0.82384024  0.31798513  1
  Al0+  Al82  1  0.92728808  0.31940024  0.98378142  1
  Al0+  Al83  1  0.67758368  0.92638583  0.34878239  1
  Al0+  Al84  1  0.56989946  0.67986047  0.65347871  1
  Al0+  Al85  1  0.92840624  0.31945252  0.65041458  1
  Al0+  Al86  1  0.81970068  0.07099054  0.01402127  1
  Al0+  Al87  1  0.57089726  0.67935508  0.31936115  1
  Al0+  Al88  1  0.68056098  0.43072568  0.34829784  1
  Al0+  Al89  1  0.82180218  0.07170298  0.34858751  1
  Al0+  Al90  1  0.07314835  0.17709539  0.98454864  1
  Al0+  Al91  1  0.42827056  0.31907791  0.65470627  1
  Al0+  Al92  1  0.31962637  0.57068408  0.34835260  1
  Al0+  Al93  1  0.81832548  0.07066182  0.68311046  1
  Al0+  Al94  1  0.43071921  0.81926077  0.98630125  1
  Al0+  Al95  1  0.32030062  0.57115893  0.01500002  1
  Si0+  Si96  1  0.67928015  0.92309106  0.68557436  1
  Si0+  Si97  1  0.67819178  0.92582010  0.01569111  1
  Si0+  Si98  1  0.07223903  0.67934657  0.65105316  1
  Si0+  Si99  1  0.82276896  0.57195199  0.68001721  1
  Si0+  Si100  1  0.17573273  0.42722346  0.35128448  1
  Si0+  Si101  1  0.82298877  0.57222454  0.01382516  1
  Si0+  Si102  1  0.17388277  0.42926761  0.68434798  1
  Si0+  Si103  1  0.92623571  0.82245038  0.98173447  1
  Si0+  Si104  1  0.67970076  0.43012972  0.68270845  1
  Si0+  Si105  1  0.18059895  0.92985945  0.34804232  1
  Si0+  Si106  1  0.57336152  0.67493850  0.98370565  1
  Si0+  Si107  1  0.68033977  0.43053405  0.01532101  1
  Si0+  Si108  1  0.17913501  0.92773882  0.01763856  1
  Si0+  Si109  1  0.17769745  0.92766699  0.68489699  1
  Si0+  Si110  1  0.92997150  0.82102537  0.65321482  1
  Si0+  Si111  1  0.07116477  0.17616894  0.65039106  1
  Si0+  Si112  1  0.17514856  0.42990148  0.01749860  1
  Si0+  Si113  1  0.42768888  0.32389784  0.98530472  1
  Si0+  Si114  1  0.57176975  0.17573589  0.64973812  1
  Si0+  Si115  1  0.07403419  0.17677029  0.31791555  1
  Si0+  Si116  1  0.42673113  0.82252047  0.64867459  1
  Si0+  Si117  1  0.42769285  0.82330826  0.31850089  1
  Si0+  Si118  1  0.82500177  0.57195480  0.34727721  1
  Si0+  Si119  1  0.32152409  0.07370767  0.34623891  1
  O2-  O120  1  0.24397920  0.00079532  0.06150715  1
  O2-  O121  1  0.24920529  0.00397000  0.38916160  1
  O2-  O122  1  0.24713752  -0.00346859  0.72704150  1
  O2-  O123  1  0.24575215  0.49670024  0.06191952  1
  O2-  O124  1  0.24586067  0.49484091  0.39534840  1
  O2-  O125  1  0.24563816  0.49490398  0.72902949  1
  O2-  O126  1  0.74791483  -0.00682378  0.05945913  1
  O2-  O127  1  0.75151609  -0.00290305  0.39820435  1
  O2-  O128  1  0.74224001  -0.00304634  0.72989458  1
  O2-  O129  1  0.75194158  0.50188264  0.05596950  1
  O2-  O130  1  0.75619477  0.50545259  0.39523379  1
  O2-  O131  1  0.75296877  0.50002664  0.72361549  1
  O2-  O132  1  0.00094352  0.24118830  0.27512309  1
  O2-  O133  1  0.00109536  0.24239517  0.60471344  1
  O2-  O134  1  -0.00181471  0.24587828  0.93407373  1
  O2-  O135  1  -0.00164737  0.74869669  0.26976059  1
  O2-  O136  1  0.00173184  0.75110562  0.61010723  1
  O2-  O137  1  -0.00517943  0.75406526  0.93609411  1
  O2-  O138  1  0.49370794  0.24616754  0.26780418  1
  O2-  O139  1  0.49705432  0.23887971  0.60782629  1
  O2-  O140  1  0.48893272  0.24939840  0.93942520  1
  O2-  O141  1  0.49805462  0.75632920  0.27457931  1
  O2-  O142  1  0.49529828  0.75383902  0.60522072  1
  O2-  O143  1  0.50448896  0.74319602  0.93993733  1
  O2-  O144  1  0.07277320  0.18053693  0.09815461  1
  O2-  O145  1  0.07789912  0.17760622  0.42375290  1
  O2-  O146  1  0.07170252  0.17738849  0.75556979  1
  O2-  O147  1  0.06987677  0.68305256  0.09690339  1
  O2-  O148  1  0.07361830  0.68315109  0.43354557  1
  O2-  O149  1  0.07122415  0.67971605  0.75625915  1
  O2-  O150  1  0.57100048  0.18022129  0.09782142  1
  O2-  O151  1  0.56630877  0.17944892  0.43389712  1
  O2-  O152  1  0.57297199  0.17922093  0.75570630  1
  O2-  O153  1  0.57453549  0.67405877  0.08883036  1
  O2-  O154  1  0.56780426  0.67832536  0.43277248  1
  O2-  O155  1  0.57018465  0.68085873  0.76688528  1
  O2-  O156  1  0.17483322  0.42631882  0.24603209  1
  O2-  O157  1  0.16974552  0.43332137  0.57902318  1
  O2-  O158  1  0.17488475  0.43239594  0.91149479  1
  O2-  O159  1  0.18176136  0.92741005  0.24338474  1
  O2-  O160  1  0.17647080  0.92727815  0.57892225  1
  O2-  O161  1  0.18243853  0.92573406  0.91175496  1
  O2-  O162  1  0.68212074  0.43047897  0.23488003  1
  O2-  O163  1  0.67921334  0.43036834  0.57792934  1
  O2-  O164  1  0.67838634  0.43254462  0.90961458  1
  O2-  O165  1  0.67661953  0.92853456  0.23509742  1
  O2-  O166  1  0.68297467  0.91838846  0.58063662  1
  O2-  O167  1  0.68067486  0.92368573  0.90968691  1
  O2-  O168  1  0.43251018  0.32608865  0.09027034  1
  O2-  O169  1  0.42862285  0.32119823  0.43100514  1
  O2-  O170  1  0.43294187  0.32073298  0.76807070  1
  O2-  O171  1  0.43176164  0.81866927  0.09942754  1
  O2-  O172  1  0.42511753  0.82328972  0.42422501  1
  O2-  O173  1  0.42669841  0.82202410  0.75430282  1
  O2-  O174  1  0.92637043  0.31984824  0.09715716  1
  O2-  O175  1  0.92991499  0.31773919  0.43379654  1
  O2-  O176  1  0.92953505  0.32062366  0.76305777  1
  O2-  O177  1  0.92516157  0.82014989  0.08670283  1
  O2-  O178  1  0.93257194  0.82322123  0.43268952  1
  O2-  O179  1  0.93046328  0.81859077  0.75839582  1
  O2-  O180  1  0.32155792  0.07136252  0.24127863  1
  O2-  O181  1  0.31735058  0.07016263  0.56506997  1
  O2-  O182  1  0.32214443  0.06975782  0.90082796  1
  O2-  O183  1  0.31771741  0.57270828  0.23527250  1
  O2-  O184  1  0.32043261  0.56855965  0.56907914  1
  O2-  O185  1  0.32102713  0.56895973  0.90143825  1
  O2-  O186  1  0.82044462  0.07257746  0.23503868  1
  O2-  O187  1  0.81905562  0.06923433  0.57050941  1
  O2-  O188  1  0.81682887  0.07040949  0.90037146  1
  O2-  O189  1  0.82364694  0.56863131  0.24131957  1
  O2-  O190  1  0.82347933  0.57446664  0.57547018  1
  O2-  O191  1  0.82128314  0.57333658  0.90804407  1
  O2-  O192  1  0.05588574  0.08151490  0.27346101  1
  O2-  O193  1  0.04798106  0.08033400  0.60706542  1
  O2-  O194  1  0.05198173  0.07590570  0.93394024  1
  O2-  O195  1  0.05046146  0.58101427  0.26502921  1
  O2-  O196  1  0.04384160  0.58834913  0.60351808  1
  O2-  O197  1  0.03954756  0.58606353  0.92702302  1
  O2-  O198  1  0.54358457  0.07851940  0.26797234  1
  O2-  O199  1  0.55436705  0.07869445  0.60831317  1
  O2-  O200  1  0.54357356  0.08210738  0.92960095  1
  O2-  O201  1  0.53751086  0.58475794  0.26435309  1
  O2-  O202  1  0.53895920  0.58310113  0.60086094  1
  O2-  O203  1  0.54722964  0.58128959  0.93776743  1
  O2-  O204  1  0.16501490  0.20702597  0.26913327  1
  O2-  O205  1  0.16390798  0.20276597  0.60282191  1
  O2-  O206  1  0.17123109  0.20958745  0.93135730  1
  O2-  O207  1  0.16997611  0.71519011  0.26705582  1
  O2-  O208  1  0.16453150  0.70774692  0.60500185  1
  O2-  O209  1  0.16568798  0.71401880  0.92847655  1
  O2-  O210  1  0.66515243  0.21212607  0.26800481  1
  O2-  O211  1  0.66270248  0.20869104  0.60370423  1
  O2-  O212  1  0.66099349  0.21757994  0.92810356  1
  O2-  O213  1  0.66783980  0.70438607  0.26377745  1
  O2-  O214  1  0.66781364  0.70790875  0.59999437  1
  O2-  O215  1  0.66721170  0.70029135  0.93657689  1
  O2-  O216  1  0.08127132  0.45859676  0.06145233  1
  O2-  O217  1  0.08255860  0.45522806  0.39801772  1
  O2-  O218  1  0.08180823  0.45926092  0.73227139  1
  O2-  O219  1  0.08357974  0.94638805  0.06208368  1
  O2-  O220  1  0.08933323  0.95540779  0.39818890  1
  O2-  O221  1  0.08461112  0.95089058  0.73316376  1
  O2-  O222  1  0.59019134  0.45846617  0.06552064  1
  O2-  O223  1  0.58484388  0.46379803  0.40268362  1
  O2-  O224  1  0.59027406  0.46131531  0.73274163  1
  O2-  O225  1  0.58414790  0.95142064  0.05901125  1
  O2-  O226  1  0.57952663  0.95369861  0.40504507  1
  O2-  O227  1  0.58288617  0.94285991  0.72851664  1
  O2-  O228  1  0.19655854  0.33583134  0.06370350  1
  O2-  O229  1  0.19855870  0.33333556  0.39939021  1
  O2-  O230  1  0.19555144  0.33383605  0.72764110  1
  O2-  O231  1  0.21137614  0.83636953  0.06417519  1
  O2-  O232  1  0.21137215  0.84094502  0.40009705  1
  O2-  O233  1  0.20368969  0.83413760  0.73138080  1
  O2-  O234  1  0.70894067  0.33901062  0.06162336  1
  O2-  O235  1  0.71075449  0.33553040  0.40498400  1
  O2-  O236  1  0.70668425  0.33850733  0.73107633  1
  O2-  O237  1  0.70137942  0.83072663  0.06092915  1
  O2-  O238  1  0.70623443  0.82660007  0.40003544  1
  O2-  O239  1  0.71033859  0.83179168  0.73456555  1
  O2-  O240  1  0.46151887  0.41918777  0.26462246  1
  O2-  O241  1  0.46546233  0.41338684  0.60078302  1
  O2-  O242  1  0.46238976  0.41501918  0.93791678  1
  O2-  O243  1  0.45163024  0.91709700  0.27252332  1
  O2-  O244  1  0.45181429  0.91652527  0.60281256  1
  O2-  O245  1  0.46254137  0.91343201  0.92786267  1
  O2-  O246  1  0.95907722  0.41395094  0.26491251  1
  O2-  O247  1  0.95891749  0.41638990  0.59619794  1
  O2-  O248  1  0.95580298  0.41777340  0.92954257  1
  O2-  O249  1  0.96147768  0.92086731  0.26546253  1
  O2-  O250  1  0.95785391  0.91331357  0.60701626  1
  O2-  O251  1  0.95301197  0.91573693  0.93592254  1
  O2-  O252  1  0.32599054  0.30338752  0.26670719  1
  O2-  O253  1  0.32913273  0.29618450  0.60151775  1
  O2-  O254  1  0.33097422  0.30830322  0.94322204  1
  O2-  O255  1  0.33530637  0.79583329  0.27172718  1
  O2-  O256  1  0.33190045  0.79833566  0.60405258  1
  O2-  O257  1  0.33541759  0.78988614  0.92931565  1
  O2-  O258  1  0.83137263  0.29004315  0.26764994  1
  O2-  O259  1  0.83009839  0.28944045  0.59964076  1
  O2-  O260  1  0.82923006  0.29228621  0.92941485  1
  O2-  O261  1  0.83096352  0.79875758  0.26303728  1
  O2-  O262  1  0.83906950  0.79194609  0.60559350  1
  O2-  O263  1  0.83309558  0.79538886  0.93417159  1
  O2-  O264  1  0.41814959  0.03584858  0.06562194  1
  O2-  O265  1  0.41141843  0.04471829  0.39612132  1
  O2-  O266  1  0.41858428  0.04203650  0.73200882  1
  O2-  O267  1  0.41788184  0.54199824  0.06843805  1
  O2-  O268  1  0.41602287  0.53860716  0.40166310  1
  O2-  O269  1  0.41757438  0.53619225  0.73646583  1
  O2-  O270  1  0.91857116  0.04437599  0.06522063  1
  O2-  O271  1  0.92218714  0.04639537  0.40099081  1
  O2-  O272  1  0.91528705  0.03924895  0.73690570  1
  O2-  O273  1  0.91566707  0.54538919  0.05895332  1
  O2-  O274  1  0.91976630  0.54718258  0.39171729  1
  O2-  O275  1  0.91488159  0.54369966  0.72752738  1
  O2-  O276  1  0.29482545  0.17060417  0.06754578  1
  O2-  O277  1  0.29329711  0.16639881  0.39201158  1
  O2-  O278  1  0.29038235  0.16864214  0.73322227  1
  O2-  O279  1  0.28847832  0.66869776  0.06568153  1
  O2-  O280  1  0.28917142  0.66732562  0.40389750  1
  O2-  O281  1  0.29182884  0.66683786  0.73398520  1
  O2-  O282  1  0.78489152  0.16792000  0.06431937  1
  O2-  O283  1  0.78782243  0.16772490  0.40321295  1
  O2-  O284  1  0.78637036  0.16762466  0.73667913  1
  O2-  O285  1  0.79702370  0.66450838  0.06128249  1
  O2-  O286  1  0.80228006  0.66737802  0.39008935  1
  O2-  O287  1  0.79446105  0.66267693  0.73021970  1
