# generated using pymatgen
data_Ca2Al2SiO7
_symmetry_space_group_name_H-M   'P 1'
_cell_length_a   15.45826517
_cell_length_b   15.46111497
_cell_length_c   15.28405048
_cell_angle_alpha   89.99247797
_cell_angle_beta   89.99954006
_cell_angle_gamma   89.99254556
_symmetry_Int_Tables_number   1
_chemical_formula_structural   Ca2Al2SiO7
_chemical_formula_sum   'Ca48 Al48 Si24 O168'
_cell_volume   3652.91880159
_cell_formula_units_Z   24
loop_
 _symmetry_equiv_pos_site_id
 _symmetry_equiv_pos_as_xyz
  1  'x, y, z'
loop_
 _atom_type_symbol
 _atom_type_oxidation_number
  Ca2+  2.0
  Al0+  0.0
  Si0+  0.0
  O2-  -2.0
loop_
 _atom_site_type_symbol
 _atom_site_label
 _atom_site_symmetry_multiplicity
 _atom_site_fract_x
 _atom_site_fract_y
 _atom_site_fract_z
 _atom_site_occupancy
  Ca2+  Ca0  1  0.16975550  0.08081620  0.17214093  1
  Ca2+  Ca1  1  0.17591363  0.09139155  0.50378054  1
  Ca2+  Ca2  1  0.17010189  0.08623683  0.83915903  1
  Ca2+  Ca3  1  0.17062564  0.58186573  0.17699798  1
  Ca2+  Ca4  1  0.16934682  0.59125635  0.50102034  1
  Ca2+  Ca5  1  0.16453804  0.58332777  0.83683683  1
  Ca2+  Ca6  1  0.66610911  0.07781685  0.17570708  1
  Ca2+  Ca7  1  0.66598948  0.07483438  0.49961974  1
  Ca2+  Ca8  1  0.66444847  0.07431732  0.83941863  1
  Ca2+  Ca9  1  0.67791357  0.58421030  0.17045527  1
  Ca2+  Ca10  1  0.67340022  0.57956949  0.50379158  1
  Ca2+  Ca11  1  0.67046422  0.57645310  0.83930698  1
  Ca2+  Ca12  1  0.08416993  0.32053711  0.16528675  1
  Ca2+  Ca13  1  0.08371471  0.32159750  0.49674456  1
  Ca2+  Ca14  1  0.08406714  0.32133455  0.82990476  1
  Ca2+  Ca15  1  0.06903974  0.83603413  0.16218019  1
  Ca2+  Ca16  1  0.07761305  0.82316506  0.48970116  1
  Ca2+  Ca17  1  0.07761204  0.83313326  0.83145191  1
  Ca2+  Ca18  1  0.57989693  0.31898125  0.15942164  1
  Ca2+  Ca19  1  0.58120233  0.32996625  0.49549282  1
  Ca2+  Ca20  1  0.57574211  0.33230792  0.82783196  1
  Ca2+  Ca21  1  0.57280117  0.84553736  0.16334892  1
  Ca2+  Ca22  1  0.58032265  0.84241905  0.49331633  1
  Ca2+  Ca23  1  0.58199639  0.84061149  0.83440653  1
  Ca2+  Ca24  1  0.33608463  0.42091160  0.17144811  1
  Ca2+  Ca25  1  0.33658069  0.42232302  0.50375747  1
  Ca2+  Ca26  1  0.33739868  0.41305991  0.83703245  1
  Ca2+  Ca27  1  0.32827164  0.91496038  0.17353790  1
  Ca2+  Ca28  1  0.33805136  0.93045571  0.50124894  1
  Ca2+  Ca29  1  0.32602079  0.92321490  0.84071395  1
  Ca2+  Ca30  1  0.83957321  0.42946837  0.17208930  1
  Ca2+  Ca31  1  0.82930190  0.42057781  0.50294660  1
  Ca2+  Ca32  1  0.82993943  0.42248445  0.83822092  1
  Ca2+  Ca33  1  0.82281218  0.91401446  0.17409750  1
  Ca2+  Ca34  1  0.82650133  0.91547103  0.49756636  1
  Ca2+  Ca35  1  0.82313646  0.91186073  0.84070855  1
  Ca2+  Ca36  1  0.42821387  0.16192699  0.16300977  1
  Ca2+  Ca37  1  0.41828689  0.16709138  0.49354884  1
  Ca2+  Ca38  1  0.41957915  0.17383203  0.83047285  1
  Ca2+  Ca39  1  0.41348310  0.67784521  0.16597334  1
  Ca2+  Ca40  1  0.41903809  0.67489323  0.48919755  1
  Ca2+  Ca41  1  0.41575694  0.67673047  0.83218210  1
  Ca2+  Ca42  1  0.92848227  0.15065824  0.16620799  1
  Ca2+  Ca43  1  0.92547009  0.16067675  0.49131125  1
  Ca2+  Ca44  1  0.93068653  0.15828713  0.83099659  1
  Ca2+  Ca45  1  0.91073050  0.67484581  0.16434599  1
  Ca2+  Ca46  1  0.92481157  0.66915149  0.48982573  1
  Ca2+  Ca47  1  0.91701562  0.67043758  0.83201943  1
  Al0+  Al48  1  0.00061811  -0.00345485  -0.00733184  1
  Al0+  Al49  1  -0.00105423  -0.00302440  0.32989503  1
  Al0+  Al50  1  0.00049223  -0.00203128  0.65999801  1
  Al0+  Al51  1  0.00164557  0.49895928  0.00495241  1
  Al0+  Al52  1  0.00113430  0.49734186  0.33625199  1
  Al0+  Al53  1  0.00200114  0.50007849  0.66353441  1
  Al0+  Al54  1  0.49851924  0.00086916  -0.00663440  1
  Al0+  Al55  1  0.49761857  0.00131768  0.33313709  1
  Al0+  Al56  1  0.49912753  0.00259833  0.67625969  1
  Al0+  Al57  1  0.50066435  0.50056683  -0.00093543  1
  Al0+  Al58  1  0.49851799  0.50137164  0.33682588  1
  Al0+  Al59  1  0.50043508  0.50168073  0.66749477  1
  Al0+  Al60  1  0.25026704  0.25110365  -0.00485925  1
  Al0+  Al61  1  0.24883502  0.25100412  0.33260975  1
  Al0+  Al62  1  0.25161309  0.25325288  0.66345435  1
  Al0+  Al63  1  0.24944117  0.75049560  -0.00045605  1
  Al0+  Al64  1  0.25043313  0.74840357  0.33160754  1
  Al0+  Al65  1  0.25091964  0.75191903  0.66343010  1
  Al0+  Al66  1  0.75187592  0.24953970  -0.00363003  1
  Al0+  Al67  1  0.75038515  0.24959507  0.33242946  1
  Al0+  Al68  1  0.75025298  0.24975613  0.67273880  1
  Al0+  Al69  1  0.74915614  0.74992727  0.00327430  1
  Al0+  Al70  1  0.74906891  0.74718298  0.34033154  1
  Al0+  Al71  1  0.74942864  0.75007960  0.67092520  1
  Al0+  Al72  1  0.92660602  0.81867830  0.31757667  1
  Al0+  Al73  1  0.82185264  0.56999638  0.34914342  1
  Al0+  Al74  1  0.57086568  0.17989219  0.32201865  1
  Al0+  Al75  1  0.42661096  0.82090760  0.98509663  1
  Al0+  Al76  1  0.07139428  0.67930834  0.65309991  1
  Al0+  Al77  1  0.06928519  0.17874076  0.98639956  1
  Al0+  Al78  1  0.57395706  0.17746916  0.98265761  1
  Al0+  Al79  1  0.67821627  0.42874245  0.68084652  1
  Al0+  Al80  1  0.32032553  0.57164673  0.34752792  1
  Al0+  Al81  1  0.43117659  0.32243504  0.65028520  1
  Al0+  Al82  1  0.68009111  0.92982719  0.68272500  1
  Al0+  Al83  1  0.82092074  0.56918349  0.01374477  1
  Al0+  Al84  1  0.82300364  0.07170994  0.34739847  1
  Al0+  Al85  1  0.67783754  0.93159972  0.01482276  1
  Al0+  Al86  1  0.31883472  0.07112633  0.34494292  1
  Al0+  Al87  1  0.31866248  0.07386585  0.68221534  1
  Al0+  Al88  1  0.92700462  0.81877118  0.98489594  1
  Al0+  Al89  1  0.07132685  0.67653656  0.31658492  1
  Al0+  Al90  1  0.43081038  0.32231435  0.98567656  1
  Al0+  Al91  1  0.17811069  0.92829239  0.01333812  1
  Al0+  Al92  1  0.07065333  0.17890527  0.65180402  1
  Al0+  Al93  1  0.43091920  0.82155019  0.32159198  1
  Al0+  Al94  1  0.07137296  0.17811244  0.31924525  1
  Al0+  Al95  1  0.67719098  0.92972926  0.34761248  1
  Si0+  Si96  1  0.17881377  0.42718919  0.35239345  1
  Si0+  Si97  1  0.92714207  0.32096471  0.31727018  1
  Si0+  Si98  1  0.17990745  0.43094329  0.68235199  1
  Si0+  Si99  1  0.32161971  0.57196850  0.01389920  1
  Si0+  Si100  1  0.57104297  0.67981949  0.65291366  1
  Si0+  Si101  1  0.67700991  0.42649095  0.01745704  1
  Si0+  Si102  1  0.18038592  0.42816126  0.01518686  1
  Si0+  Si103  1  0.07176420  0.67636792  0.98450702  1
  Si0+  Si104  1  0.42808200  0.32383248  0.31771034  1
  Si0+  Si105  1  0.92507812  0.82018880  0.64854861  1
  Si0+  Si106  1  0.92688231  0.32196200  0.65081099  1
  Si0+  Si107  1  0.57159852  0.67887480  0.98368218  1
  Si0+  Si108  1  0.17846040  0.92711503  0.68144391  1
  Si0+  Si109  1  0.31924027  0.07328349  0.01641550  1
  Si0+  Si110  1  0.32095141  0.57360361  0.68282287  1
  Si0+  Si111  1  0.82358791  0.57019215  0.68392779  1
  Si0+  Si112  1  0.67735089  0.42727819  0.34864417  1
  Si0+  Si113  1  0.57253158  0.17745285  0.64959881  1
  Si0+  Si114  1  0.57186233  0.67531704  0.31779041  1
  Si0+  Si115  1  0.82380970  0.07212209  0.01387300  1
  Si0+  Si116  1  0.43078613  0.82265434  0.65203225  1
  Si0+  Si117  1  0.17718515  0.92712679  0.34944640  1
  Si0+  Si118  1  0.92991763  0.32610925  0.98365066  1
  Si0+  Si119  1  0.82558708  0.07144364  0.68370332  1
  O2-  O120  1  0.25253972  0.00286486  0.06059892  1
  O2-  O121  1  0.24292254  -0.00152150  0.39412800  1
  O2-  O122  1  0.24102880  0.00072434  0.72692754  1
  O2-  O123  1  0.25191946  0.49941446  0.05565475  1
  O2-  O124  1  0.24540537  0.49835266  0.39632388  1
  O2-  O125  1  0.24939639  0.50341179  0.72568577  1
  O2-  O126  1  0.75002461  0.00983378  0.05874639  1
  O2-  O127  1  0.75076896  0.00029562  0.39797777  1
  O2-  O128  1  0.75663395  0.00345945  0.72837843  1
  O2-  O129  1  0.74858384  0.49203135  0.06140059  1
  O2-  O130  1  0.74623020  0.49529561  0.39410040  1
  O2-  O131  1  0.75510632  0.50134300  0.72801946  1
  O2-  O132  1  -0.00828022  0.24828550  0.27314154  1
  O2-  O133  1  -0.00899298  0.24939024  0.60635753  1
  O2-  O134  1  -0.00744949  0.25197041  0.93958173  1
  O2-  O135  1  -0.00152883  0.74664632  0.26616864  1
  O2-  O136  1  -0.00419240  0.75250151  0.60655809  1
  O2-  O137  1  0.00269351  0.74381181  0.93946805  1
  O2-  O138  1  0.49664689  0.25536704  0.27480683  1
  O2-  O139  1  0.50615930  0.24805020  0.60443038  1
  O2-  O140  1  0.50401441  0.25276979  0.93422632  1
  O2-  O141  1  0.50639973  0.74729413  0.27454165  1
  O2-  O142  1  0.50415350  0.75409535  0.60991111  1
  O2-  O143  1  0.50294258  0.74731024  0.93844692  1
  O2-  O144  1  0.07069111  0.18057495  0.09928390  1
  O2-  O145  1  0.07315023  0.18274421  0.43235987  1
  O2-  O146  1  0.07044806  0.18153071  0.76513365  1
  O2-  O147  1  0.07250613  0.67485406  0.08933844  1
  O2-  O148  1  0.07052818  0.67976102  0.43066000  1
  O2-  O149  1  0.07098059  0.67895586  0.76649653  1
  O2-  O150  1  0.57174624  0.17762627  0.09655761  1
  O2-  O151  1  0.56913404  0.18130054  0.43533492  1
  O2-  O152  1  0.57040685  0.17833218  0.75497621  1
  O2-  O153  1  0.56983254  0.67583273  0.08894623  1
  O2-  O154  1  0.56877206  0.67185011  0.42380992  1
  O2-  O155  1  0.56863492  0.67846752  0.75804493  1
  O2-  O156  1  0.18101716  0.42543549  0.24646036  1
  O2-  O157  1  0.18040334  0.43124583  0.57762803  1
  O2-  O158  1  0.17836804  0.42943771  0.90979222  1
  O2-  O159  1  0.17887827  0.92803994  0.24370461  1
  O2-  O160  1  0.18235772  0.92413571  0.57622301  1
  O2-  O161  1  0.17923639  0.92895963  0.89968197  1
  O2-  O162  1  0.67686889  0.42904948  0.24318550  1
  O2-  O163  1  0.67936501  0.43209371  0.56771720  1
  O2-  O164  1  0.67649147  0.43058147  0.91166959  1
  O2-  O165  1  0.67531671  0.93212672  0.23426916  1
  O2-  O166  1  0.67853530  0.92993329  0.57011529  1
  O2-  O167  1  0.68124827  0.93033186  0.90132105  1
  O2-  O168  1  0.43120578  0.32406072  0.09924069  1
  O2-  O169  1  0.42938816  0.32493637  0.42341986  1
  O2-  O170  1  0.43166908  0.32280274  0.76313419  1
  O2-  O171  1  0.42547259  0.81848536  0.09797767  1
  O2-  O172  1  0.43235350  0.82126372  0.43537412  1
  O2-  O173  1  0.42854735  0.81871232  0.75710335  1
  O2-  O174  1  0.93445972  0.33201131  0.08872121  1
  O2-  O175  1  0.92880306  0.32249626  0.42311498  1
  O2-  O176  1  0.93060419  0.32540167  0.75643231  1
  O2-  O177  1  0.92564822  0.81837695  0.09717405  1
  O2-  O178  1  0.92850421  0.81720613  0.43164937  1
  O2-  O179  1  0.92423843  0.81867980  0.75440628  1
  O2-  O180  1  0.31886670  0.07010270  0.23200936  1
  O2-  O181  1  0.32058965  0.07165185  0.56888131  1
  O2-  O182  1  0.31559577  0.07399688  0.91047621  1
  O2-  O183  1  0.32131383  0.56837555  0.23408193  1
  O2-  O184  1  0.32082400  0.57379228  0.57801549  1
  O2-  O185  1  0.31974086  0.57290050  0.90837306  1
  O2-  O186  1  0.82190224  0.07092996  0.23380178  1
  O2-  O187  1  0.82597924  0.07179022  0.57845691  1
  O2-  O188  1  0.82519683  0.06863020  0.90790634  1
  O2-  O189  1  0.82020686  0.56846338  0.23595009  1
  O2-  O190  1  0.82276989  0.56931479  0.57856724  1
  O2-  O191  1  0.82028030  0.56677276  0.90014879  1
  O2-  O192  1  0.04469940  0.08047412  0.26601431  1
  O2-  O193  1  0.04686870  0.08047025  0.59810236  1
  O2-  O194  1  0.04036237  0.08335444  0.92913446  1
  O2-  O195  1  0.04769844  0.57484158  0.26875313  1
  O2-  O196  1  0.04411043  0.58186848  0.59863104  1
  O2-  O197  1  0.04649750  0.58193995  0.93862088  1
  O2-  O198  1  0.53595731  0.08584072  0.26661704  1
  O2-  O199  1  0.54239783  0.08400828  0.60608568  1
  O2-  O200  1  0.54125442  0.08205674  0.92689307  1
  O2-  O201  1  0.54256027  0.58348517  0.26963932  1
  O2-  O202  1  0.54019907  0.59019389  0.60371260  1
  O2-  O203  1  0.54554757  0.58568239  0.93591460  1
  O2-  O204  1  0.16575272  0.21455644  0.26383415  1
  O2-  O205  1  0.16485916  0.21705604  0.59866501  1
  O2-  O206  1  0.16385280  0.21411849  0.93122083  1
  O2-  O207  1  0.17078983  0.70245690  0.26575013  1
  O2-  O208  1  0.16832192  0.71047964  0.59911693  1
  O2-  O209  1  0.16479309  0.70225870  0.93723507  1
  O2-  O210  1  0.66744587  0.20862180  0.26662599  1
  O2-  O211  1  0.66870238  0.20044789  0.60761619  1
  O2-  O212  1  0.67448028  0.20090253  0.93060620  1
  O2-  O213  1  0.66722254  0.69621745  0.27537151  1
  O2-  O214  1  0.66507793  0.70306208  0.60763587  1
  O2-  O215  1  0.66436129  0.70491325  0.93670354  1
  O2-  O216  1  0.09002559  0.45533913  0.06540039  1
  O2-  O217  1  0.08476566  0.44832760  0.39906240  1
  O2-  O218  1  0.08745721  0.45753263  0.73021286  1
  O2-  O219  1  0.08055626  0.95875041  0.06499624  1
  O2-  O220  1  0.08252865  0.94854644  0.39416907  1
  O2-  O221  1  0.08135253  0.94616129  0.72333130  1
  O2-  O222  1  0.58459257  0.45555122  0.06398557  1
  O2-  O223  1  0.58436523  0.45386562  0.39604064  1
  O2-  O224  1  0.58347428  0.46499444  0.73598185  1
  O2-  O225  1  0.57815970  0.95964822  0.06376554  1
  O2-  O226  1  0.58037150  0.96259405  0.40168948  1
  O2-  O227  1  0.58434219  0.96093294  0.73832539  1
  O2-  O228  1  0.20936287  0.33694627  0.06295950  1
  O2-  O229  1  0.20781814  0.33545309  0.40033953  1
  O2-  O230  1  0.21020996  0.34059174  0.73074910  1
  O2-  O231  1  0.20860594  0.83153283  0.06698504  1
  O2-  O232  1  0.20565083  0.83420832  0.39497501  1
  O2-  O233  1  0.20999536  0.83583903  0.73009898  1
  O2-  O234  1  0.69967699  0.33084192  0.06021438  1
  O2-  O235  1  0.70280246  0.33437757  0.39584408  1
  O2-  O236  1  0.70532169  0.33201682  0.73689467  1
  O2-  O237  1  0.70803434  0.83452376  0.06721160  1
  O2-  O238  1  0.70117849  0.83019472  0.40101919  1
  O2-  O239  1  0.70825700  0.83180299  0.73713194  1
  O2-  O240  1  0.45338432  0.41797920  0.27225754  1
  O2-  O241  1  0.46127254  0.42069759  0.59817135  1
  O2-  O242  1  0.45627748  0.42205716  0.93193911  1
  O2-  O243  1  0.45933672  0.91711408  0.26554960  1
  O2-  O244  1  0.45816167  0.91626589  0.60882360  1
  O2-  O245  1  0.45479834  0.91675152  0.92935152  1
  O2-  O246  1  0.95927936  0.41222642  0.27012653  1
  O2-  O247  1  0.95690450  0.41364798  0.60269698  1
  O2-  O248  1  0.96217284  0.41658371  0.93404259  1
  O2-  O249  1  0.95429058  0.91649793  0.26355201  1
  O2-  O250  1  0.94826547  0.91393465  0.60251549  1
  O2-  O251  1  0.95922262  0.91269447  0.92662559  1
  O2-  O252  1  0.33396969  0.30012799  0.27281050  1
  O2-  O253  1  0.33408209  0.29483544  0.59658061  1
  O2-  O254  1  0.33255783  0.29460939  0.93148064  1
  O2-  O255  1  0.33546054  0.78837064  0.26732558  1
  O2-  O256  1  0.34037651  0.79288332  0.60356525  1
  O2-  O257  1  0.33179126  0.78609211  0.92869158  1
  O2-  O258  1  0.83227222  0.30368664  0.27122899  1
  O2-  O259  1  0.83087362  0.30136758  0.60759251  1
  O2-  O260  1  0.83384647  0.30782127  0.93994226  1
  O2-  O261  1  0.82686209  0.78827269  0.26837345  1
  O2-  O262  1  0.83177830  0.79213459  0.60335293  1
  O2-  O263  1  0.83126892  0.78458723  0.93061432  1
  O2-  O264  1  0.41452425  0.04834396  0.05746777  1
  O2-  O265  1  0.41331877  0.03860498  0.40172235  1
  O2-  O266  1  0.41307831  0.04162944  0.73887438  1
  O2-  O267  1  0.41405928  0.54598376  0.06086044  1
  O2-  O268  1  0.41649042  0.54153138  0.40426928  1
  O2-  O269  1  0.41234105  0.54572318  0.73055339  1
  O2-  O270  1  0.91605357  0.04043673  0.05828172  1
  O2-  O271  1  0.92157750  0.04191714  0.40022817  1
  O2-  O272  1  0.91995419  0.04399196  0.72851285  1
  O2-  O273  1  0.91783745  0.53979525  0.06838538  1
  O2-  O274  1  0.91780707  0.53675907  0.40330920  1
  O2-  O275  1  0.91762220  0.54387972  0.72915831  1
  O2-  O276  1  0.29226857  0.16690403  0.06152310  1
  O2-  O277  1  0.28980876  0.16868446  0.39893154  1
  O2-  O278  1  0.28856492  0.17164445  0.73423187  1
  O2-  O279  1  0.29232968  0.66246473  0.06200474  1
  O2-  O280  1  0.29118207  0.66818717  0.40327913  1
  O2-  O281  1  0.29269726  0.66581583  0.73004285  1
  O2-  O282  1  0.80874682  0.16969127  0.05633376  1
  O2-  O283  1  0.79801594  0.17176457  0.39962168  1
  O2-  O284  1  0.80391558  0.16586494  0.73040182  1
  O2-  O285  1  0.78624874  0.66361607  0.06829159  1
  O2-  O286  1  0.79063850  0.66382369  0.40736448  1
  O2-  O287  1  0.79645499  0.66323365  0.73013183  1
