# generated using pymatgen
data_Ca2Al2SiO7
_symmetry_space_group_name_H-M   'P 1'
_cell_length_a   15.45707471
_cell_length_b   15.45836079
_cell_length_c   15.28305085
_cell_angle_alpha   89.98594225
_cell_angle_beta   90.00225216
_cell_angle_gamma   90.00217503
_symmetry_Int_Tables_number   1
_chemical_formula_structural   Ca2Al2SiO7
_chemical_formula_sum   'Ca48 Al48 Si24 O168'
_cell_volume   3651.74791271
_cell_formula_units_Z   24
loop_
 _symmetry_equiv_pos_site_id
 _symmetry_equiv_pos_as_xyz
  1  'x, y, z'
loop_
 _atom_type_symbol
 _atom_type_oxidation_number
  Ca2+  2.0
  Al0+  0.0
  Si0+  0.0
  O2-  -2.0
loop_
 _atom_site_type_symbol
 _atom_site_label
 _atom_site_symmetry_multiplicity
 _atom_site_fract_x
 _atom_site_fract_y
 _atom_site_fract_z
 _atom_site_occupancy
  Ca2+  Ca0  1  0.17194928  0.09207939  0.16663937  1
  Ca2+  Ca1  1  0.16114687  0.08016021  0.50750787  1
  Ca2+  Ca2  1  0.16862420  0.08410949  0.83925703  1
  Ca2+  Ca3  1  0.17526558  0.57492209  0.17005785  1
  Ca2+  Ca4  1  0.17149470  0.58031727  0.51074146  1
  Ca2+  Ca5  1  0.16251722  0.56901401  0.83800276  1
  Ca2+  Ca6  1  0.67975444  0.09264405  0.16923115  1
  Ca2+  Ca7  1  0.67824302  0.07817456  0.51310545  1
  Ca2+  Ca8  1  0.67214375  0.09049729  0.83914921  1
  Ca2+  Ca9  1  0.65924937  0.58238399  0.16514759  1
  Ca2+  Ca10  1  0.67197933  0.58614152  0.50563977  1
  Ca2+  Ca11  1  0.67596936  0.58106385  0.84260048  1
  Ca2+  Ca12  1  0.08463415  0.32407264  0.15896781  1
  Ca2+  Ca13  1  0.08458461  0.32401518  0.50120826  1
  Ca2+  Ca14  1  0.08954021  0.32434296  0.82760967  1
  Ca2+  Ca15  1  0.07575234  0.83328784  0.16494118  1
  Ca2+  Ca16  1  0.07860020  0.83192924  0.49824557  1
  Ca2+  Ca17  1  0.08351732  0.82645849  0.82467800  1
  Ca2+  Ca18  1  0.57631852  0.33149138  0.15241146  1
  Ca2+  Ca19  1  0.58144137  0.32997028  0.50172943  1
  Ca2+  Ca20  1  0.57832297  0.32812731  0.83058613  1
  Ca2+  Ca21  1  0.57981355  0.82083741  0.15680847  1
  Ca2+  Ca22  1  0.58805699  0.82924595  0.49692580  1
  Ca2+  Ca23  1  0.58218181  0.83504026  0.83306943  1
  Ca2+  Ca24  1  0.32989915  0.41363544  0.16736375  1
  Ca2+  Ca25  1  0.33040904  0.42079128  0.50592609  1
  Ca2+  Ca26  1  0.32530528  0.40224253  0.83619160  1
  Ca2+  Ca27  1  0.33819459  0.92047691  0.16314608  1
  Ca2+  Ca28  1  0.32410533  0.91905895  0.50872206  1
  Ca2+  Ca29  1  0.32906097  0.92089438  0.83994233  1
  Ca2+  Ca30  1  0.82471937  0.41975599  0.16277490  1
  Ca2+  Ca31  1  0.83335167  0.42461180  0.50803404  1
  Ca2+  Ca32  1  0.83102358  0.42745237  0.84206739  1
  Ca2+  Ca33  1  0.83556834  0.92544058  0.17049401  1
  Ca2+  Ca34  1  0.83171828  0.92180417  0.50580819  1
  Ca2+  Ca35  1  0.82662304  0.92813139  0.83356215  1
  Ca2+  Ca36  1  0.42334846  0.17084395  0.14992840  1
  Ca2+  Ca37  1  0.42060160  0.17186771  0.50327900  1
  Ca2+  Ca38  1  0.42388956  0.17294618  0.83092853  1
  Ca2+  Ca39  1  0.42358683  0.66741363  0.15961102  1
  Ca2+  Ca40  1  0.42137056  0.66651451  0.49095152  1
  Ca2+  Ca41  1  0.42103115  0.67040941  0.83380266  1
  Ca2+  Ca42  1  0.92597883  0.15904310  0.16165689  1
  Ca2+  Ca43  1  0.92565108  0.15292292  0.49787507  1
  Ca2+  Ca44  1  0.92340679  0.16088336  0.82924849  1
  Ca2+  Ca45  1  0.91034567  0.67414504  0.16163843  1
  Ca2+  Ca46  1  0.92081025  0.67058148  0.49803753  1
  Ca2+  Ca47  1  0.91884741  0.66110417  0.82524362  1
  Al0+  Al48  1  -0.00064533  -0.00232828  -0.00099099  1
  Al0+  Al49  1  0.00107412  -0.00085813  0.32776653  1
  Al0+  Al50  1  -0.00078534  -0.00222694  0.67138673  1
  Al0+  Al51  1  0.00018265  0.50004662  0.01273178  1
  Al0+  Al52  1  -0.00082651  0.49756530  0.33286348  1
  Al0+  Al53  1  0.00305211  0.49941289  0.66817272  1
  Al0+  Al54  1  0.49920705  -0.00102068  -0.00231945  1
  Al0+  Al55  1  0.50009449  0.00016718  0.33503008  1
  Al0+  Al56  1  0.49953934  -0.00075436  0.66351149  1
  Al0+  Al57  1  0.49873968  0.50131024  -0.00748512  1
  Al0+  Al58  1  0.49867032  0.49952583  0.33463979  1
  Al0+  Al59  1  0.49983035  0.50178853  0.66195356  1
  Al0+  Al60  1  0.24903884  0.24709174  0.00201482  1
  Al0+  Al61  1  0.24991301  0.24949335  0.33225005  1
  Al0+  Al62  1  0.25029702  0.25075369  0.65902559  1
  Al0+  Al63  1  0.24776327  0.74936802  -0.00177488  1
  Al0+  Al64  1  0.25015656  0.74996255  0.33634737  1
  Al0+  Al65  1  0.25054274  0.74962269  0.66651895  1
  Al0+  Al66  1  0.75278048  0.25294224  0.00639314  1
  Al0+  Al67  1  0.75203965  0.25129475  0.34049593  1
  Al0+  Al68  1  0.75066284  0.25167522  0.66586256  1
  Al0+  Al69  1  0.75065256  0.75268242  -0.00142974  1
  Al0+  Al70  1  0.74949130  0.74981030  0.32456182  1
  Al0+  Al71  1  0.75017760  0.75221375  0.67419945  1
  Al0+  Al72  1  0.32018175  0.06860662  0.01194151  1
  Al0+  Al73  1  0.82099026  0.57413820  0.01765120  1
  Al0+  Al74  1  0.67652641  0.92926035  0.68205145  1
  Al0+  Al75  1  0.06852547  0.17750306  0.65366475  1
  Al0+  Al76  1  0.82096555  0.07297132  0.68270190  1
  Al0+  Al77  1  0.42717410  0.32149003  0.98553181  1
  Al0+  Al78  1  0.56906899  0.67931981  0.32001926  1
  Al0+  Al79  1  0.93090323  0.81876597  0.31977691  1
  Al0+  Al80  1  0.57540430  0.17954531  0.98762407  1
  Al0+  Al81  1  0.18034098  0.42656452  0.01492902  1
  Al0+  Al82  1  0.17868442  0.92789580  0.67994675  1
  Al0+  Al83  1  0.57198554  0.67909506  0.98137546  1
  Al0+  Al84  1  0.31993190  0.56984083  0.34658663  1
  Al0+  Al85  1  0.82205688  0.06971436  0.34804094  1
  Al0+  Al86  1  0.82100819  0.57006241  0.67789402  1
  Al0+  Al87  1  0.57389376  0.17756939  0.65035253  1
  Al0+  Al88  1  0.06894455  0.17907291  0.98560425  1
  Al0+  Al89  1  0.82140560  0.07121014  0.01514145  1
  Al0+  Al90  1  0.67676047  0.43077074  0.01355453  1
  Al0+  Al91  1  0.07170072  0.67700536  0.65414811  1
  Al0+  Al92  1  0.18226775  0.42933356  0.67931490  1
  Al0+  Al93  1  0.06917735  0.18057286  0.31860766  1
  Al0+  Al94  1  0.42894527  0.32176816  0.64875055  1
  Al0+  Al95  1  0.42682642  0.82143454  0.98397548  1
  Si0+  Si96  1  0.32273141  0.07250292  0.34924532  1
  Si0+  Si97  1  0.92858819  0.32367893  0.65155621  1
  Si0+  Si98  1  0.42516351  0.82399945  0.31772061  1
  Si0+  Si99  1  0.82044609  0.57321251  0.34812837  1
  Si0+  Si100  1  0.92923000  0.82132850  0.98220483  1
  Si0+  Si101  1  0.06901151  0.67767681  0.98710707  1
  Si0+  Si102  1  0.32066872  0.07209804  0.68149898  1
  Si0+  Si103  1  0.32458856  0.57310805  0.68430935  1
  Si0+  Si104  1  0.17975551  0.93011898  0.34731060  1
  Si0+  Si105  1  0.67812764  0.92709825  0.34755588  1
  Si0+  Si106  1  0.57190275  0.68164825  0.65150647  1
  Si0+  Si107  1  0.67814030  0.43014300  0.35021822  1
  Si0+  Si108  1  0.67590414  0.42901266  0.68213845  1
  Si0+  Si109  1  0.92987126  0.32457553  0.98512867  1
  Si0+  Si110  1  0.17721610  0.92533670  0.01822786  1
  Si0+  Si111  1  0.57265623  0.17865626  0.32031793  1
  Si0+  Si112  1  0.42748625  0.82108997  0.64971653  1
  Si0+  Si113  1  0.67704483  0.92917636  0.01836215  1
  Si0+  Si114  1  0.43109252  0.31891287  0.31798575  1
  Si0+  Si115  1  0.92806211  0.81982832  0.65138510  1
  Si0+  Si116  1  0.32025371  0.57420580  0.01460891  1
  Si0+  Si117  1  0.92492191  0.32531973  0.31517574  1
  Si0+  Si118  1  0.07405179  0.67534884  0.31674434  1
  Si0+  Si119  1  0.17756029  0.42628181  0.35184085  1
  O2-  O120  1  0.24641726  -0.00631052  0.06194901  1
  O2-  O121  1  0.25274662  -0.00056228  0.38963523  1
  O2-  O122  1  0.25159712  0.00396150  0.72574087  1
  O2-  O123  1  0.25719081  0.50048963  0.05965728  1
  O2-  O124  1  0.24152672  0.49983165  0.39495401  1
  O2-  O125  1  0.25788022  0.50249704  0.72750853  1
  O2-  O126  1  0.74225781  0.00111430  0.06296967  1
  O2-  O127  1  0.74390498  -0.00227969  0.39290271  1
  O2-  O128  1  0.74181691  0.00777710  0.73114426  1
  O2-  O129  1  0.74472799  0.50580054  0.06663400  1
  O2-  O130  1  0.75077821  0.50106229  0.39104363  1
  O2-  O131  1  0.74697721  0.49554333  0.72482601  1
  O2-  O132  1  -0.00569773  0.25596696  0.27325693  1
  O2-  O133  1  -0.00950417  0.24886639  0.60630303  1
  O2-  O134  1  -0.00458483  0.25446691  0.93881713  1
  O2-  O135  1  0.00293367  0.74103719  0.27193828  1
  O2-  O136  1  -0.00266317  0.75160779  0.60660860  1
  O2-  O137  1  -0.00340502  0.74577395  0.94270507  1
  O2-  O138  1  0.50030811  0.24666955  0.27584045  1
  O2-  O139  1  0.50299926  0.25096792  0.59917429  1
  O2-  O140  1  0.50330669  0.25204695  0.93862171  1
  O2-  O141  1  0.49429073  0.75514697  0.27540536  1
  O2-  O142  1  0.50006421  0.75122895  0.60769143  1
  O2-  O143  1  0.50000788  0.75179421  0.93227736  1
  O2-  O144  1  0.06874453  0.17992786  0.09913487  1
  O2-  O145  1  0.06935946  0.17939361  0.43181880  1
  O2-  O146  1  0.07047140  0.17893963  0.76625046  1
  O2-  O147  1  0.07019987  0.68109683  0.09254809  1
  O2-  O148  1  0.07403358  0.67683973  0.42235670  1
  O2-  O149  1  0.06946333  0.67685768  0.76737379  1
  O2-  O150  1  0.57301947  0.18113748  0.10245529  1
  O2-  O151  1  0.57043983  0.18017757  0.42506865  1
  O2-  O152  1  0.57241203  0.17920990  0.76340351  1
  O2-  O153  1  0.56899684  0.68011750  0.09556439  1
  O2-  O154  1  0.57028808  0.68141577  0.43373924  1
  O2-  O155  1  0.57089162  0.68144776  0.75578650  1
  O2-  O156  1  0.18066316  0.42464165  0.24625555  1
  O2-  O157  1  0.18226280  0.43155108  0.56584034  1
  O2-  O158  1  0.17857714  0.42770651  0.90192427  1
  O2-  O159  1  0.18022840  0.92908410  0.24239746  1
  O2-  O160  1  0.17996832  0.92842925  0.56588978  1
  O2-  O161  1  0.17705005  0.92375670  0.91283532  1
  O2-  O162  1  0.67628715  0.42932018  0.24568207  1
  O2-  O163  1  0.67633311  0.43261574  0.57556153  1
  O2-  O164  1  0.68121057  0.43070504  0.90014337  1
  O2-  O165  1  0.67749411  0.92796682  0.24237758  1
  O2-  O166  1  0.68161527  0.92469851  0.56772303  1
  O2-  O167  1  0.68033703  0.92804228  0.91306646  1
  O2-  O168  1  0.42741022  0.31885602  0.10028418  1
  O2-  O169  1  0.43185093  0.31882761  0.42284949  1
  O2-  O170  1  0.42802368  0.31939565  0.76153266  1
  O2-  O171  1  0.42695699  0.81825553  0.09831683  1
  O2-  O172  1  0.42409742  0.82426052  0.42349519  1
  O2-  O173  1  0.42481765  0.81954683  0.75416640  1
  O2-  O174  1  0.93212491  0.32385804  0.09108186  1
  O2-  O175  1  0.92478638  0.33082924  0.42058191  1
  O2-  O176  1  0.93181042  0.32705666  0.75672314  1
  O2-  O177  1  0.93172809  0.82250121  0.08782493  1
  O2-  O178  1  0.93239125  0.81727012  0.43292128  1
  O2-  O179  1  0.92906768  0.81828348  0.75689166  1
  O2-  O180  1  0.32430045  0.07343855  0.24452618  1
  O2-  O181  1  0.31964487  0.06906361  0.57481467  1
  O2-  O182  1  0.31689686  0.06876568  0.89912431  1
  O2-  O183  1  0.31996543  0.56707539  0.23360898  1
  O2-  O184  1  0.32354844  0.57374017  0.57807662  1
  O2-  O185  1  0.31425109  0.57976630  0.90956905  1
  O2-  O186  1  0.82151102  0.06847276  0.23498879  1
  O2-  O187  1  0.82407873  0.06600197  0.56870459  1
  O2-  O188  1  0.82407708  0.06831724  0.90267274  1
  O2-  O189  1  0.81932908  0.57318208  0.24375940  1
  O2-  O190  1  0.81867689  0.57104682  0.56380365  1
  O2-  O191  1  0.82447176  0.57063226  0.90401676  1
  O2-  O192  1  0.03997900  0.08450776  0.26338498  1
  O2-  O193  1  0.03909926  0.07908807  0.60076590  1
  O2-  O194  1  0.03980777  0.08097077  0.93409611  1
  O2-  O195  1  0.05210993  0.57983898  0.27310417  1
  O2-  O196  1  0.04083982  0.58171729  0.59742902  1
  O2-  O197  1  0.04225822  0.58397426  0.94361953  1
  O2-  O198  1  0.54830726  0.08503143  0.27491609  1
  O2-  O199  1  0.54392408  0.07924140  0.59599113  1
  O2-  O200  1  0.54809065  0.08072619  0.93689111  1
  O2-  O201  1  0.53616059  0.58268331  0.26728800  1
  O2-  O202  1  0.54646710  0.58989063  0.60212203  1
  O2-  O203  1  0.54475588  0.58192838  0.92657313  1
  O2-  O204  1  0.16709740  0.21134268  0.26576032  1
  O2-  O205  1  0.16346884  0.20963934  0.59673665  1
  O2-  O206  1  0.16562662  0.20922877  0.93344125  1
  O2-  O207  1  0.16670608  0.70489558  0.27068929  1
  O2-  O208  1  0.16833789  0.70822183  0.59950166  1
  O2-  O209  1  0.15936425  0.70607050  0.93816905  1
  O2-  O210  1  0.66562962  0.20826246  0.27671884  1
  O2-  O211  1  0.67285208  0.20602740  0.59639708  1
  O2-  O212  1  0.67463176  0.20841170  0.93735554  1
  O2-  O213  1  0.66429015  0.70791479  0.26309086  1
  O2-  O214  1  0.66400131  0.71195186  0.60505567  1
  O2-  O215  1  0.67128824  0.70891262  0.93117462  1
  O2-  O216  1  0.08701012  0.45965781  0.07412713  1
  O2-  O217  1  0.08109098  0.44615816  0.39451568  1
  O2-  O218  1  0.08701691  0.46076039  0.73457166  1
  O2-  O219  1  0.08384444  0.95192684  0.06394322  1
  O2-  O220  1  0.08907722  0.96069184  0.39455369  1
  O2-  O221  1  0.08236114  0.95362499  0.73518750  1
  O2-  O222  1  0.57598382  0.45685890  0.06459308  1
  O2-  O223  1  0.58735780  0.45938609  0.39871130  1
  O2-  O224  1  0.58283952  0.45730893  0.72644688  1
  O2-  O225  1  0.58115064  0.94702499  0.06221274  1
  O2-  O226  1  0.58298823  0.94823346  0.39416049  1
  O2-  O227  1  0.57435976  0.94813011  0.73033507  1
  O2-  O228  1  0.21129136  0.33128764  0.07109936  1
  O2-  O229  1  0.20887989  0.33424992  0.39828859  1
  O2-  O230  1  0.21279892  0.33143645  0.73064878  1
  O2-  O231  1  0.20240111  0.83188933  0.06584994  1
  O2-  O232  1  0.20437554  0.83768643  0.39609813  1
  O2-  O233  1  0.21122466  0.83182947  0.73394065  1
  O2-  O234  1  0.70911325  0.33561424  0.07233719  1
  O2-  O235  1  0.70626238  0.33950611  0.40031798  1
  O2-  O236  1  0.69739645  0.33427513  0.72555844  1
  O2-  O237  1  0.70810644  0.83717443  0.06510129  1
  O2-  O238  1  0.70696469  0.83339224  0.39238549  1
  O2-  O239  1  0.71031996  0.83482546  0.73936854  1
  O2-  O240  1  0.45993429  0.41045219  0.27153656  1
  O2-  O241  1  0.45638978  0.42151937  0.59518317  1
  O2-  O242  1  0.44669177  0.42093812  0.93237673  1
  O2-  O243  1  0.45035701  0.91837855  0.27230253  1
  O2-  O244  1  0.45171288  0.91287980  0.60018132  1
  O2-  O245  1  0.45253195  0.91976136  0.93054800  1
  O2-  O246  1  0.94946708  0.41865033  0.26691425  1
  O2-  O247  1  0.96185149  0.41354584  0.60119878  1
  O2-  O248  1  0.95743153  0.41911573  0.94219021  1
  O2-  O249  1  0.96644208  0.91210028  0.26243061  1
  O2-  O250  1  0.95554050  0.91254769  0.60497402  1
  O2-  O251  1  0.96206744  0.91010902  0.93300789  1
  O2-  O252  1  0.33803319  0.29282586  0.27240438  1
  O2-  O253  1  0.33302286  0.29071549  0.59119539  1
  O2-  O254  1  0.33102884  0.28588452  0.93380685  1
  O2-  O255  1  0.33144275  0.79904659  0.27178400  1
  O2-  O256  1  0.33699836  0.79107763  0.59999723  1
  O2-  O257  1  0.32782249  0.79214575  0.93171718  1
  O2-  O258  1  0.83049107  0.29910026  0.27121676  1
  O2-  O259  1  0.83245783  0.30794851  0.60649371  1
  O2-  O260  1  0.83502429  0.30295440  0.94151856  1
  O2-  O261  1  0.83528946  0.79059595  0.26255791  1
  O2-  O262  1  0.83456412  0.79293711  0.60539275  1
  O2-  O263  1  0.83634594  0.79894380  0.93595611  1
  O2-  O264  1  0.41692650  0.03879712  0.06812269  1
  O2-  O265  1  0.41463721  0.04589523  0.39814934  1
  O2-  O266  1  0.41427209  0.04568541  0.72525680  1
  O2-  O267  1  0.41649064  0.55412020  0.05613511  1
  O2-  O268  1  0.41512556  0.53638381  0.40277468  1
  O2-  O269  1  0.41977442  0.55078910  0.72764996  1
  O2-  O270  1  0.91641033  0.03247273  0.06884062  1
  O2-  O271  1  0.91859516  0.03342526  0.39876784  1
  O2-  O272  1  0.91604486  0.03722359  0.73712853  1
  O2-  O273  1  0.91685035  0.54410647  0.07547166  1
  O2-  O274  1  0.91408340  0.54691679  0.39401661  1
  O2-  O275  1  0.91729248  0.53929987  0.73141322  1
  O2-  O276  1  0.28729695  0.16262062  0.07022276  1
  O2-  O277  1  0.29269863  0.16359100  0.39699514  1
  O2-  O278  1  0.29483262  0.16614516  0.72392087  1
  O2-  O279  1  0.28847030  0.66463325  0.06505499  1
  O2-  O280  1  0.29428850  0.66834895  0.40107753  1
  O2-  O281  1  0.29800339  0.66617229  0.72945645  1
  O2-  O282  1  0.79768338  0.16896298  0.07063660  1
  O2-  O283  1  0.79689958  0.16787471  0.40205978  1
  O2-  O284  1  0.80129680  0.17502346  0.73148056  1
  O2-  O285  1  0.79559699  0.67478629  0.06741630  1
  O2-  O286  1  0.79071504  0.66500443  0.39448241  1
  O2-  O287  1  0.79168286  0.66541149  0.73342271  1
