# generated using pymatgen
data_Ca2Al2SiO7
_symmetry_space_group_name_H-M   'P 1'
_cell_length_a   15.46275980
_cell_length_b   15.46302860
_cell_length_c   15.28797325
_cell_angle_alpha   90.01071246
_cell_angle_beta   90.00557254
_cell_angle_gamma   89.98328429
_symmetry_Int_Tables_number   1
_chemical_formula_structural   Ca2Al2SiO7
_chemical_formula_sum   'Ca48 Al48 Si24 O168'
_cell_volume   3655.37093796
_cell_formula_units_Z   24
loop_
 _symmetry_equiv_pos_site_id
 _symmetry_equiv_pos_as_xyz
  1  'x, y, z'
loop_
 _atom_type_symbol
 _atom_type_oxidation_number
  Ca2+  2.0
  Al0+  0.0
  Si0+  0.0
  O2-  -2.0
loop_
 _atom_site_type_symbol
 _atom_site_label
 _atom_site_symmetry_multiplicity
 _atom_site_fract_x
 _atom_site_fract_y
 _atom_site_fract_z
 _atom_site_occupancy
  Ca2+  Ca0  1  0.16537429  0.08624328  0.16211155  1
  Ca2+  Ca1  1  0.16530919  0.08569396  0.50305363  1
  Ca2+  Ca2  1  0.17175511  0.07520943  0.84792636  1
  Ca2+  Ca3  1  0.17084349  0.57841819  0.16590914  1
  Ca2+  Ca4  1  0.16911470  0.57788880  0.50828130  1
  Ca2+  Ca5  1  0.15883910  0.57480971  0.83964163  1
  Ca2+  Ca6  1  0.66739951  0.08527394  0.16230823  1
  Ca2+  Ca7  1  0.67109097  0.07551371  0.50932141  1
  Ca2+  Ca8  1  0.66898755  0.07305733  0.84594796  1
  Ca2+  Ca9  1  0.66442646  0.57664504  0.17047564  1
  Ca2+  Ca10  1  0.67176456  0.58044294  0.50788838  1
  Ca2+  Ca11  1  0.66985309  0.59387696  0.83488490  1
  Ca2+  Ca12  1  0.07514291  0.32730860  0.15481794  1
  Ca2+  Ca13  1  0.07854249  0.33141575  0.49392156  1
  Ca2+  Ca14  1  0.08532815  0.33239099  0.83411830  1
  Ca2+  Ca15  1  0.08786879  0.82599309  0.15549241  1
  Ca2+  Ca16  1  0.07863481  0.82759741  0.50041617  1
  Ca2+  Ca17  1  0.08523126  0.82188377  0.82823430  1
  Ca2+  Ca18  1  0.57782455  0.33184832  0.15476552  1
  Ca2+  Ca19  1  0.57845925  0.34143565  0.49726430  1
  Ca2+  Ca20  1  0.56986986  0.32688913  0.83366308  1
  Ca2+  Ca21  1  0.57763513  0.82580516  0.15249972  1
  Ca2+  Ca22  1  0.58589714  0.82821241  0.50586015  1
  Ca2+  Ca23  1  0.57936527  0.83510760  0.82795265  1
  Ca2+  Ca24  1  0.32991448  0.41847549  0.16755426  1
  Ca2+  Ca25  1  0.32849475  0.42249067  0.50870589  1
  Ca2+  Ca26  1  0.32455011  0.41139786  0.83902981  1
  Ca2+  Ca27  1  0.33301393  0.91912939  0.15995348  1
  Ca2+  Ca28  1  0.33437882  0.91908580  0.50614388  1
  Ca2+  Ca29  1  0.33334543  0.91692653  0.84543294  1
  Ca2+  Ca30  1  0.82949470  0.40807477  0.16938132  1
  Ca2+  Ca31  1  0.82839920  0.41733867  0.50500413  1
  Ca2+  Ca32  1  0.83763999  0.42428350  0.83912534  1
  Ca2+  Ca33  1  0.82994995  0.92303846  0.16235101  1
  Ca2+  Ca34  1  0.82988013  0.91531589  0.51215697  1
  Ca2+  Ca35  1  0.82373770  0.91435969  0.84054662  1
  Ca2+  Ca36  1  0.42164405  0.17236257  0.15222792  1
  Ca2+  Ca37  1  0.41742982  0.17441459  0.50101506  1
  Ca2+  Ca38  1  0.40978082  0.17313290  0.83487475  1
  Ca2+  Ca39  1  0.42012441  0.66855427  0.15617022  1
  Ca2+  Ca40  1  0.41652600  0.66863362  0.49939978  1
  Ca2+  Ca41  1  0.42778603  0.67924678  0.82990708  1
  Ca2+  Ca42  1  0.92268560  0.17499245  0.15832238  1
  Ca2+  Ca43  1  0.92454465  0.17360224  0.48872919  1
  Ca2+  Ca44  1  0.91684226  0.16662709  0.83803799  1
  Ca2+  Ca45  1  0.92434358  0.66796133  0.15812400  1
  Ca2+  Ca46  1  0.91474859  0.66639990  0.50842913  1
  Ca2+  Ca47  1  0.92519333  0.66936635  0.82600041  1
  Al0+  Al48  1  -0.00208408  0.00031062  0.00574896  1
  Al0+  Al49  1  -0.00024786  -0.00095034  0.33070593  1
  Al0+  Al50  1  0.00193148  0.00066539  0.66368286  1
  Al0+  Al51  1  -0.00007769  0.50027998  -0.00007885  1
  Al0+  Al52  1  -0.00105077  0.50264526  0.33050307  1
  Al0+  Al53  1  -0.00081553  0.49834945  0.66912021  1
  Al0+  Al54  1  0.49984337  -0.00072066  0.00419899  1
  Al0+  Al55  1  0.49843054  -0.00074426  0.33549213  1
  Al0+  Al56  1  0.50111945  0.00167070  0.66563322  1
  Al0+  Al57  1  0.50056290  0.50069145  -0.00956045  1
  Al0+  Al58  1  0.50039328  0.50167733  0.34174722  1
  Al0+  Al59  1  0.49937372  0.49963918  0.66047537  1
  Al0+  Al60  1  0.24682911  0.24964814  0.00309258  1
  Al0+  Al61  1  0.25144536  0.24876151  0.33171120  1
  Al0+  Al62  1  0.25054805  0.25058922  0.66443930  1
  Al0+  Al63  1  0.25155464  0.74778153  -0.00439266  1
  Al0+  Al64  1  0.25045198  0.75214736  0.33808754  1
  Al0+  Al65  1  0.25112079  0.74898172  0.65824298  1
  Al0+  Al66  1  0.74950573  0.25153570  -0.00563367  1
  Al0+  Al67  1  0.74900791  0.24836352  0.33771748  1
  Al0+  Al68  1  0.75022161  0.24969965  0.66751021  1
  Al0+  Al69  1  0.75244711  0.74876739  0.00535633  1
  Al0+  Al70  1  0.74900866  0.74947139  0.33233360  1
  Al0+  Al71  1  0.75010897  0.75025501  0.66706612  1
  Al0+  Al72  1  0.42895365  0.82385484  0.64941363  1
  Al0+  Al73  1  0.07267653  0.17809042  0.31656145  1
  Al0+  Al74  1  0.92837501  0.32173234  0.98246124  1
  Al0+  Al75  1  0.67817309  0.92719364  0.01716853  1
  Al0+  Al76  1  0.57449905  0.67782826  0.98620143  1
  Al0+  Al77  1  0.31991934  0.57210358  0.34726181  1
  Al0+  Al78  1  0.93055349  0.82167548  0.65382676  1
  Al0+  Al79  1  0.42605869  0.32173346  0.98661118  1
  Al0+  Al80  1  0.07103814  0.67534471  0.65014988  1
  Al0+  Al81  1  0.43005073  0.82077796  0.98712781  1
  Al0+  Al82  1  0.17771778  0.42910618  0.01477762  1
  Al0+  Al83  1  0.82030648  0.07416782  0.01628378  1
  Al0+  Al84  1  0.68071022  0.42839339  0.34619325  1
  Al0+  Al85  1  0.57201632  0.67973025  0.64924857  1
  Al0+  Al86  1  0.68080175  0.93124102  0.68049687  1
  Al0+  Al87  1  0.42843571  0.31949628  0.65103843  1
  Al0+  Al88  1  0.18040290  0.42959979  0.68016426  1
  Al0+  Al89  1  0.07164643  0.67949075  0.98798449  1
  Al0+  Al90  1  0.06988804  0.17725550  0.98337857  1
  Al0+  Al91  1  0.92744003  0.32242976  0.31942241  1
  Al0+  Al92  1  0.81836929  0.56819294  0.68129870  1
  Al0+  Al93  1  0.17848964  0.92536030  0.01312490  1
  Al0+  Al94  1  0.32071298  0.07156158  0.01504445  1
  Al0+  Al95  1  0.57165070  0.17809402  0.98611971  1
  Si0+  Si96  1  0.82299488  0.57503211  0.35033004  1
  Si0+  Si97  1  0.17791678  0.42814146  0.34863009  1
  Si0+  Si98  1  0.31983049  0.07055584  0.67948659  1
  Si0+  Si99  1  0.92770167  0.32072784  0.65158105  1
  Si0+  Si100  1  0.57324751  0.17921132  0.64884775  1
  Si0+  Si101  1  0.92703800  0.82055600  0.31731770  1
  Si0+  Si102  1  0.17902750  0.92810931  0.67882147  1
  Si0+  Si103  1  0.17826631  0.92962804  0.35012413  1
  Si0+  Si104  1  0.67812657  0.43100720  0.01128175  1
  Si0+  Si105  1  0.43141250  0.32273846  0.31958956  1
  Si0+  Si106  1  0.07112886  0.17969398  0.65221174  1
  Si0+  Si107  1  0.56931501  0.17686671  0.32055294  1
  Si0+  Si108  1  0.82561054  0.07391656  0.68270337  1
  Si0+  Si109  1  0.07289999  0.68173365  0.31827214  1
  Si0+  Si110  1  0.67826710  0.92807964  0.34955756  1
  Si0+  Si111  1  0.56994644  0.67955063  0.31863605  1
  Si0+  Si112  1  0.92802408  0.82202109  0.98623734  1
  Si0+  Si113  1  0.42823533  0.82202162  0.31726142  1
  Si0+  Si114  1  0.82090496  0.06859825  0.34976061  1
  Si0+  Si115  1  0.67508795  0.42552511  0.68627070  1
  Si0+  Si116  1  0.82215130  0.57041788  0.01650853  1
  Si0+  Si117  1  0.32352308  0.56964948  0.01304708  1
  Si0+  Si118  1  0.32346650  0.57383292  0.68482484  1
  Si0+  Si119  1  0.32214284  0.07128340  0.35048980  1
  O2-  O120  1  0.24785189  -0.00057808  0.06515766  1
  O2-  O121  1  0.24669530  0.00402608  0.39186782  1
  O2-  O122  1  0.25494034  -0.00628886  0.71986923  1
  O2-  O123  1  0.25619854  0.50078991  0.05981180  1
  O2-  O124  1  0.24544605  0.49695783  0.39431204  1
  O2-  O125  1  0.25297185  0.50647470  0.72754304  1
  O2-  O126  1  0.74724328  0.00271544  0.06722806  1
  O2-  O127  1  0.75086822  -0.00295886  0.39291957  1
  O2-  O128  1  0.75679172  0.00524709  0.72512019  1
  O2-  O129  1  0.74867907  0.50104880  0.05662883  1
  O2-  O130  1  0.75891513  0.50052069  0.39179471  1
  O2-  O131  1  0.74224462  0.49564474  0.72981218  1
  O2-  O132  1  0.00308297  0.25414539  0.26991212  1
  O2-  O133  1  -0.00295652  0.24765686  0.61016466  1
  O2-  O134  1  -0.00046478  0.24947403  0.93152335  1
  O2-  O135  1  -0.00126431  0.74975837  0.27628182  1
  O2-  O136  1  0.00139378  0.75016904  0.60014490  1
  O2-  O137  1  0.00174428  0.75901506  0.94297204  1
  O2-  O138  1  0.50214003  0.25136250  0.27829708  1
  O2-  O139  1  0.50807929  0.25045704  0.60251677  1
  O2-  O140  1  0.49384649  0.24469705  0.93771589  1
  O2-  O141  1  0.49883416  0.75012211  0.27655762  1
  O2-  O142  1  0.49779525  0.74932367  0.59777978  1
  O2-  O143  1  0.50787653  0.75518755  0.93808681  1
  O2-  O144  1  0.06848605  0.18059797  0.09692566  1
  O2-  O145  1  0.07053415  0.17791162  0.43137616  1
  O2-  O146  1  0.07276190  0.17782008  0.75625871  1
  O2-  O147  1  0.06956428  0.67935003  0.10211411  1
  O2-  O148  1  0.07349607  0.68295195  0.42305725  1
  O2-  O149  1  0.06941255  0.67638487  0.76331678  1
  O2-  O150  1  0.57200769  0.18465837  0.10088068  1
  O2-  O151  1  0.56624433  0.17430588  0.42574820  1
  O2-  O152  1  0.57199313  0.17873042  0.75347138  1
  O2-  O153  1  0.57047182  0.67461404  0.10088601  1
  O2-  O154  1  0.57208566  0.68160357  0.42324259  1
  O2-  O155  1  0.57184908  0.68333573  0.76207665  1
  O2-  O156  1  0.17955451  0.42946179  0.24349589  1
  O2-  O157  1  0.18161100  0.42820732  0.56614562  1
  O2-  O158  1  0.17710658  0.43170575  0.90176471  1
  O2-  O159  1  0.17976282  0.92487153  0.24586704  1
  O2-  O160  1  0.17662877  0.93317362  0.57306609  1
  O2-  O161  1  0.18069889  0.92439287  0.89917278  1
  O2-  O162  1  0.67680955  0.43069215  0.23302707  1
  O2-  O163  1  0.67913137  0.42417097  0.58000790  1
  O2-  O164  1  0.67846018  0.43239613  0.90664944  1
  O2-  O165  1  0.67777470  0.92810102  0.24528949  1
  O2-  O166  1  0.68261593  0.93390651  0.56612191  1
  O2-  O167  1  0.68192832  0.92508783  0.90376914  1
  O2-  O168  1  0.43139996  0.32562597  0.10109317  1
  O2-  O169  1  0.43126992  0.32054631  0.42485353  1
  O2-  O170  1  0.42481889  0.31455818  0.76312942  1
  O2-  O171  1  0.42851193  0.81559720  0.10166898  1
  O2-  O172  1  0.42927874  0.82406550  0.42212001  1
  O2-  O173  1  0.42923630  0.82644945  0.76206270  1
  O2-  O174  1  0.92843894  0.32231592  0.09628622  1
  O2-  O175  1  0.92827703  0.31958020  0.43386271  1
  O2-  O176  1  0.92680835  0.32106587  0.75582703  1
  O2-  O177  1  0.92637379  0.81652424  0.09270893  1
  O2-  O178  1  0.92643187  0.82137515  0.42227064  1
  O2-  O179  1  0.93369308  0.82293103  0.76674358  1
  O2-  O180  1  0.32762485  0.07009697  0.24666980  1
  O2-  O181  1  0.31679662  0.07219382  0.57347652  1
  O2-  O182  1  0.31852682  0.07069074  0.90100674  1
  O2-  O183  1  0.32009831  0.57167644  0.23418539  1
  O2-  O184  1  0.32155714  0.57094771  0.57834864  1
  O2-  O185  1  0.32311348  0.56925204  0.90799966  1
  O2-  O186  1  0.81942243  0.06891278  0.24551184  1
  O2-  O187  1  0.82450263  0.07439021  0.57624664  1
  O2-  O188  1  0.81919944  0.07126178  0.90256533  1
  O2-  O189  1  0.82055810  0.58094789  0.24511962  1
  O2-  O190  1  0.81822928  0.56377519  0.56749671  1
  O2-  O191  1  0.82371455  0.57107963  0.91170792  1
  O2-  O192  1  0.04266541  0.07934486  0.26599702  1
  O2-  O193  1  0.04630816  0.08802744  0.60188688  1
  O2-  O194  1  0.04179526  0.07712611  0.93356150  1
  O2-  O195  1  0.04896917  0.58871178  0.27150080  1
  O2-  O196  1  0.03765561  0.57822381  0.59663877  1
  O2-  O197  1  0.03478061  0.58609221  0.93407860  1
  O2-  O198  1  0.53835407  0.08622440  0.27269448  1
  O2-  O199  1  0.54406190  0.08776295  0.59989245  1
  O2-  O200  1  0.55011050  0.07699933  0.93845365  1
  O2-  O201  1  0.54133469  0.58681464  0.27388730  1
  O2-  O202  1  0.54776010  0.57968548  0.59676922  1
  O2-  O203  1  0.54451440  0.58328216  0.92826188  1
  O2-  O204  1  0.17414666  0.19992467  0.26764446  1
  O2-  O205  1  0.16075534  0.21072848  0.60189505  1
  O2-  O206  1  0.16888134  0.20442681  0.93258793  1
  O2-  O207  1  0.16357036  0.71441331  0.27174223  1
  O2-  O208  1  0.16921758  0.70174992  0.59581569  1
  O2-  O209  1  0.16794628  0.70405481  0.93226128  1
  O2-  O210  1  0.66329740  0.20016262  0.27703193  1
  O2-  O211  1  0.66863723  0.20113573  0.60286736  1
  O2-  O212  1  0.66605576  0.21033197  0.92954645  1
  O2-  O213  1  0.66200418  0.70651595  0.27079845  1
  O2-  O214  1  0.66911136  0.71151028  0.59487766  1
  O2-  O215  1  0.67587672  0.70102825  0.93889424  1
  O2-  O216  1  0.08323455  0.46544755  0.07028355  1
  O2-  O217  1  0.08302453  0.45380936  0.39295745  1
  O2-  O218  1  0.08300266  0.45635760  0.73316888  1
  O2-  O219  1  0.07937391  0.94903771  0.06714071  1
  O2-  O220  1  0.08490537  0.95513860  0.39679704  1
  O2-  O221  1  0.08911002  0.95986098  0.72678346  1
  O2-  O222  1  0.58625303  0.45966324  0.05923493  1
  O2-  O223  1  0.58687350  0.46269519  0.40414099  1
  O2-  O224  1  0.57906167  0.44819158  0.72697116  1
  O2-  O225  1  0.57957944  0.95137537  0.07134411  1
  O2-  O226  1  0.58681084  0.95796755  0.39713048  1
  O2-  O227  1  0.58402771  0.96375494  0.73234923  1
  O2-  O228  1  0.20461291  0.33292442  0.07025918  1
  O2-  O229  1  0.20393866  0.33373332  0.39376527  1
  O2-  O230  1  0.21418886  0.33311899  0.73254552  1
  O2-  O231  1  0.21092427  0.82749815  0.06725101  1
  O2-  O232  1  0.20947558  0.84044715  0.40110063  1
  O2-  O233  1  0.20127121  0.83302132  0.72088118  1
  O2-  O234  1  0.70539466  0.33946017  0.05918072  1
  O2-  O235  1  0.70601837  0.33106412  0.40342876  1
  O2-  O236  1  0.70174099  0.33150358  0.73036939  1
  O2-  O237  1  0.71199701  0.83040310  0.07312558  1
  O2-  O238  1  0.70610582  0.83540617  0.39583001  1
  O2-  O239  1  0.71031742  0.83471436  0.73274346  1
  O2-  O240  1  0.45986565  0.41531715  0.27509311  1
  O2-  O241  1  0.45471727  0.41667092  0.59586952  1
  O2-  O242  1  0.45858497  0.41601479  0.92914251  1
  O2-  O243  1  0.45737297  0.91390477  0.27103469  1
  O2-  O244  1  0.45943020  0.92239406  0.59545191  1
  O2-  O245  1  0.45093995  0.92140054  0.93793498  1
  O2-  O246  1  0.94712843  0.42414419  0.26921494  1
  O2-  O247  1  0.95768510  0.41074825  0.60291887  1
  O2-  O248  1  0.95928989  0.41979671  0.93133559  1
  O2-  O249  1  0.95396534  0.91229724  0.27041840  1
  O2-  O250  1  0.95919754  0.91983935  0.59719607  1
  O2-  O251  1  0.94407131  0.91814089  0.94462076  1
  O2-  O252  1  0.33903776  0.29581158  0.27375221  1
  O2-  O253  1  0.33455920  0.28275998  0.59365395  1
  O2-  O254  1  0.32688058  0.29565675  0.93618280  1
  O2-  O255  1  0.33526852  0.79499286  0.27264818  1
  O2-  O256  1  0.33041589  0.79810271  0.59383897  1
  O2-  O257  1  0.33491252  0.78834106  0.93105853  1
  O2-  O258  1  0.82861075  0.28984732  0.26939865  1
  O2-  O259  1  0.83495770  0.29470416  0.60358045  1
  O2-  O260  1  0.83023639  0.29684043  0.92853939  1
  O2-  O261  1  0.83543795  0.79207994  0.26967280  1
  O2-  O262  1  0.83337305  0.79160192  0.59910816  1
  O2-  O263  1  0.83733716  0.78946705  0.93964947  1
  O2-  O264  1  0.41838028  0.04461967  0.07100366  1
  O2-  O265  1  0.41160035  0.03878642  0.40148901  1
  O2-  O266  1  0.41413489  0.05060558  0.72356870  1
  O2-  O267  1  0.41768782  0.54394496  0.05934731  1
  O2-  O268  1  0.41515390  0.54192745  0.40431807  1
  O2-  O269  1  0.41793030  0.54703007  0.72691822  1
  O2-  O270  1  0.91681256  0.04472241  0.07291732  1
  O2-  O271  1  0.91347134  0.04063393  0.39668928  1
  O2-  O272  1  0.92001696  0.04933361  0.72673853  1
  O2-  O273  1  0.91185729  0.53999329  0.06651344  1
  O2-  O274  1  0.91895973  0.55582422  0.39453831  1
  O2-  O275  1  0.91427960  0.53626970  0.73522382  1
  O2-  O276  1  0.29278570  0.16923829  0.07035841  1
  O2-  O277  1  0.29759671  0.16450076  0.39839957  1
  O2-  O278  1  0.28606394  0.15988754  0.72649156  1
  O2-  O279  1  0.29626647  0.66211443  0.06062595  1
  O2-  O280  1  0.28947023  0.66848962  0.40278654  1
  O2-  O281  1  0.30057111  0.66984975  0.72599701  1
  O2-  O282  1  0.79023124  0.17348330  0.06762270  1
  O2-  O283  1  0.79270190  0.15939190  0.39968368  1
  O2-  O284  1  0.80071028  0.16779579  0.72792298  1
  O2-  O285  1  0.79765113  0.66129240  0.06772152  1
  O2-  O286  1  0.79078541  0.66619851  0.39898140  1
  O2-  O287  1  0.79093977  0.66601791  0.73346583  1
