# generated using pymatgen
data_Ca2Al2SiO7
_symmetry_space_group_name_H-M   'P 1'
_cell_length_a   15.46768012
_cell_length_b   15.46775247
_cell_length_c   15.29116935
_cell_angle_alpha   90.00586252
_cell_angle_beta   89.99983027
_cell_angle_gamma   90.00047768
_symmetry_Int_Tables_number   1
_chemical_formula_structural   Ca2Al2SiO7
_chemical_formula_sum   'Ca48 Al48 Si24 O168'
_cell_volume   3658.41602806
_cell_formula_units_Z   24
loop_
 _symmetry_equiv_pos_site_id
 _symmetry_equiv_pos_as_xyz
  1  'x, y, z'
loop_
 _atom_type_symbol
 _atom_type_oxidation_number
  Ca2+  2.0
  Al0+  0.0
  Si0+  0.0
  O2-  -2.0
loop_
 _atom_site_type_symbol
 _atom_site_label
 _atom_site_symmetry_multiplicity
 _atom_site_fract_x
 _atom_site_fract_y
 _atom_site_fract_z
 _atom_site_occupancy
  Ca2+  Ca0  1  0.17381930  0.07130749  0.17254917  1
  Ca2+  Ca1  1  0.17613245  0.08253243  0.50316191  1
  Ca2+  Ca2  1  0.17038802  0.08110026  0.83233885  1
  Ca2+  Ca3  1  0.17839567  0.58081606  0.17691258  1
  Ca2+  Ca4  1  0.17026776  0.57866396  0.50669475  1
  Ca2+  Ca5  1  0.16322633  0.57852561  0.83117684  1
  Ca2+  Ca6  1  0.67011112  0.07146233  0.17489924  1
  Ca2+  Ca7  1  0.67170478  0.07386678  0.51001610  1
  Ca2+  Ca8  1  0.67031588  0.07409328  0.83401334  1
  Ca2+  Ca9  1  0.65862049  0.58472816  0.17083510  1
  Ca2+  Ca10  1  0.65802471  0.58453177  0.50503625  1
  Ca2+  Ca11  1  0.66064912  0.58867238  0.83568192  1
  Ca2+  Ca12  1  0.07517828  0.33122475  0.16623109  1
  Ca2+  Ca13  1  0.08266708  0.32711500  0.49996245  1
  Ca2+  Ca14  1  0.08260494  0.32537961  0.82073878  1
  Ca2+  Ca15  1  0.08800370  0.84010824  0.16283839  1
  Ca2+  Ca16  1  0.07732774  0.84183432  0.49774942  1
  Ca2+  Ca17  1  0.07766868  0.83436367  0.82303455  1
  Ca2+  Ca18  1  0.57595161  0.32749868  0.15980305  1
  Ca2+  Ca19  1  0.58219481  0.32285912  0.50298991  1
  Ca2+  Ca20  1  0.57104302  0.32470135  0.82582673  1
  Ca2+  Ca21  1  0.58728131  0.83009959  0.16700968  1
  Ca2+  Ca22  1  0.57689683  0.83507793  0.49507170  1
  Ca2+  Ca23  1  0.58773924  0.82950346  0.82422176  1
  Ca2+  Ca24  1  0.33956125  0.42373472  0.17285015  1
  Ca2+  Ca25  1  0.33439124  0.42419597  0.51000384  1
  Ca2+  Ca26  1  0.33246537  0.41021230  0.83259055  1
  Ca2+  Ca27  1  0.32482564  0.91434469  0.17768411  1
  Ca2+  Ca28  1  0.33834286  0.92242220  0.50425876  1
  Ca2+  Ca29  1  0.33490987  0.92104745  0.83229714  1
  Ca2+  Ca30  1  0.83226109  0.41854537  0.17467916  1
  Ca2+  Ca31  1  0.83675050  0.41756893  0.50253047  1
  Ca2+  Ca32  1  0.83066395  0.42129053  0.83419090  1
  Ca2+  Ca33  1  0.82223471  0.92627820  0.17121429  1
  Ca2+  Ca34  1  0.82250055  0.91927410  0.50782660  1
  Ca2+  Ca35  1  0.82599618  0.92159431  0.83438473  1
  Ca2+  Ca36  1  0.41234429  0.16950619  0.16465080  1
  Ca2+  Ca37  1  0.41446505  0.16391807  0.50059772  1
  Ca2+  Ca38  1  0.41709141  0.17275936  0.82058811  1
  Ca2+  Ca39  1  0.42352175  0.67169512  0.16739307  1
  Ca2+  Ca40  1  0.42225062  0.67859556  0.49481013  1
  Ca2+  Ca41  1  0.42789283  0.67846237  0.82487791  1
  Ca2+  Ca42  1  0.90983012  0.16241130  0.16696671  1
  Ca2+  Ca43  1  0.91870285  0.16171640  0.49494141  1
  Ca2+  Ca44  1  0.92049276  0.15752732  0.82494248  1
  Ca2+  Ca45  1  0.92035236  0.67191971  0.16353333  1
  Ca2+  Ca46  1  0.92228626  0.67407463  0.50396954  1
  Ca2+  Ca47  1  0.92317480  0.67814050  0.82137574  1
  Al0+  Al48  1  0.00088672  0.00067977  0.00715071  1
  Al0+  Al49  1  0.00088664  0.00086656  0.33490498  1
  Al0+  Al50  1  0.00021079  0.00107371  0.65910871  1
  Al0+  Al51  1  0.00000457  0.49907780  0.00101822  1
  Al0+  Al52  1  -0.00109986  0.49896376  0.32781144  1
  Al0+  Al53  1  0.00021709  0.50008873  0.66905189  1
  Al0+  Al54  1  0.50010041  0.00025496  0.00471319  1
  Al0+  Al55  1  0.49892325  -0.00002588  0.33313998  1
  Al0+  Al56  1  0.50088602  0.00084044  0.67080878  1
  Al0+  Al57  1  0.49949012  0.49995866  -0.00799325  1
  Al0+  Al58  1  0.50052462  0.49994211  0.33598753  1
  Al0+  Al59  1  0.49876693  0.50003032  0.66404751  1
  Al0+  Al60  1  0.24549801  0.25099741  -0.00163084  1
  Al0+  Al61  1  0.24661882  0.24892557  0.33183857  1
  Al0+  Al62  1  0.24686698  0.25157077  0.66621164  1
  Al0+  Al63  1  0.25192345  0.74678422  0.00209183  1
  Al0+  Al64  1  0.24983244  0.74740906  0.33842900  1
  Al0+  Al65  1  0.25203402  0.74695885  0.66236293  1
  Al0+  Al66  1  0.74982419  0.25374842  0.00131768  1
  Al0+  Al67  1  0.74955678  0.25262872  0.33071004  1
  Al0+  Al68  1  0.74886015  0.25275602  0.66938081  1
  Al0+  Al69  1  0.75287818  0.75005602  0.00038022  1
  Al0+  Al70  1  0.75312652  0.74822632  0.33202636  1
  Al0+  Al71  1  0.75328539  0.74833931  0.66318999  1
  Al0+  Al72  1  0.42769896  0.31876769  0.98699903  1
  Al0+  Al73  1  0.92882149  0.32004796  0.31895152  1
  Al0+  Al74  1  0.42800311  0.82267630  0.31688072  1
  Al0+  Al75  1  0.32001977  0.07067850  0.68058217  1
  Al0+  Al76  1  0.67974222  0.92654749  0.34997028  1
  Al0+  Al77  1  0.82099883  0.07266803  0.01514541  1
  Al0+  Al78  1  0.57261602  0.67963611  0.65200985  1
  Al0+  Al79  1  0.42935696  0.82392464  0.65286467  1
  Al0+  Al80  1  0.06995250  0.17857177  0.65251373  1
  Al0+  Al81  1  0.57205852  0.67867537  0.31744111  1
  Al0+  Al82  1  0.18208148  0.92794902  0.01019593  1
  Al0+  Al83  1  0.57130964  0.68229835  0.98609817  1
  Al0+  Al84  1  0.93105606  0.82254654  0.65068558  1
  Al0+  Al85  1  0.42686711  0.31934839  0.65026187  1
  Al0+  Al86  1  0.17906374  0.92683797  0.35000007  1
  Al0+  Al87  1  0.32120817  0.07265152  0.34787225  1
  Al0+  Al88  1  0.32286920  0.56862015  0.34851753  1
  Al0+  Al89  1  0.67778847  0.92642008  0.01626721  1
  Al0+  Al90  1  0.82250142  0.07308513  0.68068848  1
  Al0+  Al91  1  0.07208695  0.67670034  0.65230695  1
  Al0+  Al92  1  0.67910774  0.92695810  0.68177114  1
  Al0+  Al93  1  0.57224925  0.17870718  0.65303857  1
  Al0+  Al94  1  0.81877673  0.07379823  0.34933095  1
  Al0+  Al95  1  0.17938529  0.43085233  0.68041123  1
  Si0+  Si96  1  0.82295179  0.57010915  0.01558313  1
  Si0+  Si97  1  0.57102168  0.17994455  0.31818963  1
  Si0+  Si98  1  0.93314089  0.82053835  0.98702055  1
  Si0+  Si99  1  0.07019385  0.67765151  0.31708935  1
  Si0+  Si100  1  0.42522122  0.82297258  0.98458118  1
  Si0+  Si101  1  0.42781934  0.32091637  0.32010987  1
  Si0+  Si102  1  0.67637386  0.42985412  0.68359956  1
  Si0+  Si103  1  0.32392609  0.57215412  0.68703400  1
  Si0+  Si104  1  0.07168973  0.17697586  0.31217845  1
  Si0+  Si105  1  0.92769670  0.32428608  0.98293873  1
  Si0+  Si106  1  0.32110098  0.56712924  0.01436195  1
  Si0+  Si107  1  0.92723145  0.32277744  0.65250574  1
  Si0+  Si108  1  0.93077384  0.82200234  0.31543509  1
  Si0+  Si109  1  0.17629465  0.42780233  0.01726425  1
  Si0+  Si110  1  0.82377016  0.57001482  0.34819014  1
  Si0+  Si111  1  0.82128417  0.56942322  0.68208607  1
  Si0+  Si112  1  0.32106157  0.07484216  0.01453210  1
  Si0+  Si113  1  0.67895007  0.43026285  0.34832756  1
  Si0+  Si114  1  0.57318677  0.17711576  0.98494624  1
  Si0+  Si115  1  0.07345756  0.67663738  0.98633232  1
  Si0+  Si116  1  0.17825666  0.92604588  0.68086766  1
  Si0+  Si117  1  0.67805069  0.43235247  0.01471149  1
  Si0+  Si118  1  0.17618169  0.42907321  0.34845165  1
  Si0+  Si119  1  0.06680326  0.17987832  0.98502273  1
  O2-  O120  1  0.26032669  -0.00128071  0.05745333  1
  O2-  O121  1  0.25371714  -0.00337319  0.39780557  1
  O2-  O122  1  0.24782667  -0.00727676  0.72705409  1
  O2-  O123  1  0.24958775  0.49651213  0.05851341  1
  O2-  O124  1  0.24851678  0.49243123  0.39302313  1
  O2-  O125  1  0.25383050  0.50404617  0.73085083  1
  O2-  O126  1  0.74489327  0.00461430  0.06404747  1
  O2-  O127  1  0.74959110  0.00055723  0.39948621  1
  O2-  O128  1  0.75081599  0.00086334  0.73027534  1
  O2-  O129  1  0.74965840  0.50200030  0.05874223  1
  O2-  O130  1  0.74847906  0.50338712  0.38946183  1
  O2-  O131  1  0.74604475  0.50310706  0.72498643  1
  O2-  O132  1  -0.00043673  0.24351841  0.26902211  1
  O2-  O133  1  -0.01016165  0.24933645  0.60854862  1
  O2-  O134  1  -0.00621983  0.24907841  0.94204027  1
  O2-  O135  1  0.00501051  0.75328296  0.27293598  1
  O2-  O136  1  0.00772974  0.75431298  0.60095340  1
  O2-  O137  1  0.00591186  0.75067148  0.94487258  1
  O2-  O138  1  0.49504780  0.24718518  0.27644873  1
  O2-  O139  1  0.49688631  0.24604027  0.60026408  1
  O2-  O140  1  0.49768324  0.23923972  0.94199081  1
  O2-  O141  1  0.50273543  0.75268374  0.26658564  1
  O2-  O142  1  0.50377314  0.75400110  0.60327292  1
  O2-  O143  1  0.50183849  0.76242618  0.94169764  1
  O2-  O144  1  0.06808343  0.18347516  0.08985576  1
  O2-  O145  1  0.07457544  0.18006191  0.41722332  1
  O2-  O146  1  0.07013373  0.18029796  0.76659506  1
  O2-  O147  1  0.07159540  0.67368972  0.09159652  1
  O2-  O148  1  0.06437721  0.67107993  0.42105311  1
  O2-  O149  1  0.06649749  0.67604682  0.76684608  1
  O2-  O150  1  0.57445742  0.18213732  0.09096528  1
  O2-  O151  1  0.57492845  0.18422504  0.42248624  1
  O2-  O152  1  0.57224532  0.18291481  0.76712132  1
  O2-  O153  1  0.56788743  0.67728111  0.09860476  1
  O2-  O154  1  0.56982652  0.67516809  0.42983748  1
  O2-  O155  1  0.57038190  0.67987116  0.76621088  1
  O2-  O156  1  0.17587237  0.43214480  0.24198751  1
  O2-  O157  1  0.17767299  0.43333000  0.56746875  1
  O2-  O158  1  0.17235925  0.42846029  0.91272277  1
  O2-  O159  1  0.17969304  0.92954049  0.23539341  1
  O2-  O160  1  0.17848659  0.92885110  0.57588442  1
  O2-  O161  1  0.17904855  0.92939882  0.89744538  1
  O2-  O162  1  0.67886251  0.43003007  0.24261072  1
  O2-  O163  1  0.67814704  0.42847169  0.57848783  1
  O2-  O164  1  0.68022128  0.43298791  0.90990905  1
  O2-  O165  1  0.68272757  0.92721516  0.23588546  1
  O2-  O166  1  0.68050226  0.92608770  0.56866386  1
  O2-  O167  1  0.68202835  0.92307908  0.90337153  1
  O2-  O168  1  0.43050261  0.32083837  0.10090710  1
  O2-  O169  1  0.42947837  0.32258053  0.42426338  1
  O2-  O170  1  0.42929578  0.31856017  0.76439712  1
  O2-  O171  1  0.41815324  0.81729913  0.08945320  1
  O2-  O172  1  0.42814843  0.82104976  0.42965697  1
  O2-  O173  1  0.42742863  0.82077851  0.76735923  1
  O2-  O174  1  0.93040312  0.33027338  0.08772245  1
  O2-  O175  1  0.93241784  0.32508726  0.43134686  1
  O2-  O176  1  0.93006072  0.32622608  0.75851859  1
  O2-  O177  1  0.93424572  0.81675208  0.09236429  1
  O2-  O178  1  0.93003089  0.81911146  0.41991268  1
  O2-  O179  1  0.93145514  0.82033572  0.76536065  1
  O2-  O180  1  0.31658745  0.07742917  0.23352238  1
  O2-  O181  1  0.31729409  0.07252927  0.56829729  1
  O2-  O182  1  0.31731289  0.07844052  0.90929601  1
  O2-  O183  1  0.32214577  0.56555468  0.23406980  1
  O2-  O184  1  0.32474876  0.56906105  0.58164606  1
  O2-  O185  1  0.31826335  0.56702085  0.90992936  1
  O2-  O186  1  0.81440131  0.07264636  0.23534100  1
  O2-  O187  1  0.82036486  0.07361439  0.56771450  1
  O2-  O188  1  0.82442326  0.06982597  0.90225267  1
  O2-  O189  1  0.82695420  0.56733639  0.24254199  1
  O2-  O190  1  0.82512437  0.56531913  0.57720699  1
  O2-  O191  1  0.82683881  0.56725835  0.91084247  1
  O2-  O192  1  0.04735558  0.08292920  0.26613172  1
  O2-  O193  1  0.04569933  0.08327076  0.59494692  1
  O2-  O194  1  0.04086587  0.08687385  0.93959427  1
  O2-  O195  1  0.03694500  0.58889711  0.26506024  1
  O2-  O196  1  0.03412142  0.58161633  0.59887825  1
  O2-  O197  1  0.04124399  0.58574719  0.93914598  1
  O2-  O198  1  0.54628829  0.08810578  0.26993785  1
  O2-  O199  1  0.54846233  0.07953009  0.60295875  1
  O2-  O200  1  0.55550815  0.08037731  0.94301991  1
  O2-  O201  1  0.54070185  0.57897559  0.26530519  1
  O2-  O202  1  0.54289336  0.58120119  0.60080057  1
  O2-  O203  1  0.53756063  0.58694087  0.93084717  1
  O2-  O204  1  0.16299208  0.20749336  0.26261904  1
  O2-  O205  1  0.16208452  0.21738703  0.59700773  1
  O2-  O206  1  0.15739507  0.21018107  0.93655691  1
  O2-  O207  1  0.16410994  0.69960032  0.27155797  1
  O2-  O208  1  0.17343414  0.69174961  0.60339272  1
  O2-  O209  1  0.16667077  0.69877925  0.94009643  1
  O2-  O210  1  0.65906328  0.21526195  0.26752152  1
  O2-  O211  1  0.66807698  0.21573682  0.59947292  1
  O2-  O212  1  0.66410847  0.21114382  0.93865465  1
  O2-  O213  1  0.67383177  0.70050213  0.26610798  1
  O2-  O214  1  0.67401471  0.69660058  0.60222389  1
  O2-  O215  1  0.67199862  0.70454118  0.93533417  1
  O2-  O216  1  0.08561707  0.45872281  0.06633975  1
  O2-  O217  1  0.08401190  0.46004489  0.39326083  1
  O2-  O218  1  0.08345137  0.46294854  0.73746255  1
  O2-  O219  1  0.08818826  0.96162211  0.06822626  1
  O2-  O220  1  0.08123267  0.95839499  0.40073889  1
  O2-  O221  1  0.08460558  0.95445333  0.72540057  1
  O2-  O222  1  0.58599723  0.46112297  0.06135140  1
  O2-  O223  1  0.58807623  0.45572758  0.39749240  1
  O2-  O224  1  0.58468152  0.45729833  0.73143321  1
  O2-  O225  1  0.57704165  0.94878731  0.06877600  1
  O2-  O226  1  0.57957488  0.95348568  0.39708575  1
  O2-  O227  1  0.58175824  0.95433430  0.73712151  1
  O2-  O228  1  0.20077256  0.33523787  0.06471186  1
  O2-  O229  1  0.19528671  0.33309041  0.38999546  1
  O2-  O230  1  0.20863970  0.33506921  0.73681120  1
  O2-  O231  1  0.20691476  0.82919402  0.06481404  1
  O2-  O232  1  0.19674450  0.82570764  0.39971741  1
  O2-  O233  1  0.19945888  0.83008901  0.72478869  1
  O2-  O234  1  0.70464351  0.34091669  0.06380933  1
  O2-  O235  1  0.70999943  0.34032872  0.39616311  1
  O2-  O236  1  0.70666282  0.34083321  0.73496132  1
  O2-  O237  1  0.71395809  0.82987499  0.06974004  1
  O2-  O238  1  0.71114689  0.82757286  0.39927598  1
  O2-  O239  1  0.71246398  0.82814562  0.73277009  1
  O2-  O240  1  0.46100860  0.41066055  0.27120658  1
  O2-  O241  1  0.45834045  0.41713825  0.59931677  1
  O2-  O242  1  0.46256317  0.41244611  0.93057095  1
  O2-  O243  1  0.45120588  0.92272406  0.26354359  1
  O2-  O244  1  0.45385520  0.92325939  0.60252122  1
  O2-  O245  1  0.44174940  0.92109847  0.94476669  1
  O2-  O246  1  0.96283292  0.41501567  0.26030436  1
  O2-  O247  1  0.95867781  0.41385649  0.60528580  1
  O2-  O248  1  0.96001539  0.41461275  0.93431002  1
  O2-  O249  1  0.95700582  0.91455801  0.26851421  1
  O2-  O250  1  0.95536934  0.91941211  0.59462158  1
  O2-  O251  1  0.96123312  0.91285946  0.94207131  1
  O2-  O252  1  0.33423133  0.29810582  0.27235637  1
  O2-  O253  1  0.32758988  0.29615033  0.59921802  1
  O2-  O254  1  0.32789480  0.29501849  0.93568244  1
  O2-  O255  1  0.32883656  0.78807815  0.26648093  1
  O2-  O256  1  0.33197673  0.79390708  0.59951250  1
  O2-  O257  1  0.33541692  0.78836412  0.93527221  1
  O2-  O258  1  0.83092685  0.29550944  0.26271469  1
  O2-  O259  1  0.83124566  0.30658685  0.60905278  1
  O2-  O260  1  0.83297501  0.30469863  0.93802044  1
  O2-  O261  1  0.84171596  0.78833683  0.26602135  1
  O2-  O262  1  0.83709214  0.78504654  0.59591033  1
  O2-  O263  1  0.84311828  0.78942585  0.93901973  1
  O2-  O264  1  0.41769701  0.06034043  0.05808861  1
  O2-  O265  1  0.42163113  0.05177062  0.39771465  1
  O2-  O266  1  0.41650846  0.04458442  0.73733899  1
  O2-  O267  1  0.41239200  0.53566504  0.06060001  1
  O2-  O268  1  0.41774192  0.53613073  0.40339401  1
  O2-  O269  1  0.41659714  0.54323575  0.73367020  1
  O2-  O270  1  0.91740509  0.04113572  0.07123936  1
  O2-  O271  1  0.92036515  0.05006183  0.39490142  1
  O2-  O272  1  0.92249593  0.04353677  0.73055923  1
  O2-  O273  1  0.91346567  0.53914181  0.06543318  1
  O2-  O274  1  0.91295251  0.53508700  0.39587899  1
  O2-  O275  1  0.90977307  0.53655383  0.73372551  1
  O2-  O276  1  0.28675826  0.16554016  0.06264874  1
  O2-  O277  1  0.28868764  0.17083989  0.39995924  1
  O2-  O278  1  0.28415312  0.16630046  0.73421471  1
  O2-  O279  1  0.29350549  0.65800597  0.06384391  1
  O2-  O280  1  0.29024701  0.66292083  0.40289478  1
  O2-  O281  1  0.29860049  0.66590453  0.73314035  1
  O2-  O282  1  0.79952261  0.17548917  0.06391922  1
  O2-  O283  1  0.79320973  0.17451392  0.39797281  1
  O2-  O284  1  0.79707822  0.17324757  0.73342893  1
  O2-  O285  1  0.79934815  0.66251576  0.06283687  1
  O2-  O286  1  0.80274733  0.66301491  0.39412631  1
  O2-  O287  1  0.79842579  0.66182766  0.73009951  1
