# generated using pymatgen
data_Ca2Al2SiO7
_symmetry_space_group_name_H-M   'P 1'
_cell_length_a   15.46446286
_cell_length_b   15.46336404
_cell_length_c   15.28717953
_cell_angle_alpha   90.00395615
_cell_angle_beta   89.99817315
_cell_angle_gamma   90.00523423
_symmetry_Int_Tables_number   1
_chemical_formula_structural   Ca2Al2SiO7
_chemical_formula_sum   'Ca48 Al48 Si24 O168'
_cell_volume   3655.66324821
_cell_formula_units_Z   24
loop_
 _symmetry_equiv_pos_site_id
 _symmetry_equiv_pos_as_xyz
  1  'x, y, z'
loop_
 _atom_type_symbol
 _atom_type_oxidation_number
  Ca2+  2.0
  Al0+  0.0
  Si0+  0.0
  O2-  -2.0
loop_
 _atom_site_type_symbol
 _atom_site_label
 _atom_site_symmetry_multiplicity
 _atom_site_fract_x
 _atom_site_fract_y
 _atom_site_fract_z
 _atom_site_occupancy
  Ca2+  Ca0  1  0.17441801  0.07797177  0.17665069  1
  Ca2+  Ca1  1  0.16287065  0.07453574  0.50680166  1
  Ca2+  Ca2  1  0.15706861  0.07862976  0.83221523  1
  Ca2+  Ca3  1  0.17011669  0.58253090  0.17067920  1
  Ca2+  Ca4  1  0.17036117  0.57994331  0.51378148  1
  Ca2+  Ca5  1  0.16761710  0.58359691  0.82555062  1
  Ca2+  Ca6  1  0.67094532  0.08179194  0.17354824  1
  Ca2+  Ca7  1  0.66774831  0.08128193  0.50340246  1
  Ca2+  Ca8  1  0.68073861  0.08266234  0.83594333  1
  Ca2+  Ca9  1  0.66998215  0.57312238  0.17213096  1
  Ca2+  Ca10  1  0.67670580  0.57320716  0.50810549  1
  Ca2+  Ca11  1  0.66347236  0.57745831  0.83426685  1
  Ca2+  Ca12  1  0.06745631  0.33364340  0.16114157  1
  Ca2+  Ca13  1  0.07024677  0.34008117  0.49986048  1
  Ca2+  Ca14  1  0.07036711  0.32933822  0.82033606  1
  Ca2+  Ca15  1  0.07853906  0.83486425  0.16256132  1
  Ca2+  Ca16  1  0.08884393  0.83101476  0.50156442  1
  Ca2+  Ca17  1  0.07990107  0.82915374  0.82474457  1
  Ca2+  Ca18  1  0.58440543  0.33260308  0.16270793  1
  Ca2+  Ca19  1  0.59027101  0.32994668  0.49458793  1
  Ca2+  Ca20  1  0.58225410  0.34229559  0.83059874  1
  Ca2+  Ca21  1  0.59160722  0.82573294  0.16141155  1
  Ca2+  Ca22  1  0.58301788  0.83043369  0.49744837  1
  Ca2+  Ca23  1  0.57942120  0.81834932  0.82310350  1
  Ca2+  Ca24  1  0.33526053  0.41428568  0.16698587  1
  Ca2+  Ca25  1  0.32474535  0.42254034  0.51284690  1
  Ca2+  Ca26  1  0.33003819  0.41766673  0.83467025  1
  Ca2+  Ca27  1  0.32747920  0.92388791  0.17935689  1
  Ca2+  Ca28  1  0.32660184  0.92029867  0.50639744  1
  Ca2+  Ca29  1  0.32905960  0.90872342  0.82909155  1
  Ca2+  Ca30  1  0.82561181  0.41609791  0.17358682  1
  Ca2+  Ca31  1  0.82756447  0.41696567  0.50697644  1
  Ca2+  Ca32  1  0.82550794  0.41503919  0.83515080  1
  Ca2+  Ca33  1  0.83129839  0.92128480  0.16900450  1
  Ca2+  Ca34  1  0.82739906  0.92389504  0.50516469  1
  Ca2+  Ca35  1  0.84503740  0.92909027  0.83749471  1
  Ca2+  Ca36  1  0.42289888  0.16791771  0.16618556  1
  Ca2+  Ca37  1  0.42229761  0.16509349  0.49231930  1
  Ca2+  Ca38  1  0.41907610  0.17409423  0.83071413  1
  Ca2+  Ca39  1  0.42745393  0.66893365  0.15802867  1
  Ca2+  Ca40  1  0.41836970  0.66757645  0.50535543  1
  Ca2+  Ca41  1  0.42672843  0.66564077  0.82197501  1
  Ca2+  Ca42  1  0.90986240  0.17775577  0.16199737  1
  Ca2+  Ca43  1  0.91549609  0.17612478  0.50267700  1
  Ca2+  Ca44  1  0.91311152  0.17392542  0.82466241  1
  Ca2+  Ca45  1  0.91123839  0.67308239  0.16381404  1
  Ca2+  Ca46  1  0.91939289  0.65404089  0.49891729  1
  Ca2+  Ca47  1  0.91692301  0.67256005  0.82397461  1
  Al0+  Al48  1  0.00072730  -0.00042299  0.00476912  1
  Al0+  Al49  1  0.00058726  -0.00062701  0.33583805  1
  Al0+  Al50  1  0.00039557  0.00041917  0.66998516  1
  Al0+  Al51  1  0.00105560  0.49996395  -0.00288934  1
  Al0+  Al52  1  0.00189219  0.50129756  0.32670878  1
  Al0+  Al53  1  -0.00122437  0.50131657  0.66718520  1
  Al0+  Al54  1  0.49885727  -0.00040896  -0.00061556  1
  Al0+  Al55  1  0.49965345  0.00032547  0.33479919  1
  Al0+  Al56  1  0.49824288  0.00009378  0.66584005  1
  Al0+  Al57  1  0.49988077  0.49968951  -0.00205584  1
  Al0+  Al58  1  0.50093421  0.50073219  0.33565139  1
  Al0+  Al59  1  0.49951189  0.50103218  0.66670571  1
  Al0+  Al60  1  0.25111042  0.24940432  -0.00136700  1
  Al0+  Al61  1  0.25020931  0.25052735  0.33570228  1
  Al0+  Al62  1  0.24973113  0.24719685  0.66650444  1
  Al0+  Al63  1  0.25046460  0.74912879  0.00287236  1
  Al0+  Al64  1  0.25002498  0.75008255  0.33375562  1
  Al0+  Al65  1  0.24909530  0.75144869  0.66746619  1
  Al0+  Al66  1  0.74964967  0.24911930  0.00461820  1
  Al0+  Al67  1  0.74906481  0.24941846  0.32725130  1
  Al0+  Al68  1  0.74893690  0.24922103  0.67053179  1
  Al0+  Al69  1  0.75180234  0.75066119  -0.01101604  1
  Al0+  Al70  1  0.75166668  0.75041762  0.33952194  1
  Al0+  Al71  1  0.74823827  0.74956599  0.66394706  1
  Al0+  Al72  1  0.06816106  0.68065403  0.65323822  1
  Al0+  Al73  1  0.93019806  0.32111696  0.31807344  1
  Al0+  Al74  1  0.17744956  0.42581203  0.68161691  1
  Al0+  Al75  1  0.57097509  0.67969290  0.98687891  1
  Al0+  Al76  1  0.18026838  0.93077186  0.68268223  1
  Al0+  Al77  1  0.81930560  0.06814262  0.67895384  1
  Al0+  Al78  1  0.32132611  0.07255537  0.34909306  1
  Al0+  Al79  1  0.92708975  0.32088725  0.98512436  1
  Al0+  Al80  1  0.67953217  0.42839069  0.68250155  1
  Al0+  Al81  1  0.82139132  0.07011367  0.01583109  1
  Al0+  Al82  1  0.42886543  0.82131877  0.65005226  1
  Al0+  Al83  1  0.17796091  0.92848250  0.34993500  1
  Al0+  Al84  1  0.92724899  0.32111717  0.65165481  1
  Al0+  Al85  1  0.56971164  0.17834818  0.31973171  1
  Al0+  Al86  1  0.31957754  0.57089534  0.68200562  1
  Al0+  Al87  1  0.82272360  0.57090172  0.34638633  1
  Al0+  Al88  1  0.67943550  0.92843995  0.34564298  1
  Al0+  Al89  1  0.67905323  0.42737634  0.34794051  1
  Al0+  Al90  1  0.07160182  0.17690746  0.65148235  1
  Al0+  Al91  1  0.93140865  0.82127184  0.98705559  1
  Al0+  Al92  1  0.82189613  0.57291033  0.68315124  1
  Al0+  Al93  1  0.67864133  0.43132377  0.01546951  1
  Al0+  Al94  1  0.57248161  0.67655118  0.64663353  1
  Al0+  Al95  1  0.42977878  0.31951358  0.98634670  1
  Si0+  Si96  1  0.32481882  0.07233024  0.68650588  1
  Si0+  Si97  1  0.42657595  0.32445777  0.31805368  1
  Si0+  Si98  1  0.82179951  0.07300767  0.34974492  1
  Si0+  Si99  1  0.42773325  0.32105657  0.65188128  1
  Si0+  Si100  1  0.18112114  0.92878233  0.01617867  1
  Si0+  Si101  1  0.07273837  0.17677519  0.31660260  1
  Si0+  Si102  1  0.57230607  0.67983899  0.31798086  1
  Si0+  Si103  1  0.32190086  0.57157200  0.34667985  1
  Si0+  Si104  1  0.67762695  0.92723538  0.01338867  1
  Si0+  Si105  1  0.42613790  0.82283530  0.98514473  1
  Si0+  Si106  1  0.92815847  0.82253851  0.31926312  1
  Si0+  Si107  1  0.42873785  0.81945151  0.31761162  1
  Si0+  Si108  1  0.17890647  0.42717080  0.01583010  1
  Si0+  Si109  1  0.17943622  0.43032944  0.34518741  1
  Si0+  Si110  1  0.56995225  0.17984286  0.65340753  1
  Si0+  Si111  1  0.67491430  0.92795334  0.68363877  1
  Si0+  Si112  1  0.82402179  0.57415468  0.01508761  1
  Si0+  Si113  1  0.07227087  0.17909969  0.98592871  1
  Si0+  Si114  1  0.32022296  0.56990693  0.01600103  1
  Si0+  Si115  1  0.92737142  0.82383479  0.64861611  1
  Si0+  Si116  1  0.57215410  0.17571850  0.98250770  1
  Si0+  Si117  1  0.07239647  0.68020476  0.31687521  1
  Si0+  Si118  1  0.07551839  0.67805264  0.98304866  1
  Si0+  Si119  1  0.32228796  0.07294467  0.01587424  1
  O2-  O120  1  0.25329112  -0.00087802  0.05713758  1
  O2-  O121  1  0.24700559  0.00341408  0.39884441  1
  O2-  O122  1  0.25365605  0.00627622  0.73108137  1
  O2-  O123  1  0.24838002  0.50000232  0.05935181  1
  O2-  O124  1  0.25433754  0.49698647  0.38664668  1
  O2-  O125  1  0.25048413  0.49644044  0.73303091  1
  O2-  O126  1  0.74416287  -0.00363720  0.06027290  1
  O2-  O127  1  0.75238208  0.00450312  0.39259627  1
  O2-  O128  1  0.74813115  -0.00909470  0.72829091  1
  O2-  O129  1  0.75682277  0.50429870  0.05997181  1
  O2-  O130  1  0.75334459  0.49703382  0.39627609  1
  O2-  O131  1  0.74973704  0.50156394  0.73349463  1
  O2-  O132  1  0.00377949  0.24416457  0.27101797  1
  O2-  O133  1  0.00375521  0.25285691  0.60197454  1
  O2-  O134  1  0.00294203  0.24610604  0.94140763  1
  O2-  O135  1  0.00047928  0.75159606  0.27705082  1
  O2-  O136  1  -0.00958710  0.75056006  0.60341767  1
  O2-  O137  1  0.00384899  0.74427462  0.94137941  1
  O2-  O138  1  0.49552983  0.25535557  0.27471036  1
  O2-  O139  1  0.49933262  0.25084482  0.61038390  1
  O2-  O140  1  0.50555607  0.24655466  0.93852874  1
  O2-  O141  1  0.50142950  0.75086712  0.27374687  1
  O2-  O142  1  0.50226917  0.75184613  0.59831886  1
  O2-  O143  1  0.49762954  0.75724344  0.94266375  1
  O2-  O144  1  0.07447763  0.18126900  0.09184025  1
  O2-  O145  1  0.07246545  0.17712619  0.42142301  1
  O2-  O146  1  0.06739873  0.17614604  0.76568596  1
  O2-  O147  1  0.08030069  0.68036720  0.08917116  1
  O2-  O148  1  0.07523315  0.67799244  0.42124007  1
  O2-  O149  1  0.06958263  0.68501508  0.76655357  1
  O2-  O150  1  0.56866519  0.17290879  0.08810347  1
  O2-  O151  1  0.56864477  0.17851827  0.43302084  1
  O2-  O152  1  0.56826488  0.17858750  0.75860254  1
  O2-  O153  1  0.56929424  0.68110072  0.10107342  1
  O2-  O154  1  0.56991723  0.68016521  0.42206058  1
  O2-  O155  1  0.56932048  0.67749997  0.76069641  1
  O2-  O156  1  0.17964098  0.43305474  0.23938523  1
  O2-  O157  1  0.18040811  0.42868713  0.56713165  1
  O2-  O158  1  0.18037955  0.42595227  0.91164112  1
  O2-  O159  1  0.18063251  0.92761409  0.23525241  1
  O2-  O160  1  0.18111420  0.93137422  0.57004378  1
  O2-  O161  1  0.18118755  0.92761261  0.91154628  1
  O2-  O162  1  0.67701641  0.43089242  0.23396327  1
  O2-  O163  1  0.68050528  0.42498653  0.56908851  1
  O2-  O164  1  0.67657900  0.43300187  0.90317560  1
  O2-  O165  1  0.68303038  0.92600062  0.23198022  1
  O2-  O166  1  0.67392650  0.93272549  0.57777058  1
  O2-  O167  1  0.67608594  0.92983539  0.90834897  1
  O2-  O168  1  0.42825020  0.31739793  0.09966600  1
  O2-  O169  1  0.42472099  0.32626497  0.42321236  1
  O2-  O170  1  0.42757952  0.31915866  0.75726535  1
  O2-  O171  1  0.42366962  0.82094585  0.09118433  1
  O2-  O172  1  0.42664530  0.81649411  0.42183220  1
  O2-  O173  1  0.43162400  0.82046694  0.76443763  1
  O2-  O174  1  0.92977483  0.32076350  0.09879751  1
  O2-  O175  1  0.93148952  0.32232683  0.43042771  1
  O2-  O176  1  0.92569827  0.31725069  0.76532995  1
  O2-  O177  1  0.93288276  0.82075732  0.10097292  1
  O2-  O178  1  0.92761888  0.82461589  0.42357239  1
  O2-  O179  1  0.93248398  0.82520059  0.75453825  1
  O2-  O180  1  0.32012438  0.06988649  0.23438168  1
  O2-  O181  1  0.32814088  0.07081512  0.58138505  1
  O2-  O182  1  0.32292454  0.07503639  0.91139128  1
  O2-  O183  1  0.32109447  0.57314404  0.24082596  1
  O2-  O184  1  0.31765423  0.56862805  0.56764902  1
  O2-  O185  1  0.31895761  0.57182733  0.91188109  1
  O2-  O186  1  0.82165095  0.07064336  0.24379964  1
  O2-  O187  1  0.81562273  0.06835291  0.56568661  1
  O2-  O188  1  0.82192745  0.06856481  0.90297420  1
  O2-  O189  1  0.81966708  0.57383987  0.23213976  1
  O2-  O190  1  0.82127550  0.56929041  0.56954844  1
  O2-  O191  1  0.82420188  0.57471158  0.91027685  1
  O2-  O192  1  0.04899627  0.08180459  0.27084432  1
  O2-  O193  1  0.03817579  0.08004612  0.59847557  1
  O2-  O194  1  0.04801549  0.08385832  0.94350068  1
  O2-  O195  1  0.04621856  0.59009816  0.26446992  1
  O2-  O196  1  0.04345596  0.58294096  0.59855596  1
  O2-  O197  1  0.05501798  0.58295338  0.93943426  1
  O2-  O198  1  0.53755843  0.08219583  0.26361719  1
  O2-  O199  1  0.54181091  0.08837918  0.60549989  1
  O2-  O200  1  0.54418319  0.08291543  0.93527405  1
  O2-  O201  1  0.54244316  0.58805450  0.27040820  1
  O2-  O202  1  0.53911589  0.57936713  0.59402861  1
  O2-  O203  1  0.53490367  0.58572958  0.93322502  1
  O2-  O204  1  0.16714025  0.20305786  0.27080306  1
  O2-  O205  1  0.17326777  0.19633381  0.60133040  1
  O2-  O206  1  0.16564802  0.20305514  0.93909118  1
  O2-  O207  1  0.16383552  0.70907488  0.26716021  1
  O2-  O208  1  0.16380262  0.71455085  0.59925225  1
  O2-  O209  1  0.16796416  0.70749697  0.93671897  1
  O2-  O210  1  0.66546727  0.20598907  0.26232022  1
  O2-  O211  1  0.66102657  0.20726513  0.60548170  1
  O2-  O212  1  0.66673666  0.19959142  0.93972304  1
  O2-  O213  1  0.66439283  0.70971105  0.27191958  1
  O2-  O214  1  0.67128560  0.70420199  0.59421980  1
  O2-  O215  1  0.66600797  0.70749384  0.92976784  1
  O2-  O216  1  0.08702015  0.45568972  0.06376320  1
  O2-  O217  1  0.08971568  0.46341797  0.39161104  1
  O2-  O218  1  0.08044359  0.45668443  0.73416946  1
  O2-  O219  1  0.09069161  0.95736149  0.06584468  1
  O2-  O220  1  0.07842734  0.95247636  0.40177826  1
  O2-  O221  1  0.08416812  0.96103015  0.73811746  1
  O2-  O222  1  0.58158735  0.46364334  0.06929085  1
  O2-  O223  1  0.58029084  0.45566116  0.40008500  1
  O2-  O224  1  0.57971089  0.45603724  0.73274278  1
  O2-  O225  1  0.58223320  0.94877418  0.05964462  1
  O2-  O226  1  0.58274629  0.95703028  0.39884611  1
  O2-  O227  1  0.58344746  0.95838709  0.73101712  1
  O2-  O228  1  0.20971596  0.33646214  0.06443276  1
  O2-  O229  1  0.20094435  0.33749466  0.39190993  1
  O2-  O230  1  0.20528341  0.32682006  0.73363523  1
  O2-  O231  1  0.20787122  0.83660378  0.06475633  1
  O2-  O232  1  0.20930651  0.83006161  0.40042571  1
  O2-  O233  1  0.21269575  0.83562184  0.73802832  1
  O2-  O234  1  0.70556392  0.33291942  0.06789814  1
  O2-  O235  1  0.70505210  0.32703566  0.39666453  1
  O2-  O236  1  0.70638781  0.33039174  0.73732726  1
  O2-  O237  1  0.70663537  0.83339676  0.05768280  1
  O2-  O238  1  0.71120414  0.83475213  0.40331743  1
  O2-  O239  1  0.69449375  0.83174496  0.72485430  1
  O2-  O240  1  0.45224373  0.41832105  0.27057545  1
  O2-  O241  1  0.45247400  0.41332430  0.60511724  1
  O2-  O242  1  0.45721770  0.41651344  0.93288339  1
  O2-  O243  1  0.45365274  0.91237070  0.27132214  1
  O2-  O244  1  0.45525795  0.92112909  0.59823180  1
  O2-  O245  1  0.44583937  0.91791443  0.93996964  1
  O2-  O246  1  0.96495305  0.41611977  0.26113148  1
  O2-  O247  1  0.95435368  0.42002648  0.60018399  1
  O2-  O248  1  0.95767872  0.41827162  0.93337649  1
  O2-  O249  1  0.95614635  0.91415837  0.27000007  1
  O2-  O250  1  0.95875178  0.91514367  0.60239574  1
  O2-  O251  1  0.96662824  0.91721865  0.93445157  1
  O2-  O252  1  0.33267002  0.29936354  0.27046242  1
  O2-  O253  1  0.33655845  0.29296969  0.60355250  1
  O2-  O254  1  0.33380053  0.28733015  0.93150198  1
  O2-  O255  1  0.33774294  0.78893923  0.26817700  1
  O2-  O256  1  0.33097879  0.79128131  0.59816096  1
  O2-  O257  1  0.33346064  0.79357968  0.93930998  1
  O2-  O258  1  0.83409468  0.29032717  0.26294089  1
  O2-  O259  1  0.83030668  0.28535666  0.59956296  1
  O2-  O260  1  0.83002132  0.28858860  0.93453896  1
  O2-  O261  1  0.83716119  0.79249231  0.27052839  1
  O2-  O262  1  0.83075333  0.80651784  0.60642691  1
  O2-  O263  1  0.83587745  0.79704808  0.92902616  1
  O2-  O264  1  0.41471654  0.04608919  0.06359494  1
  O2-  O265  1  0.41819854  0.04169495  0.40166818  1
  O2-  O266  1  0.41687393  0.04393135  0.73526427  1
  O2-  O267  1  0.41074641  0.54026238  0.06479023  1
  O2-  O268  1  0.41410388  0.54817072  0.39396092  1
  O2-  O269  1  0.41794621  0.54327965  0.73393290  1
  O2-  O270  1  0.91717960  0.03792331  0.07179477  1
  O2-  O271  1  0.91509909  0.04689578  0.39489160  1
  O2-  O272  1  0.91497445  0.03862392  0.73504363  1
  O2-  O273  1  0.91972541  0.55221738  0.06020162  1
  O2-  O274  1  0.92424459  0.54581979  0.39366843  1
  O2-  O275  1  0.92117198  0.54909540  0.73534480  1
  O2-  O276  1  0.29213116  0.16329339  0.06526163  1
  O2-  O277  1  0.29951775  0.17319154  0.40003158  1
  O2-  O278  1  0.30226323  0.16689882  0.73135820  1
  O2-  O279  1  0.29278676  0.66173201  0.06597955  1
  O2-  O280  1  0.29022647  0.66138829  0.39405970  1
  O2-  O281  1  0.28860495  0.66788875  0.73528956  1
  O2-  O282  1  0.78941810  0.16519562  0.07157889  1
  O2-  O283  1  0.79483796  0.16620160  0.39361557  1
  O2-  O284  1  0.78443288  0.16192221  0.73518689  1
  O2-  O285  1  0.79676429  0.66910217  0.05876430  1
  O2-  O286  1  0.79652960  0.66825476  0.40079759  1
  O2-  O287  1  0.79579735  0.67405712  0.73283484  1
