# generated using pymatgen
data_Ca2Al2SiO7
_symmetry_space_group_name_H-M   'P 1'
_cell_length_a   15.45475815
_cell_length_b   15.45398193
_cell_length_c   15.28101183
_cell_angle_alpha   89.99957243
_cell_angle_beta   90.01603078
_cell_angle_gamma   90.00014394
_symmetry_Int_Tables_number   1
_chemical_formula_structural   Ca2Al2SiO7
_chemical_formula_sum   'Ca48 Al48 Si24 O168'
_cell_volume   3649.67933409
_cell_formula_units_Z   24
loop_
 _symmetry_equiv_pos_site_id
 _symmetry_equiv_pos_as_xyz
  1  'x, y, z'
loop_
 _atom_type_symbol
 _atom_type_oxidation_number
  Ca2+  2.0
  Al0+  0.0
  Si0+  0.0
  O2-  -2.0
loop_
 _atom_site_type_symbol
 _atom_site_label
 _atom_site_symmetry_multiplicity
 _atom_site_fract_x
 _atom_site_fract_y
 _atom_site_fract_z
 _atom_site_occupancy
  Ca2+  Ca0  1  0.17427333  0.08747305  0.17065952  1
  Ca2+  Ca1  1  0.15982990  0.08222320  0.50664237  1
  Ca2+  Ca2  1  0.17164834  0.08142778  0.83717286  1
  Ca2+  Ca3  1  0.16672562  0.58549662  0.17100058  1
  Ca2+  Ca4  1  0.17130299  0.58204450  0.50452713  1
  Ca2+  Ca5  1  0.16474173  0.57055401  0.84225765  1
  Ca2+  Ca6  1  0.67301331  0.07426786  0.17046717  1
  Ca2+  Ca7  1  0.67193869  0.07446444  0.50489700  1
  Ca2+  Ca8  1  0.66397936  0.07976798  0.84397648  1
  Ca2+  Ca9  1  0.65476375  0.57970845  0.16995281  1
  Ca2+  Ca10  1  0.66798485  0.57959039  0.50524772  1
  Ca2+  Ca11  1  0.66078967  0.57139295  0.83867409  1
  Ca2+  Ca12  1  0.07661689  0.33330520  0.16501624  1
  Ca2+  Ca13  1  0.08214818  0.32383216  0.49414817  1
  Ca2+  Ca14  1  0.08630282  0.32934672  0.82548856  1
  Ca2+  Ca15  1  0.07977064  0.82407565  0.16383375  1
  Ca2+  Ca16  1  0.07651939  0.83272884  0.48887126  1
  Ca2+  Ca17  1  0.08612240  0.82922080  0.82936746  1
  Ca2+  Ca18  1  0.58269764  0.32741845  0.15658278  1
  Ca2+  Ca19  1  0.58427816  0.33097540  0.50178560  1
  Ca2+  Ca20  1  0.58458465  0.32374347  0.82548191  1
  Ca2+  Ca21  1  0.58608469  0.82686116  0.15770879  1
  Ca2+  Ca22  1  0.58902067  0.82957015  0.49267991  1
  Ca2+  Ca23  1  0.58125786  0.83956489  0.83325609  1
  Ca2+  Ca24  1  0.32532271  0.42383887  0.17201425  1
  Ca2+  Ca25  1  0.33141808  0.42227996  0.50652541  1
  Ca2+  Ca26  1  0.32337695  0.40652661  0.83593509  1
  Ca2+  Ca27  1  0.34063793  0.91980172  0.16430333  1
  Ca2+  Ca28  1  0.32279762  0.91824512  0.50603377  1
  Ca2+  Ca29  1  0.33153132  0.92111336  0.83989244  1
  Ca2+  Ca30  1  0.82804819  0.41448048  0.16839617  1
  Ca2+  Ca31  1  0.83248657  0.41576750  0.50206408  1
  Ca2+  Ca32  1  0.82042410  0.41336599  0.83847664  1
  Ca2+  Ca33  1  0.82729785  0.92254804  0.17357780  1
  Ca2+  Ca34  1  0.82713034  0.91504783  0.50152203  1
  Ca2+  Ca35  1  0.82092537  0.92636095  0.84138655  1
  Ca2+  Ca36  1  0.42394424  0.16370133  0.15625608  1
  Ca2+  Ca37  1  0.42050188  0.17359325  0.50282359  1
  Ca2+  Ca38  1  0.42710861  0.16668782  0.82841061  1
  Ca2+  Ca39  1  0.42353252  0.67178382  0.16119072  1
  Ca2+  Ca40  1  0.42165987  0.66624432  0.49116434  1
  Ca2+  Ca41  1  0.42105026  0.67156294  0.83681712  1
  Ca2+  Ca42  1  0.91337958  0.16464273  0.16775384  1
  Ca2+  Ca43  1  0.92567658  0.16835021  0.48987593  1
  Ca2+  Ca44  1  0.92007313  0.16401710  0.82951805  1
  Ca2+  Ca45  1  0.92349723  0.67192017  0.16412006  1
  Ca2+  Ca46  1  0.92398519  0.67413557  0.48795650  1
  Ca2+  Ca47  1  0.92102067  0.66540095  0.83450823  1
  Al0+  Al48  1  0.00039210  -0.00020451  0.00288416  1
  Al0+  Al49  1  0.00058817  0.00118280  0.32697317  1
  Al0+  Al50  1  -0.00058435  -0.00160755  0.66803971  1
  Al0+  Al51  1  -0.00169079  0.49844231  -0.00071718  1
  Al0+  Al52  1  -0.00126464  0.49696229  0.32769050  1
  Al0+  Al53  1  0.00195529  0.50160224  0.66959052  1
  Al0+  Al54  1  0.49886042  -0.00006107  0.00012833  1
  Al0+  Al55  1  0.49895769  0.00091136  0.34062943  1
  Al0+  Al56  1  0.49955658  -0.00060766  0.66291952  1
  Al0+  Al57  1  0.49649161  0.50094499  -0.00030093  1
  Al0+  Al58  1  0.49702163  0.50010276  0.33511431  1
  Al0+  Al59  1  0.50100867  0.50152881  0.66792711  1
  Al0+  Al60  1  0.24792139  0.24969930  0.01052535  1
  Al0+  Al61  1  0.25030545  0.25133406  0.33124070  1
  Al0+  Al62  1  0.25141779  0.25112730  0.66113381  1
  Al0+  Al63  1  0.24959578  0.74869710  -0.00939006  1
  Al0+  Al64  1  0.25267584  0.75054594  0.33453596  1
  Al0+  Al65  1  0.25157086  0.75027544  0.67072372  1
  Al0+  Al66  1  0.75036177  0.25137873  0.00346172  1
  Al0+  Al67  1  0.74978531  0.24800477  0.33490453  1
  Al0+  Al68  1  0.75136688  0.25038061  0.66482554  1
  Al0+  Al69  1  0.75211915  0.74809115  -0.00375773  1
  Al0+  Al70  1  0.74956694  0.74708023  0.32824132  1
  Al0+  Al71  1  0.75116079  0.75192480  0.67225373  1
  Al0+  Al72  1  0.82241930  0.07097051  0.35102196  1
  Al0+  Al73  1  0.07283068  0.17860604  0.31531815  1
  Al0+  Al74  1  0.56968899  0.67859792  0.32175536  1
  Al0+  Al75  1  0.67829185  0.92942399  0.68194818  1
  Al0+  Al76  1  0.57116518  0.18150176  0.98895149  1
  Al0+  Al77  1  0.67665318  0.43132492  0.01386763  1
  Al0+  Al78  1  0.31960873  0.06947203  0.01240823  1
  Al0+  Al79  1  0.57377029  0.17676656  0.64964769  1
  Al0+  Al80  1  0.42962965  0.32274508  0.65185787  1
  Al0+  Al81  1  0.17704795  0.42842604  0.01603659  1
  Al0+  Al82  1  0.82279071  0.07237507  0.01589002  1
  Al0+  Al83  1  0.07397730  0.67861151  0.32020764  1
  Al0+  Al84  1  0.06947035  0.67835360  0.98397869  1
  Al0+  Al85  1  0.06991459  0.17877285  0.65555251  1
  Al0+  Al86  1  0.17717352  0.92863378  0.67970870  1
  Al0+  Al87  1  0.68031973  0.42926248  0.67918106  1
  Al0+  Al88  1  0.92623750  0.32005592  0.31702737  1
  Al0+  Al89  1  0.92745627  0.82152645  0.31735176  1
  Al0+  Al90  1  0.67922639  0.92644001  0.34888144  1
  Al0+  Al91  1  0.57355290  0.67675612  0.98263146  1
  Al0+  Al92  1  0.43056203  0.82186385  0.98374506  1
  Al0+  Al93  1  0.67810054  0.92777349  0.01504909  1
  Al0+  Al94  1  0.18091740  0.42982003  0.67865708  1
  Al0+  Al95  1  0.31970872  0.57124671  0.34694702  1
  Si0+  Si96  1  0.32382637  0.57344437  0.68627399  1
  Si0+  Si97  1  0.82225262  0.57066808  0.01702059  1
  Si0+  Si98  1  0.92851535  0.32456530  0.65155795  1
  Si0+  Si99  1  0.42770531  0.82078371  0.64952698  1
  Si0+  Si100  1  0.42508047  0.32183889  0.98648629  1
  Si0+  Si101  1  0.92971392  0.81905150  0.65280851  1
  Si0+  Si102  1  0.17655149  0.42829217  0.35103568  1
  Si0+  Si103  1  0.32183329  0.07451033  0.35111926  1
  Si0+  Si104  1  0.42971691  0.32173833  0.31738564  1
  Si0+  Si105  1  0.17818813  0.92532964  0.01679172  1
  Si0+  Si106  1  0.92938070  0.32004149  0.98309523  1
  Si0+  Si107  1  0.82203942  0.56950948  0.34631400  1
  Si0+  Si108  1  0.82315790  0.57359741  0.68330322  1
  Si0+  Si109  1  0.56895130  0.17857849  0.31910981  1
  Si0+  Si110  1  0.07262471  0.17901701  0.98539110  1
  Si0+  Si111  1  0.31923121  0.57348246  0.01654515  1
  Si0+  Si112  1  0.82195401  0.07163767  0.68222829  1
  Si0+  Si113  1  0.07237062  0.67835722  0.65183677  1
  Si0+  Si114  1  0.92906816  0.82419354  0.98035522  1
  Si0+  Si115  1  0.42829508  0.82443208  0.31904403  1
  Si0+  Si116  1  0.57180321  0.68088363  0.65204909  1
  Si0+  Si117  1  0.67733350  0.42865796  0.34814773  1
  Si0+  Si118  1  0.18104283  0.93041268  0.34546591  1
  Si0+  Si119  1  0.32078324  0.07186080  0.68127967  1
  O2-  O120  1  0.24628627  -0.00583616  0.06140915  1
  O2-  O121  1  0.24811392  0.00461747  0.39022645  1
  O2-  O122  1  0.25102609  0.00429183  0.72557725  1
  O2-  O123  1  0.25061946  0.50479598  0.06100171  1
  O2-  O124  1  0.24220715  0.50004978  0.39491060  1
  O2-  O125  1  0.25559770  0.50314072  0.72847165  1
  O2-  O126  1  0.75178598  -0.00160603  0.06404596  1
  O2-  O127  1  0.75229140  -0.00323429  0.40064518  1
  O2-  O128  1  0.74696895  0.01030605  0.72682406  1
  O2-  O129  1  0.74620558  0.51034738  0.06182996  1
  O2-  O130  1  0.75020430  0.49897545  0.38900173  1
  O2-  O131  1  0.75629504  0.50250857  0.72627018  1
  O2-  O132  1  -0.00148105  0.24867034  0.26617049  1
  O2-  O133  1  -0.00316062  0.25501892  0.60870299  1
  O2-  O134  1  -0.00008078  0.24769279  0.94204964  1
  O2-  O135  1  0.00136275  0.74952471  0.26983119  1
  O2-  O136  1  0.00231615  0.74975936  0.60933017  1
  O2-  O137  1  -0.00236836  0.75509960  0.93535368  1
  O2-  O138  1  0.49837643  0.24915235  0.27487694  1
  O2-  O139  1  0.50370356  0.25252438  0.60114598  1
  O2-  O140  1  0.49708671  0.25719783  0.94209511  1
  O2-  O141  1  0.50054508  0.75887024  0.27673520  1
  O2-  O142  1  0.50095598  0.75150492  0.60812255  1
  O2-  O143  1  0.50591716  0.75325013  0.93248466  1
  O2-  O144  1  0.07417923  0.18149262  0.08994033  1
  O2-  O145  1  0.07446528  0.18067318  0.42947704  1
  O2-  O146  1  0.06925958  0.17930957  0.76907539  1
  O2-  O147  1  0.06847026  0.67995163  0.09689415  1
  O2-  O148  1  0.07263580  0.68118256  0.43463777  1
  O2-  O149  1  0.07003812  0.67743902  0.75674273  1
  O2-  O150  1  0.56900122  0.18261897  0.10258483  1
  O2-  O151  1  0.56723273  0.18047236  0.42400795  1
  O2-  O152  1  0.57183717  0.17674607  0.76340580  1
  O2-  O153  1  0.56763785  0.67490850  0.09621398  1
  O2-  O154  1  0.56829112  0.67637190  0.43562015  1
  O2-  O155  1  0.57034636  0.68050185  0.75660334  1
  O2-  O156  1  0.17941498  0.42749548  0.24546510  1
  O2-  O157  1  0.17964526  0.43381716  0.56576971  1
  O2-  O158  1  0.17891494  0.42624618  0.90245599  1
  O2-  O159  1  0.18585584  0.92847704  0.24067035  1
  O2-  O160  1  0.17776163  0.92718763  0.56611816  1
  O2-  O161  1  0.17815816  0.92817121  0.91078989  1
  O2-  O162  1  0.67514712  0.42958301  0.24312867  1
  O2-  O163  1  0.68159624  0.43319796  0.56552861  1
  O2-  O164  1  0.68002917  0.42867702  0.90070422  1
  O2-  O165  1  0.67644975  0.92832798  0.23595486  1
  O2-  O166  1  0.68292665  0.92348584  0.56925933  1
  O2-  O167  1  0.67883234  0.93278548  0.90099072  1
  O2-  O168  1  0.42633292  0.32002440  0.09260631  1
  O2-  O169  1  0.43067189  0.32221729  0.42225861  1
  O2-  O170  1  0.42787308  0.31903531  0.76541925  1
  O2-  O171  1  0.42861291  0.81926642  0.09757317  1
  O2-  O172  1  0.42528946  0.82243792  0.42507194  1
  O2-  O173  1  0.42614274  0.82057376  0.75412823  1
  O2-  O174  1  0.92965678  0.32184503  0.08779216  1
  O2-  O175  1  0.92864882  0.32172841  0.43113905  1
  O2-  O176  1  0.92867056  0.32474120  0.75735458  1
  O2-  O177  1  0.93088421  0.82309879  0.08557797  1
  O2-  O178  1  0.92955146  0.81874486  0.43210477  1
  O2-  O179  1  0.93072457  0.81699048  0.75768371  1
  O2-  O180  1  0.32488180  0.07412307  0.24615732  1
  O2-  O181  1  0.31959631  0.06937172  0.57520495  1
  O2-  O182  1  0.31638630  0.07173469  0.89928870  1
  O2-  O183  1  0.32123122  0.56824989  0.23421516  1
  O2-  O184  1  0.32205812  0.57567454  0.58031617  1
  O2-  O185  1  0.31812512  0.57248220  0.91079733  1
  O2-  O186  1  0.81690721  0.07197299  0.23795020  1
  O2-  O187  1  0.82472262  0.06714168  0.57709517  1
  O2-  O188  1  0.82419391  0.07195222  0.90162853  1
  O2-  O189  1  0.82219145  0.56892013  0.24165358  1
  O2-  O190  1  0.82279236  0.57590738  0.57740205  1
  O2-  O191  1  0.82582445  0.56462982  0.91112135  1
  O2-  O192  1  0.05061865  0.07972408  0.26197223  1
  O2-  O193  1  0.03869835  0.08177583  0.60153530  1
  O2-  O194  1  0.04836865  0.08514065  0.93984197  1
  O2-  O195  1  0.04717459  0.57985426  0.26870128  1
  O2-  O196  1  0.04424490  0.58691027  0.60368407  1
  O2-  O197  1  0.03451390  0.58216072  0.93014585  1
  O2-  O198  1  0.53876682  0.08642686  0.27401607  1
  O2-  O199  1  0.54143966  0.07987200  0.59496065  1
  O2-  O200  1  0.53804288  0.08608652  0.93537551  1
  O2-  O201  1  0.53298556  0.58361982  0.26788890  1
  O2-  O202  1  0.54491967  0.58897817  0.60434125  1
  O2-  O203  1  0.53756402  0.57978131  0.92892751  1
  O2-  O204  1  0.17162001  0.20941002  0.26317822  1
  O2-  O205  1  0.16606773  0.20715133  0.59983665  1
  O2-  O206  1  0.16410909  0.21007054  0.93907301  1
  O2-  O207  1  0.17189269  0.70908366  0.26742553  1
  O2-  O208  1  0.16608770  0.70474525  0.60772140  1
  O2-  O209  1  0.16530241  0.70567551  0.92712076  1
  O2-  O210  1  0.66088836  0.20608352  0.27344226  1
  O2-  O211  1  0.67276251  0.20490850  0.59717444  1
  O2-  O212  1  0.66771529  0.21246468  0.93500143  1
  O2-  O213  1  0.66693772  0.69983500  0.26633512  1
  O2-  O214  1  0.66520981  0.70862774  0.60700455  1
  O2-  O215  1  0.67529209  0.69470084  0.93192699  1
  O2-  O216  1  0.08007352  0.45976720  0.06783890  1
  O2-  O217  1  0.08081488  0.44897762  0.39427848  1
  O2-  O218  1  0.08452996  0.46010040  0.73458249  1
  O2-  O219  1  0.08475015  0.94963879  0.06260157  1
  O2-  O220  1  0.08761116  0.95453477  0.39102672  1
  O2-  O221  1  0.08106208  0.95683078  0.73564880  1
  O2-  O222  1  0.57773882  0.45675608  0.06681608  1
  O2-  O223  1  0.58671826  0.45877381  0.39649766  1
  O2-  O224  1  0.58433846  0.46102624  0.73334090  1
  O2-  O225  1  0.57957973  0.95532832  0.06664371  1
  O2-  O226  1  0.58067398  0.95598465  0.40340228  1
  O2-  O227  1  0.57819678  0.95474251  0.73090811  1
  O2-  O228  1  0.20808690  0.33459367  0.07423769  1
  O2-  O229  1  0.20762728  0.33567805  0.39666060  1
  O2-  O230  1  0.21145617  0.33222702  0.73163569  1
  O2-  O231  1  0.20471271  0.83079778  0.05938616  1
  O2-  O232  1  0.21145520  0.84053216  0.39614263  1
  O2-  O233  1  0.20986845  0.83307938  0.73484787  1
  O2-  O234  1  0.71229522  0.33730301  0.06936496  1
  O2-  O235  1  0.70444645  0.33699853  0.39569654  1
  O2-  O236  1  0.70993319  0.33191480  0.73280461  1
  O2-  O237  1  0.70494320  0.82634594  0.06231749  1
  O2-  O238  1  0.70695055  0.82566670  0.39908553  1
  O2-  O239  1  0.71316200  0.83506027  0.73812464  1
  O2-  O240  1  0.45918696  0.41242760  0.26931401  1
  O2-  O241  1  0.45675093  0.42272064  0.59965211  1
  O2-  O242  1  0.44328751  0.41691765  0.94165198  1
  O2-  O243  1  0.44949443  0.92028441  0.27580495  1
  O2-  O244  1  0.45086433  0.91310537  0.60134932  1
  O2-  O245  1  0.45466462  0.92097427  0.92977847  1
  O2-  O246  1  0.95317126  0.41767071  0.26134812  1
  O2-  O247  1  0.95430634  0.41894427  0.60615889  1
  O2-  O248  1  0.95783133  0.41067109  0.93414960  1
  O2-  O249  1  0.95538638  0.91876640  0.26398221  1
  O2-  O250  1  0.95653724  0.91072556  0.60526114  1
  O2-  O251  1  0.95635080  0.91774700  0.93422294  1
  O2-  O252  1  0.33706843  0.29680147  0.27074403  1
  O2-  O253  1  0.33348303  0.29280459  0.59402613  1
  O2-  O254  1  0.33166030  0.29114607  0.94273169  1
  O2-  O255  1  0.33708683  0.79580785  0.27074942  1
  O2-  O256  1  0.33614419  0.78997236  0.60182046  1
  O2-  O257  1  0.33349281  0.79121901  0.92764806  1
  O2-  O258  1  0.82679901  0.29267475  0.26480828  1
  O2-  O259  1  0.83516773  0.30158811  0.60440530  1
  O2-  O260  1  0.83751898  0.29223439  0.93566209  1
  O2-  O261  1  0.83167804  0.78930883  0.26279237  1
  O2-  O262  1  0.83827587  0.78904767  0.60541468  1
  O2-  O263  1  0.83609950  0.79793266  0.93310673  1
  O2-  O264  1  0.41481937  0.03884356  0.06911515  1
  O2-  O265  1  0.41130864  0.04555194  0.40234667  1
  O2-  O266  1  0.41389737  0.04377788  0.72625641  1
  O2-  O267  1  0.41248783  0.54824366  0.06303109  1
  O2-  O268  1  0.41390092  0.53556605  0.40443172  1
  O2-  O269  1  0.41797124  0.55023084  0.73110102  1
  O2-  O270  1  0.92213923  0.04548231  0.06849879  1
  O2-  O271  1  0.92437465  0.04622136  0.39894314  1
  O2-  O272  1  0.91239408  0.03928281  0.73130499  1
  O2-  O273  1  0.91190471  0.53656636  0.06541772  1
  O2-  O274  1  0.91350409  0.54091256  0.39545103  1
  O2-  O275  1  0.91721082  0.55003563  0.72963214  1
  O2-  O276  1  0.28845749  0.16340478  0.07198899  1
  O2-  O277  1  0.29509907  0.16733873  0.39725314  1
  O2-  O278  1  0.29697447  0.16600210  0.72555762  1
  O2-  O279  1  0.29207463  0.66725300  0.06084954  1
  O2-  O280  1  0.29394913  0.66893491  0.40284420  1
  O2-  O281  1  0.29700123  0.66609622  0.73320728  1
  O2-  O282  1  0.79454105  0.17038122  0.06842022  1
  O2-  O283  1  0.79216420  0.16931687  0.40446769  1
  O2-  O284  1  0.80541475  0.16847090  0.72476089  1
  O2-  O285  1  0.80784309  0.66795705  0.05809817  1
  O2-  O286  1  0.79475529  0.66075307  0.39516352  1
  O2-  O287  1  0.79608954  0.66511326  0.73247337  1
