# generated using pymatgen
data_Ca2Al2SiO7
_symmetry_space_group_name_H-M   'P 1'
_cell_length_a   15.47249468
_cell_length_b   15.46956064
_cell_length_c   15.29406129
_cell_angle_alpha   90.00723011
_cell_angle_beta   90.00194308
_cell_angle_gamma   89.98157366
_symmetry_Int_Tables_number   1
_chemical_formula_structural   Ca2Al2SiO7
_chemical_formula_sum   'Ca48 Al48 Si24 O168'
_cell_volume   3660.67456264
_cell_formula_units_Z   24
loop_
 _symmetry_equiv_pos_site_id
 _symmetry_equiv_pos_as_xyz
  1  'x, y, z'
loop_
 _atom_type_symbol
 _atom_type_oxidation_number
  Ca2+  2.0
  Al0+  0.0
  Si0+  0.0
  O2-  -2.0
loop_
 _atom_site_type_symbol
 _atom_site_label
 _atom_site_symmetry_multiplicity
 _atom_site_fract_x
 _atom_site_fract_y
 _atom_site_fract_z
 _atom_site_occupancy
  Ca2+  Ca0  1  0.16890002  0.08369454  0.17247025  1
  Ca2+  Ca1  1  0.17172883  0.07802210  0.50537591  1
  Ca2+  Ca2  1  0.16910608  0.08067111  0.84124539  1
  Ca2+  Ca3  1  0.17342222  0.59147440  0.16510248  1
  Ca2+  Ca4  1  0.17382112  0.58640457  0.50769463  1
  Ca2+  Ca5  1  0.17436765  0.59149584  0.83721484  1
  Ca2+  Ca6  1  0.66417801  0.08107206  0.17711701  1
  Ca2+  Ca7  1  0.65791066  0.07948890  0.49864463  1
  Ca2+  Ca8  1  0.66020423  0.08566183  0.83603389  1
  Ca2+  Ca9  1  0.66385849  0.57337804  0.17591456  1
  Ca2+  Ca10  1  0.66556370  0.57746361  0.50381241  1
  Ca2+  Ca11  1  0.66313791  0.56881617  0.83534202  1
  Ca2+  Ca12  1  0.07849564  0.32649545  0.16081250  1
  Ca2+  Ca13  1  0.08030556  0.33447679  0.49640052  1
  Ca2+  Ca14  1  0.08644611  0.32740031  0.83274191  1
  Ca2+  Ca15  1  0.07294283  0.82785292  0.16357704  1
  Ca2+  Ca16  1  0.07028575  0.82574906  0.50066029  1
  Ca2+  Ca17  1  0.07786866  0.81959756  0.82681162  1
  Ca2+  Ca18  1  0.58615106  0.32927119  0.16133025  1
  Ca2+  Ca19  1  0.58160573  0.33483097  0.49312393  1
  Ca2+  Ca20  1  0.58360819  0.33092586  0.82817899  1
  Ca2+  Ca21  1  0.57987418  0.83120132  0.16768302  1
  Ca2+  Ca22  1  0.57626577  0.82763364  0.48824247  1
  Ca2+  Ca23  1  0.57105671  0.83073720  0.82803058  1
  Ca2+  Ca24  1  0.33941792  0.41714059  0.16722463  1
  Ca2+  Ca25  1  0.33845813  0.41985829  0.50777993  1
  Ca2+  Ca26  1  0.34392673  0.42755881  0.83753366  1
  Ca2+  Ca27  1  0.33621330  0.91296310  0.17146712  1
  Ca2+  Ca28  1  0.33867904  0.91299366  0.50568887  1
  Ca2+  Ca29  1  0.33638643  0.91360906  0.84016085  1
  Ca2+  Ca30  1  0.81974132  0.42074967  0.17440280  1
  Ca2+  Ca31  1  0.82002426  0.42857276  0.50354255  1
  Ca2+  Ca32  1  0.82279019  0.41938117  0.83401704  1
  Ca2+  Ca33  1  0.82602361  0.92354383  0.18015700  1
  Ca2+  Ca34  1  0.83172129  0.91592113  0.49870600  1
  Ca2+  Ca35  1  0.83424655  0.91513090  0.83297550  1
  Ca2+  Ca36  1  0.43042116  0.17964039  0.16316430  1
  Ca2+  Ca37  1  0.43051822  0.17931132  0.49599006  1
  Ca2+  Ca38  1  0.42905091  0.18077994  0.82759350  1
  Ca2+  Ca39  1  0.42179257  0.67252192  0.16502236  1
  Ca2+  Ca40  1  0.42058030  0.67191548  0.49605696  1
  Ca2+  Ca41  1  0.40694954  0.67286110  0.82887438  1
  Ca2+  Ca42  1  0.91776652  0.16369944  0.16327663  1
  Ca2+  Ca43  1  0.91516018  0.16537552  0.49510596  1
  Ca2+  Ca44  1  0.92253534  0.16648400  0.83280530  1
  Ca2+  Ca45  1  0.91354412  0.66897039  0.16416649  1
  Ca2+  Ca46  1  0.91090915  0.66832955  0.49428196  1
  Ca2+  Ca47  1  0.92655871  0.66310580  0.82229274  1
  Al0+  Al48  1  0.00033041  -0.00086973  -0.00326332  1
  Al0+  Al49  1  0.00160218  -0.00343672  0.33454534  1
  Al0+  Al50  1  0.00074097  -0.00276663  0.66561985  1
  Al0+  Al51  1  0.00117776  0.49972866  -0.00375288  1
  Al0+  Al52  1  0.00286875  0.49774665  0.33508126  1
  Al0+  Al53  1  0.00269613  0.49616757  0.66647455  1
  Al0+  Al54  1  0.49888484  0.00093492  -0.00499293  1
  Al0+  Al55  1  0.49795048  0.00373334  0.33163907  1
  Al0+  Al56  1  0.49970366  0.00196873  0.66206329  1
  Al0+  Al57  1  0.50017905  0.50192720  0.00803938  1
  Al0+  Al58  1  0.49625474  0.50320451  0.33120804  1
  Al0+  Al59  1  0.49823597  0.50138953  0.67331618  1
  Al0+  Al60  1  0.25064148  0.25021831  -0.00633602  1
  Al0+  Al61  1  0.25007625  0.24882527  0.33215244  1
  Al0+  Al62  1  0.25284464  0.24789684  0.66445334  1
  Al0+  Al63  1  0.24690404  0.75078372  -0.00013283  1
  Al0+  Al64  1  0.24716718  0.75013465  0.33227845  1
  Al0+  Al65  1  0.24613492  0.75067486  0.66259726  1
  Al0+  Al66  1  0.75229867  0.24932688  0.00005023  1
  Al0+  Al67  1  0.75241720  0.25134866  0.33709648  1
  Al0+  Al68  1  0.75348271  0.24631038  0.66787186  1
  Al0+  Al69  1  0.74785016  0.75214414  -0.00097234  1
  Al0+  Al70  1  0.74997332  0.75202880  0.32936926  1
  Al0+  Al71  1  0.75033065  0.75247394  0.67005453  1
  Al0+  Al72  1  0.57213847  0.67903051  0.31886363  1
  Al0+  Al73  1  0.42666647  0.32324952  0.31817889  1
  Al0+  Al74  1  0.31791037  0.57135666  0.67951679  1
  Al0+  Al75  1  0.68075384  0.42907204  0.01497922  1
  Al0+  Al76  1  0.92701799  0.82035300  0.65093179  1
  Al0+  Al77  1  0.82336587  0.57202308  0.34520215  1
  Al0+  Al78  1  0.92852134  0.82000199  0.31863790  1
  Al0+  Al79  1  0.57355249  0.17979819  0.98479639  1
  Al0+  Al80  1  0.07117329  0.17778489  0.98736179  1
  Al0+  Al81  1  0.82344210  0.07110417  0.34863866  1
  Al0+  Al82  1  0.67574100  0.43080578  0.34822768  1
  Al0+  Al83  1  0.57389830  0.18285401  0.31819616  1
  Al0+  Al84  1  0.82267250  0.57323623  0.68166959  1
  Al0+  Al85  1  0.57489804  0.17973810  0.64959774  1
  Al0+  Al86  1  0.43044301  0.32454383  0.98404192  1
  Al0+  Al87  1  0.67609097  0.93074775  0.34825096  1
  Al0+  Al88  1  0.43127560  0.32375069  0.65182437  1
  Al0+  Al89  1  0.42953904  0.81906756  0.98702814  1
  Al0+  Al90  1  0.06966087  0.67563182  0.65001470  1
  Al0+  Al91  1  0.06854062  0.67915772  0.98683390  1
  Al0+  Al92  1  0.42683273  0.82199121  0.31892693  1
  Al0+  Al93  1  0.67907322  0.42807956  0.68208960  1
  Al0+  Al94  1  0.31865976  0.57245407  0.01630559  1
  Al0+  Al95  1  0.42846613  0.82039769  0.65399316  1
  Si0+  Si96  1  0.07079409  0.67560226  0.31577821  1
  Si0+  Si97  1  0.93067453  0.31869734  0.65098974  1
  Si0+  Si98  1  0.17840754  0.93038139  0.01651381  1
  Si0+  Si99  1  0.67651800  0.93071245  0.68261367  1
  Si0+  Si100  1  0.31759629  0.57282082  0.34846881  1
  Si0+  Si101  1  0.57311167  0.67823728  0.98246012  1
  Si0+  Si102  1  0.32051795  0.07151417  0.01521383  1
  Si0+  Si103  1  0.82282083  0.06836591  0.01321552  1
  Si0+  Si104  1  0.07085784  0.17755638  0.32076985  1
  Si0+  Si105  1  0.31881034  0.07197396  0.34933927  1
  Si0+  Si106  1  0.82391390  0.57300600  0.01448411  1
  Si0+  Si107  1  0.17899970  0.93112283  0.68359774  1
  Si0+  Si108  1  0.17874773  0.42290166  0.68411733  1
  Si0+  Si109  1  0.32171882  0.07017525  0.68346431  1
  Si0+  Si110  1  0.07238217  0.17730466  0.65134591  1
  Si0+  Si111  1  0.18024501  0.42591661  0.34777018  1
  Si0+  Si112  1  0.93125652  0.32137117  0.31951617  1
  Si0+  Si113  1  0.17942127  0.92776722  0.35039629  1
  Si0+  Si114  1  0.92867056  0.32134138  0.98267413  1
  Si0+  Si115  1  0.17665859  0.42581429  0.01709788  1
  Si0+  Si116  1  0.82448688  0.06883301  0.68423365  1
  Si0+  Si117  1  0.67639774  0.93015761  0.01376015  1
  Si0+  Si118  1  0.57201207  0.67862001  0.65363840  1
  Si0+  Si119  1  0.92596163  0.82180243  0.98309545  1
  O2-  O120  1  0.24908385  0.00119763  0.05969704  1
  O2-  O121  1  0.25361127  -0.00458973  0.39252449  1
  O2-  O122  1  0.25218877  -0.00146419  0.72782470  1
  O2-  O123  1  0.24539565  0.49403714  0.06189367  1
  O2-  O124  1  0.25165089  0.49619622  0.38915127  1
  O2-  O125  1  0.24552996  0.49369573  0.72670916  1
  O2-  O126  1  0.74914321  0.00047279  0.05436586  1
  O2-  O127  1  0.74861431  0.00256408  0.39936613  1
  O2-  O128  1  0.74993550  0.00057454  0.72491531  1
  O2-  O129  1  0.75448125  0.50630487  0.05937078  1
  O2-  O130  1  0.74576028  0.50655411  0.39554094  1
  O2-  O131  1  0.74954116  0.50258748  0.73213885  1
  O2-  O132  1  -0.00237509  0.24509498  0.27773945  1
  O2-  O133  1  0.00387983  0.24917245  0.60829986  1
  O2-  O134  1  -0.00064414  0.25372185  0.93881523  1
  O2-  O135  1  -0.00228611  0.73977039  0.27231343  1
  O2-  O136  1  -0.00958151  0.74030430  0.60135952  1
  O2-  O137  1  -0.01173652  0.74743610  0.94005333  1
  O2-  O138  1  0.50591610  0.25901622  0.26891765  1
  O2-  O139  1  0.50873022  0.25803731  0.60209883  1
  O2-  O140  1  0.50546445  0.25524966  0.93521609  1
  O2-  O141  1  0.50140739  0.75340857  0.26925885  1
  O2-  O142  1  0.50371421  0.74710316  0.60840777  1
  O2-  O143  1  0.50197518  0.74424675  0.93785713  1
  O2-  O144  1  0.06822351  0.17636014  0.10060626  1
  O2-  O145  1  0.07315345  0.17972205  0.42597961  1
  O2-  O146  1  0.07115135  0.17654818  0.75659018  1
  O2-  O147  1  0.06861020  0.68350357  0.10002038  1
  O2-  O148  1  0.07396558  0.67701508  0.42083815  1
  O2-  O149  1  0.07198178  0.68119457  0.76366042  1
  O2-  O150  1  0.57309004  0.17731898  0.09786250  1
  O2-  O151  1  0.56991872  0.18130851  0.43128711  1
  O2-  O152  1  0.57094133  0.17771844  0.76319200  1
  O2-  O153  1  0.57552416  0.68222952  0.08762620  1
  O2-  O154  1  0.56797760  0.67789391  0.43286969  1
  O2-  O155  1  0.57061471  0.68101997  0.75952632  1
  O2-  O156  1  0.17733650  0.42291920  0.24299483  1
  O2-  O157  1  0.17908829  0.41964661  0.57826751  1
  O2-  O158  1  0.17476978  0.42515696  0.91186208  1
  O2-  O159  1  0.17733161  0.93002983  0.24504137  1
  O2-  O160  1  0.17777236  0.93512421  0.57855113  1
  O2-  O161  1  0.17767874  0.93226232  0.91127927  1
  O2-  O162  1  0.68045159  0.42889369  0.23450303  1
  O2-  O163  1  0.67991602  0.42890927  0.56898562  1
  O2-  O164  1  0.68328580  0.42783803  0.90202126  1
  O2-  O165  1  0.67764370  0.93341530  0.23391484  1
  O2-  O166  1  0.67435303  0.93150067  0.57825342  1
  O2-  O167  1  0.67724342  0.92922643  0.90842958  1
  O2-  O168  1  0.42914039  0.32001910  0.09732181  1
  O2-  O169  1  0.42149805  0.31909313  0.43123622  1
  O2-  O170  1  0.42823519  0.32090726  0.76495079  1
  O2-  O171  1  0.43086641  0.82051162  0.09952977  1
  O2-  O172  1  0.42440130  0.81717037  0.43245111  1
  O2-  O173  1  0.42868935  0.82071217  0.76731515  1
  O2-  O174  1  0.92939770  0.31931340  0.08840905  1
  O2-  O175  1  0.93655109  0.32272945  0.42444083  1
  O2-  O176  1  0.93190781  0.31565741  0.75634270  1
  O2-  O177  1  0.92817431  0.82533110  0.08842844  1
  O2-  O178  1  0.93401722  0.82394089  0.43097690  1
  O2-  O179  1  0.93362544  0.82618590  0.76464556  1
  O2-  O180  1  0.31289334  0.07404435  0.24419219  1
  O2-  O181  1  0.31700802  0.06971938  0.57841541  1
  O2-  O182  1  0.31783833  0.06809774  0.90995618  1
  O2-  O183  1  0.31296806  0.57683091  0.24361289  1
  O2-  O184  1  0.31603915  0.57204184  0.56623107  1
  O2-  O185  1  0.31483093  0.57551292  0.90341214  1
  O2-  O186  1  0.82803862  0.06801805  0.23459828  1
  O2-  O187  1  0.83125386  0.06788673  0.58017663  1
  O2-  O188  1  0.82703268  0.06575361  0.90804763  1
  O2-  O189  1  0.82793808  0.56490522  0.23149262  1
  O2-  O190  1  0.82047523  0.57104196  0.56844950  1
  O2-  O191  1  0.82438982  0.57106445  0.90915630  1
  O2-  O192  1  0.04702753  0.08496886  0.27360156  1
  O2-  O193  1  0.04267894  0.08634009  0.60418826  1
  O2-  O194  1  0.03846946  0.08272238  0.93041359  1
  O2-  O195  1  0.05259220  0.57972209  0.27125284  1
  O2-  O196  1  0.05466395  0.57273820  0.60160846  1
  O2-  O197  1  0.04724126  0.58048715  0.93252839  1
  O2-  O198  1  0.53937311  0.08598166  0.26540255  1
  O2-  O199  1  0.53732207  0.08466438  0.59622015  1
  O2-  O200  1  0.54041206  0.08325689  0.93047655  1
  O2-  O201  1  0.53859547  0.58363201  0.26313727  1
  O2-  O202  1  0.54520608  0.58540444  0.60918261  1
  O2-  O203  1  0.54873755  0.58346715  0.94069869  1
  O2-  O204  1  0.16028741  0.20839129  0.27094635  1
  O2-  O205  1  0.16455193  0.20213781  0.60362455  1
  O2-  O206  1  0.16657147  0.20570664  0.93027120  1
  O2-  O207  1  0.16106501  0.70957039  0.26793884  1
  O2-  O208  1  0.16292201  0.71485237  0.59416891  1
  O2-  O209  1  0.16157835  0.71790775  0.93203479  1
  O2-  O210  1  0.67540207  0.20431513  0.26811095  1
  O2-  O211  1  0.67800814  0.19485982  0.60252724  1
  O2-  O212  1  0.67445961  0.20199584  0.93374565  1
  O2-  O213  1  0.67026353  0.70329785  0.26388249  1
  O2-  O214  1  0.66580376  0.70385091  0.60946345  1
  O2-  O215  1  0.66548071  0.70633512  0.93445452  1
  O2-  O216  1  0.08208543  0.45059796  0.06302675  1
  O2-  O217  1  0.08992879  0.45429053  0.39813982  1
  O2-  O218  1  0.08414075  0.44374208  0.72989524  1
  O2-  O219  1  0.08632905  0.95969460  0.06345264  1
  O2-  O220  1  0.09079719  0.96060975  0.40033390  1
  O2-  O221  1  0.08908856  0.96313819  0.73270633  1
  O2-  O222  1  0.58492933  0.45835849  0.07021084  1
  O2-  O223  1  0.57559111  0.45759610  0.39838305  1
  O2-  O224  1  0.58135256  0.45657539  0.73690349  1
  O2-  O225  1  0.58510535  0.95931317  0.06069122  1
  O2-  O226  1  0.57688032  0.95932683  0.40085736  1
  O2-  O227  1  0.58556446  0.96215742  0.73096513  1
  O2-  O228  1  0.20072377  0.33052340  0.06172649  1
  O2-  O229  1  0.20525755  0.33369211  0.39664007  1
  O2-  O230  1  0.20447197  0.32872954  0.73011018  1
  O2-  O231  1  0.20567290  0.83960234  0.06488981  1
  O2-  O232  1  0.20396801  0.83523391  0.39760816  1
  O2-  O233  1  0.20442667  0.83826007  0.72903574  1
  O2-  O234  1  0.71601853  0.33261390  0.06774326  1
  O2-  O235  1  0.70923970  0.33418732  0.40102791  1
  O2-  O236  1  0.71348019  0.32962368  0.73325245  1
  O2-  O237  1  0.70262939  0.83779247  0.06135568  1
  O2-  O238  1  0.70338166  0.83119863  0.39813420  1
  O2-  O239  1  0.70193499  0.83951736  0.73278763  1
  O2-  O240  1  0.44247249  0.42515224  0.26997751  1
  O2-  O241  1  0.45222836  0.42521375  0.60278989  1
  O2-  O242  1  0.45566144  0.42577383  0.93676737  1
  O2-  O243  1  0.44890126  0.92272448  0.26892308  1
  O2-  O244  1  0.45748916  0.91711353  0.60075693  1
  O2-  O245  1  0.45956252  0.91525123  0.93176382  1
  O2-  O246  1  0.96646138  0.40919984  0.26909811  1
  O2-  O247  1  0.95843264  0.40936587  0.60247375  1
  O2-  O248  1  0.95327523  0.41434633  0.93587850  1
  O2-  O249  1  0.96855282  0.91410016  0.26357623  1
  O2-  O250  1  0.96618626  0.91559037  0.59734267  1
  O2-  O251  1  0.95846012  0.91251703  0.93525630  1
  O2-  O252  1  0.33057396  0.28606059  0.26402494  1
  O2-  O253  1  0.33366887  0.28913256  0.59908077  1
  O2-  O254  1  0.33227830  0.29501539  0.93128210  1
  O2-  O255  1  0.32810370  0.79169737  0.26657296  1
  O2-  O256  1  0.33131301  0.79278482  0.60078572  1
  O2-  O257  1  0.33113480  0.79153966  0.93516752  1
  O2-  O258  1  0.83930478  0.29740111  0.27190948  1
  O2-  O259  1  0.84128683  0.28687239  0.60312956  1
  O2-  O260  1  0.83819947  0.29095476  0.93417296  1
  O2-  O261  1  0.83172261  0.79837583  0.26205901  1
  O2-  O262  1  0.82478098  0.80421995  0.60237862  1
  O2-  O263  1  0.83007484  0.80410315  0.93867639  1
  O2-  O264  1  0.41208521  0.04197162  0.06139937  1
  O2-  O265  1  0.41131012  0.04965254  0.39613817  1
  O2-  O266  1  0.41367320  0.04273478  0.72985406  1
  O2-  O267  1  0.41581821  0.54694091  0.07124579  1
  O2-  O268  1  0.41050580  0.55136403  0.39502049  1
  O2-  O269  1  0.41434398  0.54655888  0.73681762  1
  O2-  O270  1  0.91388987  0.03837292  0.06181204  1
  O2-  O271  1  0.92196381  0.03979647  0.40185262  1
  O2-  O272  1  0.91525869  0.03715468  0.73367599  1
  O2-  O273  1  0.91824514  0.54782925  0.05955571  1
  O2-  O274  1  0.92050947  0.53791008  0.39933153  1
  O2-  O275  1  0.92166199  0.53958295  0.73224818  1
  O2-  O276  1  0.29067588  0.16329942  0.06097156  1
  O2-  O277  1  0.28258797  0.16010022  0.39904606  1
  O2-  O278  1  0.29083315  0.16104878  0.73106166  1
  O2-  O279  1  0.28140515  0.66769503  0.07036343  1
  O2-  O280  1  0.28337581  0.66218280  0.39747177  1
  O2-  O281  1  0.28224884  0.66796446  0.73243576  1
  O2-  O282  1  0.80159059  0.16208224  0.05907384  1
  O2-  O283  1  0.80409814  0.17184999  0.39965185  1
  O2-  O284  1  0.80143444  0.16102597  0.73319841  1
  O2-  O285  1  0.79997828  0.66893781  0.05752178  1
  O2-  O286  1  0.80423405  0.67424533  0.39185331  1
  O2-  O287  1  0.80121818  0.67392061  0.73403996  1
