# generated using pymatgen
data_Ca2Al2SiO7
_symmetry_space_group_name_H-M   'P 1'
_cell_length_a   15.45973176
_cell_length_b   15.46027764
_cell_length_c   15.28579152
_cell_angle_alpha   90.00452638
_cell_angle_beta   89.99802718
_cell_angle_gamma   90.00659339
_symmetry_Int_Tables_number   1
_chemical_formula_structural   Ca2Al2SiO7
_chemical_formula_sum   'Ca48 Al48 Si24 O168'
_cell_volume   3653.48366947
_cell_formula_units_Z   24
loop_
 _symmetry_equiv_pos_site_id
 _symmetry_equiv_pos_as_xyz
  1  'x, y, z'
loop_
 _atom_type_symbol
 _atom_type_oxidation_number
  Ca2+  2.0
  Al0+  0.0
  Si0+  0.0
  O2-  -2.0
loop_
 _atom_site_type_symbol
 _atom_site_label
 _atom_site_symmetry_multiplicity
 _atom_site_fract_x
 _atom_site_fract_y
 _atom_site_fract_z
 _atom_site_occupancy
  Ca2+  Ca0  1  0.17007141  0.08351642  0.16943799  1
  Ca2+  Ca1  1  0.16587544  0.07521596  0.50640980  1
  Ca2+  Ca2  1  0.16548799  0.07486941  0.83357032  1
  Ca2+  Ca3  1  0.17161004  0.57999254  0.17011479  1
  Ca2+  Ca4  1  0.16814891  0.58620948  0.49475864  1
  Ca2+  Ca5  1  0.17227749  0.57950317  0.84837557  1
  Ca2+  Ca6  1  0.67033394  0.07687450  0.16914942  1
  Ca2+  Ca7  1  0.67856628  0.07065883  0.50583703  1
  Ca2+  Ca8  1  0.67225557  0.07683117  0.84165693  1
  Ca2+  Ca9  1  0.67771622  0.58911331  0.17147669  1
  Ca2+  Ca10  1  0.67162397  0.58752914  0.50065161  1
  Ca2+  Ca11  1  0.67384207  0.57746286  0.83717682  1
  Ca2+  Ca12  1  0.08154548  0.33887630  0.15928689  1
  Ca2+  Ca13  1  0.08379880  0.33109831  0.49359669  1
  Ca2+  Ca14  1  0.07769466  0.33619564  0.83641352  1
  Ca2+  Ca15  1  0.07589788  0.81999588  0.16394052  1
  Ca2+  Ca16  1  0.07116021  0.83329983  0.49337800  1
  Ca2+  Ca17  1  0.07878078  0.82739275  0.82640410  1
  Ca2+  Ca18  1  0.57830667  0.32531088  0.15404528  1
  Ca2+  Ca19  1  0.58145304  0.33869885  0.49942491  1
  Ca2+  Ca20  1  0.57801045  0.33325697  0.82785837  1
  Ca2+  Ca21  1  0.58468021  0.83244849  0.16250593  1
  Ca2+  Ca22  1  0.58807693  0.83196959  0.49308124  1
  Ca2+  Ca23  1  0.58414393  0.83810291  0.83402316  1
  Ca2+  Ca24  1  0.32584945  0.42281390  0.17070579  1
  Ca2+  Ca25  1  0.33199267  0.42215790  0.50150839  1
  Ca2+  Ca26  1  0.33098667  0.41857959  0.84352585  1
  Ca2+  Ca27  1  0.33540067  0.91229785  0.16623228  1
  Ca2+  Ca28  1  0.32464437  0.91565750  0.50519719  1
  Ca2+  Ca29  1  0.32816671  0.91002340  0.84029433  1
  Ca2+  Ca30  1  0.84087702  0.42742290  0.16699374  1
  Ca2+  Ca31  1  0.82735466  0.42702617  0.50253787  1
  Ca2+  Ca32  1  0.82966023  0.41740893  0.84233811  1
  Ca2+  Ca33  1  0.82550229  0.92393867  0.17443643  1
  Ca2+  Ca34  1  0.82914546  0.91562471  0.50695138  1
  Ca2+  Ca35  1  0.82618096  0.92309238  0.83875535  1
  Ca2+  Ca36  1  0.42467284  0.17305003  0.15344973  1
  Ca2+  Ca37  1  0.41675606  0.17472959  0.49721735  1
  Ca2+  Ca38  1  0.42345159  0.17728429  0.83230344  1
  Ca2+  Ca39  1  0.41942976  0.66509992  0.16221583  1
  Ca2+  Ca40  1  0.42466721  0.66597518  0.49108371  1
  Ca2+  Ca41  1  0.41465063  0.66923821  0.83555546  1
  Ca2+  Ca42  1  0.90998077  0.17183196  0.16050788  1
  Ca2+  Ca43  1  0.91047912  0.16283177  0.49751233  1
  Ca2+  Ca44  1  0.90699140  0.16768699  0.83326549  1
  Ca2+  Ca45  1  0.92330173  0.66073047  0.16185838  1
  Ca2+  Ca46  1  0.91696857  0.67943568  0.48784511  1
  Ca2+  Ca47  1  0.92038300  0.66833559  0.83215738  1
  Al0+  Al48  1  -0.00055505  -0.00079947  0.00448940  1
  Al0+  Al49  1  0.00111257  0.00224651  0.33008169  1
  Al0+  Al50  1  0.00164590  -0.00058127  0.67118235  1
  Al0+  Al51  1  0.00067303  0.49819623  -0.00360158  1
  Al0+  Al52  1  -0.00036855  0.49904055  0.34082667  1
  Al0+  Al53  1  0.00271235  0.49901707  0.66347453  1
  Al0+  Al54  1  0.49843891  -0.00120881  -0.00570437  1
  Al0+  Al55  1  0.50007774  0.00208226  0.33837402  1
  Al0+  Al56  1  0.50006597  0.00222152  0.66688873  1
  Al0+  Al57  1  0.50024963  0.50159889  -0.00106016  1
  Al0+  Al58  1  0.49784537  0.50120571  0.33037710  1
  Al0+  Al59  1  0.49986158  0.50074923  0.66598531  1
  Al0+  Al60  1  0.24864237  0.24779986  -0.00194892  1
  Al0+  Al61  1  0.24882673  0.25114852  0.33596590  1
  Al0+  Al62  1  0.25034313  0.25151508  0.66185952  1
  Al0+  Al63  1  0.25025409  0.74788932  -0.00287075  1
  Al0+  Al64  1  0.24929269  0.75009058  0.33492673  1
  Al0+  Al65  1  0.25159165  0.74899408  0.66881182  1
  Al0+  Al66  1  0.75039679  0.24850026  -0.00499607  1
  Al0+  Al67  1  0.74900219  0.24874085  0.33612104  1
  Al0+  Al68  1  0.74877880  0.25114836  0.67006893  1
  Al0+  Al69  1  0.75004095  0.75004024  0.00544367  1
  Al0+  Al70  1  0.74801563  0.75119564  0.33205889  1
  Al0+  Al71  1  0.75104602  0.75031050  0.66800874  1
  Al0+  Al72  1  0.82243279  0.07216544  0.34928634  1
  Al0+  Al73  1  0.93104025  0.81947315  0.65489377  1
  Al0+  Al74  1  0.32263540  0.57231128  0.01538651  1
  Al0+  Al75  1  0.92710867  0.82382100  0.31647786  1
  Al0+  Al76  1  0.82093095  0.56913868  0.01173891  1
  Al0+  Al77  1  0.17872483  0.42851470  0.35088460  1
  Al0+  Al78  1  0.57025595  0.67886900  0.31963295  1
  Al0+  Al79  1  0.67633294  0.92953884  0.01673736  1
  Al0+  Al80  1  0.67900966  0.43185248  0.67921962  1
  Al0+  Al81  1  0.82203422  0.07055861  0.68350375  1
  Al0+  Al82  1  0.17957912  0.42709101  0.01334337  1
  Al0+  Al83  1  0.42973008  0.32181058  0.65016677  1
  Al0+  Al84  1  0.42998189  0.81863006  0.98699235  1
  Al0+  Al85  1  0.82068161  0.57127959  0.34666333  1
  Al0+  Al86  1  0.67748886  0.92631607  0.68398841  1
  Al0+  Al87  1  0.67824076  0.92922759  0.34943855  1
  Al0+  Al88  1  0.42799950  0.32285575  0.98553464  1
  Al0+  Al89  1  0.07003680  0.67762573  0.31775586  1
  Al0+  Al90  1  0.18144884  0.92854070  0.68031202  1
  Al0+  Al91  1  0.93078786  0.31936621  0.98734105  1
  Al0+  Al92  1  0.82155954  0.07209930  0.01733905  1
  Al0+  Al93  1  0.32175012  0.57229762  0.34997009  1
  Al0+  Al94  1  0.57150626  0.17831822  0.98359840  1
  Al0+  Al95  1  0.06954817  0.67895511  0.98606745  1
  Si0+  Si96  1  0.56944595  0.18005653  0.31956810  1
  Si0+  Si97  1  0.42737942  0.32081282  0.31723520  1
  Si0+  Si98  1  0.42761024  0.82445681  0.31941422  1
  Si0+  Si99  1  0.67749054  0.42727911  0.01511934  1
  Si0+  Si100  1  0.07316078  0.17400594  0.98235747  1
  Si0+  Si101  1  0.92837136  0.31935496  0.32120657  1
  Si0+  Si102  1  0.57319592  0.17849003  0.64640167  1
  Si0+  Si103  1  0.92697587  0.32209897  0.64989315  1
  Si0+  Si104  1  0.92745456  0.82248362  0.98347211  1
  Si0+  Si105  1  0.67683332  0.42734644  0.34661808  1
  Si0+  Si106  1  0.32133245  0.07443180  0.68312575  1
  Si0+  Si107  1  0.56963942  0.68072523  0.65325112  1
  Si0+  Si108  1  0.07021746  0.18047651  0.65182324  1
  Si0+  Si109  1  0.32070663  0.56963054  0.68235915  1
  Si0+  Si110  1  0.17838134  0.92647471  0.01603726  1
  Si0+  Si111  1  0.82428461  0.57177900  0.68251966  1
  Si0+  Si112  1  0.32109115  0.07270408  0.34807132  1
  Si0+  Si113  1  0.17971941  0.93000892  0.34659142  1
  Si0+  Si114  1  0.42742394  0.82255964  0.65168234  1
  Si0+  Si115  1  0.07326647  0.17954746  0.31838684  1
  Si0+  Si116  1  0.57567840  0.67775687  0.98177113  1
  Si0+  Si117  1  0.31916003  0.06910951  0.01302024  1
  Si0+  Si118  1  0.17908316  0.42723843  0.68255207  1
  Si0+  Si119  1  0.07512954  0.67640659  0.64881268  1
  O2-  O120  1  0.24824251  -0.00081801  0.05789138  1
  O2-  O121  1  0.25138274  0.00042826  0.38974755  1
  O2-  O122  1  0.25877585  0.00051554  0.72798285  1
  O2-  O123  1  0.25349519  0.49665497  0.06305155  1
  O2-  O124  1  0.24980498  0.50104247  0.40180338  1
  O2-  O125  1  0.24636926  0.50170853  0.72353739  1
  O2-  O126  1  0.74964758  0.00014762  0.06627547  1
  O2-  O127  1  0.75596972  -0.00457138  0.39888813  1
  O2-  O128  1  0.74817125  0.00012656  0.73223459  1
  O2-  O129  1  0.74512955  0.49601022  0.05999134  1
  O2-  O130  1  0.74276206  0.49847115  0.39158160  1
  O2-  O131  1  0.75866433  0.50038585  0.72657531  1
  O2-  O132  1  -0.00005205  0.24870170  0.27866005  1
  O2-  O133  1  -0.00259645  0.24955161  0.60868502  1
  O2-  O134  1  0.00266743  0.24155673  0.93965932  1
  O2-  O135  1  -0.00517495  0.74650197  0.26776926  1
  O2-  O136  1  0.00391670  0.74301400  0.60663577  1
  O2-  O137  1  -0.00412555  0.75392911  0.93826790  1
  O2-  O138  1  0.50003887  0.25181215  0.27571725  1
  O2-  O139  1  0.50386113  0.24710472  0.60156811  1
  O2-  O140  1  0.50349427  0.25518428  0.93443960  1
  O2-  O141  1  0.49593818  0.75579675  0.27588566  1
  O2-  O142  1  0.50336593  0.75689138  0.61076586  1
  O2-  O143  1  0.50553443  0.74574965  0.93829771  1
  O2-  O144  1  0.07665123  0.17365406  0.08797126  1
  O2-  O145  1  0.07705087  0.17908817  0.42368475  1
  O2-  O146  1  0.07413162  0.18256406  0.75645280  1
  O2-  O147  1  0.06989594  0.67970497  0.09876445  1
  O2-  O148  1  0.07051761  0.68269668  0.43188626  1
  O2-  O149  1  0.07648352  0.67564900  0.75437369  1
  O2-  O150  1  0.56749439  0.17916452  0.09820750  1
  O2-  O151  1  0.56670253  0.18152719  0.42458207  1
  O2-  O152  1  0.57117722  0.17919456  0.75152375  1
  O2-  O153  1  0.57613507  0.67739827  0.08710599  1
  O2-  O154  1  0.56820751  0.67821211  0.43365932  1
  O2-  O155  1  0.56698486  0.67814797  0.75806464  1
  O2-  O156  1  0.18148377  0.42303118  0.23820302  1
  O2-  O157  1  0.17974480  0.42540452  0.57771497  1
  O2-  O158  1  0.17968083  0.42896301  0.89897545  1
  O2-  O159  1  0.18193845  0.93192159  0.24150968  1
  O2-  O160  1  0.18256193  0.93137061  0.56678406  1
  O2-  O161  1  0.17950108  0.92763000  0.91071683  1
  O2-  O162  1  0.67912258  0.42379747  0.24140786  1
  O2-  O163  1  0.67943238  0.43568004  0.56571063  1
  O2-  O164  1  0.67864583  0.42969874  0.90916088  1
  O2-  O165  1  0.67147657  0.93510398  0.23676919  1
  O2-  O166  1  0.67823425  0.92560034  0.57062910  1
  O2-  O167  1  0.67793844  0.93017379  0.90314872  1
  O2-  O168  1  0.42784450  0.31777809  0.09960691  1
  O2-  O169  1  0.42724951  0.31897041  0.42271400  1
  O2-  O170  1  0.42895463  0.32083011  0.76256437  1
  O2-  O171  1  0.42910510  0.81897101  0.10008209  1
  O2-  O172  1  0.42690791  0.82528849  0.42551136  1
  O2-  O173  1  0.42299168  0.81873193  0.75630329  1
  O2-  O174  1  0.93283516  0.32039956  0.10077816  1
  O2-  O175  1  0.92875261  0.31725916  0.42669894  1
  O2-  O176  1  0.92941619  0.32502733  0.75464571  1
  O2-  O177  1  0.93027804  0.82254854  0.08874310  1
  O2-  O178  1  0.93167209  0.82464908  0.43076159  1
  O2-  O179  1  0.93374749  0.81657835  0.76798288  1
  O2-  O180  1  0.32062529  0.07446579  0.24297094  1
  O2-  O181  1  0.31767811  0.07487793  0.57688335  1
  O2-  O182  1  0.31647837  0.06876094  0.90801558  1
  O2-  O183  1  0.32280103  0.57006738  0.23727744  1
  O2-  O184  1  0.32164550  0.57000416  0.57741564  1
  O2-  O185  1  0.31931214  0.57307814  0.90093889  1
  O2-  O186  1  0.81801622  0.07697771  0.23658007  1
  O2-  O187  1  0.82218916  0.06891735  0.56991374  1
  O2-  O188  1  0.82248316  0.06946655  0.90396750  1
  O2-  O189  1  0.82250261  0.56658700  0.23382870  1
  O2-  O190  1  0.82211613  0.57190883  0.57683353  1
  O2-  O191  1  0.81960489  0.56731127  0.89814563  1
  O2-  O192  1  0.05096465  0.08778754  0.26889070  1
  O2-  O193  1  0.04503604  0.08757951  0.60506096  1
  O2-  O194  1  0.04915746  0.07921713  0.93729509  1
  O2-  O195  1  0.04400593  0.57625258  0.27034251  1
  O2-  O196  1  0.05360847  0.58128670  0.60326605  1
  O2-  O197  1  0.03856774  0.58371997  0.92968865  1
  O2-  O198  1  0.53827708  0.08905784  0.27285025  1
  O2-  O199  1  0.54631351  0.08467728  0.60014641  1
  O2-  O200  1  0.53592016  0.08351560  0.92874805  1
  O2-  O201  1  0.53985542  0.58272252  0.26386534  1
  O2-  O202  1  0.53624835  0.59185292  0.60359708  1
  O2-  O203  1  0.55066179  0.58413267  0.93489332  1
  O2-  O204  1  0.16443528  0.20895733  0.26945537  1
  O2-  O205  1  0.16050144  0.21006120  0.60104815  1
  O2-  O206  1  0.16522956  0.20000279  0.93310901  1
  O2-  O207  1  0.16870207  0.70975393  0.26692410  1
  O2-  O208  1  0.16866867  0.70466962  0.60352029  1
  O2-  O209  1  0.16512996  0.71106824  0.93082631  1
  O2-  O210  1  0.66148391  0.20737202  0.27276129  1
  O2-  O211  1  0.66653789  0.20660537  0.60105534  1
  O2-  O212  1  0.66982889  0.20276868  0.93005758  1
  O2-  O213  1  0.66624495  0.70735328  0.26465169  1
  O2-  O214  1  0.66338871  0.70340403  0.60697968  1
  O2-  O215  1  0.66871600  0.70461624  0.93471011  1
  O2-  O216  1  0.08202472  0.45772659  0.06499560  1
  O2-  O217  1  0.08079182  0.45358076  0.40650684  1
  O2-  O218  1  0.08490078  0.45090838  0.72757157  1
  O2-  O219  1  0.08739632  0.95313531  0.06460912  1
  O2-  O220  1  0.08944563  0.96138899  0.39451794  1
  O2-  O221  1  0.08823154  0.96285400  0.73720189  1
  O2-  O222  1  0.58338158  0.45062667  0.06050805  1
  O2-  O223  1  0.58204235  0.45060291  0.39099371  1
  O2-  O224  1  0.58408434  0.46649180  0.73393956  1
  O2-  O225  1  0.57630212  0.95834062  0.06616112  1
  O2-  O226  1  0.58089822  0.96204760  0.40506153  1
  O2-  O227  1  0.57601654  0.95244839  0.73244000  1
  O2-  O228  1  0.20279386  0.32632994  0.06449903  1
  O2-  O229  1  0.20938707  0.33011335  0.40540134  1
  O2-  O230  1  0.20938766  0.33595977  0.72879563  1
  O2-  O231  1  0.21061955  0.83666867  0.06304034  1
  O2-  O232  1  0.20654083  0.83961603  0.39653324  1
  O2-  O233  1  0.21145268  0.83175538  0.73465447  1
  O2-  O234  1  0.70255313  0.33307647  0.05879663  1
  O2-  O235  1  0.70472137  0.33596011  0.39660974  1
  O2-  O236  1  0.70449437  0.33439666  0.73266479  1
  O2-  O237  1  0.70257954  0.83035321  0.06831368  1
  O2-  O238  1  0.70072926  0.82898632  0.40025421  1
  O2-  O239  1  0.70579999  0.82770374  0.73650602  1
  O2-  O240  1  0.45168217  0.41310742  0.27090930  1
  O2-  O241  1  0.46253307  0.41824505  0.59605667  1
  O2-  O242  1  0.45237195  0.42269049  0.93348597  1
  O2-  O243  1  0.45142126  0.91958292  0.27471889  1
  O2-  O244  1  0.44657687  0.91770978  0.60651390  1
  O2-  O245  1  0.45482662  0.91511655  0.92971481  1
  O2-  O246  1  0.95637101  0.41152927  0.27588314  1
  O2-  O247  1  0.95687143  0.41329365  0.60097072  1
  O2-  O248  1  0.96390880  0.41279816  0.92814703  1
  O2-  O249  1  0.96152380  0.92071322  0.26335472  1
  O2-  O250  1  0.96570476  0.91592595  0.60227083  1
  O2-  O251  1  0.95536243  0.91616515  0.93855665  1
  O2-  O252  1  0.33623414  0.28873711  0.27166593  1
  O2-  O253  1  0.33355702  0.28923044  0.59455653  1
  O2-  O254  1  0.33099320  0.28865189  0.93222502  1
  O2-  O255  1  0.33349499  0.80056893  0.27407846  1
  O2-  O256  1  0.33754047  0.78982961  0.60206965  1
  O2-  O257  1  0.33449771  0.78670955  0.93012484  1
  O2-  O258  1  0.83659569  0.29175915  0.27361066  1
  O2-  O259  1  0.83438139  0.29654386  0.60318759  1
  O2-  O260  1  0.83424382  0.29259053  0.93097416  1
  O2-  O261  1  0.82664072  0.80164405  0.26765360  1
  O2-  O262  1  0.83373905  0.78963147  0.60076931  1
  O2-  O263  1  0.83345156  0.79579756  0.93933097  1
  O2-  O264  1  0.41002790  0.04038368  0.06076260  1
  O2-  O265  1  0.41152328  0.04708589  0.39891434  1
  O2-  O266  1  0.41710850  0.05595152  0.72572578  1
  O2-  O267  1  0.42333846  0.54958078  0.06572613  1
  O2-  O268  1  0.41988497  0.54083150  0.40334640  1
  O2-  O269  1  0.41121465  0.53945091  0.72964340  1
  O2-  O270  1  0.92163702  0.04679604  0.06965896  1
  O2-  O271  1  0.92546336  0.05244971  0.39689396  1
  O2-  O272  1  0.92098614  0.04469251  0.73580062  1
  O2-  O273  1  0.91612353  0.53425330  0.06475881  1
  O2-  O274  1  0.91378224  0.53819886  0.40555077  1
  O2-  O275  1  0.92010203  0.54787426  0.72495640  1
  O2-  O276  1  0.29097807  0.15988320  0.06253697  1
  O2-  O277  1  0.29049498  0.16255297  0.39772031  1
  O2-  O278  1  0.28846147  0.16591258  0.72874254  1
  O2-  O279  1  0.29046647  0.66948163  0.06803911  1
  O2-  O280  1  0.29451376  0.67155106  0.40365438  1
  O2-  O281  1  0.29603001  0.66231806  0.72947100  1
  O2-  O282  1  0.79349335  0.17216589  0.06698933  1
  O2-  O283  1  0.78899054  0.16886290  0.40454808  1
  O2-  O284  1  0.79545567  0.17086141  0.73306267  1
  O2-  O285  1  0.79332569  0.66528384  0.06705290  1
  O2-  O286  1  0.78984812  0.66773506  0.40009849  1
  O2-  O287  1  0.79576326  0.66330643  0.72976560  1
