# generated using pymatgen
data_Ca2Al2SiO7
_symmetry_space_group_name_H-M   'P 1'
_cell_length_a   15.45804094
_cell_length_b   15.45742366
_cell_length_c   15.28289786
_cell_angle_alpha   90.00309578
_cell_angle_beta   89.98872346
_cell_angle_gamma   90.00645794
_symmetry_Int_Tables_number   1
_chemical_formula_structural   Ca2Al2SiO7
_chemical_formula_sum   'Ca48 Al48 Si24 O168'
_cell_volume   3651.71825303
_cell_formula_units_Z   24
loop_
 _symmetry_equiv_pos_site_id
 _symmetry_equiv_pos_as_xyz
  1  'x, y, z'
loop_
 _atom_type_symbol
 _atom_type_oxidation_number
  Ca2+  2.0
  Al0+  0.0
  Si0+  0.0
  O2-  -2.0
loop_
 _atom_site_type_symbol
 _atom_site_label
 _atom_site_symmetry_multiplicity
 _atom_site_fract_x
 _atom_site_fract_y
 _atom_site_fract_z
 _atom_site_occupancy
  Ca2+  Ca0  1  0.16796445  0.08001873  0.17318299  1
  Ca2+  Ca1  1  0.17423399  0.07556634  0.50591665  1
  Ca2+  Ca2  1  0.16651557  0.08288445  0.83384575  1
  Ca2+  Ca3  1  0.17479095  0.58419918  0.16759007  1
  Ca2+  Ca4  1  0.17241549  0.57819071  0.51351886  1
  Ca2+  Ca5  1  0.17265811  0.58324864  0.83222957  1
  Ca2+  Ca6  1  0.67284361  0.07432485  0.17631176  1
  Ca2+  Ca7  1  0.67445894  0.08271875  0.50182141  1
  Ca2+  Ca8  1  0.67436304  0.08476282  0.83452513  1
  Ca2+  Ca9  1  0.67032325  0.58054423  0.16680637  1
  Ca2+  Ca10  1  0.67322196  0.57807158  0.50586473  1
  Ca2+  Ca11  1  0.65814787  0.57522966  0.83765961  1
  Ca2+  Ca12  1  0.07080149  0.32447562  0.15876958  1
  Ca2+  Ca13  1  0.07256974  0.33852770  0.49585898  1
  Ca2+  Ca14  1  0.07264673  0.33623852  0.82741290  1
  Ca2+  Ca15  1  0.07806082  0.83656753  0.16140214  1
  Ca2+  Ca16  1  0.09453929  0.83066482  0.50157576  1
  Ca2+  Ca17  1  0.08280793  0.83015194  0.82767772  1
  Ca2+  Ca18  1  0.57509437  0.33505104  0.16141450  1
  Ca2+  Ca19  1  0.57695448  0.33437021  0.49679689  1
  Ca2+  Ca20  1  0.58015921  0.34325686  0.83067019  1
  Ca2+  Ca21  1  0.58172467  0.82893072  0.15665272  1
  Ca2+  Ca22  1  0.58739676  0.82911158  0.49729196  1
  Ca2+  Ca23  1  0.57691448  0.81947351  0.82900575  1
  Ca2+  Ca24  1  0.34022693  0.41914572  0.16700207  1
  Ca2+  Ca25  1  0.32527941  0.41746782  0.51060431  1
  Ca2+  Ca26  1  0.33375592  0.42749494  0.83899675  1
  Ca2+  Ca27  1  0.32938366  0.92204758  0.17581545  1
  Ca2+  Ca28  1  0.32599663  0.92687051  0.50615306  1
  Ca2+  Ca29  1  0.33084062  0.91659875  0.83495263  1
  Ca2+  Ca30  1  0.83130691  0.41583968  0.17053842  1
  Ca2+  Ca31  1  0.83303618  0.41681622  0.50731423  1
  Ca2+  Ca32  1  0.82373492  0.40950615  0.83754348  1
  Ca2+  Ca33  1  0.82963994  0.91956929  0.17601022  1
  Ca2+  Ca34  1  0.83091396  0.92996653  0.50219603  1
  Ca2+  Ca35  1  0.84135324  0.92211413  0.83670327  1
  Ca2+  Ca36  1  0.41125820  0.17649401  0.16331086  1
  Ca2+  Ca37  1  0.40972932  0.16949319  0.49299665  1
  Ca2+  Ca38  1  0.41591186  0.17160145  0.82974111  1
  Ca2+  Ca39  1  0.42342768  0.67445539  0.15270380  1
  Ca2+  Ca40  1  0.42190129  0.66132871  0.50107155  1
  Ca2+  Ca41  1  0.42139846  0.66005458  0.83031053  1
  Ca2+  Ca42  1  0.91814680  0.17173030  0.15998764  1
  Ca2+  Ca43  1  0.90854655  0.17526963  0.49669920  1
  Ca2+  Ca44  1  0.92069995  0.17401247  0.82860997  1
  Ca2+  Ca45  1  0.91445028  0.67262363  0.16231455  1
  Ca2+  Ca46  1  0.92555644  0.66094649  0.49543013  1
  Ca2+  Ca47  1  0.92026643  0.67507663  0.82616860  1
  Al0+  Al48  1  0.00141256  0.00045345  -0.00605204  1
  Al0+  Al49  1  0.00000213  -0.00161839  0.34231547  1
  Al0+  Al50  1  0.00003519  0.00173836  0.67271318  1
  Al0+  Al51  1  0.00015614  0.49960338  -0.00165347  1
  Al0+  Al52  1  0.00101136  0.50019270  0.32847210  1
  Al0+  Al53  1  -0.00100328  0.50258352  0.66288065  1
  Al0+  Al54  1  0.49971482  0.00013655  -0.00290157  1
  Al0+  Al55  1  0.49991435  -0.00126289  0.34059667  1
  Al0+  Al56  1  0.50129300  0.00005310  0.66947948  1
  Al0+  Al57  1  0.50051010  0.49925794  0.00392133  1
  Al0+  Al58  1  0.50166102  0.50072568  0.32838292  1
  Al0+  Al59  1  0.50095026  0.49998237  0.66577024  1
  Al0+  Al60  1  0.25022086  0.24981329  -0.00697879  1
  Al0+  Al61  1  0.24807013  0.25172698  0.33064889  1
  Al0+  Al62  1  0.24701436  0.24927994  0.67345781  1
  Al0+  Al63  1  0.24967506  0.75120159  0.00312600  1
  Al0+  Al64  1  0.25202101  0.74823993  0.33513886  1
  Al0+  Al65  1  0.25099264  0.75139634  0.66891979  1
  Al0+  Al66  1  0.74940061  0.24964243  0.00451449  1
  Al0+  Al67  1  0.74628658  0.25078224  0.33045756  1
  Al0+  Al68  1  0.74876670  0.24976182  0.67015122  1
  Al0+  Al69  1  0.75040160  0.74969597  -0.00966551  1
  Al0+  Al70  1  0.75230119  0.74682032  0.34110506  1
  Al0+  Al71  1  0.74901536  0.75104075  0.66020337  1
  Al0+  Al72  1  0.81901117  0.07070259  0.68253572  1
  Al0+  Al73  1  0.92838895  0.31945821  0.65218212  1
  Al0+  Al74  1  0.68118735  0.43069317  0.67882433  1
  Al0+  Al75  1  0.67993659  0.42898983  0.01626394  1
  Al0+  Al76  1  0.82278249  0.56838006  0.34626449  1
  Al0+  Al77  1  0.42670154  0.82362817  0.98562650  1
  Al0+  Al78  1  0.43111377  0.32066413  0.98491146  1
  Al0+  Al79  1  0.18020861  0.92942746  0.68509461  1
  Al0+  Al80  1  0.07119005  0.17850401  0.98395500  1
  Al0+  Al81  1  0.31949267  0.57040439  0.01583552  1
  Al0+  Al82  1  0.31982886  0.07391675  0.34603591  1
  Al0+  Al83  1  0.17851408  0.92621580  0.34825295  1
  Al0+  Al84  1  0.17433937  0.42883996  0.68181120  1
  Al0+  Al85  1  0.57023371  0.67724258  0.64930350  1
  Al0+  Al86  1  0.92936585  0.82022218  0.98807123  1
  Al0+  Al87  1  0.07069638  0.68180033  0.65284638  1
  Al0+  Al88  1  0.92671079  0.32185362  0.98423706  1
  Al0+  Al89  1  0.57027654  0.67892691  0.98513847  1
  Al0+  Al90  1  0.32186803  0.56916212  0.68079760  1
  Al0+  Al91  1  0.82063413  0.07362535  0.34702887  1
  Al0+  Al92  1  0.42752595  0.32075701  0.32042736  1
  Al0+  Al93  1  0.32335473  0.07256715  0.68466086  1
  Al0+  Al94  1  0.67810601  0.92602218  0.34789375  1
  Al0+  Al95  1  0.92681000  0.32140442  0.31869138  1
  Si0+  Si96  1  0.67830482  0.92571695  0.68600661  1
  Si0+  Si97  1  0.17678330  0.42611235  0.01802755  1
  Si0+  Si98  1  0.42934702  0.82329571  0.64746130  1
  Si0+  Si99  1  0.67961115  0.92803393  0.01159939  1
  Si0+  Si100  1  0.57240053  0.17664575  0.98391126  1
  Si0+  Si101  1  0.07354110  0.67762140  0.98502998  1
  Si0+  Si102  1  0.57312413  0.67995889  0.31737277  1
  Si0+  Si103  1  0.82370009  0.57420678  0.01411032  1
  Si0+  Si104  1  0.92771791  0.82523585  0.64654290  1
  Si0+  Si105  1  0.32308844  0.57016317  0.34738017  1
  Si0+  Si106  1  0.42831639  0.31940082  0.65332757  1
  Si0+  Si107  1  0.17952530  0.43088959  0.34525109  1
  Si0+  Si108  1  0.82198259  0.06888136  0.01523253  1
  Si0+  Si109  1  0.92992547  0.81966691  0.32162577  1
  Si0+  Si110  1  0.82247342  0.57428438  0.68274379  1
  Si0+  Si111  1  0.17867488  0.93040440  0.01588176  1
  Si0+  Si112  1  0.32243130  0.07220176  0.01541828  1
  Si0+  Si113  1  0.67654781  0.42937252  0.34949714  1
  Si0+  Si114  1  0.42929709  0.82008279  0.32027504  1
  Si0+  Si115  1  0.07021424  0.17683805  0.31947735  1
  Si0+  Si116  1  0.07228095  0.17737399  0.64760324  1
  Si0+  Si117  1  0.07374865  0.67863260  0.31686929  1
  Si0+  Si118  1  0.57096679  0.17806677  0.65200840  1
  Si0+  Si119  1  0.57062663  0.17554862  0.31707682  1
  O2-  O120  1  0.25139282  0.00043016  0.05715022  1
  O2-  O121  1  0.24943139  0.00049982  0.39556546  1
  O2-  O122  1  0.25180342  0.00114758  0.73610991  1
  O2-  O123  1  0.24502713  0.49522751  0.06377739  1
  O2-  O124  1  0.25352303  0.49811955  0.38868128  1
  O2-  O125  1  0.24932528  0.49799622  0.73116965  1
  O2-  O126  1  0.75085323  -0.00257278  0.05651334  1
  O2-  O127  1  0.74720684  0.00195548  0.39593384  1
  O2-  O128  1  0.74889001  -0.00804204  0.73080239  1
  O2-  O129  1  0.75824876  0.50257826  0.05925218  1
  O2-  O130  1  0.75103836  0.49125339  0.39344846  1
  O2-  O131  1  0.75394648  0.50641126  0.72728137  1
  O2-  O132  1  -0.00285607  0.24100726  0.27471395  1
  O2-  O133  1  0.00516297  0.24761255  0.60314025  1
  O2-  O134  1  0.00145757  0.25302282  0.93465476  1
  O2-  O135  1  0.00358854  0.75193768  0.27703271  1
  O2-  O136  1  -0.00370964  0.75597424  0.60283854  1
  O2-  O137  1  0.00138118  0.74302740  0.94215885  1
  O2-  O138  1  0.49928824  0.24235094  0.27405878  1
  O2-  O139  1  0.49461442  0.24407095  0.61045435  1
  O2-  O140  1  0.50611983  0.24656477  0.93818550  1
  O2-  O141  1  0.50355038  0.75306017  0.27648685  1
  O2-  O142  1  0.49741325  0.75394951  0.60212511  1
  O2-  O143  1  0.49539308  0.74858954  0.93598974  1
  O2-  O144  1  0.06786755  0.17564158  0.09846799  1
  O2-  O145  1  0.07308006  0.18093487  0.42453333  1
  O2-  O146  1  0.06944169  0.17716293  0.75302971  1
  O2-  O147  1  0.07436201  0.68032622  0.09135798  1
  O2-  O148  1  0.07465848  0.67639335  0.42158514  1
  O2-  O149  1  0.06786873  0.68281842  0.76604765  1
  O2-  O150  1  0.56996118  0.17366695  0.08953332  1
  O2-  O151  1  0.57281236  0.17827936  0.42274808  1
  O2-  O152  1  0.57258560  0.17947008  0.75716814  1
  O2-  O153  1  0.57242454  0.68330611  0.09957495  1
  O2-  O154  1  0.57040075  0.67724804  0.42226774  1
  O2-  O155  1  0.56845095  0.67711410  0.76191893  1
  O2-  O156  1  0.17929060  0.43336432  0.24029815  1
  O2-  O157  1  0.17688707  0.43024590  0.56694780  1
  O2-  O158  1  0.17650006  0.42845012  0.91298918  1
  O2-  O159  1  0.17911224  0.92557464  0.23402627  1
  O2-  O160  1  0.18303705  0.93046125  0.57140314  1
  O2-  O161  1  0.17768626  0.93004829  0.91144158  1
  O2-  O162  1  0.67412954  0.43309018  0.24409369  1
  O2-  O163  1  0.68066743  0.43050619  0.56540297  1
  O2-  O164  1  0.67958991  0.42999301  0.90323406  1
  O2-  O165  1  0.68033638  0.92456886  0.23334820  1
  O2-  O166  1  0.67855727  0.92760473  0.58030484  1
  O2-  O167  1  0.68040949  0.93037949  0.90686708  1
  O2-  O168  1  0.43161687  0.31845535  0.09847148  1
  O2-  O169  1  0.42892673  0.32330566  0.43383273  1
  O2-  O170  1  0.43246864  0.32111863  0.75815086  1
  O2-  O171  1  0.43023844  0.82485146  0.10027622  1
  O2-  O172  1  0.42754010  0.81597039  0.42493427  1
  O2-  O173  1  0.43165982  0.82415836  0.75287793  1
  O2-  O174  1  0.92701157  0.31866329  0.09838738  1
  O2-  O175  1  0.92959883  0.32390831  0.43172397  1
  O2-  O176  1  0.92675990  0.31706204  0.76482667  1
  O2-  O177  1  0.92955874  0.82139185  0.10203036  1
  O2-  O178  1  0.92927607  0.81685075  0.42607773  1
  O2-  O179  1  0.92748335  0.82262500  0.75258084  1
  O2-  O180  1  0.31808522  0.07254877  0.23188246  1
  O2-  O181  1  0.32265851  0.07243228  0.57079254  1
  O2-  O182  1  0.32390419  0.07105656  0.91089649  1
  O2-  O183  1  0.32173692  0.57211890  0.24240697  1
  O2-  O184  1  0.32223338  0.56505912  0.56613406  1
  O2-  O185  1  0.31820428  0.56993528  0.90336962  1
  O2-  O186  1  0.82071808  0.06923017  0.23278198  1
  O2-  O187  1  0.81506230  0.07198632  0.56949369  1
  O2-  O188  1  0.82043256  0.06843898  0.91022509  1
  O2-  O189  1  0.82017068  0.57222157  0.23305766  1
  O2-  O190  1  0.82217829  0.57152622  0.57669180  1
  O2-  O191  1  0.82349840  0.57672078  0.90893468  1
  O2-  O192  1  0.04917689  0.08024845  0.27658635  1
  O2-  O193  1  0.04488878  0.08326754  0.60356541  1
  O2-  O194  1  0.04036002  0.08248639  0.92824125  1
  O2-  O195  1  0.04423935  0.58903891  0.26618734  1
  O2-  O196  1  0.03979353  0.58632529  0.59547495  1
  O2-  O197  1  0.05355296  0.58271414  0.94054755  1
  O2-  O198  1  0.54900682  0.07962150  0.27316243  1
  O2-  O199  1  0.54954910  0.08412246  0.60547005  1
  O2-  O200  1  0.54643826  0.08457038  0.93492438  1
  O2-  O201  1  0.54383882  0.58946468  0.26810096  1
  O2-  O202  1  0.53710110  0.58169592  0.59331212  1
  O2-  O203  1  0.54102322  0.58030086  0.93545956  1
  O2-  O204  1  0.16106309  0.20689746  0.26938983  1
  O2-  O205  1  0.16784678  0.20035119  0.60401489  1
  O2-  O206  1  0.17022175  0.20132325  0.93121129  1
  O2-  O207  1  0.16625797  0.70565583  0.26930745  1
  O2-  O208  1  0.16856679  0.71127480  0.59888824  1
  O2-  O209  1  0.16494317  0.70788709  0.93870894  1
  O2-  O210  1  0.66213689  0.20287581  0.26704476  1
  O2-  O211  1  0.65973868  0.21218536  0.60294998  1
  O2-  O212  1  0.66719442  0.20053905  0.94042063  1
  O2-  O213  1  0.66649998  0.70654976  0.27265639  1
  O2-  O214  1  0.66753069  0.70701294  0.59457763  1
  O2-  O215  1  0.66654994  0.70722462  0.92875009  1
  O2-  O216  1  0.08252245  0.45147682  0.06452073  1
  O2-  O217  1  0.08922715  0.46228803  0.39283468  1
  O2-  O218  1  0.07756270  0.46251104  0.73415396  1
  O2-  O219  1  0.08704785  0.96117298  0.06321828  1
  O2-  O220  1  0.08049019  0.94879525  0.40331800  1
  O2-  O221  1  0.08088045  0.95565595  0.73678109  1
  O2-  O222  1  0.58515358  0.46196465  0.07249879  1
  O2-  O223  1  0.58526882  0.46205579  0.39692905  1
  O2-  O224  1  0.58485105  0.46187179  0.73228486  1
  O2-  O225  1  0.58785217  0.95652956  0.05969283  1
  O2-  O226  1  0.57994713  0.94989784  0.40320263  1
  O2-  O227  1  0.58575269  0.95325425  0.73204041  1
  O2-  O228  1  0.20386956  0.33172369  0.06192845  1
  O2-  O229  1  0.20330548  0.33851853  0.39253809  1
  O2-  O230  1  0.19619151  0.32946996  0.73340660  1
  O2-  O231  1  0.20268218  0.83832649  0.06494923  1
  O2-  O232  1  0.21056341  0.82840584  0.40104668  1
  O2-  O233  1  0.20853932  0.83126711  0.73789793  1
  O2-  O234  1  0.70703027  0.33129770  0.07175490  1
  O2-  O235  1  0.69307038  0.33274567  0.39157896  1
  O2-  O236  1  0.70995465  0.33500363  0.73473561  1
  O2-  O237  1  0.70729823  0.83537494  0.05745503  1
  O2-  O238  1  0.70987208  0.83035583  0.40358496  1
  O2-  O239  1  0.70181641  0.83036749  0.72903540  1
  O2-  O240  1  0.46235175  0.41614102  0.26476625  1
  O2-  O241  1  0.46035171  0.40890316  0.60392449  1
  O2-  O242  1  0.46317179  0.41701433  0.93308861  1
  O2-  O243  1  0.45203973  0.91458278  0.27562553  1
  O2-  O244  1  0.45760371  0.91700613  0.60187856  1
  O2-  O245  1  0.45698714  0.92027563  0.93089360  1
  O2-  O246  1  0.96294487  0.41589199  0.26278875  1
  O2-  O247  1  0.95609029  0.41772841  0.59932107  1
  O2-  O248  1  0.95078052  0.42226278  0.93346273  1
  O2-  O249  1  0.95427353  0.91324476  0.27518244  1
  O2-  O250  1  0.95390160  0.91997594  0.60390423  1
  O2-  O251  1  0.96266500  0.91414557  0.93168047  1
  O2-  O252  1  0.33043762  0.29418168  0.26416699  1
  O2-  O253  1  0.33373381  0.29559676  0.60898577  1
  O2-  O254  1  0.33482482  0.29232392  0.93069851  1
  O2-  O255  1  0.33897805  0.78873782  0.27080530  1
  O2-  O256  1  0.33539050  0.79811068  0.60285572  1
  O2-  O257  1  0.32659648  0.79874807  0.93630885  1
  O2-  O258  1  0.82772015  0.29664815  0.26641727  1
  O2-  O259  1  0.83156133  0.28536378  0.59936110  1
  O2-  O260  1  0.82809950  0.29008921  0.93447630  1
  O2-  O261  1  0.83894963  0.78782855  0.27379062  1
  O2-  O262  1  0.83333641  0.80211231  0.60118703  1
  O2-  O263  1  0.83470708  0.79369375  0.92867117  1
  O2-  O264  1  0.41477777  0.04503626  0.06292386  1
  O2-  O265  1  0.41843048  0.04891200  0.39955190  1
  O2-  O266  1  0.42316471  0.04600208  0.73603232  1
  O2-  O267  1  0.41552627  0.53926786  0.07101289  1
  O2-  O268  1  0.41631737  0.54410375  0.39234709  1
  O2-  O269  1  0.41875880  0.53759872  0.73370930  1
  O2-  O270  1  0.91407133  0.03959825  0.06077862  1
  O2-  O271  1  0.91714837  0.04533503  0.40274180  1
  O2-  O272  1  0.91580536  0.04334663  0.73692857  1
  O2-  O273  1  0.91892624  0.55370286  0.06044322  1
  O2-  O274  1  0.92123907  0.54056681  0.39824029  1
  O2-  O275  1  0.91614601  0.55116876  0.72773523  1
  O2-  O276  1  0.29374562  0.16472704  0.06129904  1
  O2-  O277  1  0.29078843  0.17247982  0.39869601  1
  O2-  O278  1  0.29571833  0.17059797  0.73809121  1
  O2-  O279  1  0.28832596  0.66754156  0.07126073  1
  O2-  O280  1  0.29456371  0.66057686  0.39620204  1
  O2-  O281  1  0.29681312  0.66857599  0.73112089  1
  O2-  O282  1  0.79387871  0.15978704  0.06378809  1
  O2-  O283  1  0.78970178  0.17205053  0.39895782  1
  O2-  O284  1  0.78244524  0.16410462  0.73820234  1
  O2-  O285  1  0.79388505  0.66758431  0.06038735  1
  O2-  O286  1  0.79184619  0.66205462  0.40475846  1
  O2-  O287  1  0.79788074  0.66985679  0.72485694  1
