# generated using pymatgen
data_Ca2Al2SiO7
_symmetry_space_group_name_H-M   'P 1'
_cell_length_a   15.45240798
_cell_length_b   15.45222818
_cell_length_c   15.27962954
_cell_angle_alpha   89.98996382
_cell_angle_beta   90.00046494
_cell_angle_gamma   90.00014037
_symmetry_Int_Tables_number   1
_chemical_formula_structural   Ca2Al2SiO7
_chemical_formula_sum   'Ca48 Al48 Si24 O168'
_cell_volume   3648.38025503
_cell_formula_units_Z   24
loop_
 _symmetry_equiv_pos_site_id
 _symmetry_equiv_pos_as_xyz
  1  'x, y, z'
loop_
 _atom_type_symbol
 _atom_type_oxidation_number
  Ca2+  2.0
  Al0+  0.0
  Si0+  0.0
  O2-  -2.0
loop_
 _atom_site_type_symbol
 _atom_site_label
 _atom_site_symmetry_multiplicity
 _atom_site_fract_x
 _atom_site_fract_y
 _atom_site_fract_z
 _atom_site_occupancy
  Ca2+  Ca0  1  0.17019860  0.08455678  0.17042352  1
  Ca2+  Ca1  1  0.17850706  0.08885023  0.50247774  1
  Ca2+  Ca2  1  0.18028249  0.07798457  0.84509800  1
  Ca2+  Ca3  1  0.17011310  0.57900291  0.17476673  1
  Ca2+  Ca4  1  0.16424648  0.57242302  0.50668336  1
  Ca2+  Ca5  1  0.15930498  0.58247884  0.83560446  1
  Ca2+  Ca6  1  0.67316982  0.07682082  0.17502162  1
  Ca2+  Ca7  1  0.66628642  0.07947577  0.50175166  1
  Ca2+  Ca8  1  0.66440268  0.08627070  0.83961874  1
  Ca2+  Ca9  1  0.66845642  0.58087617  0.17132671  1
  Ca2+  Ca10  1  0.67839066  0.58948152  0.50547823  1
  Ca2+  Ca11  1  0.66696642  0.58568687  0.83944047  1
  Ca2+  Ca12  1  0.08993117  0.32246595  0.16713136  1
  Ca2+  Ca13  1  0.09046284  0.33092344  0.49297884  1
  Ca2+  Ca14  1  0.08832192  0.32935145  0.83051535  1
  Ca2+  Ca15  1  0.07199910  0.83340907  0.15626667  1
  Ca2+  Ca16  1  0.07779671  0.82591542  0.49353011  1
  Ca2+  Ca17  1  0.08524314  0.82564433  0.83317568  1
  Ca2+  Ca18  1  0.57732413  0.33110139  0.15875006  1
  Ca2+  Ca19  1  0.57560319  0.32698975  0.49412167  1
  Ca2+  Ca20  1  0.58574350  0.32417781  0.83082722  1
  Ca2+  Ca21  1  0.58573249  0.82846274  0.16263769  1
  Ca2+  Ca22  1  0.58079793  0.83256340  0.50087906  1
  Ca2+  Ca23  1  0.57750980  0.82403916  0.82601386  1
  Ca2+  Ca24  1  0.33016681  0.42171384  0.17849417  1
  Ca2+  Ca25  1  0.32472615  0.41521763  0.49698704  1
  Ca2+  Ca26  1  0.32849582  0.41779739  0.83347766  1
  Ca2+  Ca27  1  0.32759904  0.92817020  0.16923993  1
  Ca2+  Ca28  1  0.33968378  0.92753644  0.50646379  1
  Ca2+  Ca29  1  0.33406637  0.92253525  0.83883909  1
  Ca2+  Ca30  1  0.82564986  0.42167262  0.17056796  1
  Ca2+  Ca31  1  0.83856838  0.43124640  0.50542806  1
  Ca2+  Ca32  1  0.82629241  0.42512551  0.83769058  1
  Ca2+  Ca33  1  0.83089713  0.91440209  0.17680881  1
  Ca2+  Ca34  1  0.83063874  0.91590190  0.49441174  1
  Ca2+  Ca35  1  0.83348458  0.91473116  0.83721609  1
  Ca2+  Ca36  1  0.41466284  0.16957554  0.16403308  1
  Ca2+  Ca37  1  0.41530178  0.16750487  0.49467475  1
  Ca2+  Ca38  1  0.42545137  0.15675609  0.82948414  1
  Ca2+  Ca39  1  0.42003301  0.66569833  0.16041564  1
  Ca2+  Ca40  1  0.41902843  0.66790252  0.49641607  1
  Ca2+  Ca41  1  0.42702040  0.67244111  0.82457305  1
  Ca2+  Ca42  1  0.92989174  0.15707460  0.16461612  1
  Ca2+  Ca43  1  0.92461905  0.16800000  0.48865013  1
  Ca2+  Ca44  1  0.92567024  0.16714579  0.83303376  1
  Ca2+  Ca45  1  0.91742700  0.67618845  0.16164984  1
  Ca2+  Ca46  1  0.91699896  0.66558570  0.49467965  1
  Ca2+  Ca47  1  0.92378688  0.66925838  0.83012271  1
  Al0+  Al48  1  0.00055270  0.00090600  -0.00811769  1
  Al0+  Al49  1  -0.00070691  -0.00130492  0.33008875  1
  Al0+  Al50  1  0.00027989  0.00011236  0.66635783  1
  Al0+  Al51  1  -0.00149395  0.50069524  0.00025407  1
  Al0+  Al52  1  -0.00124117  0.49770976  0.33814003  1
  Al0+  Al53  1  -0.00164325  0.49998977  0.67421920  1
  Al0+  Al54  1  0.50067227  0.00123386  0.00272233  1
  Al0+  Al55  1  0.49992966  -0.00199828  0.33916971  1
  Al0+  Al56  1  0.50219924  0.00006547  0.66341336  1
  Al0+  Al57  1  0.49988089  0.49867761  -0.00150112  1
  Al0+  Al58  1  0.49899845  0.49909708  0.33357554  1
  Al0+  Al59  1  0.49955219  0.49798647  0.66169938  1
  Al0+  Al60  1  0.25086041  0.25203949  -0.00166794  1
  Al0+  Al61  1  0.25132446  0.25006017  0.33154291  1
  Al0+  Al62  1  0.25157840  0.24908318  0.67783412  1
  Al0+  Al63  1  0.24843561  0.75112924  0.00129746  1
  Al0+  Al64  1  0.25197594  0.75023279  0.33452152  1
  Al0+  Al65  1  0.24856971  0.74993322  0.65663207  1
  Al0+  Al66  1  0.74894130  0.25176665  0.00207489  1
  Al0+  Al67  1  0.75074861  0.24900715  0.33647853  1
  Al0+  Al68  1  0.75115761  0.25045241  0.66137869  1
  Al0+  Al69  1  0.75076753  0.75076256  -0.00785225  1
  Al0+  Al70  1  0.74940357  0.74947329  0.33737307  1
  Al0+  Al71  1  0.75076239  0.75178291  0.66950211  1
  Al0+  Al72  1  0.32291065  0.07189107  0.01733778  1
  Al0+  Al73  1  0.92946517  0.81761949  0.32059177  1
  Al0+  Al74  1  0.92850949  0.82244896  0.98294864  1
  Al0+  Al75  1  0.18010368  0.42988434  0.34663286  1
  Al0+  Al76  1  0.07240191  0.67754829  0.98648268  1
  Al0+  Al77  1  0.81834104  0.56914629  0.34518858  1
  Al0+  Al78  1  0.07042779  0.18058349  0.32124335  1
  Al0+  Al79  1  0.07231352  0.18092088  0.98441278  1
  Al0+  Al80  1  0.57064547  0.17957237  0.98923393  1
  Al0+  Al81  1  0.32157414  0.06837863  0.68205476  1
  Al0+  Al82  1  0.18006638  0.43045889  0.68316619  1
  Al0+  Al83  1  0.17743742  0.92823722  0.01512132  1
  Al0+  Al84  1  0.67871056  0.92819248  0.34941971  1
  Al0+  Al85  1  0.67811414  0.42921855  0.01345197  1
  Al0+  Al86  1  0.42892232  0.82080414  0.65109422  1
  Al0+  Al87  1  0.81881135  0.57229191  0.68379790  1
  Al0+  Al88  1  0.06843606  0.67750833  0.65100438  1
  Al0+  Al89  1  0.43089941  0.31944582  0.31942123  1
  Al0+  Al90  1  0.57220547  0.17991419  0.65121105  1
  Al0+  Al91  1  0.57241656  0.67695606  0.65014281  1
  Al0+  Al92  1  0.31845752  0.06979191  0.34712348  1
  Al0+  Al93  1  0.82344926  0.07145508  0.34789777  1
  Al0+  Al94  1  0.32349252  0.57393073  0.34883911  1
  Al0+  Al95  1  0.56973211  0.67785848  0.98802686  1
  Si0+  Si96  1  0.42796268  0.32300338  0.98132485  1
  Si0+  Si97  1  0.42835511  0.82239745  0.98629544  1
  Si0+  Si98  1  0.17610048  0.92707758  0.35004222  1
  Si0+  Si99  1  0.68024525  0.92829633  0.01248387  1
  Si0+  Si100  1  0.92784227  0.82413403  0.64744230  1
  Si0+  Si101  1  0.67714223  0.42643533  0.68164239  1
  Si0+  Si102  1  0.92544389  0.32422207  0.31653009  1
  Si0+  Si103  1  0.82063788  0.57335044  0.01727636  1
  Si0+  Si104  1  0.82089244  0.07229796  0.01243751  1
  Si0+  Si105  1  0.57004610  0.68052633  0.31882655  1
  Si0+  Si106  1  0.07211363  0.17983973  0.65340370  1
  Si0+  Si107  1  0.93018888  0.32003919  0.65263010  1
  Si0+  Si108  1  0.17578521  0.92626609  0.68181031  1
  Si0+  Si109  1  0.42521013  0.32067553  0.64973155  1
  Si0+  Si110  1  0.68096356  0.93201363  0.68410801  1
  Si0+  Si111  1  0.92687072  0.32245735  0.98386661  1
  Si0+  Si112  1  0.32276686  0.57419673  0.68289502  1
  Si0+  Si113  1  0.32097917  0.57091814  0.01200919  1
  Si0+  Si114  1  0.82282340  0.07372102  0.68258430  1
  Si0+  Si115  1  0.57318877  0.17587825  0.31640225  1
  Si0+  Si116  1  0.42800399  0.82343232  0.31628762  1
  Si0+  Si117  1  0.17734842  0.42968687  0.01557649  1
  Si0+  Si118  1  0.67593816  0.42618211  0.35074703  1
  Si0+  Si119  1  0.07277365  0.67518609  0.31798927  1
  O2-  O120  1  0.24719261  0.00253460  0.06546644  1
  O2-  O121  1  0.24541989  -0.00565341  0.39563977  1
  O2-  O122  1  0.24707119  -0.00767984  0.72620089  1
  O2-  O123  1  0.24725240  0.50277557  0.05493470  1
  O2-  O124  1  0.24713655  0.50595116  0.39770124  1
  O2-  O125  1  0.25347388  0.50719494  0.72961422  1
  O2-  O126  1  0.75191178  -0.00110848  0.05396330  1
  O2-  O127  1  0.74851753  0.00326376  0.39898833  1
  O2-  O128  1  0.75206340  0.00332981  0.72637450  1
  O2-  O129  1  0.75047521  0.50586266  0.06085119  1
  O2-  O130  1  0.74720491  0.49205253  0.39466344  1
  O2-  O131  1  0.73854851  0.50119348  0.72729221  1
  O2-  O132  1  -0.00779139  0.25266957  0.27390958  1
  O2-  O133  1  0.00158540  0.24996334  0.60962271  1
  O2-  O134  1  -0.00177568  0.25701883  0.93807634  1
  O2-  O135  1  0.00604809  0.74522099  0.27330513  1
  O2-  O136  1  -0.00440579  0.75410161  0.60434651  1
  O2-  O137  1  0.00147394  0.75020051  0.93547006  1
  O2-  O138  1  0.50721372  0.24662222  0.27175636  1
  O2-  O139  1  0.49640657  0.25395792  0.60632935  1
  O2-  O140  1  0.49394684  0.25053772  0.93926040  1
  O2-  O141  1  0.49670973  0.74899291  0.27534238  1
  O2-  O142  1  0.49726345  0.74531845  0.59989471  1
  O2-  O143  1  0.49528346  0.75243910  0.94156681  1
  O2-  O144  1  0.07111119  0.18165480  0.09751223  1
  O2-  O145  1  0.07110102  0.18319859  0.43497579  1
  O2-  O146  1  0.06925905  0.18091935  0.75848554  1
  O2-  O147  1  0.07000904  0.67485708  0.10007141  1
  O2-  O148  1  0.06978059  0.67551890  0.42370025  1
  O2-  O149  1  0.06689355  0.67844135  0.76400270  1
  O2-  O150  1  0.57241390  0.18092681  0.10192659  1
  O2-  O151  1  0.57163506  0.17762314  0.42223092  1
  O2-  O152  1  0.57355036  0.18081084  0.76472145  1
  O2-  O153  1  0.56919780  0.67923315  0.10163126  1
  O2-  O154  1  0.57075668  0.68240264  0.42361300  1
  O2-  O155  1  0.57118598  0.67990641  0.76411523  1
  O2-  O156  1  0.18224699  0.43036745  0.23256807  1
  O2-  O157  1  0.18045215  0.42781517  0.57052861  1
  O2-  O158  1  0.17848194  0.42916458  0.91032716  1
  O2-  O159  1  0.17728757  0.92808606  0.24454425  1
  O2-  O160  1  0.17199687  0.93120144  0.57628716  1
  O2-  O161  1  0.18170905  0.92810703  0.90119006  1
  O2-  O162  1  0.67560430  0.42858708  0.24482168  1
  O2-  O163  1  0.68227527  0.42372914  0.57628024  1
  O2-  O164  1  0.68061967  0.42844304  0.90028038  1
  O2-  O165  1  0.67963373  0.92679626  0.23501764  1
  O2-  O166  1  0.68197702  0.93210948  0.57928985  1
  O2-  O167  1  0.67935822  0.92982292  0.90721365  1
  O2-  O168  1  0.42924739  0.32607809  0.08685351  1
  O2-  O169  1  0.43090027  0.31712659  0.43267129  1
  O2-  O170  1  0.42556106  0.32122960  0.75547542  1
  O2-  O171  1  0.43070845  0.82120281  0.09216242  1
  O2-  O172  1  0.42929750  0.82519889  0.42096988  1
  O2-  O173  1  0.43251368  0.82081649  0.76538737  1
  O2-  O174  1  0.92649613  0.32202845  0.08926304  1
  O2-  O175  1  0.92678478  0.32540471  0.42241366  1
  O2-  O176  1  0.92843114  0.31693037  0.75788673  1
  O2-  O177  1  0.92488959  0.82001132  0.09666325  1
  O2-  O178  1  0.93009422  0.81582255  0.43378629  1
  O2-  O179  1  0.92886712  0.82621979  0.75285058  1
  O2-  O180  1  0.31817955  0.06959286  0.23435447  1
  O2-  O181  1  0.31869312  0.07157839  0.56882383  1
  O2-  O182  1  0.32546981  0.06765009  0.90356455  1
  O2-  O183  1  0.32428987  0.57219763  0.23432475  1
  O2-  O184  1  0.32187071  0.57153573  0.57774388  1
  O2-  O185  1  0.32273909  0.56898823  0.90695464  1
  O2-  O186  1  0.82293017  0.06899350  0.23374922  1
  O2-  O187  1  0.82438799  0.07359504  0.57803434  1
  O2-  O188  1  0.81811433  0.07398788  0.90676338  1
  O2-  O189  1  0.81503942  0.56949678  0.23199197  1
  O2-  O190  1  0.82034300  0.56968276  0.57045770  1
  O2-  O191  1  0.82026360  0.57138778  0.91167641  1
  O2-  O192  1  0.04110469  0.08387254  0.26627181  1
  O2-  O193  1  0.04507122  0.08773761  0.60650286  1
  O2-  O194  1  0.04033810  0.08666597  0.92722810  1
  O2-  O195  1  0.04617675  0.58102008  0.27376207  1
  O2-  O196  1  0.03406544  0.58001424  0.60069955  1
  O2-  O197  1  0.04244919  0.57913093  0.93292954  1
  O2-  O198  1  0.54598708  0.08149033  0.27331943  1
  O2-  O199  1  0.54251747  0.08376439  0.59750918  1
  O2-  O200  1  0.54296227  0.08185163  0.93435062  1
  O2-  O201  1  0.54506844  0.58727719  0.27266543  1
  O2-  O202  1  0.55075508  0.57633158  0.59852892  1
  O2-  O203  1  0.53935082  0.58202556  0.93267681  1
  O2-  O204  1  0.16448728  0.21494331  0.26503631  1
  O2-  O205  1  0.16509532  0.20927582  0.61010715  1
  O2-  O206  1  0.16863646  0.21270943  0.93001361  1
  O2-  O207  1  0.16843549  0.69809096  0.27470186  1
  O2-  O208  1  0.16521614  0.70311191  0.59506050  1
  O2-  O209  1  0.17134400  0.70445652  0.93259433  1
  O2-  O210  1  0.66918091  0.19785795  0.27333230  1
  O2-  O211  1  0.66858511  0.21010836  0.59573662  1
  O2-  O212  1  0.66655840  0.21257498  0.93390953  1
  O2-  O213  1  0.66045895  0.71156753  0.27070282  1
  O2-  O214  1  0.67050237  0.71152820  0.60017842  1
  O2-  O215  1  0.66481019  0.70862585  0.93215129  1
  O2-  O216  1  0.08439757  0.45390322  0.06235911  1
  O2-  O217  1  0.08023412  0.45070548  0.40035569  1
  O2-  O218  1  0.08344902  0.45873258  0.73854302  1
  O2-  O219  1  0.07697074  0.95724725  0.06365749  1
  O2-  O220  1  0.08272071  0.95218597  0.39566493  1
  O2-  O221  1  0.08304079  0.95395174  0.72962807  1
  O2-  O222  1  0.58094905  0.45859301  0.06746918  1
  O2-  O223  1  0.58369722  0.45377379  0.39730904  1
  O2-  O224  1  0.58005219  0.44303701  0.72411291  1
  O2-  O225  1  0.58927616  0.95493574  0.06189030  1
  O2-  O226  1  0.58117246  0.95467812  0.40466324  1
  O2-  O227  1  0.58957673  0.96052837  0.73124293  1
  O2-  O228  1  0.20741836  0.33855274  0.06241081  1
  O2-  O229  1  0.21466450  0.33376029  0.40027965  1
  O2-  O230  1  0.21308440  0.33579927  0.74076224  1
  O2-  O231  1  0.20452329  0.82994445  0.06994593  1
  O2-  O232  1  0.20026295  0.83265885  0.39488066  1
  O2-  O233  1  0.19888069  0.83036132  0.72379642  1
  O2-  O234  1  0.71132952  0.33458416  0.07053257  1
  O2-  O235  1  0.69693921  0.33116186  0.39535324  1
  O2-  O236  1  0.71103744  0.33502404  0.72885161  1
  O2-  O237  1  0.70818175  0.83594138  0.05908738  1
  O2-  O238  1  0.71116994  0.83251719  0.40484451  1
  O2-  O239  1  0.70890360  0.84067087  0.73265655  1
  O2-  O240  1  0.45972207  0.41711729  0.26480494  1
  O2-  O241  1  0.44670607  0.41463153  0.60267064  1
  O2-  O242  1  0.45717414  0.41422581  0.93226057  1
  O2-  O243  1  0.45964664  0.91395210  0.26832344  1
  O2-  O244  1  0.46465162  0.91645553  0.59683702  1
  O2-  O245  1  0.45715144  0.91490140  0.94012101  1
  O2-  O246  1  0.95244164  0.41688811  0.26887887  1
  O2-  O247  1  0.95851155  0.41237444  0.60772502  1
  O2-  O248  1  0.94964629  0.41694208  0.93821205  1
  O2-  O249  1  0.95667754  0.91472130  0.26588738  1
  O2-  O250  1  0.95391780  0.91813664  0.60123692  1
  O2-  O251  1  0.95372796  0.92031512  0.92748325  1
  O2-  O252  1  0.33602103  0.28737101  0.26336379  1
  O2-  O253  1  0.33225659  0.28953084  0.60573635  1
  O2-  O254  1  0.33351812  0.30173292  0.93562785  1
  O2-  O255  1  0.33526076  0.79841248  0.26861406  1
  O2-  O256  1  0.32962517  0.80072827  0.59650346  1
  O2-  O257  1  0.33448518  0.79895035  0.94099023  1
  O2-  O258  1  0.83009895  0.30188985  0.27199730  1
  O2-  O259  1  0.84004143  0.29310735  0.60188677  1
  O2-  O260  1  0.83496839  0.29328244  0.93617227  1
  O2-  O261  1  0.83251796  0.78495444  0.26751912  1
  O2-  O262  1  0.83335586  0.79907250  0.60437499  1
  O2-  O263  1  0.83174263  0.79311245  0.92640544  1
  O2-  O264  1  0.42056000  0.04175803  0.07155834  1
  O2-  O265  1  0.41517743  0.04034813  0.40124805  1
  O2-  O266  1  0.41969069  0.03714436  0.73304174  1
  O2-  O267  1  0.41129151  0.54001080  0.06079299  1
  O2-  O268  1  0.42025602  0.54135491  0.40242657  1
  O2-  O269  1  0.41710120  0.54635987  0.72794532  1
  O2-  O270  1  0.91426808  0.04635381  0.05620163  1
  O2-  O271  1  0.92078229  0.04031245  0.40184867  1
  O2-  O272  1  0.91494101  0.04542482  0.73054007  1
  O2-  O273  1  0.91355761  0.54601743  0.06380750  1
  O2-  O274  1  0.91471807  0.54050805  0.40124185  1
  O2-  O275  1  0.91164724  0.53480909  0.74028086  1
  O2-  O276  1  0.29599497  0.17309350  0.06494465  1
  O2-  O277  1  0.28612706  0.16549606  0.40108821  1
  O2-  O278  1  0.29117335  0.16300217  0.73969728  1
  O2-  O279  1  0.29770609  0.66349092  0.06001000  1
  O2-  O280  1  0.30252806  0.67455759  0.40006067  1
  O2-  O281  1  0.29879649  0.66969268  0.72548336  1
  O2-  O282  1  0.79250248  0.16257670  0.06159305  1
  O2-  O283  1  0.80064011  0.17162746  0.40111049  1
  O2-  O284  1  0.79480224  0.16607093  0.72907996  1
  O2-  O285  1  0.79420715  0.66796305  0.06035024  1
  O2-  O286  1  0.78486869  0.66284183  0.40218992  1
  O2-  O287  1  0.79290645  0.67053969  0.73701356  1
