# generated using pymatgen
data_Ca2Al2SiO7
_symmetry_space_group_name_H-M   'P 1'
_cell_length_a   15.45448918
_cell_length_b   15.45474288
_cell_length_c   15.28138095
_cell_angle_alpha   90.00122881
_cell_angle_beta   90.00428223
_cell_angle_gamma   89.99068202
_symmetry_Int_Tables_number   1
_chemical_formula_structural   Ca2Al2SiO7
_chemical_formula_sum   'Ca48 Al48 Si24 O168'
_cell_volume   3649.88376876
_cell_formula_units_Z   24
loop_
 _symmetry_equiv_pos_site_id
 _symmetry_equiv_pos_as_xyz
  1  'x, y, z'
loop_
 _atom_type_symbol
 _atom_type_oxidation_number
  Ca2+  2.0
  Al0+  0.0
  Si0+  0.0
  O2-  -2.0
loop_
 _atom_site_type_symbol
 _atom_site_label
 _atom_site_symmetry_multiplicity
 _atom_site_fract_x
 _atom_site_fract_y
 _atom_site_fract_z
 _atom_site_occupancy
  Ca2+  Ca0  1  0.17145482  0.08817845  0.17130830  1
  Ca2+  Ca1  1  0.16780756  0.07934390  0.50189071  1
  Ca2+  Ca2  1  0.17909308  0.08995248  0.84044212  1
  Ca2+  Ca3  1  0.16292078  0.57441197  0.16787757  1
  Ca2+  Ca4  1  0.17263042  0.57601918  0.50451788  1
  Ca2+  Ca5  1  0.17822121  0.57827696  0.84497613  1
  Ca2+  Ca6  1  0.67064766  0.08554603  0.17161450  1
  Ca2+  Ca7  1  0.65609104  0.07500551  0.50336950  1
  Ca2+  Ca8  1  0.66577313  0.08264730  0.83914972  1
  Ca2+  Ca9  1  0.66897040  0.58010637  0.17000712  1
  Ca2+  Ca10  1  0.66561528  0.57755878  0.51004469  1
  Ca2+  Ca11  1  0.65617474  0.57449569  0.83259799  1
  Ca2+  Ca12  1  0.08748522  0.32817244  0.16357801  1
  Ca2+  Ca13  1  0.08010330  0.32841929  0.48859381  1
  Ca2+  Ca14  1  0.09184677  0.32924884  0.83655682  1
  Ca2+  Ca15  1  0.07512608  0.83620248  0.15879274  1
  Ca2+  Ca16  1  0.07853135  0.83424377  0.48873420  1
  Ca2+  Ca17  1  0.07908998  0.83282972  0.83586306  1
  Ca2+  Ca18  1  0.57728211  0.32034871  0.15906725  1
  Ca2+  Ca19  1  0.58016042  0.32477651  0.49868065  1
  Ca2+  Ca20  1  0.57377396  0.32385212  0.82525574  1
  Ca2+  Ca21  1  0.57845184  0.83760223  0.16905229  1
  Ca2+  Ca22  1  0.58065767  0.83451685  0.49464506  1
  Ca2+  Ca23  1  0.58461129  0.82738848  0.82559459  1
  Ca2+  Ca24  1  0.32448893  0.41471540  0.16430598  1
  Ca2+  Ca25  1  0.33179062  0.41723628  0.50623068  1
  Ca2+  Ca26  1  0.33887366  0.42311131  0.84230742  1
  Ca2+  Ca27  1  0.32773098  0.92106505  0.17376037  1
  Ca2+  Ca28  1  0.33169358  0.92062991  0.50144342  1
  Ca2+  Ca29  1  0.33768360  0.93222193  0.83764139  1
  Ca2+  Ca30  1  0.83789059  0.41670517  0.17206914  1
  Ca2+  Ca31  1  0.82873614  0.41385228  0.50407789  1
  Ca2+  Ca32  1  0.82196679  0.41130645  0.83557716  1
  Ca2+  Ca33  1  0.83283539  0.91889688  0.17176684  1
  Ca2+  Ca34  1  0.82285907  0.91522068  0.50249203  1
  Ca2+  Ca35  1  0.82640474  0.91997423  0.84023098  1
  Ca2+  Ca36  1  0.42659794  0.16578654  0.15668519  1
  Ca2+  Ca37  1  0.42388614  0.16302133  0.50140925  1
  Ca2+  Ca38  1  0.41618702  0.17510626  0.82753472  1
  Ca2+  Ca39  1  0.40843095  0.67377372  0.16465522  1
  Ca2+  Ca40  1  0.42068291  0.66822883  0.49976628  1
  Ca2+  Ca41  1  0.41617737  0.66420640  0.82629226  1
  Ca2+  Ca42  1  0.92948735  0.16407762  0.16208913  1
  Ca2+  Ca43  1  0.92316374  0.17378783  0.48948756  1
  Ca2+  Ca44  1  0.92206530  0.15978335  0.83671672  1
  Ca2+  Ca45  1  0.92313059  0.67948448  0.15941500  1
  Ca2+  Ca46  1  0.91740185  0.67397454  0.49252023  1
  Ca2+  Ca47  1  0.92325221  0.66791103  0.83520326  1
  Al0+  Al48  1  -0.00288133  0.00139255  -0.00721049  1
  Al0+  Al49  1  0.00049503  0.00125546  0.33122404  1
  Al0+  Al50  1  -0.00163039  -0.00115206  0.66540067  1
  Al0+  Al51  1  -0.00159691  0.50091670  -0.00182472  1
  Al0+  Al52  1  0.00032342  0.50097906  0.33703570  1
  Al0+  Al53  1  0.00046118  0.50078720  0.66597732  1
  Al0+  Al54  1  0.50079486  -0.00247801  0.00098725  1
  Al0+  Al55  1  0.50112504  -0.00145846  0.32863027  1
  Al0+  Al56  1  0.49870798  -0.00088970  0.67299818  1
  Al0+  Al57  1  0.49932002  0.50067649  0.00593954  1
  Al0+  Al58  1  0.50163265  0.49975086  0.33313565  1
  Al0+  Al59  1  0.49991525  0.50013775  0.66521563  1
  Al0+  Al60  1  0.25101434  0.25137606  0.00118836  1
  Al0+  Al61  1  0.25182728  0.25227854  0.33718399  1
  Al0+  Al62  1  0.24896348  0.24901058  0.66400362  1
  Al0+  Al63  1  0.24987834  0.75025244  -0.00201331  1
  Al0+  Al64  1  0.25186882  0.75046183  0.33511149  1
  Al0+  Al65  1  0.24753112  0.74872076  0.66944485  1
  Al0+  Al66  1  0.75042264  0.24722357  0.00232300  1
  Al0+  Al67  1  0.75018106  0.25118447  0.32689928  1
  Al0+  Al68  1  0.75112701  0.24910007  0.66740235  1
  Al0+  Al69  1  0.74870793  0.74939071  -0.00320312  1
  Al0+  Al70  1  0.75043441  0.74987782  0.33303859  1
  Al0+  Al71  1  0.75088342  0.75026694  0.66753129  1
  Al0+  Al72  1  0.07309715  0.17961878  0.31883272  1
  Al0+  Al73  1  0.56893948  0.17838715  0.31904411  1
  Al0+  Al74  1  0.07164853  0.67815216  0.98444023  1
  Al0+  Al75  1  0.32307439  0.57368710  0.01793939  1
  Al0+  Al76  1  0.17965684  0.42974575  0.34931327  1
  Al0+  Al77  1  0.92857543  0.82095166  0.32052287  1
  Al0+  Al78  1  0.67990284  0.93013993  0.34685827  1
  Al0+  Al79  1  0.07147201  0.18081057  0.98548704  1
  Al0+  Al80  1  0.82063281  0.07018802  0.01516413  1
  Al0+  Al81  1  0.42921629  0.81955812  0.32072739  1
  Al0+  Al82  1  0.42774219  0.32165648  0.65017259  1
  Al0+  Al83  1  0.92713118  0.82226726  0.98242929  1
  Al0+  Al84  1  0.57226725  0.17694698  0.65154602  1
  Al0+  Al85  1  0.17776421  0.42956004  0.01508378  1
  Al0+  Al86  1  0.42990987  0.32077748  0.98611879  1
  Al0+  Al87  1  0.17791861  0.92947599  0.34486541  1
  Al0+  Al88  1  0.57262798  0.17652434  0.98357467  1
  Al0+  Al89  1  0.68024706  0.42842945  0.67936266  1
  Al0+  Al90  1  0.92909974  0.32310222  0.31856724  1
  Al0+  Al91  1  0.31859731  0.06982910  0.67963469  1
  Al0+  Al92  1  0.67911541  0.92904730  0.68065060  1
  Al0+  Al93  1  0.57096898  0.67984969  0.65362677  1
  Al0+  Al94  1  0.32022184  0.56971322  0.67949096  1
  Al0+  Al95  1  0.32178757  0.07136996  0.01451997  1
  Si0+  Si96  1  0.57261151  0.67646364  0.31646727  1
  Si0+  Si97  1  0.82005368  0.57108824  0.34830720  1
  Si0+  Si98  1  0.81982002  0.57156691  0.01461592  1
  Si0+  Si99  1  0.92683411  0.32336623  0.98218242  1
  Si0+  Si100  1  0.92977218  0.82047296  0.64956092  1
  Si0+  Si101  1  0.42857048  0.32517220  0.31583240  1
  Si0+  Si102  1  0.67896515  0.42803226  0.34794761  1
  Si0+  Si103  1  0.17814942  0.92966610  0.01372056  1
  Si0+  Si104  1  0.57065539  0.67877436  0.98618081  1
  Si0+  Si105  1  0.67930730  0.42866055  0.01639702  1
  Si0+  Si106  1  0.92910635  0.32196260  0.65308379  1
  Si0+  Si107  1  0.67855778  0.92476132  0.01842961  1
  Si0+  Si108  1  0.82368049  0.57271048  0.68434440  1
  Si0+  Si109  1  0.07144673  0.67868331  0.64957935  1
  Si0+  Si110  1  0.17621562  0.42791202  0.68323737  1
  Si0+  Si111  1  0.32389963  0.57278196  0.35211539  1
  Si0+  Si112  1  0.17435633  0.92722675  0.68409849  1
  Si0+  Si113  1  0.32341770  0.07176788  0.34936669  1
  Si0+  Si114  1  0.07297266  0.67875393  0.31880697  1
  Si0+  Si115  1  0.07064041  0.17840588  0.65150589  1
  Si0+  Si116  1  0.42618079  0.82226060  0.65156678  1
  Si0+  Si117  1  0.82196692  0.07359471  0.34988263  1
  Si0+  Si118  1  0.82407076  0.07178185  0.68279620  1
  Si0+  Si119  1  0.42818183  0.82064235  0.98424814  1
  O2-  O120  1  0.24497416  -0.00166887  0.06038879  1
  O2-  O121  1  0.25078833  0.00580708  0.39249469  1
  O2-  O122  1  0.24372043  -0.00490710  0.72723908  1
  O2-  O123  1  0.24850355  0.50317974  0.06549553  1
  O2-  O124  1  0.25623839  0.50287668  0.39592237  1
  O2-  O125  1  0.24765699  0.49347304  0.72643093  1
  O2-  O126  1  0.74559387  -0.00447137  0.06115839  1
  O2-  O127  1  0.75304734  0.00575881  0.39543398  1
  O2-  O128  1  0.75127942  0.00671521  0.72570826  1
  O2-  O129  1  0.75213936  0.49835301  0.05854981  1
  O2-  O130  1  0.75036504  0.49888345  0.39042027  1
  O2-  O131  1  0.75441448  0.50412007  0.72786496  1
  O2-  O132  1  0.00176236  0.25247451  0.26874565  1
  O2-  O133  1  0.00038896  0.25115526  0.61110859  1
  O2-  O134  1  -0.00241236  0.25695237  0.93776303  1
  O2-  O135  1  0.00842370  0.75134510  0.27482703  1
  O2-  O136  1  0.00152682  0.75043435  0.60675019  1
  O2-  O137  1  0.00066585  0.75106661  0.93314298  1
  O2-  O138  1  0.49383310  0.25281247  0.27311035  1
  O2-  O139  1  0.50018890  0.24903350  0.60116934  1
  O2-  O140  1  0.49920984  0.24710724  0.93468446  1
  O2-  O141  1  0.50230598  0.74327735  0.27277897  1
  O2-  O142  1  0.49621219  0.75457315  0.60726225  1
  O2-  O143  1  0.49814950  0.74772521  0.94375858  1
  O2-  O144  1  0.07088285  0.17972798  0.09798776  1
  O2-  O145  1  0.07010073  0.17998390  0.43337100  1
  O2-  O146  1  0.07055522  0.17796178  0.75648359  1
  O2-  O147  1  0.06791804  0.67899448  0.09828507  1
  O2-  O148  1  0.06941091  0.67880955  0.42509635  1
  O2-  O149  1  0.07020382  0.67759615  0.75416233  1
  O2-  O150  1  0.57264241  0.17909480  0.09755378  1
  O2-  O151  1  0.56798388  0.17831200  0.43216560  1
  O2-  O152  1  0.57274383  0.17877605  0.76445611  1
  O2-  O153  1  0.57457893  0.68021437  0.09134527  1
  O2-  O154  1  0.57344167  0.67505091  0.42199373  1
  O2-  O155  1  0.57005161  0.68073636  0.76706278  1
  O2-  O156  1  0.17765512  0.43154115  0.23690949  1
  O2-  O157  1  0.17271779  0.43119350  0.57752110  1
  O2-  O158  1  0.17861839  0.43137696  0.90114869  1
  O2-  O159  1  0.17935480  0.92785420  0.23207184  1
  O2-  O160  1  0.17171102  0.92799877  0.57829310  1
  O2-  O161  1  0.18195963  0.93012461  0.90772267  1
  O2-  O162  1  0.67829806  0.43124767  0.24272960  1
  O2-  O163  1  0.68436791  0.42954935  0.56591974  1
  O2-  O164  1  0.67938199  0.43087029  0.91112598  1
  O2-  O165  1  0.68133241  0.92908632  0.23412397  1
  O2-  O166  1  0.68134549  0.92730003  0.56733826  1
  O2-  O167  1  0.67959556  0.92156915  0.91267878  1
  O2-  O168  1  0.43329583  0.32017239  0.10008674  1
  O2-  O169  1  0.43174454  0.32884876  0.42133589  1
  O2-  O170  1  0.42813990  0.32191955  0.76339603  1
  O2-  O171  1  0.42886054  0.82133431  0.08954221  1
  O2-  O172  1  0.43067017  0.81908731  0.43397143  1
  O2-  O173  1  0.42667551  0.82097909  0.75731253  1
  O2-  O174  1  0.92642501  0.32375498  0.08748421  1
  O2-  O175  1  0.92882187  0.32160415  0.43302964  1
  O2-  O176  1  0.92871233  0.32351133  0.75791302  1
  O2-  O177  1  0.92660926  0.82007798  0.09617680  1
  O2-  O178  1  0.92744763  0.81662470  0.43420404  1
  O2-  O179  1  0.93095469  0.82045371  0.75422446  1
  O2-  O180  1  0.32371969  0.06968929  0.24372569  1
  O2-  O181  1  0.31659571  0.06715277  0.56623737  1
  O2-  O182  1  0.32095448  0.07011979  0.90119337  1
  O2-  O183  1  0.32367290  0.57359500  0.24703249  1
  O2-  O184  1  0.31635049  0.57182750  0.56621675  1
  O2-  O185  1  0.32506124  0.57243318  0.90417835  1
  O2-  O186  1  0.82138105  0.07178548  0.24445550  1
  O2-  O187  1  0.83047148  0.06919878  0.57746390  1
  O2-  O188  1  0.81961107  0.06852752  0.90160000  1
  O2-  O189  1  0.81834646  0.57220589  0.24310399  1
  O2-  O190  1  0.82509115  0.57197225  0.57839538  1
  O2-  O191  1  0.81755312  0.57174180  0.90951997  1
  O2-  O192  1  0.04489073  0.08191823  0.26527065  1
  O2-  O193  1  0.04127101  0.08636966  0.60452148  1
  O2-  O194  1  0.03891625  0.08629157  0.92816555  1
  O2-  O195  1  0.04127595  0.58736258  0.27312066  1
  O2-  O196  1  0.04209974  0.58709260  0.60131280  1
  O2-  O197  1  0.03878132  0.58164083  0.92925460  1
  O2-  O198  1  0.54024980  0.08268242  0.26328203  1
  O2-  O199  1  0.54002632  0.07763275  0.60144829  1
  O2-  O200  1  0.54846082  0.07526067  0.93530627  1
  O2-  O201  1  0.54967505  0.58232674  0.26964253  1
  O2-  O202  1  0.54086918  0.58439192  0.59762155  1
  O2-  O203  1  0.54425313  0.58595959  0.94066577  1
  O2-  O204  1  0.17325246  0.20712007  0.26975443  1
  O2-  O205  1  0.16136811  0.20405038  0.60190504  1
  O2-  O206  1  0.16735830  0.21255612  0.93083887  1
  O2-  O207  1  0.16840126  0.69812260  0.27596750  1
  O2-  O208  1  0.16315679  0.70586793  0.60155552  1
  O2-  O209  1  0.16993139  0.70639816  0.93064901  1
  O2-  O210  1  0.66507654  0.21022202  0.26515253  1
  O2-  O211  1  0.67236944  0.20381445  0.59988586  1
  O2-  O212  1  0.67144485  0.20655157  0.93288223  1
  O2-  O213  1  0.66528820  0.70389082  0.26963685  1
  O2-  O214  1  0.66932314  0.70785761  0.60061597  1
  O2-  O215  1  0.66086116  0.70651387  0.93568452  1
  O2-  O216  1  0.07734499  0.45686607  0.06589053  1
  O2-  O217  1  0.08333294  0.46252746  0.40493776  1
  O2-  O218  1  0.08324970  0.45586288  0.72975870  1
  O2-  O219  1  0.08225028  0.95298431  0.05456326  1
  O2-  O220  1  0.08114220  0.95868776  0.40109296  1
  O2-  O221  1  0.08091130  0.95387195  0.73019224  1
  O2-  O222  1  0.59050297  0.46033615  0.06675610  1
  O2-  O223  1  0.58777294  0.45675821  0.39638807  1
  O2-  O224  1  0.58486431  0.46154756  0.73336971  1
  O2-  O225  1  0.58393448  0.94746471  0.06306758  1
  O2-  O226  1  0.58228099  0.95994303  0.39991356  1
  O2-  O227  1  0.58199700  0.95318435  0.73607133  1
  O2-  O228  1  0.20803255  0.33254355  0.06917301  1
  O2-  O229  1  0.20865398  0.33315880  0.40542578  1
  O2-  O230  1  0.19738830  0.33195842  0.72495781  1
  O2-  O231  1  0.20353433  0.83608587  0.05928396  1
  O2-  O232  1  0.20925415  0.83318650  0.40122559  1
  O2-  O233  1  0.19740601  0.83286957  0.72912260  1
  O2-  O234  1  0.70704005  0.33701302  0.06321142  1
  O2-  O235  1  0.70739148  0.33627907  0.39477369  1
  O2-  O236  1  0.71370112  0.33327475  0.73518268  1
  O2-  O237  1  0.70584845  0.83137563  0.06483263  1
  O2-  O238  1  0.71074615  0.83239659  0.40017716  1
  O2-  O239  1  0.71386013  0.83345119  0.73532861  1
  O2-  O240  1  0.45787984  0.41727285  0.26838599  1
  O2-  O241  1  0.45714108  0.41945097  0.59691550  1
  O2-  O242  1  0.46149782  0.42041019  0.93670822  1
  O2-  O243  1  0.46182672  0.91339636  0.26331882  1
  O2-  O244  1  0.45175858  0.91562042  0.60621271  1
  O2-  O245  1  0.45894428  0.91081604  0.93551145  1
  O2-  O246  1  0.95443026  0.42379452  0.26885657  1
  O2-  O247  1  0.95528768  0.41447215  0.60485643  1
  O2-  O248  1  0.94623945  0.41813400  0.93586664  1
  O2-  O249  1  0.95465710  0.91848536  0.26799163  1
  O2-  O250  1  0.95632810  0.91260779  0.60169315  1
  O2-  O251  1  0.95446724  0.91899557  0.92625112  1
  O2-  O252  1  0.33309163  0.30326687  0.27383163  1
  O2-  O253  1  0.32877839  0.29281181  0.59707717  1
  O2-  O254  1  0.33088675  0.29676728  0.93387738  1
  O2-  O255  1  0.33282461  0.78974620  0.26519707  1
  O2-  O256  1  0.33172223  0.79596439  0.60660831  1
  O2-  O257  1  0.33670487  0.79610133  0.93540631  1
  O2-  O258  1  0.83074642  0.29881723  0.26432075  1
  O2-  O259  1  0.83821175  0.29419133  0.60404014  1
  O2-  O260  1  0.83423316  0.29313966  0.93641624  1
  O2-  O261  1  0.83439589  0.78476692  0.26543497  1
  O2-  O262  1  0.83853196  0.79069977  0.60234603  1
  O2-  O263  1  0.82970953  0.78912641  0.92938746  1
  O2-  O264  1  0.41759589  0.03654100  0.06787010  1
  O2-  O265  1  0.41468673  0.03876807  0.39539392  1
  O2-  O266  1  0.41340489  0.03926887  0.73668454  1
  O2-  O267  1  0.42099214  0.54655264  0.07345375  1
  O2-  O268  1  0.41912057  0.54744298  0.39634915  1
  O2-  O269  1  0.41801381  0.54333175  0.73232438  1
  O2-  O270  1  0.91829900  0.03883935  0.06691317  1
  O2-  O271  1  0.91562374  0.04832023  0.39596966  1
  O2-  O272  1  0.91554976  0.04056538  0.73156640  1
  O2-  O273  1  0.91187633  0.54704117  0.06245564  1
  O2-  O274  1  0.91149649  0.54615557  0.39829408  1
  O2-  O275  1  0.91723264  0.54579022  0.73031213  1
  O2-  O276  1  0.29280505  0.16765564  0.06824264  1
  O2-  O277  1  0.30345761  0.16660191  0.39507109  1
  O2-  O278  1  0.28578162  0.16651253  0.73276938  1
  O2-  O279  1  0.29463793  0.67361710  0.06821471  1
  O2-  O280  1  0.29848794  0.66590616  0.39939210  1
  O2-  O281  1  0.28838482  0.66619089  0.73423513  1
  O2-  O282  1  0.79260875  0.16700903  0.07075174  1
  O2-  O283  1  0.79711479  0.16879809  0.39355027  1
  O2-  O284  1  0.80454106  0.16680880  0.72793121  1
  O2-  O285  1  0.78776360  0.66204330  0.06283988  1
  O2-  O286  1  0.79010725  0.66135748  0.39794803  1
  O2-  O287  1  0.79959362  0.66625820  0.73000831  1
