# generated using pymatgen
data_Ca2Al2SiO7
_symmetry_space_group_name_H-M   'P 1'
_cell_length_a   15.46641369
_cell_length_b   15.46634081
_cell_length_c   15.29053442
_cell_angle_alpha   90.00204146
_cell_angle_beta   89.99344692
_cell_angle_gamma   90.01235082
_symmetry_Int_Tables_number   1
_chemical_formula_structural   Ca2Al2SiO7
_chemical_formula_sum   'Ca48 Al48 Si24 O168'
_cell_volume   3657.63066427
_cell_formula_units_Z   24
loop_
 _symmetry_equiv_pos_site_id
 _symmetry_equiv_pos_as_xyz
  1  'x, y, z'
loop_
 _atom_type_symbol
 _atom_type_oxidation_number
  Ca2+  2.0
  Al0+  0.0
  Si0+  0.0
  O2-  -2.0
loop_
 _atom_site_type_symbol
 _atom_site_label
 _atom_site_symmetry_multiplicity
 _atom_site_fract_x
 _atom_site_fract_y
 _atom_site_fract_z
 _atom_site_occupancy
  Ca2+  Ca0  1  0.17831049  0.07509192  0.17007144  1
  Ca2+  Ca1  1  0.17447102  0.08076330  0.50118447  1
  Ca2+  Ca2  1  0.17529395  0.07219609  0.84585797  1
  Ca2+  Ca3  1  0.16430047  0.58169738  0.17368081  1
  Ca2+  Ca4  1  0.16216787  0.57918439  0.50539849  1
  Ca2+  Ca5  1  0.16788443  0.58751320  0.82698443  1
  Ca2+  Ca6  1  0.65647211  0.07929897  0.16745633  1
  Ca2+  Ca7  1  0.66454960  0.08285483  0.49850006  1
  Ca2+  Ca8  1  0.66510541  0.07676670  0.84213621  1
  Ca2+  Ca9  1  0.67922076  0.57738790  0.17569387  1
  Ca2+  Ca10  1  0.67636757  0.57978215  0.51060361  1
  Ca2+  Ca11  1  0.67263183  0.58539162  0.84089945  1
  Ca2+  Ca12  1  0.07715829  0.34056620  0.16720730  1
  Ca2+  Ca13  1  0.07991009  0.34193754  0.49067401  1
  Ca2+  Ca14  1  0.08393465  0.33462373  0.82697801  1
  Ca2+  Ca15  1  0.07349053  0.83177202  0.16220689  1
  Ca2+  Ca16  1  0.07702447  0.81716276  0.49109818  1
  Ca2+  Ca17  1  0.07879934  0.83040043  0.83006060  1
  Ca2+  Ca18  1  0.59693530  0.32370220  0.16328870  1
  Ca2+  Ca19  1  0.59308783  0.32958835  0.49279771  1
  Ca2+  Ca20  1  0.59490838  0.32982749  0.83277544  1
  Ca2+  Ca21  1  0.57517697  0.83677450  0.16075317  1
  Ca2+  Ca22  1  0.57648067  0.82063276  0.50011557  1
  Ca2+  Ca23  1  0.57389420  0.83167288  0.82965844  1
  Ca2+  Ca24  1  0.32568990  0.41787152  0.17341818  1
  Ca2+  Ca25  1  0.32013968  0.42351624  0.50714558  1
  Ca2+  Ca26  1  0.33095323  0.42459530  0.83198032  1
  Ca2+  Ca27  1  0.34226241  0.92434496  0.16948446  1
  Ca2+  Ca28  1  0.34518649  0.91928527  0.50036553  1
  Ca2+  Ca29  1  0.33210087  0.91536226  0.84431143  1
  Ca2+  Ca30  1  0.82863027  0.42487597  0.17312860  1
  Ca2+  Ca31  1  0.82833736  0.42464045  0.50102887  1
  Ca2+  Ca32  1  0.82203496  0.43152282  0.83630178  1
  Ca2+  Ca33  1  0.82979315  0.90927657  0.16895337  1
  Ca2+  Ca34  1  0.83671686  0.91602890  0.50065120  1
  Ca2+  Ca35  1  0.82638274  0.91416690  0.84532192  1
  Ca2+  Ca36  1  0.42180978  0.16461981  0.16241430  1
  Ca2+  Ca37  1  0.42219430  0.17069903  0.48988117  1
  Ca2+  Ca38  1  0.41964882  0.16541716  0.83562095  1
  Ca2+  Ca39  1  0.41540477  0.67915583  0.16101054  1
  Ca2+  Ca40  1  0.41121894  0.67432912  0.49790986  1
  Ca2+  Ca41  1  0.41999504  0.67602587  0.82141024  1
  Ca2+  Ca42  1  0.91421675  0.17636661  0.16364841  1
  Ca2+  Ca43  1  0.92084305  0.17721223  0.49046112  1
  Ca2+  Ca44  1  0.91825318  0.16987494  0.82926423  1
  Ca2+  Ca45  1  0.91756413  0.66668610  0.16602026  1
  Ca2+  Ca46  1  0.92286246  0.65770450  0.49399066  1
  Ca2+  Ca47  1  0.91522429  0.66638942  0.83016674  1
  Al0+  Al48  1  0.00087910  0.00034907  -0.00035290  1
  Al0+  Al49  1  0.00148738  -0.00079073  0.33170749  1
  Al0+  Al50  1  0.00197065  0.00286883  0.66618464  1
  Al0+  Al51  1  -0.00040705  0.50018034  -0.00052766  1
  Al0+  Al52  1  -0.00072640  0.49902477  0.33079600  1
  Al0+  Al53  1  -0.00351394  0.49954785  0.67204297  1
  Al0+  Al54  1  0.50142926  0.00183505  -0.00224261  1
  Al0+  Al55  1  0.50145927  0.00123931  0.33294898  1
  Al0+  Al56  1  0.50160621  0.00236420  0.66327830  1
  Al0+  Al57  1  0.49838998  0.49733481  0.00486886  1
  Al0+  Al58  1  0.49891321  0.49829898  0.33604021  1
  Al0+  Al59  1  0.49876808  0.49660012  0.67006450  1
  Al0+  Al60  1  0.25097547  0.24952222  0.00203334  1
  Al0+  Al61  1  0.25199825  0.24786415  0.34099493  1
  Al0+  Al62  1  0.25168156  0.24763529  0.66987084  1
  Al0+  Al63  1  0.24697127  0.74919535  -0.00035628  1
  Al0+  Al64  1  0.24888891  0.75182397  0.32395920  1
  Al0+  Al65  1  0.24612395  0.75202406  0.66074900  1
  Al0+  Al66  1  0.75110693  0.25041282  -0.00535740  1
  Al0+  Al67  1  0.75252664  0.24753476  0.32778380  1
  Al0+  Al68  1  0.75261236  0.24950102  0.66851684  1
  Al0+  Al69  1  0.75125819  0.75082750  0.00582844  1
  Al0+  Al70  1  0.74974798  0.75002194  0.33673153  1
  Al0+  Al71  1  0.74689536  0.75343408  0.66720034  1
  Al0+  Al72  1  0.43182469  0.81983953  0.31853638  1
  Al0+  Al73  1  0.32174075  0.06977180  0.01546152  1
  Al0+  Al74  1  0.67992364  0.93046543  0.01329516  1
  Al0+  Al75  1  0.82135144  0.57189501  0.01752322  1
  Al0+  Al76  1  0.42777477  0.82161529  0.65156185  1
  Al0+  Al77  1  0.81811563  0.57389338  0.68320738  1
  Al0+  Al78  1  0.42922253  0.82032047  0.98644495  1
  Al0+  Al79  1  0.06964189  0.67766027  0.31686475  1
  Al0+  Al80  1  0.17761709  0.42821622  0.68225328  1
  Al0+  Al81  1  0.92878574  0.82113099  0.98587201  1
  Al0+  Al82  1  0.18031730  0.43039031  0.34486864  1
  Al0+  Al83  1  0.57178837  0.67539597  0.65413777  1
  Al0+  Al84  1  0.67904519  0.42540296  0.34813156  1
  Al0+  Al85  1  0.93143478  0.31928789  0.31902425  1
  Al0+  Al86  1  0.57075636  0.18173443  0.31929377  1
  Al0+  Al87  1  0.67764202  0.42754982  0.01663913  1
  Al0+  Al88  1  0.57038493  0.18168382  0.98431431  1
  Al0+  Al89  1  0.32011193  0.57413203  0.67992671  1
  Al0+  Al90  1  0.67720381  0.42600515  0.68188218  1
  Al0+  Al91  1  0.17695981  0.92585139  0.01608199  1
  Al0+  Al92  1  0.81966294  0.57140634  0.35059752  1
  Al0+  Al93  1  0.92698386  0.82291011  0.31831907  1
  Al0+  Al94  1  0.32222652  0.06800052  0.34942928  1
  Al0+  Al95  1  0.06633508  0.67958538  0.65308628  1
  Si0+  Si96  1  0.32094795  0.57201643  0.01462588  1
  Si0+  Si97  1  0.07385928  0.17819750  0.65110375  1
  Si0+  Si98  1  0.82356380  0.07022407  0.34706010  1
  Si0+  Si99  1  0.57153090  0.18223273  0.65088907  1
  Si0+  Si100  1  0.07557331  0.17673192  0.31637510  1
  Si0+  Si101  1  0.07223739  0.18013660  0.98503263  1
  Si0+  Si102  1  0.42565083  0.32207281  0.31815716  1
  Si0+  Si103  1  0.17780627  0.93104884  0.68061104  1
  Si0+  Si104  1  0.57262107  0.67504746  0.31783986  1
  Si0+  Si105  1  0.67873257  0.92965128  0.34987346  1
  Si0+  Si106  1  0.93150823  0.31806574  0.65203423  1
  Si0+  Si107  1  0.17992610  0.42878368  0.01404521  1
  Si0+  Si108  1  0.93028692  0.32146066  0.98110072  1
  Si0+  Si109  1  0.82289178  0.07060561  0.68056598  1
  Si0+  Si110  1  0.07091027  0.67567348  0.98021203  1
  Si0+  Si111  1  0.67888038  0.93227259  0.68101857  1
  Si0+  Si112  1  0.82361760  0.07289893  0.01570378  1
  Si0+  Si113  1  0.17711280  0.92745614  0.35181828  1
  Si0+  Si114  1  0.42403044  0.32307297  0.98198084  1
  Si0+  Si115  1  0.92621361  0.82582831  0.65186279  1
  Si0+  Si116  1  0.57073044  0.67640411  0.98761911  1
  Si0+  Si117  1  0.32213455  0.57558514  0.34740197  1
  Si0+  Si118  1  0.42540183  0.32029333  0.65137633  1
  Si0+  Si119  1  0.32331805  0.06933315  0.68282997  1
  O2-  O120  1  0.25334819  -0.00596555  0.06497410  1
  O2-  O121  1  0.24831964  -0.00691279  0.39784499  1
  O2-  O122  1  0.25370017  -0.00320864  0.72359717  1
  O2-  O123  1  0.24998048  0.50017208  0.05598918  1
  O2-  O124  1  0.25457952  0.50539353  0.39088773  1
  O2-  O125  1  0.24915595  0.50090079  0.73177751  1
  O2-  O126  1  0.75618386  0.00392592  0.06035787  1
  O2-  O127  1  0.75577235  -0.00365119  0.39024629  1
  O2-  O128  1  0.75604424  -0.00316296  0.72281546  1
  O2-  O129  1  0.74696615  0.50159212  0.06589522  1
  O2-  O130  1  0.74368228  0.50269864  0.39945990  1
  O2-  O131  1  0.73928318  0.50728714  0.73090914  1
  O2-  O132  1  0.00771002  0.24554154  0.27137828  1
  O2-  O133  1  0.00753220  0.25261897  0.60841944  1
  O2-  O134  1  0.00170159  0.24999789  0.93956368  1
  O2-  O135  1  -0.00217441  0.75045182  0.26830594  1
  O2-  O136  1  -0.01160744  0.75199495  0.60772470  1
  O2-  O137  1  0.00298896  0.74662051  0.93826385  1
  O2-  O138  1  0.49976395  0.26004140  0.27324735  1
  O2-  O139  1  0.50341653  0.25595680  0.60969807  1
  O2-  O140  1  0.49728017  0.25848978  0.93804663  1
  O2-  O141  1  0.50236491  0.74137951  0.27208247  1
  O2-  O142  1  0.49445381  0.74284702  0.60413375  1
  O2-  O143  1  0.50123205  0.74299894  0.94075480  1
  O2-  O144  1  0.07176583  0.18276666  0.08981390  1
  O2-  O145  1  0.07261964  0.17612946  0.42257383  1
  O2-  O146  1  0.07098832  0.17529946  0.75623892  1
  O2-  O147  1  0.07082868  0.67172909  0.08529327  1
  O2-  O148  1  0.06877941  0.67720346  0.43076022  1
  O2-  O149  1  0.06751709  0.68384420  0.76610851  1
  O2-  O150  1  0.56987999  0.18168660  0.09699120  1
  O2-  O151  1  0.57001824  0.18019813  0.43321322  1
  O2-  O152  1  0.57113246  0.17906579  0.75571297  1
  O2-  O153  1  0.56721337  0.67780040  0.09321810  1
  O2-  O154  1  0.57212729  0.67770188  0.42337716  1
  O2-  O155  1  0.57307345  0.68315455  0.76789822  1
  O2-  O156  1  0.18233996  0.42947098  0.23115632  1
  O2-  O157  1  0.17860228  0.42620561  0.56898729  1
  O2-  O158  1  0.18070337  0.42709250  0.90915386  1
  O2-  O159  1  0.17552917  0.93143133  0.24675196  1
  O2-  O160  1  0.17274861  0.93696008  0.57612985  1
  O2-  O161  1  0.17674028  0.92961101  0.90148058  1
  O2-  O162  1  0.68413640  0.42495900  0.23505833  1
  O2-  O163  1  0.68625647  0.41770957  0.56930886  1
  O2-  O164  1  0.68082977  0.42841303  0.90307272  1
  O2-  O165  1  0.67632393  0.93197568  0.24497706  1
  O2-  O166  1  0.67736079  0.93549098  0.57582654  1
  O2-  O167  1  0.68021840  0.93316331  0.89960253  1
  O2-  O168  1  0.41671702  0.32096164  0.08700940  1
  O2-  O169  1  0.42214955  0.31755186  0.42370689  1
  O2-  O170  1  0.41883411  0.31425344  0.75602981  1
  O2-  O171  1  0.43221814  0.82012425  0.09948409  1
  O2-  O172  1  0.43438494  0.82019250  0.43165274  1
  O2-  O173  1  0.43038669  0.82594139  0.76517809  1
  O2-  O174  1  0.93148237  0.32044046  0.08615126  1
  O2-  O175  1  0.93227714  0.31616523  0.43256577  1
  O2-  O176  1  0.93211939  0.31209298  0.75719940  1
  O2-  O177  1  0.93041303  0.82201634  0.09812189  1
  O2-  O178  1  0.93102533  0.82734078  0.43219535  1
  O2-  O179  1  0.92968514  0.83099034  0.75723967  1
  O2-  O180  1  0.32219529  0.06833503  0.23695056  1
  O2-  O181  1  0.32348718  0.06994356  0.57777745  1
  O2-  O182  1  0.31873793  0.07102541  0.90111706  1
  O2-  O183  1  0.32178541  0.57334957  0.24132720  1
  O2-  O184  1  0.31627642  0.57277178  0.56638990  1
  O2-  O185  1  0.32107413  0.57225027  0.90983409  1
  O2-  O186  1  0.82331327  0.07242759  0.24245427  1
  O2-  O187  1  0.82304825  0.07219370  0.57542111  1
  O2-  O188  1  0.82320843  0.07226977  0.90931262  1
  O2-  O189  1  0.82025385  0.57026227  0.23732978  1
  O2-  O190  1  0.82181545  0.56967529  0.57019993  1
  O2-  O191  1  0.82152734  0.57128809  0.90376344  1
  O2-  O192  1  0.04973789  0.08369578  0.27065709  1
  O2-  O193  1  0.04167069  0.08890575  0.60079044  1
  O2-  O194  1  0.04472979  0.08883378  0.93607431  1
  O2-  O195  1  0.04158489  0.58006927  0.26279381  1
  O2-  O196  1  0.03793083  0.58026755  0.60286614  1
  O2-  O197  1  0.04402989  0.58256715  0.93282981  1
  O2-  O198  1  0.53641267  0.08633496  0.26616068  1
  O2-  O199  1  0.54100015  0.09205956  0.60162427  1
  O2-  O200  1  0.53812538  0.08639083  0.92798775  1
  O2-  O201  1  0.55088567  0.57978462  0.27331435  1
  O2-  O202  1  0.55343974  0.57294184  0.60592647  1
  O2-  O203  1  0.54720069  0.58128663  0.94343175  1
  O2-  O204  1  0.16989843  0.20234988  0.27320179  1
  O2-  O205  1  0.16777708  0.20034513  0.60553123  1
  O2-  O206  1  0.16361988  0.20902102  0.93668270  1
  O2-  O207  1  0.16747760  0.70474264  0.26186288  1
  O2-  O208  1  0.16081173  0.71213298  0.59644093  1
  O2-  O209  1  0.16486731  0.70052353  0.93439841  1
  O2-  O210  1  0.66817469  0.20549390  0.26414718  1
  O2-  O211  1  0.66550155  0.20623533  0.60498766  1
  O2-  O212  1  0.66828970  0.20847313  0.92824511  1
  O2-  O213  1  0.66542375  0.70408884  0.27295749  1
  O2-  O214  1  0.66683762  0.71297581  0.59800271  1
  O2-  O215  1  0.66473492  0.70396337  0.94440610  1
  O2-  O216  1  0.08761922  0.45605033  0.06007514  1
  O2-  O217  1  0.08365602  0.45968228  0.39811782  1
  O2-  O218  1  0.07946259  0.45426651  0.73608378  1
  O2-  O219  1  0.08090963  0.96158329  0.06888167  1
  O2-  O220  1  0.08478853  0.95651349  0.39956413  1
  O2-  O221  1  0.08842184  0.96478280  0.73087965  1
  O2-  O222  1  0.57568231  0.44472695  0.06702108  1
  O2-  O223  1  0.57577518  0.44245324  0.39625867  1
  O2-  O224  1  0.57351436  0.43527163  0.72941061  1
  O2-  O225  1  0.58515697  0.96530371  0.06740674  1
  O2-  O226  1  0.59147689  0.96653877  0.39966251  1
  O2-  O227  1  0.59004721  0.96865775  0.72901410  1
  O2-  O228  1  0.20698741  0.33756229  0.06238538  1
  O2-  O229  1  0.20871464  0.33381359  0.40062009  1
  O2-  O230  1  0.20724536  0.32863596  0.73430333  1
  O2-  O231  1  0.19729105  0.82519944  0.06616896  1
  O2-  O232  1  0.20133775  0.83194935  0.39357847  1
  O2-  O233  1  0.19987744  0.83778610  0.72584500  1
  O2-  O234  1  0.71259212  0.32890489  0.06486277  1
  O2-  O235  1  0.71418592  0.32725761  0.39867276  1
  O2-  O236  1  0.71759929  0.33084720  0.73689741  1
  O2-  O237  1  0.70750775  0.83504114  0.06973867  1
  O2-  O238  1  0.70156241  0.83744610  0.39838959  1
  O2-  O239  1  0.69931175  0.83981173  0.72914186  1
  O2-  O240  1  0.44145078  0.41874261  0.27462843  1
  O2-  O241  1  0.44264668  0.41481516  0.60639147  1
  O2-  O242  1  0.44542584  0.41870750  0.93811193  1
  O2-  O243  1  0.46854524  0.91517378  0.26652869  1
  O2-  O244  1  0.46475608  0.91844987  0.59857348  1
  O2-  O245  1  0.46162866  0.91633380  0.93265364  1
  O2-  O246  1  0.96288817  0.41351428  0.26240795  1
  O2-  O247  1  0.95416764  0.41146600  0.60733240  1
  O2-  O248  1  0.96096012  0.41221746  0.93379935  1
  O2-  O249  1  0.95461607  0.92205236  0.26538531  1
  O2-  O250  1  0.95720564  0.91834378  0.60478799  1
  O2-  O251  1  0.95752121  0.91958201  0.93194677  1
  O2-  O252  1  0.33448022  0.28902185  0.27073593  1
  O2-  O253  1  0.33695002  0.28421227  0.60117905  1
  O2-  O254  1  0.33279661  0.29211842  0.93261612  1
  O2-  O255  1  0.33402390  0.79649991  0.26382642  1
  O2-  O256  1  0.32781078  0.80122747  0.59843719  1
  O2-  O257  1  0.33029776  0.79221092  0.93536628  1
  O2-  O258  1  0.83863640  0.28302801  0.26194542  1
  O2-  O259  1  0.84269365  0.28205314  0.60413275  1
  O2-  O260  1  0.84046137  0.29133241  0.93167144  1
  O2-  O261  1  0.82624405  0.79815576  0.26918512  1
  O2-  O262  1  0.82956978  0.80988451  0.60947900  1
  O2-  O263  1  0.83047387  0.79222859  0.93319714  1
  O2-  O264  1  0.42083390  0.04398818  0.06631248  1
  O2-  O265  1  0.41885940  0.03684527  0.40409356  1
  O2-  O266  1  0.41643602  0.04419868  0.72882144  1
  O2-  O267  1  0.41148583  0.54537398  0.06478692  1
  O2-  O268  1  0.41615186  0.55337002  0.39385639  1
  O2-  O269  1  0.41829018  0.54648574  0.73422325  1
  O2-  O270  1  0.91787402  0.05185362  0.06096687  1
  O2-  O271  1  0.91633424  0.04670469  0.39609602  1
  O2-  O272  1  0.91638283  0.04830038  0.72825149  1
  O2-  O273  1  0.91970649  0.53835350  0.06776040  1
  O2-  O274  1  0.91703732  0.53592018  0.40062628  1
  O2-  O275  1  0.91318430  0.53848947  0.73851131  1
  O2-  O276  1  0.28996650  0.16752978  0.06802548  1
  O2-  O277  1  0.29102258  0.16312620  0.40669698  1
  O2-  O278  1  0.29374682  0.15969437  0.73134825  1
  O2-  O279  1  0.29160038  0.66261429  0.06299317  1
  O2-  O280  1  0.29518396  0.66967419  0.39096082  1
  O2-  O281  1  0.28865680  0.67298038  0.73165151  1
  O2-  O282  1  0.79725306  0.16688697  0.05927178  1
  O2-  O283  1  0.79168656  0.15979697  0.39658335  1
  O2-  O284  1  0.79187415  0.15982673  0.73064301  1
  O2-  O285  1  0.79686279  0.67033772  0.07065711  1
  O2-  O286  1  0.79639271  0.67159477  0.40317764  1
  O2-  O287  1  0.79579361  0.67573323  0.73294836  1
