# generated using pymatgen
data_Ca2Al2SiO7
_symmetry_space_group_name_H-M   'P 1'
_cell_length_a   15.45705129
_cell_length_b   15.45836175
_cell_length_c   15.28296413
_cell_angle_alpha   89.99812923
_cell_angle_beta   89.99766286
_cell_angle_gamma   89.98105158
_symmetry_Int_Tables_number   1
_chemical_formula_structural   Ca2Al2SiO7
_chemical_formula_sum   'Ca48 Al48 Si24 O168'
_cell_volume   3651.72179607
_cell_formula_units_Z   24
loop_
 _symmetry_equiv_pos_site_id
 _symmetry_equiv_pos_as_xyz
  1  'x, y, z'
loop_
 _atom_type_symbol
 _atom_type_oxidation_number
  Ca2+  2.0
  Al0+  0.0
  Si0+  0.0
  O2-  -2.0
loop_
 _atom_site_type_symbol
 _atom_site_label
 _atom_site_symmetry_multiplicity
 _atom_site_fract_x
 _atom_site_fract_y
 _atom_site_fract_z
 _atom_site_occupancy
  Ca2+  Ca0  1  0.16974064  0.07854106  0.17632195  1
  Ca2+  Ca1  1  0.17465468  0.08341395  0.50746253  1
  Ca2+  Ca2  1  0.17052284  0.07081117  0.83644000  1
  Ca2+  Ca3  1  0.16668939  0.58774294  0.17392918  1
  Ca2+  Ca4  1  0.17505183  0.58777290  0.50167422  1
  Ca2+  Ca5  1  0.17188994  0.58815651  0.83502582  1
  Ca2+  Ca6  1  0.66154175  0.08073033  0.16788183  1
  Ca2+  Ca7  1  0.66512592  0.08107385  0.50615152  1
  Ca2+  Ca8  1  0.65794294  0.07573964  0.83520731  1
  Ca2+  Ca9  1  0.67319914  0.58239513  0.18030061  1
  Ca2+  Ca10  1  0.67120616  0.58670088  0.50053429  1
  Ca2+  Ca11  1  0.67035796  0.57988027  0.83638482  1
  Ca2+  Ca12  1  0.07558332  0.33126973  0.16651933  1
  Ca2+  Ca13  1  0.07665944  0.32896440  0.49395070  1
  Ca2+  Ca14  1  0.07230268  0.33410982  0.82848924  1
  Ca2+  Ca15  1  0.08595708  0.82340475  0.16253515  1
  Ca2+  Ca16  1  0.07413145  0.83617898  0.49483876  1
  Ca2+  Ca17  1  0.08698618  0.83347242  0.82806237  1
  Ca2+  Ca18  1  0.58360126  0.32069368  0.16417289  1
  Ca2+  Ca19  1  0.57730789  0.32086233  0.49876905  1
  Ca2+  Ca20  1  0.58045441  0.31843617  0.82484752  1
  Ca2+  Ca21  1  0.57741042  0.83004242  0.16236179  1
  Ca2+  Ca22  1  0.57811241  0.83210935  0.49845981  1
  Ca2+  Ca23  1  0.57342516  0.84273960  0.82878075  1
  Ca2+  Ca24  1  0.33059232  0.42565700  0.17793052  1
  Ca2+  Ca25  1  0.34069969  0.42795809  0.50689339  1
  Ca2+  Ca26  1  0.34147905  0.42267824  0.83138717  1
  Ca2+  Ca27  1  0.32929830  0.91728140  0.16840009  1
  Ca2+  Ca28  1  0.32800949  0.92520182  0.50974583  1
  Ca2+  Ca29  1  0.32939425  0.91479684  0.83488157  1
  Ca2+  Ca30  1  0.83764700  0.41886347  0.17410376  1
  Ca2+  Ca31  1  0.84160130  0.42052231  0.50148106  1
  Ca2+  Ca32  1  0.83691373  0.41292494  0.83815561  1
  Ca2+  Ca33  1  0.82523498  0.91032713  0.17171315  1
  Ca2+  Ca34  1  0.82907748  0.91123036  0.50860655  1
  Ca2+  Ca35  1  0.82069420  0.91245790  0.83587274  1
  Ca2+  Ca36  1  0.42518195  0.15637727  0.16613692  1
  Ca2+  Ca37  1  0.42305838  0.15612562  0.49722872  1
  Ca2+  Ca38  1  0.42516321  0.16496681  0.82348985  1
  Ca2+  Ca39  1  0.41873492  0.66929039  0.16388795  1
  Ca2+  Ca40  1  0.41501090  0.67090303  0.49592720  1
  Ca2+  Ca41  1  0.41368145  0.67903552  0.82702072  1
  Ca2+  Ca42  1  0.91896863  0.17634432  0.16628219  1
  Ca2+  Ca43  1  0.92326132  0.17520973  0.49228772  1
  Ca2+  Ca44  1  0.91342241  0.17668254  0.82776779  1
  Ca2+  Ca45  1  0.92496138  0.66718271  0.16896742  1
  Ca2+  Ca46  1  0.92075331  0.67734953  0.49063735  1
  Ca2+  Ca47  1  0.92616096  0.67332643  0.82837709  1
  Al0+  Al48  1  -0.00057332  0.00038180  0.00597480  1
  Al0+  Al49  1  -0.00414403  0.00128734  0.32527578  1
  Al0+  Al50  1  -0.00084841  0.00094449  0.66820268  1
  Al0+  Al51  1  0.00202741  0.50107705  -0.00797874  1
  Al0+  Al52  1  -0.00067760  0.50194569  0.33309428  1
  Al0+  Al53  1  0.00153221  0.50147236  0.66408319  1
  Al0+  Al54  1  0.50075024  -0.00118433  -0.00210899  1
  Al0+  Al55  1  0.49881031  -0.00133437  0.33309554  1
  Al0+  Al56  1  0.50035290  -0.00210246  0.66489213  1
  Al0+  Al57  1  0.50212510  0.49969342  0.00239696  1
  Al0+  Al58  1  0.50084792  0.49931206  0.33440755  1
  Al0+  Al59  1  0.50333397  0.49841183  0.67045839  1
  Al0+  Al60  1  0.24969612  0.25171139  0.00089372  1
  Al0+  Al61  1  0.25054281  0.24986094  0.33454883  1
  Al0+  Al62  1  0.25004889  0.25354692  0.67016023  1
  Al0+  Al63  1  0.25076895  0.75064576  -0.00284523  1
  Al0+  Al64  1  0.24835840  0.75149271  0.33544844  1
  Al0+  Al65  1  0.25207596  0.74848467  0.66904298  1
  Al0+  Al66  1  0.74892698  0.24992098  -0.00689989  1
  Al0+  Al67  1  0.74709120  0.24829667  0.32694317  1
  Al0+  Al68  1  0.74964780  0.25135547  0.65798839  1
  Al0+  Al69  1  0.75105856  0.74877184  0.00556826  1
  Al0+  Al70  1  0.74762050  0.74769086  0.33121641  1
  Al0+  Al71  1  0.75207890  0.74932327  0.67050699  1
  Al0+  Al72  1  0.56834268  0.17710022  0.64946018  1
  Al0+  Al73  1  0.17730967  0.92927737  0.68065174  1
  Al0+  Al74  1  0.93181053  0.31886493  0.98558039  1
  Al0+  Al75  1  0.32046834  0.06972697  0.34668897  1
  Al0+  Al76  1  0.92914219  0.32144379  0.31844225  1
  Al0+  Al77  1  0.82082937  0.56991666  0.34790448  1
  Al0+  Al78  1  0.67868486  0.92945496  0.01581788  1
  Al0+  Al79  1  0.68067396  0.92820275  0.67918238  1
  Al0+  Al80  1  0.92536073  0.82250325  0.31726270  1
  Al0+  Al81  1  0.43147721  0.81787746  0.98672202  1
  Al0+  Al82  1  0.07426511  0.17834480  0.31869390  1
  Al0+  Al83  1  0.32314870  0.56971579  0.68206228  1
  Al0+  Al84  1  0.56839056  0.17714446  0.31788160  1
  Al0+  Al85  1  0.42743898  0.32304986  0.65231029  1
  Al0+  Al86  1  0.42878174  0.81933492  0.65192276  1
  Al0+  Al87  1  0.92902493  0.82152233  0.65582829  1
  Al0+  Al88  1  0.56903088  0.67766563  0.32158802  1
  Al0+  Al89  1  0.07043820  0.68155217  0.98423302  1
  Al0+  Al90  1  0.32158432  0.57198066  0.34679495  1
  Al0+  Al91  1  0.07199728  0.68190369  0.31991707  1
  Al0+  Al92  1  0.92927573  0.32206087  0.65097487  1
  Al0+  Al93  1  0.32209207  0.07277576  0.68267775  1
  Al0+  Al94  1  0.17859715  0.92820605  0.01585786  1
  Al0+  Al95  1  0.56795236  0.18009895  0.98493773  1
  Si0+  Si96  1  0.07219338  0.17806631  0.65270890  1
  Si0+  Si97  1  0.67954265  0.92871110  0.34847022  1
  Si0+  Si98  1  0.92580239  0.82356683  0.98362400  1
  Si0+  Si99  1  0.42607334  0.32572091  0.98488968  1
  Si0+  Si100  1  0.82065466  0.07483159  0.01715596  1
  Si0+  Si101  1  0.67804830  0.42522073  0.35126738  1
  Si0+  Si102  1  0.07288309  0.67932332  0.64919553  1
  Si0+  Si103  1  0.17576020  0.42980144  0.68489080  1
  Si0+  Si104  1  0.17773052  0.42824592  0.35007947  1
  Si0+  Si105  1  0.68164556  0.42788060  0.68229038  1
  Si0+  Si106  1  0.17461683  0.92897618  0.34894450  1
  Si0+  Si107  1  0.82132683  0.07474120  0.68123538  1
  Si0+  Si108  1  0.17773547  0.42966286  0.01477088  1
  Si0+  Si109  1  0.42784023  0.82123487  0.31733925  1
  Si0+  Si110  1  0.81982264  0.07254708  0.34702205  1
  Si0+  Si111  1  0.32124768  0.07276031  0.01620553  1
  Si0+  Si112  1  0.68000690  0.42794195  0.01515186  1
  Si0+  Si113  1  0.57516699  0.67538353  0.98383995  1
  Si0+  Si114  1  0.82277512  0.57047557  0.68326310  1
  Si0+  Si115  1  0.42820339  0.32326517  0.31692080  1
  Si0+  Si116  1  0.32110554  0.57028968  0.01496752  1
  Si0+  Si117  1  0.82275377  0.56882026  0.01486842  1
  Si0+  Si118  1  0.57396340  0.67687709  0.65264742  1
  Si0+  Si119  1  0.07461456  0.17564804  0.98294789  1
  O2-  O120  1  0.24904961  0.00790860  0.06102672  1
  O2-  O121  1  0.24043714  0.00051060  0.39246978  1
  O2-  O122  1  0.24996333  0.00038030  0.73207936  1
  O2-  O123  1  0.25336247  0.49604496  0.05686466  1
  O2-  O124  1  0.24774186  0.49622809  0.39349372  1
  O2-  O125  1  0.24857041  0.49458519  0.72930066  1
  O2-  O126  1  0.75616588  0.00191868  0.06210509  1
  O2-  O127  1  0.75263318  -0.00195502  0.38984996  1
  O2-  O128  1  0.75419948  0.00477880  0.72588329  1
  O2-  O129  1  0.74898474  0.50059023  0.05750967  1
  O2-  O130  1  0.74832469  0.49280264  0.39537677  1
  O2-  O131  1  0.75427000  0.49718630  0.72597975  1
  O2-  O132  1  0.00217082  0.25060161  0.26854216  1
  O2-  O133  1  0.00405907  0.24699130  0.60745262  1
  O2-  O134  1  0.00434233  0.24259706  0.93798747  1
  O2-  O135  1  0.00139284  0.75426775  0.26798746  1
  O2-  O136  1  0.00682744  0.75136898  0.60766850  1
  O2-  O137  1  -0.00176706  0.75932045  0.93866338  1
  O2-  O138  1  0.49260276  0.25116132  0.27148907  1
  O2-  O139  1  0.49129913  0.24493559  0.60061182  1
  O2-  O140  1  0.49100990  0.25371853  0.94134072  1
  O2-  O141  1  0.49238099  0.74858451  0.27315661  1
  O2-  O142  1  0.50362682  0.74316784  0.60805432  1
  O2-  O143  1  0.50801613  0.74442858  0.93941140  1
  O2-  O144  1  0.07565509  0.17915093  0.08822065  1
  O2-  O145  1  0.07254346  0.17948391  0.43254968  1
  O2-  O146  1  0.06884246  0.17894759  0.75854524  1
  O2-  O147  1  0.06940977  0.67857640  0.09693780  1
  O2-  O148  1  0.07245375  0.68359864  0.43332723  1
  O2-  O149  1  0.07005094  0.67693742  0.75525187  1
  O2-  O150  1  0.56756027  0.18122718  0.09825828  1
  O2-  O151  1  0.56928988  0.17604019  0.43019430  1
  O2-  O152  1  0.57113352  0.17983902  0.76318224  1
  O2-  O153  1  0.57317631  0.67275406  0.08937888  1
  O2-  O154  1  0.57047652  0.68102853  0.43458977  1
  O2-  O155  1  0.57488774  0.67678322  0.75862402  1
  O2-  O156  1  0.17913867  0.42904351  0.24378201  1
  O2-  O157  1  0.17090557  0.43327411  0.57975070  1
  O2-  O158  1  0.17652457  0.43079839  0.90992251  1
  O2-  O159  1  0.17913608  0.92696797  0.24313412  1
  O2-  O160  1  0.17553767  0.93164861  0.56701670  1
  O2-  O161  1  0.18073921  0.92778731  0.90310545  1
  O2-  O162  1  0.67782469  0.42672725  0.24501755  1
  O2-  O163  1  0.68097497  0.42937271  0.57758590  1
  O2-  O164  1  0.68032974  0.42925744  0.90992871  1
  O2-  O165  1  0.67819658  0.93023549  0.24309458  1
  O2-  O166  1  0.68311206  0.92557951  0.56589810  1
  O2-  O167  1  0.67889815  0.92995435  0.90283907  1
  O2-  O168  1  0.42768274  0.33014182  0.09040280  1
  O2-  O169  1  0.43163721  0.32670952  0.42188352  1
  O2-  O170  1  0.43515576  0.32498724  0.76617035  1
  O2-  O171  1  0.43161772  0.81486551  0.10017200  1
  O2-  O172  1  0.42994662  0.82220068  0.42275248  1
  O2-  O173  1  0.42971953  0.81828068  0.76526105  1
  O2-  O174  1  0.93273169  0.32070018  0.09810096  1
  O2-  O175  1  0.93080527  0.31955305  0.43190672  1
  O2-  O176  1  0.92960558  0.32145591  0.76454636  1
  O2-  O177  1  0.92345414  0.81859018  0.08880357  1
  O2-  O178  1  0.92511680  0.82112005  0.43114653  1
  O2-  O179  1  0.92591414  0.81657476  0.76891900  1
  O2-  O180  1  0.32278421  0.06478106  0.23317005  1
  O2-  O181  1  0.31985933  0.06984126  0.56889839  1
  O2-  O182  1  0.32080219  0.07292260  0.91100269  1
  O2-  O183  1  0.32135830  0.56991348  0.23295753  1
  O2-  O184  1  0.32187675  0.57013269  0.56905881  1
  O2-  O185  1  0.32163206  0.56908024  0.91001977  1
  O2-  O186  1  0.81657409  0.07467256  0.24197504  1
  O2-  O187  1  0.82080817  0.07467508  0.57545454  1
  O2-  O188  1  0.81919302  0.07665801  0.91145160  1
  O2-  O189  1  0.81911241  0.56827793  0.23418937  1
  O2-  O190  1  0.82141903  0.57166098  0.57849273  1
  O2-  O191  1  0.82132130  0.56786836  0.90930888  1
  O2-  O192  1  0.04451560  0.08189670  0.26304842  1
  O2-  O193  1  0.04637053  0.08544488  0.60557127  1
  O2-  O194  1  0.04998937  0.08061822  0.93966281  1
  O2-  O195  1  0.04335445  0.58343215  0.26730431  1
  O2-  O196  1  0.04352270  0.58760479  0.60238538  1
  O2-  O197  1  0.03751567  0.58714542  0.92701365  1
  O2-  O198  1  0.53632322  0.08073947  0.26348308  1
  O2-  O199  1  0.54482346  0.07797313  0.59689514  1
  O2-  O200  1  0.53887297  0.08334962  0.93189782  1
  O2-  O201  1  0.54325192  0.57998978  0.26643076  1
  O2-  O202  1  0.55210383  0.58219096  0.60834065  1
  O2-  O203  1  0.54986743  0.58118378  0.93785473  1
  O2-  O204  1  0.17278330  0.20586220  0.26463813  1
  O2-  O205  1  0.16601956  0.20411413  0.60826043  1
  O2-  O206  1  0.16789511  0.20308148  0.93690707  1
  O2-  O207  1  0.17047774  0.70915481  0.26487042  1
  O2-  O208  1  0.16802137  0.70020476  0.60630420  1
  O2-  O209  1  0.16737145  0.71014064  0.93048823  1
  O2-  O210  1  0.66319100  0.20858225  0.26112172  1
  O2-  O211  1  0.66482004  0.21109239  0.59566387  1
  O2-  O212  1  0.66278294  0.21330825  0.92946194  1
  O2-  O213  1  0.66321288  0.70983194  0.26438065  1
  O2-  O214  1  0.66709482  0.70458506  0.60711228  1
  O2-  O215  1  0.67045283  0.69838563  0.94033853  1
  O2-  O216  1  0.08750894  0.46320770  0.06185654  1
  O2-  O217  1  0.08471141  0.45496256  0.39604247  1
  O2-  O218  1  0.08412362  0.46155668  0.73385374  1
  O2-  O219  1  0.07992524  0.95232336  0.06971616  1
  O2-  O220  1  0.07793440  0.95158303  0.38969614  1
  O2-  O221  1  0.07885147  0.95735530  0.73601979  1
  O2-  O222  1  0.58756838  0.45292894  0.06378663  1
  O2-  O223  1  0.58565071  0.45317725  0.39781374  1
  O2-  O224  1  0.59232138  0.45691464  0.73415262  1
  O2-  O225  1  0.58256983  0.96213255  0.07001314  1
  O2-  O226  1  0.58815787  0.95842231  0.39523203  1
  O2-  O227  1  0.58434326  0.95883689  0.73291178  1
  O2-  O228  1  0.19994451  0.33623127  0.06264532  1
  O2-  O229  1  0.20104212  0.33433468  0.39611854  1
  O2-  O230  1  0.19469514  0.33525167  0.73186424  1
  O2-  O231  1  0.21544025  0.83254030  0.06892183  1
  O2-  O232  1  0.20191455  0.83695519  0.39683597  1
  O2-  O233  1  0.20586841  0.83025158  0.73229081  1
  O2-  O234  1  0.70975315  0.33636230  0.06157757  1
  O2-  O235  1  0.70210048  0.33042939  0.39507053  1
  O2-  O236  1  0.71036712  0.33574396  0.72910764  1
  O2-  O237  1  0.70682648  0.83112703  0.06982382  1
  O2-  O238  1  0.70536815  0.83624321  0.39460417  1
  O2-  O239  1  0.71275289  0.83286539  0.73652622  1
  O2-  O240  1  0.45788501  0.41470975  0.26799018  1
  O2-  O241  1  0.46486371  0.41916587  0.59944308  1
  O2-  O242  1  0.45601388  0.41811626  0.93783396  1
  O2-  O243  1  0.45973154  0.91140075  0.26858227  1
  O2-  O244  1  0.46083564  0.91413926  0.59696507  1
  O2-  O245  1  0.46157393  0.91420747  0.93303734  1
  O2-  O246  1  0.95668274  0.42014875  0.26640914  1
  O2-  O247  1  0.96093174  0.41913381  0.59894958  1
  O2-  O248  1  0.96439172  0.41400277  0.92939464  1
  O2-  O249  1  0.94380735  0.92239769  0.26396832  1
  O2-  O250  1  0.95291883  0.92029117  0.60274331  1
  O2-  O251  1  0.94495421  0.92052980  0.94271627  1
  O2-  O252  1  0.33283557  0.30311300  0.27292159  1
  O2-  O253  1  0.32395523  0.30968039  0.60535931  1
  O2-  O254  1  0.33039142  0.30610173  0.94062996  1
  O2-  O255  1  0.33303310  0.79915419  0.27306626  1
  O2-  O256  1  0.33274792  0.78740168  0.59799288  1
  O2-  O257  1  0.33690117  0.78479046  0.93123789  1
  O2-  O258  1  0.83107134  0.29215429  0.26518252  1
  O2-  O259  1  0.83343973  0.29464378  0.59549975  1
  O2-  O260  1  0.83483608  0.29040237  0.93071496  1
  O2-  O261  1  0.82925464  0.78788810  0.26374953  1
  O2-  O262  1  0.83431140  0.78522917  0.60125833  1
  O2-  O263  1  0.83321127  0.79221366  0.93768727  1
  O2-  O264  1  0.41344729  0.04126866  0.06171975  1
  O2-  O265  1  0.41543070  0.03352605  0.40105043  1
  O2-  O266  1  0.42055051  0.04210218  0.73344565  1
  O2-  O267  1  0.41482786  0.54557323  0.06191334  1
  O2-  O268  1  0.41852406  0.54133804  0.40041200  1
  O2-  O269  1  0.42000449  0.53924858  0.73742866  1
  O2-  O270  1  0.91606634  0.05623083  0.06252017  1
  O2-  O271  1  0.91379818  0.05012976  0.39288547  1
  O2-  O272  1  0.91489794  0.05265171  0.72873619  1
  O2-  O273  1  0.91437329  0.53694824  0.05962041  1
  O2-  O274  1  0.91780524  0.54238706  0.40302270  1
  O2-  O275  1  0.91543425  0.54372754  0.72999929  1
  O2-  O276  1  0.30162147  0.16898472  0.06124383  1
  O2-  O277  1  0.29772697  0.16929483  0.39874878  1
  O2-  O278  1  0.29774678  0.17322397  0.73459579  1
  O2-  O279  1  0.29034492  0.66084131  0.06171902  1
  O2-  O280  1  0.29096549  0.66873122  0.40082243  1
  O2-  O281  1  0.29063680  0.66482114  0.73784814  1
  O2-  O282  1  0.78867287  0.16703317  0.06320273  1
  O2-  O283  1  0.78812304  0.16311376  0.39499592  1
  O2-  O284  1  0.79374312  0.16879748  0.72614207  1
  O2-  O285  1  0.79859873  0.66086251  0.06316289  1
  O2-  O286  1  0.78505692  0.66540449  0.40191662  1
  O2-  O287  1  0.79212158  0.65963435  0.73437239  1
