# generated using pymatgen
data_Ca2Al2SiO7
_symmetry_space_group_name_H-M   'P 1'
_cell_length_a   15.46271849
_cell_length_b   15.46241420
_cell_length_c   15.28636770
_cell_angle_alpha   89.99128712
_cell_angle_beta   89.98485014
_cell_angle_gamma   90.01227395
_symmetry_Int_Tables_number   1
_chemical_formula_structural   Ca2Al2SiO7
_chemical_formula_sum   'Ca48 Al48 Si24 O168'
_cell_volume   3654.83204375
_cell_formula_units_Z   24
loop_
 _symmetry_equiv_pos_site_id
 _symmetry_equiv_pos_as_xyz
  1  'x, y, z'
loop_
 _atom_type_symbol
 _atom_type_oxidation_number
  Ca2+  2.0
  Al0+  0.0
  Si0+  0.0
  O2-  -2.0
loop_
 _atom_site_type_symbol
 _atom_site_label
 _atom_site_symmetry_multiplicity
 _atom_site_fract_x
 _atom_site_fract_y
 _atom_site_fract_z
 _atom_site_occupancy
  Ca2+  Ca0  1  0.16754435  0.08183840  0.15936062  1
  Ca2+  Ca1  1  0.17156785  0.08129192  0.50859292  1
  Ca2+  Ca2  1  0.17356139  0.08139887  0.84491286  1
  Ca2+  Ca3  1  0.16508450  0.58117934  0.16812354  1
  Ca2+  Ca4  1  0.17438435  0.58276223  0.50579298  1
  Ca2+  Ca5  1  0.16502058  0.57137460  0.83898763  1
  Ca2+  Ca6  1  0.68073009  0.08909698  0.16775820  1
  Ca2+  Ca7  1  0.67776196  0.08177410  0.50443888  1
  Ca2+  Ca8  1  0.67876243  0.08667644  0.83797461  1
  Ca2+  Ca9  1  0.66458399  0.57464792  0.16350196  1
  Ca2+  Ca10  1  0.67091744  0.57559211  0.50589303  1
  Ca2+  Ca11  1  0.67871386  0.58179011  0.84241274  1
  Ca2+  Ca12  1  0.07636115  0.32791439  0.15073741  1
  Ca2+  Ca13  1  0.07810540  0.33940997  0.50429665  1
  Ca2+  Ca14  1  0.07753721  0.33478947  0.83203728  1
  Ca2+  Ca15  1  0.08895607  0.82115797  0.15840108  1
  Ca2+  Ca16  1  0.07733642  0.82786752  0.49665142  1
  Ca2+  Ca17  1  0.08310941  0.82873721  0.83408130  1
  Ca2+  Ca18  1  0.57917489  0.34142964  0.15792607  1
  Ca2+  Ca19  1  0.57894617  0.33748078  0.49867978  1
  Ca2+  Ca20  1  0.57073147  0.34235178  0.83326090  1
  Ca2+  Ca21  1  0.57525381  0.82525664  0.15339894  1
  Ca2+  Ca22  1  0.58099674  0.83026360  0.49784017  1
  Ca2+  Ca23  1  0.58189472  0.82980505  0.83448592  1
  Ca2+  Ca24  1  0.32695459  0.41855351  0.16632056  1
  Ca2+  Ca25  1  0.32729897  0.42707612  0.51181097  1
  Ca2+  Ca26  1  0.32317558  0.41081006  0.83737631  1
  Ca2+  Ca27  1  0.33065917  0.91335962  0.16099336  1
  Ca2+  Ca28  1  0.32927597  0.92313100  0.50868031  1
  Ca2+  Ca29  1  0.33146864  0.92715060  0.84418750  1
  Ca2+  Ca30  1  0.82573529  0.41682452  0.16301514  1
  Ca2+  Ca31  1  0.82903407  0.41981129  0.50766092  1
  Ca2+  Ca32  1  0.83528525  0.42247870  0.84305300  1
  Ca2+  Ca33  1  0.84164329  0.93064087  0.16616658  1
  Ca2+  Ca34  1  0.83903545  0.92524872  0.50777863  1
  Ca2+  Ca35  1  0.84340117  0.92692116  0.83704331  1
  Ca2+  Ca36  1  0.41958872  0.17351331  0.15327711  1
  Ca2+  Ca37  1  0.41231145  0.17345620  0.50219055  1
  Ca2+  Ca38  1  0.40696794  0.17587139  0.83015634  1
  Ca2+  Ca39  1  0.42030903  0.66794918  0.15482289  1
  Ca2+  Ca40  1  0.41130406  0.66199075  0.49533106  1
  Ca2+  Ca41  1  0.42094607  0.66533541  0.83336354  1
  Ca2+  Ca42  1  0.91899723  0.16999392  0.15528319  1
  Ca2+  Ca43  1  0.91042278  0.16969706  0.50002151  1
  Ca2+  Ca44  1  0.91481177  0.17608720  0.82963683  1
  Ca2+  Ca45  1  0.92674456  0.66295291  0.15687353  1
  Ca2+  Ca46  1  0.92006312  0.66818154  0.49890829  1
  Ca2+  Ca47  1  0.91992981  0.66348037  0.82711507  1
  Al0+  Al48  1  0.00403599  -0.00136638  0.00618171  1
  Al0+  Al49  1  0.00108411  0.00122495  0.33814179  1
  Al0+  Al50  1  -0.00015940  -0.00095287  0.66541052  1
  Al0+  Al51  1  0.00066439  0.49977332  0.00140435  1
  Al0+  Al52  1  -0.00143643  0.49904549  0.32907967  1
  Al0+  Al53  1  0.00028888  0.49872999  0.66598931  1
  Al0+  Al54  1  0.50140972  0.00113494  0.00002762  1
  Al0+  Al55  1  0.50111775  0.00116736  0.33279229  1
  Al0+  Al56  1  0.50068563  -0.00099041  0.66761271  1
  Al0+  Al57  1  0.50069241  0.50087903  -0.00665038  1
  Al0+  Al58  1  0.49916213  0.50047435  0.34059651  1
  Al0+  Al59  1  0.49976638  0.50029817  0.66346998  1
  Al0+  Al60  1  0.24980480  0.24960023  0.00277241  1
  Al0+  Al61  1  0.24903628  0.25023285  0.33326588  1
  Al0+  Al62  1  0.24998369  0.24983354  0.66590254  1
  Al0+  Al63  1  0.24976360  0.75127968  -0.00729265  1
  Al0+  Al64  1  0.24879331  0.75111432  0.33433523  1
  Al0+  Al65  1  0.25176735  0.74951283  0.66874578  1
  Al0+  Al66  1  0.74894054  0.25151376  0.00419677  1
  Al0+  Al67  1  0.74844529  0.24990298  0.34197765  1
  Al0+  Al68  1  0.74883929  0.24813240  0.66524307  1
  Al0+  Al69  1  0.75135738  0.75123658  0.00170057  1
  Al0+  Al70  1  0.74898844  0.75171983  0.33068163  1
  Al0+  Al71  1  0.74960455  0.74956642  0.66300307  1
  Al0+  Al72  1  0.17916033  0.42966645  0.68190583  1
  Al0+  Al73  1  0.32295334  0.07228170  0.01649347  1
  Al0+  Al74  1  0.17887756  0.42872072  0.01466741  1
  Al0+  Al75  1  0.06981366  0.68016508  0.31986477  1
  Al0+  Al76  1  0.82131107  0.07075774  0.01257267  1
  Al0+  Al77  1  0.82093159  0.07020623  0.68186780  1
  Al0+  Al78  1  0.42890252  0.82237545  0.98317282  1
  Al0+  Al79  1  0.92729559  0.31986954  0.98601936  1
  Al0+  Al80  1  0.42889492  0.32055563  0.98767455  1
  Al0+  Al81  1  0.18037738  0.92677745  0.01589312  1
  Al0+  Al82  1  0.67736590  0.43066061  0.01262731  1
  Al0+  Al83  1  0.92923867  0.82092450  0.65334269  1
  Al0+  Al84  1  0.07090408  0.17723502  0.98540878  1
  Al0+  Al85  1  0.82129334  0.06909311  0.34932015  1
  Al0+  Al86  1  0.42840267  0.32049573  0.65084199  1
  Al0+  Al87  1  0.07056953  0.67771201  0.98469173  1
  Al0+  Al88  1  0.32106529  0.06967168  0.67934597  1
  Al0+  Al89  1  0.57316384  0.67849201  0.98373280  1
  Al0+  Al90  1  0.67911633  0.43116361  0.34907789  1
  Al0+  Al91  1  0.92742865  0.32123653  0.65175462  1
  Al0+  Al92  1  0.31791247  0.57041373  0.34422076  1
  Al0+  Al93  1  0.82331228  0.57355883  0.01550637  1
  Al0+  Al94  1  0.32359572  0.57304341  0.68456781  1
  Al0+  Al95  1  0.81974142  0.57057027  0.67777429  1
  Si0+  Si96  1  0.07288145  0.67734690  0.64962246  1
  Si0+  Si97  1  0.92753635  0.82426434  0.31593182  1
  Si0+  Si98  1  0.57171545  0.17571807  0.64809288  1
  Si0+  Si99  1  0.57099054  0.67959112  0.64864359  1
  Si0+  Si100  1  0.42964868  0.32129529  0.31911003  1
  Si0+  Si101  1  0.18150367  0.92964956  0.34995375  1
  Si0+  Si102  1  0.32106416  0.57163025  0.01373825  1
  Si0+  Si103  1  0.17737345  0.92735407  0.68262212  1
  Si0+  Si104  1  0.57366835  0.17777396  0.98406088  1
  Si0+  Si105  1  0.07220877  0.17797724  0.31873361  1
  Si0+  Si106  1  0.67768297  0.92773635  0.01709828  1
  Si0+  Si107  1  0.92709937  0.31879978  0.31907905  1
  Si0+  Si108  1  0.07087722  0.17797591  0.64933854  1
  Si0+  Si109  1  0.92888334  0.82278667  0.98567126  1
  Si0+  Si110  1  0.67801965  0.42681398  0.68315460  1
  Si0+  Si111  1  0.17563337  0.42572011  0.34966907  1
  Si0+  Si112  1  0.42933760  0.82229025  0.31967883  1
  Si0+  Si113  1  0.57048667  0.67803286  0.31910480  1
  Si0+  Si114  1  0.67599053  0.92726635  0.34999672  1
  Si0+  Si115  1  0.67796890  0.92658301  0.68315566  1
  Si0+  Si116  1  0.82361050  0.57347777  0.34943405  1
  Si0+  Si117  1  0.42942253  0.82175960  0.65013509  1
  Si0+  Si118  1  0.32318940  0.07266718  0.34868593  1
  Si0+  Si119  1  0.57091697  0.17953921  0.31886451  1
  O2-  O120  1  0.25305976  -0.00173688  0.06694324  1
  O2-  O121  1  0.25160608  0.00227475  0.39130176  1
  O2-  O122  1  0.24673764  -0.00460930  0.72514345  1
  O2-  O123  1  0.25279684  0.50461676  0.06105339  1
  O2-  O124  1  0.24296924  0.49651516  0.39201700  1
  O2-  O125  1  0.25169341  0.50080286  0.73247392  1
  O2-  O126  1  0.74688249  -0.00390448  0.06125796  1
  O2-  O127  1  0.74862138  -0.00881060  0.39470933  1
  O2-  O128  1  0.74715977  -0.00577846  0.72721330  1
  O2-  O129  1  0.74941955  0.50217401  0.06386886  1
  O2-  O130  1  0.75419770  0.50611053  0.39458099  1
  O2-  O131  1  0.74949361  0.49268579  0.72538264  1
  O2-  O132  1  0.00160708  0.25033814  0.27851683  1
  O2-  O133  1  0.00138226  0.24555851  0.60359925  1
  O2-  O134  1  -0.00238993  0.24687853  0.93495182  1
  O2-  O135  1  -0.00835575  0.75153890  0.27238081  1
  O2-  O136  1  0.00386494  0.74639702  0.60554204  1
  O2-  O137  1  -0.00827960  0.74950888  0.94072217  1
  O2-  O138  1  0.49919124  0.24926798  0.27630156  1
  O2-  O139  1  0.50348189  0.24542872  0.60363066  1
  O2-  O140  1  0.50242253  0.24408190  0.94115043  1
  O2-  O141  1  0.50030247  0.75082139  0.27853397  1
  O2-  O142  1  0.49647173  0.74778083  0.60584343  1
  O2-  O143  1  0.50166029  0.75107618  0.93336401  1
  O2-  O144  1  0.06824827  0.17937601  0.10018865  1
  O2-  O145  1  0.07480411  0.17643636  0.42384961  1
  O2-  O146  1  0.07021237  0.17628857  0.75399852  1
  O2-  O147  1  0.07156691  0.67974109  0.09845077  1
  O2-  O148  1  0.07044787  0.68381452  0.43314302  1
  O2-  O149  1  0.07235824  0.67798576  0.75468637  1
  O2-  O150  1  0.57374791  0.17861846  0.09043974  1
  O2-  O151  1  0.56893071  0.17786251  0.42385310  1
  O2-  O152  1  0.57298352  0.17341942  0.75296789  1
  O2-  O153  1  0.56874402  0.67855662  0.09843066  1
  O2-  O154  1  0.57061195  0.67972459  0.42448695  1
  O2-  O155  1  0.57365757  0.68203634  0.75278433  1
  O2-  O156  1  0.17763751  0.42257841  0.24451250  1
  O2-  O157  1  0.17952997  0.43244017  0.56715593  1
  O2-  O158  1  0.17916831  0.42826435  0.90220281  1
  O2-  O159  1  0.18262071  0.92758450  0.24574412  1
  O2-  O160  1  0.17955200  0.92799737  0.57579358  1
  O2-  O161  1  0.18018072  0.92794320  0.90239163  1
  O2-  O162  1  0.67660813  0.43175124  0.23673984  1
  O2-  O163  1  0.67824369  0.42991666  0.57665141  1
  O2-  O164  1  0.67676773  0.43144465  0.89942540  1
  O2-  O165  1  0.67162485  0.92920986  0.24522222  1
  O2-  O166  1  0.67661403  0.92795529  0.57691763  1
  O2-  O167  1  0.67767575  0.92853751  0.91154235  1
  O2-  O168  1  0.43086405  0.32116142  0.10183698  1
  O2-  O169  1  0.42965292  0.31907635  0.42415941  1
  O2-  O170  1  0.42909234  0.31927940  0.76332376  1
  O2-  O171  1  0.43054940  0.81913474  0.09812052  1
  O2-  O172  1  0.43039426  0.82376956  0.42517589  1
  O2-  O173  1  0.43246681  0.82499951  0.75399755  1
  O2-  O174  1  0.92712589  0.31706586  0.10067522  1
  O2-  O175  1  0.92781459  0.31869449  0.42445004  1
  O2-  O176  1  0.92554597  0.32075952  0.76371558  1
  O2-  O177  1  0.93137542  0.82372165  0.09171248  1
  O2-  O178  1  0.92949702  0.82508121  0.42173855  1
  O2-  O179  1  0.93041953  0.82148321  0.76586047  1
  O2-  O180  1  0.32506043  0.07348381  0.24459108  1
  O2-  O181  1  0.31924679  0.06706479  0.56482911  1
  O2-  O182  1  0.32088817  0.07182479  0.90302367  1
  O2-  O183  1  0.32022263  0.56951391  0.23155473  1
  O2-  O184  1  0.32042134  0.57307717  0.56990663  1
  O2-  O185  1  0.32014760  0.56930545  0.90860996  1
  O2-  O186  1  0.82067579  0.06975884  0.23647883  1
  O2-  O187  1  0.81888474  0.06843982  0.56829723  1
  O2-  O188  1  0.82011193  0.06976887  0.89971963  1
  O2-  O189  1  0.82392699  0.57254676  0.24454243  1
  O2-  O190  1  0.81625235  0.57089359  0.56382634  1
  O2-  O191  1  0.82253725  0.57302954  0.90174754  1
  O2-  O192  1  0.04362230  0.08575896  0.27278046  1
  O2-  O193  1  0.04601050  0.08416414  0.60160696  1
  O2-  O194  1  0.04766713  0.07637123  0.93642801  1
  O2-  O195  1  0.04389536  0.58159849  0.26677346  1
  O2-  O196  1  0.04680156  0.58487921  0.60183094  1
  O2-  O197  1  0.04142599  0.58119187  0.93163735  1
  O2-  O198  1  0.54511156  0.08728165  0.27080039  1
  O2-  O199  1  0.54503864  0.08220177  0.60028276  1
  O2-  O200  1  0.55350774  0.08321036  0.93859634  1
  O2-  O201  1  0.53965870  0.58651480  0.27367860  1
  O2-  O202  1  0.54563792  0.58736395  0.60012020  1
  O2-  O203  1  0.54423807  0.58260004  0.92763270  1
  O2-  O204  1  0.16478922  0.20364735  0.27111473  1
  O2-  O205  1  0.16378421  0.20455427  0.60107680  1
  O2-  O206  1  0.16930617  0.20625780  0.93518446  1
  O2-  O207  1  0.16560104  0.71525015  0.26648762  1
  O2-  O208  1  0.16705869  0.70494417  0.60389911  1
  O2-  O209  1  0.16463054  0.71085247  0.92867349  1
  O2-  O210  1  0.66349820  0.20835170  0.27388474  1
  O2-  O211  1  0.66437879  0.20223851  0.59963175  1
  O2-  O212  1  0.66591287  0.20570621  0.93763465  1
  O2-  O213  1  0.66290068  0.70353359  0.27137223  1
  O2-  O214  1  0.66008186  0.71118143  0.59704037  1
  O2-  O215  1  0.67215600  0.70844854  0.93260022  1
  O2-  O216  1  0.08355990  0.45945098  0.07046723  1
  O2-  O217  1  0.08055408  0.45007072  0.39341153  1
  O2-  O218  1  0.08062184  0.45700456  0.73344682  1
  O2-  O219  1  0.08425816  0.95461144  0.07427976  1
  O2-  O220  1  0.08986710  0.95751712  0.39820965  1
  O2-  O221  1  0.08415413  0.95245758  0.72725915  1
  O2-  O222  1  0.57927654  0.46216381  0.06674868  1
  O2-  O223  1  0.58404439  0.46308492  0.40626827  1
  O2-  O224  1  0.58476446  0.45576555  0.72591172  1
  O2-  O225  1  0.58470122  0.95318796  0.06440974  1
  O2-  O226  1  0.58405770  0.95714908  0.39928119  1
  O2-  O227  1  0.58485134  0.95228783  0.72920379  1
  O2-  O228  1  0.21119640  0.33390956  0.07098009  1
  O2-  O229  1  0.20263733  0.33271691  0.39719867  1
  O2-  O230  1  0.20675034  0.33048823  0.73153324  1
  O2-  O231  1  0.21230240  0.82860329  0.06892689  1
  O2-  O232  1  0.21120070  0.83989442  0.40052476  1
  O2-  O233  1  0.20179719  0.83356406  0.72681243  1
  O2-  O234  1  0.70339801  0.33290353  0.06910514  1
  O2-  O235  1  0.70811468  0.33503156  0.40500582  1
  O2-  O236  1  0.69737444  0.33113226  0.72493205  1
  O2-  O237  1  0.70140485  0.83455353  0.06482480  1
  O2-  O238  1  0.69706220  0.83169058  0.39517143  1
  O2-  O239  1  0.70223538  0.83263675  0.72703745  1
  O2-  O240  1  0.45961970  0.41344571  0.27444346  1
  O2-  O241  1  0.46021053  0.41715893  0.59542272  1
  O2-  O242  1  0.45964142  0.41511936  0.93096307  1
  O2-  O243  1  0.45748980  0.91401439  0.27209836  1
  O2-  O244  1  0.46069498  0.91201796  0.59946424  1
  O2-  O245  1  0.45842330  0.92152819  0.93225728  1
  O2-  O246  1  0.94986363  0.41175546  0.27196583  1
  O2-  O247  1  0.95984114  0.41702800  0.59505108  1
  O2-  O248  1  0.95747242  0.41787206  0.93553181  1
  O2-  O249  1  0.95867729  0.91737989  0.27186349  1
  O2-  O250  1  0.96195777  0.91639553  0.59593052  1
  O2-  O251  1  0.96113459  0.91408259  0.93939225  1
  O2-  O252  1  0.33647161  0.29486771  0.27334991  1
  O2-  O253  1  0.33265694  0.28794612  0.59461971  1
  O2-  O254  1  0.33317057  0.28839468  0.93455069  1
  O2-  O255  1  0.33722686  0.79533462  0.27390655  1
  O2-  O256  1  0.33593604  0.79747491  0.60266556  1
  O2-  O257  1  0.33190194  0.79617848  0.92858847  1
  O2-  O258  1  0.83517398  0.28713771  0.27477738  1
  O2-  O259  1  0.83060655  0.28937680  0.59673448  1
  O2-  O260  1  0.82787234  0.29348703  0.93487206  1
  O2-  O261  1  0.83100665  0.80648829  0.27228608  1
  O2-  O262  1  0.83248641  0.79197689  0.59677399  1
  O2-  O263  1  0.83279977  0.80665327  0.94213929  1
  O2-  O264  1  0.42300968  0.04654365  0.06840367  1
  O2-  O265  1  0.41486347  0.04402988  0.39655739  1
  O2-  O266  1  0.41796667  0.03967918  0.73140360  1
  O2-  O267  1  0.41516361  0.54570979  0.05838627  1
  O2-  O268  1  0.41309888  0.54065158  0.40190854  1
  O2-  O269  1  0.42409905  0.54683859  0.73196822  1
  O2-  O270  1  0.91649515  0.03878273  0.06868557  1
  O2-  O271  1  0.91843878  0.04095747  0.40439093  1
  O2-  O272  1  0.91821071  0.03943622  0.73273158  1
  O2-  O273  1  0.91957668  0.54196444  0.07008858  1
  O2-  O274  1  0.91683640  0.54596011  0.39579425  1
  O2-  O275  1  0.91792477  0.54500053  0.72846762  1
  O2-  O276  1  0.29173248  0.16834555  0.07244795  1
  O2-  O277  1  0.29411469  0.16456025  0.39624097  1
  O2-  O278  1  0.29154854  0.16637981  0.73057946  1
  O2-  O279  1  0.29686340  0.66634728  0.05728078  1
  O2-  O280  1  0.28894951  0.66772245  0.39980203  1
  O2-  O281  1  0.30010475  0.67340652  0.73456315  1
  O2-  O282  1  0.78841784  0.16544933  0.06928590  1
  O2-  O283  1  0.78586960  0.16317275  0.40513600  1
  O2-  O284  1  0.78750874  0.16636817  0.73390277  1
  O2-  O285  1  0.79772689  0.67285314  0.06895313  1
  O2-  O286  1  0.79947094  0.66943137  0.39245596  1
  O2-  O287  1  0.78669198  0.66671817  0.73012130  1
