# generated using pymatgen
data_Ca2Al2SiO7
_symmetry_space_group_name_H-M   'P 1'
_cell_length_a   15.45961070
_cell_length_b   15.45757742
_cell_length_c   15.28375766
_cell_angle_alpha   89.98934954
_cell_angle_beta   89.99174761
_cell_angle_gamma   89.99678038
_symmetry_Int_Tables_number   1
_chemical_formula_structural   Ca2Al2SiO7
_chemical_formula_sum   'Ca48 Al48 Si24 O168'
_cell_volume   3652.33086905
_cell_formula_units_Z   24
loop_
 _symmetry_equiv_pos_site_id
 _symmetry_equiv_pos_as_xyz
  1  'x, y, z'
loop_
 _atom_type_symbol
 _atom_type_oxidation_number
  Ca2+  2.0
  Al0+  0.0
  Si0+  0.0
  O2-  -2.0
loop_
 _atom_site_type_symbol
 _atom_site_label
 _atom_site_symmetry_multiplicity
 _atom_site_fract_x
 _atom_site_fract_y
 _atom_site_fract_z
 _atom_site_occupancy
  Ca2+  Ca0  1  0.17983744  0.08899185  0.17169390  1
  Ca2+  Ca1  1  0.16792818  0.08371731  0.50905099  1
  Ca2+  Ca2  1  0.16557641  0.08187496  0.83322883  1
  Ca2+  Ca3  1  0.16905512  0.58623374  0.17075383  1
  Ca2+  Ca4  1  0.16311159  0.57913206  0.50627542  1
  Ca2+  Ca5  1  0.17000909  0.57334852  0.83730217  1
  Ca2+  Ca6  1  0.67384061  0.08119766  0.17296518  1
  Ca2+  Ca7  1  0.67189493  0.07986935  0.50043235  1
  Ca2+  Ca8  1  0.66863553  0.08945690  0.83913709  1
  Ca2+  Ca9  1  0.67846209  0.58324861  0.17465031  1
  Ca2+  Ca10  1  0.67470480  0.58280580  0.50860509  1
  Ca2+  Ca11  1  0.67420213  0.57829527  0.83145620  1
  Ca2+  Ca12  1  0.06952271  0.33230906  0.16425551  1
  Ca2+  Ca13  1  0.07385136  0.33656160  0.49947305  1
  Ca2+  Ca14  1  0.07499416  0.32934841  0.82456312  1
  Ca2+  Ca15  1  0.07896024  0.82991274  0.16945592  1
  Ca2+  Ca16  1  0.07357105  0.83056285  0.49612498  1
  Ca2+  Ca17  1  0.07734034  0.83309909  0.82302483  1
  Ca2+  Ca18  1  0.58297082  0.32414408  0.15979086  1
  Ca2+  Ca19  1  0.58408468  0.33355711  0.50393110  1
  Ca2+  Ca20  1  0.58128158  0.32371610  0.82234425  1
  Ca2+  Ca21  1  0.59356164  0.83007485  0.17082018  1
  Ca2+  Ca22  1  0.59093689  0.82192768  0.49385147  1
  Ca2+  Ca23  1  0.58077481  0.82547785  0.82516196  1
  Ca2+  Ca24  1  0.33212537  0.42186368  0.16881531  1
  Ca2+  Ca25  1  0.32653681  0.41451904  0.51070097  1
  Ca2+  Ca26  1  0.33043372  0.41359009  0.83207652  1
  Ca2+  Ca27  1  0.33428334  0.92802403  0.17198277  1
  Ca2+  Ca28  1  0.32554576  0.92204464  0.50446692  1
  Ca2+  Ca29  1  0.32446824  0.92081756  0.83742705  1
  Ca2+  Ca30  1  0.84023461  0.42279647  0.17132777  1
  Ca2+  Ca31  1  0.83641456  0.42690298  0.50830110  1
  Ca2+  Ca32  1  0.83749644  0.42287076  0.83593075  1
  Ca2+  Ca33  1  0.83118674  0.92920740  0.17731016  1
  Ca2+  Ca34  1  0.83512511  0.91368828  0.50201579  1
  Ca2+  Ca35  1  0.83411330  0.92479959  0.83657182  1
  Ca2+  Ca36  1  0.42120735  0.15981573  0.15960139  1
  Ca2+  Ca37  1  0.41817875  0.16960889  0.49987396  1
  Ca2+  Ca38  1  0.42683922  0.16629815  0.82621064  1
  Ca2+  Ca39  1  0.42293591  0.66632126  0.16186767  1
  Ca2+  Ca40  1  0.43274193  0.66186933  0.49609922  1
  Ca2+  Ca41  1  0.42142408  0.66222242  0.82738073  1
  Ca2+  Ca42  1  0.90241764  0.17694520  0.16204377  1
  Ca2+  Ca43  1  0.91806609  0.17739357  0.49635177  1
  Ca2+  Ca44  1  0.91560380  0.17840814  0.82543660  1
  Ca2+  Ca45  1  0.91454829  0.66759392  0.16842149  1
  Ca2+  Ca46  1  0.91346361  0.67387053  0.49135854  1
  Ca2+  Ca47  1  0.90788592  0.67234627  0.82656540  1
  Al0+  Al48  1  -0.00123899  -0.00102247  0.00593167  1
  Al0+  Al49  1  0.00313359  0.00155736  0.33107041  1
  Al0+  Al50  1  0.00034721  -0.00041153  0.66424618  1
  Al0+  Al51  1  0.00008174  0.50056730  0.00009103  1
  Al0+  Al52  1  0.00093439  0.49923444  0.32894126  1
  Al0+  Al53  1  0.00269203  0.50184428  0.67474154  1
  Al0+  Al54  1  0.49800356  -0.00361949  -0.00181772  1
  Al0+  Al55  1  0.49980064  -0.00012047  0.34291552  1
  Al0+  Al56  1  0.50049972  -0.00069126  0.66256799  1
  Al0+  Al57  1  0.49907908  0.49893576  0.00329813  1
  Al0+  Al58  1  0.49973716  0.49973277  0.32684410  1
  Al0+  Al59  1  0.50223815  0.49929874  0.66277202  1
  Al0+  Al60  1  0.24800189  0.24954979  0.00479009  1
  Al0+  Al61  1  0.25029758  0.25223164  0.33627770  1
  Al0+  Al62  1  0.25163106  0.24996108  0.66687152  1
  Al0+  Al63  1  0.24961723  0.74840795  0.00334533  1
  Al0+  Al64  1  0.25250147  0.75091434  0.33028196  1
  Al0+  Al65  1  0.24979363  0.75261993  0.67145109  1
  Al0+  Al66  1  0.74809090  0.25067083  -0.00584652  1
  Al0+  Al67  1  0.74777643  0.24982104  0.33324330  1
  Al0+  Al68  1  0.74939648  0.25071317  0.66060115  1
  Al0+  Al69  1  0.75005701  0.74770455  0.00190772  1
  Al0+  Al70  1  0.75090787  0.75023100  0.32968968  1
  Al0+  Al71  1  0.74924754  0.75171192  0.66448871  1
  Al0+  Al72  1  0.56835617  0.17756417  0.98778205  1
  Al0+  Al73  1  0.07053781  0.17868870  0.65351499  1
  Al0+  Al74  1  0.17920645  0.42790626  0.68101647  1
  Al0+  Al75  1  0.68164406  0.92950566  0.34964551  1
  Al0+  Al76  1  0.67883503  0.42751553  0.68152923  1
  Al0+  Al77  1  0.92806501  0.31874723  0.31946188  1
  Al0+  Al78  1  0.57332074  0.17582452  0.64780222  1
  Al0+  Al79  1  0.42962393  0.32045882  0.65208510  1
  Al0+  Al80  1  0.32122381  0.57022356  0.01420678  1
  Al0+  Al81  1  0.56947036  0.68023218  0.65421218  1
  Al0+  Al82  1  0.07230878  0.67810353  0.31873703  1
  Al0+  Al83  1  0.92927970  0.82033148  0.65484999  1
  Al0+  Al84  1  0.81902171  0.07220449  0.01101815  1
  Al0+  Al85  1  0.92873477  0.82327967  0.31568912  1
  Al0+  Al86  1  0.17762291  0.92991262  0.68015594  1
  Al0+  Al87  1  0.57144456  0.67838138  0.31697180  1
  Al0+  Al88  1  0.92941490  0.32092290  0.98477013  1
  Al0+  Al89  1  0.32042810  0.07267883  0.34992628  1
  Al0+  Al90  1  0.82151130  0.57290910  0.68144174  1
  Al0+  Al91  1  0.82401180  0.07435751  0.35013645  1
  Al0+  Al92  1  0.92946030  0.32485167  0.65177585  1
  Al0+  Al93  1  0.82072848  0.57070082  0.01623436  1
  Al0+  Al94  1  0.82146716  0.56814215  0.34631375  1
  Al0+  Al95  1  0.32003282  0.06930398  0.01170595  1
  Si0+  Si96  1  0.56792362  0.17825438  0.31812281  1
  Si0+  Si97  1  0.42648357  0.32091030  0.31605508  1
  Si0+  Si98  1  0.32313658  0.57208343  0.68078101  1
  Si0+  Si99  1  0.42686806  0.81889209  0.98423481  1
  Si0+  Si100  1  0.42948903  0.82282527  0.31624430  1
  Si0+  Si101  1  0.42570128  0.32262878  0.98480194  1
  Si0+  Si102  1  0.32301343  0.07142217  0.68434630  1
  Si0+  Si103  1  0.57107483  0.67805343  0.98451161  1
  Si0+  Si104  1  0.67487378  0.42761754  0.34872472  1
  Si0+  Si105  1  0.42546796  0.82246392  0.64978037  1
  Si0+  Si106  1  0.32325291  0.57241449  0.34800473  1
  Si0+  Si107  1  0.17752004  0.42796194  0.01937534  1
  Si0+  Si108  1  0.67808620  0.92883201  0.68209759  1
  Si0+  Si109  1  0.07471429  0.17920113  0.31648292  1
  Si0+  Si110  1  0.67769184  0.42786594  0.01657836  1
  Si0+  Si111  1  0.18079919  0.43191734  0.34796424  1
  Si0+  Si112  1  0.07461749  0.67888920  0.65413563  1
  Si0+  Si113  1  0.17951544  0.92667716  0.35016595  1
  Si0+  Si114  1  0.92891044  0.82078895  0.98529011  1
  Si0+  Si115  1  0.82047080  0.07059318  0.68015581  1
  Si0+  Si116  1  0.67703953  0.92620883  0.01433411  1
  Si0+  Si117  1  0.07338582  0.17635436  0.98519023  1
  Si0+  Si118  1  0.07251254  0.68029729  0.98345419  1
  Si0+  Si119  1  0.17650619  0.92646696  0.01921111  1
  O2-  O120  1  0.24323342  -0.00184254  0.06152871  1
  O2-  O121  1  0.24343753  -0.00023555  0.39448080  1
  O2-  O122  1  0.25287206  0.00373385  0.72791949  1
  O2-  O123  1  0.24781549  0.49555659  0.06321003  1
  O2-  O124  1  0.25005918  0.50478934  0.39043783  1
  O2-  O125  1  0.25472531  0.50363191  0.72575343  1
  O2-  O126  1  0.74397282  -0.00281640  0.05676406  1
  O2-  O127  1  0.75728981  -0.00265872  0.40048776  1
  O2-  O128  1  0.74540770  0.00340395  0.72387536  1
  O2-  O129  1  0.74678933  0.49496120  0.06232221  1
  O2-  O130  1  0.74495149  0.49513556  0.39175427  1
  O2-  O131  1  0.75401041  0.49628508  0.73204694  1
  O2-  O132  1  -0.00165650  0.23906966  0.27179202  1
  O2-  O133  1  0.00175986  0.25267402  0.60219464  1
  O2-  O134  1  0.00265287  0.24287063  0.94155340  1
  O2-  O135  1  0.00031028  0.74933890  0.26664095  1
  O2-  O136  1  0.00234273  0.74321027  0.61038705  1
  O2-  O137  1  0.00026536  0.75037856  0.94190472  1
  O2-  O138  1  0.49683139  0.24907214  0.27457476  1
  O2-  O139  1  0.50097417  0.24900069  0.59996825  1
  O2-  O140  1  0.49194038  0.25125129  0.94219842  1
  O2-  O141  1  0.49759302  0.75454057  0.26996995  1
  O2-  O142  1  0.49343432  0.75323551  0.60631331  1
  O2-  O143  1  0.49832339  0.74782568  0.94246377  1
  O2-  O144  1  0.07719461  0.17916932  0.09079415  1
  O2-  O145  1  0.07935566  0.18471941  0.42146846  1
  O2-  O146  1  0.06703266  0.17774085  0.76772754  1
  O2-  O147  1  0.07448250  0.68199608  0.08831338  1
  O2-  O148  1  0.07407673  0.67823562  0.43222754  1
  O2-  O149  1  0.07793680  0.68243789  0.76012888  1
  O2-  O150  1  0.56704815  0.17808421  0.10141180  1
  O2-  O151  1  0.56712298  0.17979517  0.42258417  1
  O2-  O152  1  0.56975006  0.17319506  0.76194469  1
  O2-  O153  1  0.57083864  0.68026246  0.08942007  1
  O2-  O154  1  0.56843539  0.67633101  0.42980928  1
  O2-  O155  1  0.56776174  0.68247778  0.76811267  1
  O2-  O156  1  0.18398106  0.43064950  0.24264007  1
  O2-  O157  1  0.17948992  0.43141224  0.56755042  1
  O2-  O158  1  0.17856778  0.42831842  0.91399485  1
  O2-  O159  1  0.18371107  0.92577557  0.24418849  1
  O2-  O160  1  0.18043972  0.92878714  0.56740593  1
  O2-  O161  1  0.17667147  0.92472935  0.91357924  1
  O2-  O162  1  0.67308378  0.42793305  0.24259238  1
  O2-  O163  1  0.67747037  0.43261260  0.56789512  1
  O2-  O164  1  0.67574973  0.43020876  0.91150974  1
  O2-  O165  1  0.67865735  0.93433917  0.23528634  1
  O2-  O166  1  0.67959938  0.92625158  0.57771296  1
  O2-  O167  1  0.67787155  0.92348321  0.90844304  1
  O2-  O168  1  0.42770890  0.32358421  0.09089659  1
  O2-  O169  1  0.42466868  0.32276990  0.42041918  1
  O2-  O170  1  0.42919469  0.31816052  0.76615658  1
  O2-  O171  1  0.42599028  0.81955076  0.08905891  1
  O2-  O172  1  0.42737236  0.81953610  0.42154497  1
  O2-  O173  1  0.42668966  0.82250320  0.75607170  1
  O2-  O174  1  0.93053634  0.32058688  0.09821499  1
  O2-  O175  1  0.93215505  0.32253540  0.43177045  1
  O2-  O176  1  0.93059150  0.32236474  0.76573268  1
  O2-  O177  1  0.92964837  0.82069599  0.08974368  1
  O2-  O178  1  0.93058844  0.82085828  0.42928184  1
  O2-  O179  1  0.92969567  0.82179379  0.76891850  1
  O2-  O180  1  0.32125431  0.07122136  0.23611498  1
  O2-  O181  1  0.32253313  0.06965998  0.57874396  1
  O2-  O182  1  0.32014087  0.06567643  0.89915806  1
  O2-  O183  1  0.32373401  0.56948305  0.24264491  1
  O2-  O184  1  0.32136931  0.57301042  0.57502972  1
  O2-  O185  1  0.32006303  0.57056247  0.90121441  1
  O2-  O186  1  0.81622829  0.07626346  0.23602372  1
  O2-  O187  1  0.82137114  0.06751572  0.57556773  1
  O2-  O188  1  0.81965815  0.06985112  0.89760111  1
  O2-  O189  1  0.82057585  0.56549672  0.23266541  1
  O2-  O190  1  0.81999237  0.57516506  0.56797091  1
  O2-  O191  1  0.81779910  0.57539031  0.90372547  1
  O2-  O192  1  0.06273102  0.08230555  0.27304370  1
  O2-  O193  1  0.04187633  0.08176871  0.59856386  1
  O2-  O194  1  0.05081316  0.08007573  0.94334467  1
  O2-  O195  1  0.04606129  0.58040291  0.26286419  1
  O2-  O196  1  0.05455720  0.58348606  0.61149729  1
  O2-  O197  1  0.04710011  0.58712090  0.93825522  1
  O2-  O198  1  0.53830592  0.08586504  0.27308435  1
  O2-  O199  1  0.54413383  0.07743320  0.59495275  1
  O2-  O200  1  0.53967078  0.07987227  0.93391250  1
  O2-  O201  1  0.53793046  0.58321462  0.26041232  1
  O2-  O202  1  0.54028428  0.58515698  0.59780145  1
  O2-  O203  1  0.54237605  0.58545141  0.93951394  1
  O2-  O204  1  0.16529432  0.21483947  0.26790944  1
  O2-  O205  1  0.17116999  0.20162484  0.60395857  1
  O2-  O206  1  0.16647377  0.20358964  0.93809402  1
  O2-  O207  1  0.17166737  0.70721374  0.26476480  1
  O2-  O208  1  0.16704654  0.70713262  0.60671384  1
  O2-  O209  1  0.16426883  0.70871100  0.93598056  1
  O2-  O210  1  0.65921626  0.20651836  0.26968878  1
  O2-  O211  1  0.67077865  0.20292457  0.59383016  1
  O2-  O212  1  0.66263186  0.20985972  0.93095171  1
  O2-  O213  1  0.66661778  0.70995831  0.26130803  1
  O2-  O214  1  0.66364693  0.71507974  0.59938528  1
  O2-  O215  1  0.66215204  0.70792270  0.93695390  1
  O2-  O216  1  0.08548785  0.45787892  0.06578260  1
  O2-  O217  1  0.08902954  0.45899965  0.39440564  1
  O2-  O218  1  0.08631967  0.45997014  0.74111660  1
  O2-  O219  1  0.08276821  0.94851140  0.06611355  1
  O2-  O220  1  0.08401613  0.94691457  0.39293391  1
  O2-  O221  1  0.08190760  0.96134471  0.73639712  1
  O2-  O222  1  0.58405330  0.45224281  0.06413606  1
  O2-  O223  1  0.58073833  0.45456694  0.39314447  1
  O2-  O224  1  0.58080140  0.45920700  0.73481344  1
  O2-  O225  1  0.58227474  0.94756864  0.05938613  1
  O2-  O226  1  0.58417954  0.95778314  0.40444885  1
  O2-  O227  1  0.58384871  0.95176615  0.72813784  1
  O2-  O228  1  0.20089984  0.33448228  0.06701564  1
  O2-  O229  1  0.21108961  0.34186289  0.39653452  1
  O2-  O230  1  0.21151950  0.33217476  0.73637634  1
  O2-  O231  1  0.20669846  0.83456227  0.06573962  1
  O2-  O232  1  0.21070403  0.83469939  0.39677703  1
  O2-  O233  1  0.20909100  0.83464119  0.73859815  1
  O2-  O234  1  0.70231791  0.33350364  0.06137871  1
  O2-  O235  1  0.69693849  0.33328655  0.39317033  1
  O2-  O236  1  0.70103259  0.32591226  0.73110576  1
  O2-  O237  1  0.70501516  0.83404083  0.06183303  1
  O2-  O238  1  0.70644443  0.82895787  0.39907418  1
  O2-  O239  1  0.70879710  0.83919134  0.73229578  1
  O2-  O240  1  0.45480011  0.41177133  0.26620882  1
  O2-  O241  1  0.45537105  0.41886384  0.59755599  1
  O2-  O242  1  0.45200580  0.41621475  0.93901398  1
  O2-  O243  1  0.45643045  0.91751514  0.27252021  1
  O2-  O244  1  0.45048711  0.91517686  0.60309429  1
  O2-  O245  1  0.45457177  0.90926562  0.93406327  1
  O2-  O246  1  0.96551973  0.41232161  0.26328698  1
  O2-  O247  1  0.96118824  0.42428357  0.60274846  1
  O2-  O248  1  0.96270578  0.41771977  0.93254216  1
  O2-  O249  1  0.95898283  0.92218877  0.26228464  1
  O2-  O250  1  0.96255538  0.91434962  0.59927556  1
  O2-  O251  1  0.95590652  0.91380230  0.93902033  1
  O2-  O252  1  0.33470535  0.29382406  0.26771773  1
  O2-  O253  1  0.33172043  0.29219673  0.59796817  1
  O2-  O254  1  0.33004330  0.29987147  0.94224906  1
  O2-  O255  1  0.33697748  0.79785330  0.26721866  1
  O2-  O256  1  0.33144855  0.79798567  0.60461049  1
  O2-  O257  1  0.33497853  0.79022688  0.93682102  1
  O2-  O258  1  0.82936953  0.29244874  0.26561388  1
  O2-  O259  1  0.83151254  0.29839334  0.59904050  1
  O2-  O260  1  0.83265775  0.29240557  0.93082984  1
  O2-  O261  1  0.83075280  0.79606192  0.26182366  1
  O2-  O262  1  0.83297887  0.79257615  0.60021987  1
  O2-  O263  1  0.83662237  0.79194100  0.93860952  1
  O2-  O264  1  0.41523142  0.03390159  0.06698678  1
  O2-  O265  1  0.41454769  0.04039221  0.40607034  1
  O2-  O266  1  0.41661883  0.04223618  0.72906664  1
  O2-  O267  1  0.41758640  0.54064350  0.07042306  1
  O2-  O268  1  0.41425902  0.54019917  0.39401171  1
  O2-  O269  1  0.41623459  0.54571904  0.72681578  1
  O2-  O270  1  0.91518930  0.04338972  0.06728896  1
  O2-  O271  1  0.92721622  0.05478563  0.39577744  1
  O2-  O272  1  0.91026007  0.03842698  0.72860190  1
  O2-  O273  1  0.91907555  0.54211471  0.06763522  1
  O2-  O274  1  0.91901017  0.53775875  0.39798229  1
  O2-  O275  1  0.92110371  0.55174811  0.73558549  1
  O2-  O276  1  0.29353208  0.16682117  0.06763193  1
  O2-  O277  1  0.29108620  0.17030436  0.40218945  1
  O2-  O278  1  0.29995802  0.16499954  0.73040682  1
  O2-  O279  1  0.29036875  0.66635184  0.06969999  1
  O2-  O280  1  0.30106068  0.66619672  0.39297194  1
  O2-  O281  1  0.29922797  0.66581483  0.72821034  1
  O2-  O282  1  0.78573405  0.16847498  0.06399764  1
  O2-  O283  1  0.78904449  0.17083684  0.40292633  1
  O2-  O284  1  0.79523637  0.16395904  0.72530967  1
  O2-  O285  1  0.78784292  0.66678039  0.07071837  1
  O2-  O286  1  0.79253101  0.66665597  0.39532811  1
  O2-  O287  1  0.78593212  0.67014879  0.73475564  1
