# generated using pymatgen
data_Ca2Al2SiO7
_symmetry_space_group_name_H-M   'P 1'
_cell_length_a   15.45842171
_cell_length_b   15.46025443
_cell_length_c   15.28458546
_cell_angle_alpha   90.01941155
_cell_angle_beta   90.00675694
_cell_angle_gamma   89.99646111
_symmetry_Int_Tables_number   1
_chemical_formula_structural   Ca2Al2SiO7
_chemical_formula_sum   'Ca48 Al48 Si24 O168'
_cell_volume   3652.88015208
_cell_formula_units_Z   24
loop_
 _symmetry_equiv_pos_site_id
 _symmetry_equiv_pos_as_xyz
  1  'x, y, z'
loop_
 _atom_type_symbol
 _atom_type_oxidation_number
  Ca2+  2.0
  Al0+  0.0
  Si0+  0.0
  O2-  -2.0
loop_
 _atom_site_type_symbol
 _atom_site_label
 _atom_site_symmetry_multiplicity
 _atom_site_fract_x
 _atom_site_fract_y
 _atom_site_fract_z
 _atom_site_occupancy
  Ca2+  Ca0  1  0.16220610  0.07351086  0.17136810  1
  Ca2+  Ca1  1  0.16666512  0.07837393  0.50732996  1
  Ca2+  Ca2  1  0.17824872  0.07742579  0.83759875  1
  Ca2+  Ca3  1  0.16830804  0.58069373  0.17508871  1
  Ca2+  Ca4  1  0.17392406  0.57130594  0.49935881  1
  Ca2+  Ca5  1  0.16057986  0.57980728  0.83380906  1
  Ca2+  Ca6  1  0.66251436  0.08576464  0.16643891  1
  Ca2+  Ca7  1  0.66546162  0.08785221  0.49994469  1
  Ca2+  Ca8  1  0.66799838  0.07928347  0.84512778  1
  Ca2+  Ca9  1  0.67153549  0.57564815  0.16809939  1
  Ca2+  Ca10  1  0.66672495  0.57757397  0.50930958  1
  Ca2+  Ca11  1  0.66432341  0.57216397  0.83576111  1
  Ca2+  Ca12  1  0.07700666  0.33657587  0.16313549  1
  Ca2+  Ca13  1  0.07940113  0.33371250  0.49036798  1
  Ca2+  Ca14  1  0.07185710  0.33748399  0.82466855  1
  Ca2+  Ca15  1  0.08602885  0.82976797  0.15592277  1
  Ca2+  Ca16  1  0.08340339  0.84194479  0.49659884  1
  Ca2+  Ca17  1  0.08161548  0.83719503  0.83154242  1
  Ca2+  Ca18  1  0.57961947  0.32378838  0.16229793  1
  Ca2+  Ca19  1  0.57002093  0.33303866  0.49531207  1
  Ca2+  Ca20  1  0.58029309  0.33144082  0.82748207  1
  Ca2+  Ca21  1  0.57558933  0.83677813  0.16261440  1
  Ca2+  Ca22  1  0.57506949  0.82443525  0.49457736  1
  Ca2+  Ca23  1  0.58680142  0.82785427  0.82761867  1
  Ca2+  Ca24  1  0.32906026  0.42498642  0.17874689  1
  Ca2+  Ca25  1  0.32589445  0.40740721  0.50464057  1
  Ca2+  Ca26  1  0.32896691  0.41285167  0.83193080  1
  Ca2+  Ca27  1  0.32510795  0.92067243  0.17274191  1
  Ca2+  Ca28  1  0.32419974  0.92269127  0.50552101  1
  Ca2+  Ca29  1  0.32810737  0.92820916  0.84080078  1
  Ca2+  Ca30  1  0.83058138  0.40339025  0.16722901  1
  Ca2+  Ca31  1  0.82845545  0.41048726  0.50741183  1
  Ca2+  Ca32  1  0.82324799  0.40742011  0.83899026  1
  Ca2+  Ca33  1  0.82680769  0.91041229  0.16767801  1
  Ca2+  Ca34  1  0.83462337  0.92069716  0.50749075  1
  Ca2+  Ca35  1  0.83161743  0.91279250  0.84009309  1
  Ca2+  Ca36  1  0.42291329  0.16536691  0.16318854  1
  Ca2+  Ca37  1  0.41549053  0.17462945  0.49548604  1
  Ca2+  Ca38  1  0.41860485  0.16335898  0.83016646  1
  Ca2+  Ca39  1  0.40536571  0.67386995  0.16780414  1
  Ca2+  Ca40  1  0.41609164  0.66800723  0.49527556  1
  Ca2+  Ca41  1  0.42488997  0.66809409  0.82667521  1
  Ca2+  Ca42  1  0.92494014  0.17491988  0.16761046  1
  Ca2+  Ca43  1  0.92446517  0.17781376  0.49392568  1
  Ca2+  Ca44  1  0.91630669  0.17579142  0.83143185  1
  Ca2+  Ca45  1  0.92772691  0.67199101  0.15577275  1
  Ca2+  Ca46  1  0.91851483  0.67346581  0.50055912  1
  Ca2+  Ca47  1  0.92119290  0.67858923  0.83239243  1
  Al0+  Al48  1  -0.00030261  0.00253641  -0.00031877  1
  Al0+  Al49  1  -0.00414516  0.00238771  0.33354069  1
  Al0+  Al50  1  -0.00145483  0.00060522  0.66830646  1
  Al0+  Al51  1  -0.00138131  0.50197700  -0.00958102  1
  Al0+  Al52  1  -0.00182336  0.50355353  0.33371442  1
  Al0+  Al53  1  -0.00130578  0.50440306  0.66557000  1
  Al0+  Al54  1  0.50125312  0.00071745  0.00306125  1
  Al0+  Al55  1  0.49937467  -0.00354542  0.32831591  1
  Al0+  Al56  1  0.50111566  -0.00180982  0.66857054  1
  Al0+  Al57  1  0.50019480  0.49911473  0.00641285  1
  Al0+  Al58  1  0.50327367  0.50132062  0.33235478  1
  Al0+  Al59  1  0.50139835  0.49823895  0.66261132  1
  Al0+  Al60  1  0.25122132  0.25177456  0.00504418  1
  Al0+  Al61  1  0.24952059  0.24803462  0.32741667  1
  Al0+  Al62  1  0.25041988  0.24919232  0.67360631  1
  Al0+  Al63  1  0.25099537  0.74968774  -0.00507857  1
  Al0+  Al64  1  0.24972119  0.75008021  0.33963400  1
  Al0+  Al65  1  0.24954562  0.74837679  0.67010642  1
  Al0+  Al66  1  0.74786095  0.24797943  -0.00213509  1
  Al0+  Al67  1  0.75048202  0.24839475  0.32861052  1
  Al0+  Al68  1  0.75052077  0.24915383  0.66742765  1
  Al0+  Al69  1  0.75050054  0.74815491  0.00256754  1
  Al0+  Al70  1  0.74845565  0.74902375  0.33506981  1
  Al0+  Al71  1  0.75198298  0.74880100  0.65744067  1
  Al0+  Al72  1  0.07423608  0.67979681  0.98312486  1
  Al0+  Al73  1  0.93201862  0.82171365  0.65125413  1
  Al0+  Al74  1  0.32280065  0.57099333  0.34875625  1
  Al0+  Al75  1  0.68117136  0.92651581  0.01355158  1
  Al0+  Al76  1  0.42891295  0.31815060  0.65514810  1
  Al0+  Al77  1  0.67925060  0.42714823  0.01552766  1
  Al0+  Al78  1  0.42822869  0.81711936  0.32029098  1
  Al0+  Al79  1  0.17694978  0.92791362  0.68321724  1
  Al0+  Al80  1  0.92832314  0.82305234  0.98682783  1
  Al0+  Al81  1  0.93072701  0.32411815  0.31869189  1
  Al0+  Al82  1  0.07220675  0.17711432  0.31928772  1
  Al0+  Al83  1  0.17849282  0.42691060  0.34586407  1
  Al0+  Al84  1  0.32240898  0.07270554  0.01904622  1
  Al0+  Al85  1  0.42672651  0.32373694  0.31737796  1
  Al0+  Al86  1  0.56978991  0.17888582  0.31833140  1
  Al0+  Al87  1  0.68000305  0.42907126  0.67946162  1
  Al0+  Al88  1  0.17716344  0.93085238  0.34724345  1
  Al0+  Al89  1  0.17749688  0.42963460  0.68038736  1
  Al0+  Al90  1  0.17926621  0.92946459  0.01539881  1
  Al0+  Al91  1  0.57031529  0.67864994  0.65352682  1
  Al0+  Al92  1  0.56787672  0.17950000  0.98425272  1
  Al0+  Al93  1  0.92813578  0.32265268  0.65329991  1
  Al0+  Al94  1  0.32325072  0.07138899  0.68127317  1
  Al0+  Al95  1  0.93034629  0.31933011  0.98446878  1
  Si0+  Si96  1  0.17610649  0.43157635  0.01276109  1
  Si0+  Si97  1  0.06925736  0.68259205  0.32082539  1
  Si0+  Si98  1  0.82176762  0.07315981  0.01811211  1
  Si0+  Si99  1  0.42775276  0.32504324  0.98329867  1
  Si0+  Si100  1  0.07543169  0.17858210  0.98187577  1
  Si0+  Si101  1  0.82180887  0.57018314  0.01619240  1
  Si0+  Si102  1  0.42730658  0.82243285  0.65144012  1
  Si0+  Si103  1  0.32346988  0.57055343  0.68375456  1
  Si0+  Si104  1  0.57097512  0.67721187  0.98724302  1
  Si0+  Si105  1  0.67764191  0.92703599  0.35034475  1
  Si0+  Si106  1  0.81824557  0.07056080  0.34945191  1
  Si0+  Si107  1  0.68245626  0.42747911  0.34857930  1
  Si0+  Si108  1  0.43049425  0.82066528  0.98429292  1
  Si0+  Si109  1  0.82043881  0.57422922  0.34996298  1
  Si0+  Si110  1  0.32436356  0.07056857  0.34924319  1
  Si0+  Si111  1  0.07091189  0.18023728  0.65322546  1
  Si0+  Si112  1  0.07476614  0.67803022  0.64567764  1
  Si0+  Si113  1  0.92651105  0.82249559  0.31915209  1
  Si0+  Si114  1  0.68087446  0.92709020  0.67864129  1
  Si0+  Si115  1  0.81966942  0.07094748  0.68203661  1
  Si0+  Si116  1  0.82129120  0.57479688  0.68433953  1
  Si0+  Si117  1  0.32215509  0.57056877  0.01322456  1
  Si0+  Si118  1  0.57324791  0.17467007  0.65145286  1
  Si0+  Si119  1  0.57502885  0.67796839  0.31356786  1
  O2-  O120  1  0.24806663  0.00253605  0.06824330  1
  O2-  O121  1  0.24960609  0.00815319  0.39342995  1
  O2-  O122  1  0.25299482  -0.00312850  0.73044736  1
  O2-  O123  1  0.24824992  0.50188899  0.05397030  1
  O2-  O124  1  0.25793744  0.49119273  0.39682049  1
  O2-  O125  1  0.25233549  0.50458583  0.72833994  1
  O2-  O126  1  0.75824727  -0.00149727  0.06126403  1
  O2-  O127  1  0.74718625  -0.00076524  0.39259704  1
  O2-  O128  1  0.74783137  0.00013559  0.72306706  1
  O2-  O129  1  0.75746891  0.49854686  0.06258420  1
  O2-  O130  1  0.75244669  0.49976508  0.39110250  1
  O2-  O131  1  0.75710686  0.50132957  0.72759402  1
  O2-  O132  1  0.00846940  0.25757189  0.27002464  1
  O2-  O133  1  0.00754516  0.25325932  0.60731633  1
  O2-  O134  1  0.00787922  0.24829833  0.93691288  1
  O2-  O135  1  0.00057980  0.75550458  0.27757446  1
  O2-  O136  1  0.01052583  0.75206178  0.60261186  1
  O2-  O137  1  0.00461073  0.75612433  0.93617809  1
  O2-  O138  1  0.49683166  0.24953230  0.26777090  1
  O2-  O139  1  0.50234264  0.24143409  0.60912426  1
  O2-  O140  1  0.49273364  0.25338834  0.93815281  1
  O2-  O141  1  0.50156039  0.74169741  0.27034499  1
  O2-  O142  1  0.49421782  0.75191400  0.60715479  1
  O2-  O143  1  0.50290413  0.75004612  0.94326657  1
  O2-  O144  1  0.07331379  0.17933978  0.08737896  1
  O2-  O145  1  0.06588306  0.17325076  0.43305740  1
  O2-  O146  1  0.06699572  0.18058880  0.75882613  1
  O2-  O147  1  0.07323728  0.67778101  0.09744374  1
  O2-  O148  1  0.06635736  0.68215917  0.42571255  1
  O2-  O149  1  0.07179322  0.67608982  0.75099745  1
  O2-  O150  1  0.56841131  0.18090889  0.09697885  1
  O2-  O151  1  0.57156490  0.18077945  0.43239650  1
  O2-  O152  1  0.57519148  0.17377443  0.75685535  1
  O2-  O153  1  0.56946660  0.67712281  0.09214048  1
  O2-  O154  1  0.58012075  0.68162707  0.41908864  1
  O2-  O155  1  0.57029485  0.68087340  0.76732314  1
  O2-  O156  1  0.17389815  0.43552649  0.23202382  1
  O2-  O157  1  0.17790328  0.42917634  0.56762824  1
  O2-  O158  1  0.17676804  0.43217285  0.90747102  1
  O2-  O159  1  0.17725205  0.92772064  0.23451854  1
  O2-  O160  1  0.17681480  0.93232248  0.56918688  1
  O2-  O161  1  0.18262632  0.92993013  0.90217015  1
  O2-  O162  1  0.68456868  0.42838940  0.24338091  1
  O2-  O163  1  0.68058423  0.43034904  0.56607441  1
  O2-  O164  1  0.67730743  0.43016695  0.90237271  1
  O2-  O165  1  0.68044285  0.92346335  0.24548036  1
  O2-  O166  1  0.68186242  0.92848959  0.57334202  1
  O2-  O167  1  0.68148960  0.92605655  0.89979208  1
  O2-  O168  1  0.43075634  0.32840926  0.08842367  1
  O2-  O169  1  0.42943366  0.32248488  0.43143742  1
  O2-  O170  1  0.43184501  0.32023639  0.76820798  1
  O2-  O171  1  0.42889112  0.81775704  0.08943685  1
  O2-  O172  1  0.43216678  0.81649941  0.43344228  1
  O2-  O173  1  0.43152733  0.82230533  0.75727291  1
  O2-  O174  1  0.93259852  0.31898233  0.09743815  1
  O2-  O175  1  0.92777253  0.32119803  0.43237512  1
  O2-  O176  1  0.92583766  0.31783214  0.76633745  1
  O2-  O177  1  0.92604669  0.81699468  0.10083340  1
  O2-  O178  1  0.92478026  0.82083717  0.42440458  1
  O2-  O179  1  0.92739357  0.81967041  0.76367513  1
  O2-  O180  1  0.32761559  0.06429939  0.24415002  1
  O2-  O181  1  0.32343871  0.07097408  0.56746974  1
  O2-  O182  1  0.32306285  0.06956350  0.90536536  1
  O2-  O183  1  0.31558907  0.57466765  0.23468745  1
  O2-  O184  1  0.32322900  0.57041386  0.57852718  1
  O2-  O185  1  0.32731872  0.56874026  0.90826490  1
  O2-  O186  1  0.81878606  0.06876001  0.24473199  1
  O2-  O187  1  0.81920629  0.07095437  0.57667606  1
  O2-  O188  1  0.81804800  0.07485829  0.91204442  1
  O2-  O189  1  0.81828167  0.58048600  0.24531942  1
  O2-  O190  1  0.81836530  0.57665646  0.57827824  1
  O2-  O191  1  0.81764390  0.57229824  0.91089108  1
  O2-  O192  1  0.03067267  0.08350229  0.26308803  1
  O2-  O193  1  0.03932887  0.08868848  0.60659344  1
  O2-  O194  1  0.04825887  0.08568637  0.93550945  1
  O2-  O195  1  0.03853814  0.59280353  0.27112865  1
  O2-  O196  1  0.04226343  0.58753835  0.59719077  1
  O2-  O197  1  0.04026931  0.58491663  0.92607576  1
  O2-  O198  1  0.54613462  0.07859054  0.26688589  1
  O2-  O199  1  0.55182001  0.07964871  0.60542396  1
  O2-  O200  1  0.54032149  0.08099984  0.93143961  1
  O2-  O201  1  0.55744708  0.58227516  0.26994178  1
  O2-  O202  1  0.54087995  0.58330193  0.59720076  1
  O2-  O203  1  0.53930719  0.58631655  0.93992297  1
  O2-  O204  1  0.17276945  0.19080086  0.26703270  1
  O2-  O205  1  0.16661406  0.19987761  0.61045938  1
  O2-  O206  1  0.17020318  0.20379616  0.93839476  1
  O2-  O207  1  0.16164976  0.70843498  0.27485324  1
  O2-  O208  1  0.17113894  0.69698361  0.60281381  1
  O2-  O209  1  0.17294676  0.70291290  0.92794596  1
  O2-  O210  1  0.66758055  0.20779965  0.26428636  1
  O2-  O211  1  0.66607949  0.20215956  0.60505635  1
  O2-  O212  1  0.66453395  0.20933971  0.93014787  1
  O2-  O213  1  0.66638025  0.71007822  0.26575241  1
  O2-  O214  1  0.66464392  0.71073531  0.59576794  1
  O2-  O215  1  0.66337879  0.70244957  0.94045568  1
  O2-  O216  1  0.08404807  0.46150277  0.05809651  1
  O2-  O217  1  0.08156205  0.46360050  0.39908175  1
  O2-  O218  1  0.08065453  0.46341732  0.73346106  1
  O2-  O219  1  0.07814026  0.95411941  0.06565420  1
  O2-  O220  1  0.07803709  0.95928008  0.39873659  1
  O2-  O221  1  0.07887266  0.95903108  0.73525531  1
  O2-  O222  1  0.58506666  0.46230259  0.07181190  1
  O2-  O223  1  0.59010189  0.45507163  0.39470734  1
  O2-  O224  1  0.58437963  0.46307493  0.73353033  1
  O2-  O225  1  0.58586077  0.95907917  0.06814503  1
  O2-  O226  1  0.58523662  0.95341784  0.39668088  1
  O2-  O227  1  0.58790878  0.94845267  0.72644379  1
  O2-  O228  1  0.20034104  0.33950890  0.06045731  1
  O2-  O229  1  0.19795671  0.32460852  0.39509827  1
  O2-  O230  1  0.20699710  0.33435279  0.73705362  1
  O2-  O231  1  0.20996420  0.82911135  0.06427341  1
  O2-  O232  1  0.20948874  0.83584715  0.40307006  1
  O2-  O233  1  0.19985529  0.82675601  0.73279402  1
  O2-  O234  1  0.71038488  0.33036071  0.06813347  1
  O2-  O235  1  0.71182355  0.33589752  0.39509542  1
  O2-  O236  1  0.70920555  0.33171879  0.73339089  1
  O2-  O237  1  0.70873522  0.82980832  0.07029497  1
  O2-  O238  1  0.70768334  0.83596488  0.39884835  1
  O2-  O239  1  0.71233980  0.83555845  0.72409171  1
  O2-  O240  1  0.45786423  0.42260959  0.26570286  1
  O2-  O241  1  0.46148752  0.41296261  0.59908267  1
  O2-  O242  1  0.45755474  0.41780351  0.93715098  1
  O2-  O243  1  0.46166485  0.91099764  0.26329940  1
  O2-  O244  1  0.45574059  0.91459988  0.60396276  1
  O2-  O245  1  0.46018292  0.91190089  0.93833867  1
  O2-  O246  1  0.95009135  0.42544898  0.26720423  1
  O2-  O247  1  0.95022284  0.42290907  0.60338165  1
  O2-  O248  1  0.95559144  0.41671946  0.92962442  1
  O2-  O249  1  0.94697417  0.91585066  0.27353739  1
  O2-  O250  1  0.95715524  0.92055946  0.59777314  1
  O2-  O251  1  0.94798728  0.92427800  0.93615138  1
  O2-  O252  1  0.32709822  0.30236639  0.26475206  1
  O2-  O253  1  0.33112753  0.28855943  0.60268105  1
  O2-  O254  1  0.33157866  0.30375248  0.94055186  1
  O2-  O255  1  0.33136771  0.78558188  0.26671126  1
  O2-  O256  1  0.33268868  0.79795429  0.60749145  1
  O2-  O257  1  0.34105285  0.79108773  0.93404623  1
  O2-  O258  1  0.83563529  0.28647847  0.26491757  1
  O2-  O259  1  0.83325686  0.28605122  0.59892309  1
  O2-  O260  1  0.83416366  0.28438778  0.93245721  1
  O2-  O261  1  0.83538869  0.79006223  0.27294641  1
  O2-  O262  1  0.83778810  0.78733346  0.59329783  1
  O2-  O263  1  0.83091044  0.78818947  0.93374679  1
  O2-  O264  1  0.41989351  0.04034158  0.07068565  1
  O2-  O265  1  0.41586802  0.03798128  0.39654429  1
  O2-  O266  1  0.42264036  0.04299880  0.73463706  1
  O2-  O267  1  0.41140172  0.54259474  0.06571441  1
  O2-  O268  1  0.42668032  0.55503434  0.39559894  1
  O2-  O269  1  0.41642328  0.54225850  0.72962300  1
  O2-  O270  1  0.91750524  0.05518729  0.06210197  1
  O2-  O271  1  0.90809994  0.04169472  0.40007514  1
  O2-  O272  1  0.91015641  0.04283897  0.73093802  1
  O2-  O273  1  0.91757396  0.54788962  0.05923652  1
  O2-  O274  1  0.91302032  0.55139395  0.39761441  1
  O2-  O275  1  0.91684645  0.55679706  0.72797707  1
  O2-  O276  1  0.29982068  0.17365252  0.06953368  1
  O2-  O277  1  0.30593519  0.16757775  0.38997259  1
  O2-  O278  1  0.29459412  0.16740112  0.73872278  1
  O2-  O279  1  0.29574724  0.66353998  0.05867319  1
  O2-  O280  1  0.28724372  0.66523010  0.40582027  1
  O2-  O281  1  0.30200552  0.66523659  0.73033269  1
  O2-  O282  1  0.78794321  0.16292826  0.06612509  1
  O2-  O283  1  0.78896937  0.16197420  0.39751691  1
  O2-  O284  1  0.79172644  0.16155442  0.73145113  1
  O2-  O285  1  0.79273588  0.66123004  0.06605747  1
  O2-  O286  1  0.78839798  0.66386298  0.40099047  1
  O2-  O287  1  0.78906699  0.66677630  0.73001561  1
