# generated using pymatgen
data_Ca2Al2SiO7
_symmetry_space_group_name_H-M   'P 1'
_cell_length_a   15.46451061
_cell_length_b   15.46549529
_cell_length_c   15.28836199
_cell_angle_alpha   90.00154733
_cell_angle_beta   90.00643130
_cell_angle_gamma   89.97163150
_symmetry_Int_Tables_number   1
_chemical_formula_structural   Ca2Al2SiO7
_chemical_formula_sum   'Ca48 Al48 Si24 O168'
_cell_volume   3656.46074189
_cell_formula_units_Z   24
loop_
 _symmetry_equiv_pos_site_id
 _symmetry_equiv_pos_as_xyz
  1  'x, y, z'
loop_
 _atom_type_symbol
 _atom_type_oxidation_number
  Ca2+  2.0
  Al0+  0.0
  Si0+  0.0
  O2-  -2.0
loop_
 _atom_site_type_symbol
 _atom_site_label
 _atom_site_symmetry_multiplicity
 _atom_site_fract_x
 _atom_site_fract_y
 _atom_site_fract_z
 _atom_site_occupancy
  Ca2+  Ca0  1  0.16271831  0.07920710  0.17374181  1
  Ca2+  Ca1  1  0.16185536  0.07484424  0.50427672  1
  Ca2+  Ca2  1  0.16049987  0.07993687  0.83236452  1
  Ca2+  Ca3  1  0.17361821  0.58697021  0.17555535  1
  Ca2+  Ca4  1  0.17841612  0.57919583  0.50690133  1
  Ca2+  Ca5  1  0.16546877  0.57793506  0.83763793  1
  Ca2+  Ca6  1  0.66787009  0.08245624  0.17571534  1
  Ca2+  Ca7  1  0.66352262  0.07753293  0.50653305  1
  Ca2+  Ca8  1  0.66371631  0.07189220  0.83547092  1
  Ca2+  Ca9  1  0.66668976  0.58364709  0.17742824  1
  Ca2+  Ca10  1  0.67385286  0.59478162  0.50060450  1
  Ca2+  Ca11  1  0.66970961  0.59452819  0.83263450  1
  Ca2+  Ca12  1  0.09000429  0.31991327  0.16387162  1
  Ca2+  Ca13  1  0.09183134  0.32270082  0.49831482  1
  Ca2+  Ca14  1  0.09120906  0.32225484  0.82487326  1
  Ca2+  Ca15  1  0.07522475  0.82889786  0.16446650  1
  Ca2+  Ca16  1  0.07417157  0.84252811  0.49483987  1
  Ca2+  Ca17  1  0.07442033  0.83046604  0.82875436  1
  Ca2+  Ca18  1  0.57320731  0.34412204  0.16894339  1
  Ca2+  Ca19  1  0.57715346  0.33208041  0.49012624  1
  Ca2+  Ca20  1  0.57039971  0.33445372  0.82780610  1
  Ca2+  Ca21  1  0.57888778  0.82030661  0.16598434  1
  Ca2+  Ca22  1  0.57477893  0.82871863  0.49764049  1
  Ca2+  Ca23  1  0.58163254  0.82549751  0.82211902  1
  Ca2+  Ca24  1  0.33699432  0.41975491  0.17318677  1
  Ca2+  Ca25  1  0.33753924  0.41848321  0.50238810  1
  Ca2+  Ca26  1  0.33210590  0.41044333  0.83310850  1
  Ca2+  Ca27  1  0.32406275  0.91473036  0.17999599  1
  Ca2+  Ca28  1  0.32455778  0.91072205  0.50674191  1
  Ca2+  Ca29  1  0.32757131  0.91096473  0.83367671  1
  Ca2+  Ca30  1  0.82516709  0.42787644  0.18144810  1
  Ca2+  Ca31  1  0.82645031  0.42894999  0.50415093  1
  Ca2+  Ca32  1  0.83311749  0.42575261  0.83480777  1
  Ca2+  Ca33  1  0.83825951  0.91341202  0.17141345  1
  Ca2+  Ca34  1  0.82894966  0.91093968  0.50696421  1
  Ca2+  Ca35  1  0.83239426  0.90799687  0.83109271  1
  Ca2+  Ca36  1  0.42161826  0.17801812  0.16806483  1
  Ca2+  Ca37  1  0.41935975  0.17853759  0.49341000  1
  Ca2+  Ca38  1  0.41090208  0.17794436  0.82836969  1
  Ca2+  Ca39  1  0.42366037  0.66260098  0.16886279  1
  Ca2+  Ca40  1  0.42493810  0.67135485  0.49184354  1
  Ca2+  Ca41  1  0.43098071  0.67008194  0.82511381  1
  Ca2+  Ca42  1  0.92714880  0.16762969  0.16476048  1
  Ca2+  Ca43  1  0.92932863  0.16265626  0.49591502  1
  Ca2+  Ca44  1  0.92877951  0.16562553  0.82835613  1
  Ca2+  Ca45  1  0.91535146  0.67603974  0.16330391  1
  Ca2+  Ca46  1  0.91091542  0.67398611  0.49699423  1
  Ca2+  Ca47  1  0.91698448  0.67483997  0.82735853  1
  Al0+  Al48  1  -0.00120218  0.00077160  -0.00635857  1
  Al0+  Al49  1  -0.00044672  -0.00060253  0.32834472  1
  Al0+  Al50  1  0.00122899  -0.00016370  0.66452797  1
  Al0+  Al51  1  -0.00027269  0.49838656  0.00206312  1
  Al0+  Al52  1  0.00005893  0.49945057  0.33953525  1
  Al0+  Al53  1  0.00011852  0.49906236  0.67648509  1
  Al0+  Al54  1  0.49913681  0.00086310  0.00444908  1
  Al0+  Al55  1  0.49810067  0.00177583  0.32643141  1
  Al0+  Al56  1  0.49962884  0.00073689  0.67100186  1
  Al0+  Al57  1  0.49890391  0.50046276  -0.00939413  1
  Al0+  Al58  1  0.49928253  0.49996096  0.33488022  1
  Al0+  Al59  1  0.50200498  0.49990836  0.65939364  1
  Al0+  Al60  1  0.25059110  0.24868667  -0.00549921  1
  Al0+  Al61  1  0.25183575  0.24747884  0.32455554  1
  Al0+  Al62  1  0.25086327  0.24931925  0.66089600  1
  Al0+  Al63  1  0.24884078  0.74908143  -0.00072585  1
  Al0+  Al64  1  0.24758050  0.74984067  0.34116342  1
  Al0+  Al65  1  0.24953099  0.74911608  0.67329991  1
  Al0+  Al66  1  0.74855812  0.24859447  0.00140876  1
  Al0+  Al67  1  0.75304876  0.24961170  0.33573124  1
  Al0+  Al68  1  0.75224324  0.25174854  0.67063691  1
  Al0+  Al69  1  0.74865940  0.75052906  -0.00422856  1
  Al0+  Al70  1  0.74948901  0.75309423  0.32864812  1
  Al0+  Al71  1  0.75146642  0.75122561  0.66853780  1
  Al0+  Al72  1  0.17783111  0.92790571  0.68274714  1
  Al0+  Al73  1  0.06935654  0.18129382  0.98418476  1
  Al0+  Al74  1  0.43062279  0.32184724  0.31713554  1
  Al0+  Al75  1  0.17814130  0.93066860  0.34624423  1
  Al0+  Al76  1  0.56847233  0.68046044  0.98543410  1
  Al0+  Al77  1  0.92973117  0.81960385  0.98307398  1
  Al0+  Al78  1  0.82112010  0.57519128  0.34839367  1
  Al0+  Al79  1  0.43149140  0.31915546  0.98452775  1
  Al0+  Al80  1  0.06915606  0.18064611  0.65090524  1
  Al0+  Al81  1  0.93284323  0.81864212  0.65151096  1
  Al0+  Al82  1  0.18225290  0.42838929  0.68002875  1
  Al0+  Al83  1  0.43035302  0.31950761  0.65095042  1
  Al0+  Al84  1  0.42631489  0.82298882  0.65348172  1
  Al0+  Al85  1  0.57514351  0.17805708  0.31972381  1
  Al0+  Al86  1  0.67912070  0.93120349  0.67951726  1
  Al0+  Al87  1  0.92970573  0.81909444  0.32051696  1
  Al0+  Al88  1  0.57223719  0.68061872  0.64929410  1
  Al0+  Al89  1  0.32004834  0.57042408  0.34688372  1
  Al0+  Al90  1  0.07360476  0.67588296  0.98591092  1
  Al0+  Al91  1  0.67869177  0.42829852  0.34850278  1
  Al0+  Al92  1  0.42388913  0.82163206  0.31914994  1
  Al0+  Al93  1  0.57001004  0.68118982  0.31856096  1
  Al0+  Al94  1  0.81941162  0.57137826  0.68287846  1
  Al0+  Al95  1  0.06977891  0.17992723  0.31906125  1
  Si0+  Si96  1  0.32248634  0.07234433  0.34920467  1
  Si0+  Si97  1  0.67694268  0.42631025  0.68545291  1
  Si0+  Si98  1  0.92856964  0.32441645  0.31825855  1
  Si0+  Si99  1  0.07272938  0.67400091  0.65110107  1
  Si0+  Si100  1  0.82267244  0.07047865  0.34712490  1
  Si0+  Si101  1  0.32075662  0.07166482  0.68316349  1
  Si0+  Si102  1  0.07246219  0.67468623  0.32166305  1
  Si0+  Si103  1  0.92674268  0.32501321  0.65028721  1
  Si0+  Si104  1  0.82041190  0.57145103  0.01582961  1
  Si0+  Si105  1  0.67766486  0.42958019  0.01296849  1
  Si0+  Si106  1  0.17914895  0.42644212  0.01520001  1
  Si0+  Si107  1  0.67865616  0.92827166  0.01748392  1
  Si0+  Si108  1  0.82097421  0.07083033  0.01594876  1
  Si0+  Si109  1  0.67741808  0.93170184  0.34594056  1
  Si0+  Si110  1  0.57508389  0.17798821  0.65379442  1
  Si0+  Si111  1  0.92448334  0.32212920  0.98439517  1
  Si0+  Si112  1  0.17859149  0.42387960  0.34793779  1
  Si0+  Si113  1  0.32053858  0.56967137  0.01340327  1
  Si0+  Si114  1  0.17850242  0.92995894  0.01528007  1
  Si0+  Si115  1  0.32478762  0.57135968  0.68559665  1
  Si0+  Si116  1  0.42664550  0.82495422  0.98519756  1
  Si0+  Si117  1  0.57364744  0.17495217  0.98233163  1
  Si0+  Si118  1  0.82376373  0.07329366  0.68351752  1
  Si0+  Si119  1  0.32061848  0.07261439  0.01657131  1
  O2-  O120  1  0.25241906  -0.00189332  0.05786608  1
  O2-  O121  1  0.25643833  0.00157468  0.39335136  1
  O2-  O122  1  0.25630146  -0.00051174  0.72920976  1
  O2-  O123  1  0.24535680  0.50236160  0.05632913  1
  O2-  O124  1  0.24526534  0.49423464  0.39146738  1
  O2-  O125  1  0.25545170  0.50305455  0.73029855  1
  O2-  O126  1  0.74979666  0.00003261  0.05898098  1
  O2-  O127  1  0.74507914  0.00641001  0.38775303  1
  O2-  O128  1  0.75188631  0.00802230  0.72783089  1
  O2-  O129  1  0.75118613  0.49769513  0.05610551  1
  O2-  O130  1  0.74862051  0.50295262  0.39763293  1
  O2-  O131  1  0.74394089  0.49663895  0.72991173  1
  O2-  O132  1  -0.00064066  0.25872638  0.27222763  1
  O2-  O133  1  -0.00591871  0.25559620  0.60537710  1
  O2-  O134  1  -0.00435382  0.25727581  0.93833393  1
  O2-  O135  1  0.00060180  0.73962461  0.27655179  1
  O2-  O136  1  0.00847593  0.74525807  0.60479396  1
  O2-  O137  1  0.00064880  0.74580800  0.93473493  1
  O2-  O138  1  0.50727424  0.25336767  0.26843832  1
  O2-  O139  1  0.50976458  0.24818887  0.60839983  1
  O2-  O140  1  0.50552859  0.24351083  0.93806293  1
  O2-  O141  1  0.49506702  0.74987384  0.26755668  1
  O2-  O142  1  0.49558050  0.74944267  0.60273008  1
  O2-  O143  1  0.49632449  0.75829676  0.94078071  1
  O2-  O144  1  0.06863339  0.18042505  0.09730870  1
  O2-  O145  1  0.06844362  0.17914105  0.43179903  1
  O2-  O146  1  0.06815930  0.18124248  0.76431726  1
  O2-  O147  1  0.07527824  0.67837601  0.09975175  1
  O2-  O148  1  0.07335073  0.67481884  0.42684688  1
  O2-  O149  1  0.06931845  0.67442885  0.75698465  1
  O2-  O150  1  0.57440583  0.17378427  0.08735289  1
  O2-  O151  1  0.57199475  0.17602944  0.43342959  1
  O2-  O152  1  0.57380973  0.17893715  0.75980765  1
  O2-  O153  1  0.56779860  0.67836921  0.09815355  1
  O2-  O154  1  0.57204083  0.68622944  0.43118841  1
  O2-  O155  1  0.57115514  0.68273033  0.76360143  1
  O2-  O156  1  0.17895398  0.42397646  0.24173019  1
  O2-  O157  1  0.18432814  0.42872089  0.56700803  1
  O2-  O158  1  0.18193014  0.42414025  0.91030105  1
  O2-  O159  1  0.17640511  0.93297253  0.23228896  1
  O2-  O160  1  0.17445014  0.93243346  0.57003456  1
  O2-  O161  1  0.17923231  0.93133602  0.91031055  1
  O2-  O162  1  0.68140969  0.43031124  0.23364520  1
  O2-  O163  1  0.67972153  0.42070893  0.58082917  1
  O2-  O164  1  0.67926643  0.42948451  0.90800375  1
  O2-  O165  1  0.68027059  0.93149573  0.24031855  1
  O2-  O166  1  0.67974592  0.93323954  0.56628990  1
  O2-  O167  1  0.67749189  0.92997770  0.91248183  1
  O2-  O168  1  0.43232223  0.32074769  0.09692241  1
  O2-  O169  1  0.42772934  0.31786676  0.43018655  1
  O2-  O170  1  0.42950339  0.31665372  0.76460721  1
  O2-  O171  1  0.42632353  0.82472909  0.09054017  1
  O2-  O172  1  0.42548771  0.82160078  0.43221619  1
  O2-  O173  1  0.42943484  0.82149989  0.76789545  1
  O2-  O174  1  0.92399754  0.31947807  0.08989968  1
  O2-  O175  1  0.92862613  0.32251254  0.42347890  1
  O2-  O176  1  0.92669975  0.32270941  0.75640617  1
  O2-  O177  1  0.93049945  0.82002682  0.09691216  1
  O2-  O178  1  0.92956310  0.82226171  0.43312856  1
  O2-  O179  1  0.93283372  0.81778079  0.76452675  1
  O2-  O180  1  0.31918311  0.07303826  0.24307475  1
  O2-  O181  1  0.31946446  0.07273636  0.57795271  1
  O2-  O182  1  0.32057536  0.07363915  0.91154716  1
  O2-  O183  1  0.31818442  0.56979660  0.23272766  1
  O2-  O184  1  0.32315397  0.57099500  0.58017058  1
  O2-  O185  1  0.32129020  0.56772628  0.90861599  1
  O2-  O186  1  0.82510103  0.06790333  0.24152237  1
  O2-  O187  1  0.82373338  0.07322316  0.57790063  1
  O2-  O188  1  0.81991106  0.07276032  0.91115710  1
  O2-  O189  1  0.82087130  0.57388427  0.23390210  1
  O2-  O190  1  0.81920264  0.57117720  0.57028214  1
  O2-  O191  1  0.81997384  0.57119037  0.91080861  1
  O2-  O192  1  0.03259960  0.08684579  0.26252788  1
  O2-  O193  1  0.03620258  0.08520718  0.59726835  1
  O2-  O194  1  0.03644306  0.08631798  0.92933887  1
  O2-  O195  1  0.05309706  0.57915329  0.27583289  1
  O2-  O196  1  0.04543802  0.58017865  0.60756497  1
  O2-  O197  1  0.04905916  0.57472721  0.93646461  1
  O2-  O198  1  0.54375083  0.08271567  0.26157589  1
  O2-  O199  1  0.54845510  0.08475596  0.60898456  1
  O2-  O200  1  0.54649084  0.08093898  0.93735491  1
  O2-  O201  1  0.54329409  0.58157193  0.26790328  1
  O2-  O202  1  0.55043689  0.58061804  0.59837566  1
  O2-  O203  1  0.53627305  0.58662647  0.92766770  1
  O2-  O204  1  0.16591576  0.20661088  0.26198314  1
  O2-  O205  1  0.16472650  0.21154788  0.59666328  1
  O2-  O206  1  0.16539335  0.21133199  0.92977984  1
  O2-  O207  1  0.16374189  0.70503855  0.27410192  1
  O2-  O208  1  0.16931183  0.69493643  0.61086324  1
  O2-  O209  1  0.17153810  0.70385430  0.93145415  1
  O2-  O210  1  0.67672512  0.19901827  0.26941092  1
  O2-  O211  1  0.67096399  0.19898692  0.61044068  1
  O2-  O212  1  0.66789006  0.19885347  0.93678569  1
  O2-  O213  1  0.66595010  0.71362310  0.26255489  1
  O2-  O214  1  0.66930008  0.71449701  0.59944126  1
  O2-  O215  1  0.66465078  0.71111833  0.93172168  1
  O2-  O216  1  0.08474348  0.44610396  0.06202115  1
  O2-  O217  1  0.08416194  0.44371915  0.39446549  1
  O2-  O218  1  0.08559455  0.45420630  0.73738426  1
  O2-  O219  1  0.08652744  0.96201740  0.05996121  1
  O2-  O220  1  0.08283764  0.96799271  0.39900861  1
  O2-  O221  1  0.08296563  0.96510144  0.73715637  1
  O2-  O222  1  0.58596651  0.46187669  0.05789215  1
  O2-  O223  1  0.57888052  0.45066424  0.39883890  1
  O2-  O224  1  0.58198828  0.45159747  0.72896091  1
  O2-  O225  1  0.58633698  0.95531567  0.06514152  1
  O2-  O226  1  0.58414266  0.95705214  0.39128501  1
  O2-  O227  1  0.58354968  0.96099212  0.73832652  1
  O2-  O228  1  0.21272798  0.33588305  0.06232377  1
  O2-  O229  1  0.20739023  0.33009988  0.39167803  1
  O2-  O230  1  0.21601700  0.33151968  0.73326679  1
  O2-  O231  1  0.20322787  0.83644309  0.06161583  1
  O2-  O232  1  0.20169609  0.83399281  0.40235160  1
  O2-  O233  1  0.20357570  0.83057702  0.73924446  1
  O2-  O234  1  0.70016755  0.33554603  0.05938409  1
  O2-  O235  1  0.70917192  0.33004448  0.40159255  1
  O2-  O236  1  0.70363172  0.33370571  0.73550991  1
  O2-  O237  1  0.70793549  0.83637258  0.06384536  1
  O2-  O238  1  0.70976506  0.84196506  0.39297276  1
  O2-  O239  1  0.71411661  0.83720342  0.73570662  1
  O2-  O240  1  0.45646414  0.42054028  0.26357062  1
  O2-  O241  1  0.45684248  0.41661199  0.59789222  1
  O2-  O242  1  0.46232419  0.41366267  0.92723666  1
  O2-  O243  1  0.45014798  0.92002414  0.26517822  1
  O2-  O244  1  0.45482503  0.92250310  0.60358788  1
  O2-  O245  1  0.44990928  0.92003728  0.94103548  1
  O2-  O246  1  0.95067065  0.41929726  0.27252831  1
  O2-  O247  1  0.95360862  0.41875106  0.60708626  1
  O2-  O248  1  0.94675447  0.41722592  0.94075520  1
  O2-  O249  1  0.96430309  0.91297596  0.26317865  1
  O2-  O250  1  0.96062271  0.91633818  0.59902438  1
  O2-  O251  1  0.95731467  0.91779588  0.93031201  1
  O2-  O252  1  0.33485647  0.28938098  0.26029993  1
  O2-  O253  1  0.33669308  0.28470534  0.59559422  1
  O2-  O254  1  0.33580063  0.28625451  0.93016225  1
  O2-  O255  1  0.32452653  0.79223510  0.26832104  1
  O2-  O256  1  0.32491214  0.79841156  0.60583148  1
  O2-  O257  1  0.33311925  0.79866596  0.93999342  1
  O2-  O258  1  0.83685871  0.29577510  0.27014904  1
  O2-  O259  1  0.83223599  0.30092110  0.60557144  1
  O2-  O260  1  0.83165959  0.29446435  0.93739904  1
  O2-  O261  1  0.83389591  0.79280654  0.26286300  1
  O2-  O262  1  0.83574559  0.78794668  0.60018255  1
  O2-  O263  1  0.83084565  0.79230748  0.93136671  1
  O2-  O264  1  0.41403109  0.05010080  0.06425259  1
  O2-  O265  1  0.41784475  0.05169268  0.39317808  1
  O2-  O266  1  0.41547362  0.05314745  0.73098596  1
  O2-  O267  1  0.41159227  0.53633273  0.05943685  1
  O2-  O268  1  0.41562642  0.54033683  0.40168860  1
  O2-  O269  1  0.41919969  0.54345028  0.72904948  1
  O2-  O270  1  0.91335838  0.04187178  0.06242557  1
  O2-  O271  1  0.91116546  0.03520615  0.39560481  1
  O2-  O272  1  0.91520707  0.04247559  0.73066736  1
  O2-  O273  1  0.91324734  0.54593412  0.06339974  1
  O2-  O274  1  0.91990292  0.54803172  0.40195975  1
  O2-  O275  1  0.91448193  0.53933926  0.74044686  1
  O2-  O276  1  0.28829913  0.16329016  0.06364988  1
  O2-  O277  1  0.29360348  0.16557108  0.39414910  1
  O2-  O278  1  0.28834317  0.16322795  0.73011298  1
  O2-  O279  1  0.29683594  0.66297915  0.06083335  1
  O2-  O280  1  0.28806191  0.66437195  0.40486732  1
  O2-  O281  1  0.30069290  0.66433218  0.73385533  1
  O2-  O282  1  0.79420288  0.16289976  0.06494930  1
  O2-  O283  1  0.80508695  0.16400087  0.39496626  1
  O2-  O284  1  0.80398763  0.16830933  0.73061108  1
  O2-  O285  1  0.78989881  0.66346097  0.06116592  1
  O2-  O286  1  0.79044119  0.67406073  0.39931222  1
  O2-  O287  1  0.78748357  0.66693431  0.73843970  1
