# generated using pymatgen
data_Ca2Al2SiO7
_symmetry_space_group_name_H-M   'P 1'
_cell_length_a   15.46361140
_cell_length_b   15.46242445
_cell_length_c   15.28855217
_cell_angle_alpha   89.99683697
_cell_angle_beta   90.00002078
_cell_angle_gamma   89.98479884
_symmetry_Int_Tables_number   1
_chemical_formula_structural   Ca2Al2SiO7
_chemical_formula_sum   'Ca48 Al48 Si24 O168'
_cell_volume   3655.56795366
_cell_formula_units_Z   24
loop_
 _symmetry_equiv_pos_site_id
 _symmetry_equiv_pos_as_xyz
  1  'x, y, z'
loop_
 _atom_type_symbol
 _atom_type_oxidation_number
  Ca2+  2.0
  Al0+  0.0
  Si0+  0.0
  O2-  -2.0
loop_
 _atom_site_type_symbol
 _atom_site_label
 _atom_site_symmetry_multiplicity
 _atom_site_fract_x
 _atom_site_fract_y
 _atom_site_fract_z
 _atom_site_occupancy
  Ca2+  Ca0  1  0.17172567  0.07807473  0.16412082  1
  Ca2+  Ca1  1  0.17144254  0.07894505  0.50696837  1
  Ca2+  Ca2  1  0.17598954  0.08603439  0.84058963  1
  Ca2+  Ca3  1  0.17608574  0.58086517  0.16716375  1
  Ca2+  Ca4  1  0.17093487  0.57609582  0.51365926  1
  Ca2+  Ca5  1  0.17374163  0.57738128  0.83192056  1
  Ca2+  Ca6  1  0.66841493  0.08765674  0.17126370  1
  Ca2+  Ca7  1  0.65692413  0.08231817  0.50290170  1
  Ca2+  Ca8  1  0.67158817  0.09480235  0.83909615  1
  Ca2+  Ca9  1  0.65938469  0.57693344  0.17263535  1
  Ca2+  Ca10  1  0.66723940  0.57456939  0.50225359  1
  Ca2+  Ca11  1  0.66470692  0.58262760  0.83999137  1
  Ca2+  Ca12  1  0.07944170  0.32408365  0.15942009  1
  Ca2+  Ca13  1  0.08746831  0.32981789  0.50389742  1
  Ca2+  Ca14  1  0.08200042  0.32380401  0.82390210  1
  Ca2+  Ca15  1  0.08125764  0.84644503  0.16378775  1
  Ca2+  Ca16  1  0.08495535  0.82742404  0.49324500  1
  Ca2+  Ca17  1  0.09010775  0.82976525  0.82967709  1
  Ca2+  Ca18  1  0.57757780  0.32757831  0.16351996  1
  Ca2+  Ca19  1  0.57424292  0.32466256  0.49345501  1
  Ca2+  Ca20  1  0.56975418  0.32235193  0.83198214  1
  Ca2+  Ca21  1  0.58010671  0.82890695  0.15919803  1
  Ca2+  Ca22  1  0.57651647  0.83594143  0.49740513  1
  Ca2+  Ca23  1  0.56838789  0.83096040  0.83182818  1
  Ca2+  Ca24  1  0.34813451  0.41998406  0.16604000  1
  Ca2+  Ca25  1  0.33453624  0.42002202  0.51161463  1
  Ca2+  Ca26  1  0.34155175  0.42271669  0.83632470  1
  Ca2+  Ca27  1  0.32884721  0.92027102  0.16600879  1
  Ca2+  Ca28  1  0.33176400  0.92275073  0.50784888  1
  Ca2+  Ca29  1  0.33353493  0.92661866  0.83976630  1
  Ca2+  Ca30  1  0.82311410  0.41889309  0.17394509  1
  Ca2+  Ca31  1  0.82708662  0.40768312  0.50618695  1
  Ca2+  Ca32  1  0.83389289  0.41198945  0.83534479  1
  Ca2+  Ca33  1  0.82648595  0.92181043  0.17372638  1
  Ca2+  Ca34  1  0.82717778  0.91269397  0.49851312  1
  Ca2+  Ca35  1  0.82871398  0.92485560  0.84174947  1
  Ca2+  Ca36  1  0.42579986  0.17362361  0.15658504  1
  Ca2+  Ca37  1  0.41906375  0.17417819  0.49746273  1
  Ca2+  Ca38  1  0.41792054  0.16710706  0.82360171  1
  Ca2+  Ca39  1  0.42152105  0.67244900  0.15333845  1
  Ca2+  Ca40  1  0.40714168  0.67251515  0.50198021  1
  Ca2+  Ca41  1  0.40253683  0.67734908  0.83420667  1
  Ca2+  Ca42  1  0.92212881  0.15979652  0.15838622  1
  Ca2+  Ca43  1  0.92319231  0.16845338  0.50440012  1
  Ca2+  Ca44  1  0.92914128  0.16444753  0.83027112  1
  Ca2+  Ca45  1  0.91698903  0.67619017  0.16479630  1
  Ca2+  Ca46  1  0.92533536  0.67060117  0.49684621  1
  Ca2+  Ca47  1  0.92684719  0.66913427  0.82488120  1
  Al0+  Al48  1  -0.00256762  0.00135334  0.00172697  1
  Al0+  Al49  1  0.00029661  -0.00153883  0.33527760  1
  Al0+  Al50  1  -0.00430319  -0.00031294  0.66287534  1
  Al0+  Al51  1  -0.00079831  0.50176896  0.00332248  1
  Al0+  Al52  1  0.00289422  0.50112347  0.33124286  1
  Al0+  Al53  1  -0.00145066  0.50136806  0.66277033  1
  Al0+  Al54  1  0.50166984  -0.00146939  -0.00267590  1
  Al0+  Al55  1  0.50112657  0.00091072  0.33295225  1
  Al0+  Al56  1  0.49840669  -0.00399612  0.66355327  1
  Al0+  Al57  1  0.50220901  0.49868383  -0.00236439  1
  Al0+  Al58  1  0.50158990  0.50081327  0.33814039  1
  Al0+  Al59  1  0.50239246  0.50126997  0.67060333  1
  Al0+  Al60  1  0.24809851  0.25106921  -0.00143477  1
  Al0+  Al61  1  0.24961074  0.25226369  0.32758863  1
  Al0+  Al62  1  0.24910424  0.24883991  0.66485091  1
  Al0+  Al63  1  0.24790605  0.74754050  0.00609292  1
  Al0+  Al64  1  0.25007435  0.74912801  0.33504756  1
  Al0+  Al65  1  0.24844904  0.74876189  0.66030099  1
  Al0+  Al66  1  0.74956810  0.25239124  0.00363043  1
  Al0+  Al67  1  0.75176702  0.25099251  0.33634877  1
  Al0+  Al68  1  0.75036625  0.24771652  0.66186466  1
  Al0+  Al69  1  0.75227262  0.75023288  -0.00364501  1
  Al0+  Al70  1  0.75249429  0.75175187  0.33411601  1
  Al0+  Al71  1  0.74813928  0.74899935  0.66813852  1
  Al0+  Al72  1  0.17699115  0.42794420  0.68112844  1
  Al0+  Al73  1  0.93062651  0.82019760  0.31850170  1
  Al0+  Al74  1  0.67852853  0.92938503  0.34709674  1
  Al0+  Al75  1  0.57192537  0.17824469  0.31714271  1
  Al0+  Al76  1  0.81794650  0.07150397  0.01311658  1
  Al0+  Al77  1  0.32051407  0.56770206  0.01456870  1
  Al0+  Al78  1  0.57242278  0.17774321  0.98601981  1
  Al0+  Al79  1  0.92976867  0.32096224  0.65268369  1
  Al0+  Al80  1  0.32006573  0.06943191  0.67777571  1
  Al0+  Al81  1  0.42840876  0.32326440  0.65237819  1
  Al0+  Al82  1  0.68039332  0.42946170  0.34942428  1
  Al0+  Al83  1  0.32489376  0.07419349  0.01454010  1
  Al0+  Al84  1  0.17989703  0.92989891  0.34852795  1
  Al0+  Al85  1  0.57027664  0.17767459  0.65114690  1
  Al0+  Al86  1  0.42851216  0.32346038  0.31758972  1
  Al0+  Al87  1  0.32234830  0.57157251  0.68290156  1
  Al0+  Al88  1  0.06937186  0.17826001  0.98749658  1
  Al0+  Al89  1  0.07311218  0.17647463  0.65099204  1
  Al0+  Al90  1  0.17932101  0.92917335  0.01293450  1
  Al0+  Al91  1  0.42801642  0.32019529  0.98407957  1
  Al0+  Al92  1  0.42855851  0.81803802  0.65174190  1
  Al0+  Al93  1  0.06975427  0.68089209  0.65322558  1
  Al0+  Al94  1  0.57269279  0.67836016  0.98599315  1
  Al0+  Al95  1  0.42596985  0.82060345  0.98644490  1
  Si0+  Si96  1  0.68127755  0.43170523  0.01572808  1
  Si0+  Si97  1  0.06994217  0.17862280  0.31733470  1
  Si0+  Si98  1  0.93024019  0.82153571  0.98424341  1
  Si0+  Si99  1  0.82319670  0.07229106  0.35271729  1
  Si0+  Si100  1  0.68083537  0.42673321  0.68386586  1
  Si0+  Si101  1  0.92432246  0.82185516  0.64999439  1
  Si0+  Si102  1  0.57112771  0.68078184  0.32166424  1
  Si0+  Si103  1  0.32160072  0.07342673  0.34878408  1
  Si0+  Si104  1  0.67816897  0.92699691  0.68289492  1
  Si0+  Si105  1  0.82364288  0.57360900  0.01595397  1
  Si0+  Si106  1  0.67910140  0.92515342  0.01547159  1
  Si0+  Si107  1  0.42768882  0.82113991  0.31831413  1
  Si0+  Si108  1  0.81926146  0.07055911  0.68237965  1
  Si0+  Si109  1  0.32146861  0.56957365  0.34854444  1
  Si0+  Si110  1  0.17737319  0.42869005  0.34783989  1
  Si0+  Si111  1  0.17497349  0.92803242  0.68010939  1
  Si0+  Si112  1  0.92971664  0.32290536  0.31799398  1
  Si0+  Si113  1  0.57561431  0.67847196  0.64830763  1
  Si0+  Si114  1  0.82400740  0.57213032  0.35062160  1
  Si0+  Si115  1  0.07388850  0.67785626  0.31306559  1
  Si0+  Si116  1  0.81974086  0.57147457  0.68215574  1
  Si0+  Si117  1  0.92826605  0.32423494  0.98668802  1
  Si0+  Si118  1  0.06988758  0.67724796  0.98554969  1
  Si0+  Si119  1  0.17440946  0.42798262  0.01800537  1
  O2-  O120  1  0.25360630  -0.00064251  0.06297179  1
  O2-  O121  1  0.25459761  0.00363617  0.39479808  1
  O2-  O122  1  0.24016427  -0.00082539  0.72379574  1
  O2-  O123  1  0.24875708  0.49057454  0.06306034  1
  O2-  O124  1  0.25129269  0.49710367  0.38866968  1
  O2-  O125  1  0.25459573  0.49422034  0.73129964  1
  O2-  O126  1  0.74073500  -0.00003045  0.06018137  1
  O2-  O127  1  0.74957161  0.00761667  0.39538457  1
  O2-  O128  1  0.74705146  0.00038766  0.72419370  1
  O2-  O129  1  0.75027835  0.50571422  0.05809818  1
  O2-  O130  1  0.75877853  0.50128798  0.39625803  1
  O2-  O131  1  0.75109269  0.49940772  0.72616384  1
  O2-  O132  1  -0.00219785  0.24968172  0.27557418  1
  O2-  O133  1  0.00433062  0.25253003  0.60135454  1
  O2-  O134  1  -0.00236555  0.25710744  0.94316848  1
  O2-  O135  1  0.00690266  0.74827241  0.26899931  1
  O2-  O136  1  -0.00291539  0.75767758  0.60640637  1
  O2-  O137  1  0.00209335  0.75138105  0.94299437  1
  O2-  O138  1  0.49876450  0.24940666  0.26855925  1
  O2-  O139  1  0.49871175  0.25008976  0.60185735  1
  O2-  O140  1  0.49083520  0.23873064  0.93614075  1
  O2-  O141  1  0.50121864  0.75168610  0.27819702  1
  O2-  O142  1  0.50211926  0.74168328  0.60434124  1
  O2-  O143  1  0.49867241  0.74812251  0.93669251  1
  O2-  O144  1  0.06516762  0.17854824  0.10143061  1
  O2-  O145  1  0.07017434  0.17970263  0.42210497  1
  O2-  O146  1  0.06760478  0.17234405  0.76418560  1
  O2-  O147  1  0.06581423  0.67355457  0.09054544  1
  O2-  O148  1  0.07235055  0.67673448  0.41848519  1
  O2-  O149  1  0.06754221  0.68217612  0.76675880  1
  O2-  O150  1  0.57786845  0.18435162  0.09917510  1
  O2-  O151  1  0.56907433  0.17876325  0.43043607  1
  O2-  O152  1  0.57319419  0.17988501  0.76444811  1
  O2-  O153  1  0.57329654  0.67970584  0.10060681  1
  O2-  O154  1  0.57041712  0.68058335  0.42661418  1
  O2-  O155  1  0.58460795  0.68364237  0.75295193  1
  O2-  O156  1  0.17157222  0.43135966  0.24300295  1
  O2-  O157  1  0.17599280  0.43314436  0.56676962  1
  O2-  O158  1  0.16525584  0.43359584  0.91365419  1
  O2-  O159  1  0.18024702  0.93186775  0.23581196  1
  O2-  O160  1  0.17669497  0.92809801  0.57416240  1
  O2-  O161  1  0.17712336  0.92858386  0.89937346  1
  O2-  O162  1  0.68176496  0.43400112  0.23610092  1
  O2-  O163  1  0.68294075  0.42903304  0.57866891  1
  O2-  O164  1  0.68564356  0.43117817  0.91073990  1
  O2-  O165  1  0.68195567  0.92491792  0.23442420  1
  O2-  O166  1  0.68104973  0.92471282  0.57763123  1
  O2-  O167  1  0.68572231  0.91945572  0.91012941  1
  O2-  O168  1  0.43600509  0.32393294  0.09758079  1
  O2-  O169  1  0.42820847  0.32517306  0.43079231  1
  O2-  O170  1  0.43211448  0.32340582  0.76547662  1
  O2-  O171  1  0.42758375  0.81755126  0.10084801  1
  O2-  O172  1  0.42688055  0.81891005  0.42343476  1
  O2-  O173  1  0.42886442  0.81879670  0.76424953  1
  O2-  O174  1  0.92911764  0.32581820  0.09277774  1
  O2-  O175  1  0.93153489  0.32466226  0.42253931  1
  O2-  O176  1  0.92784282  0.31844527  0.76647960  1
  O2-  O177  1  0.92840755  0.81961883  0.08931657  1
  O2-  O178  1  0.93022893  0.81602909  0.43152286  1
  O2-  O179  1  0.92188710  0.81981916  0.75577020  1
  O2-  O180  1  0.32001355  0.07233285  0.24338881  1
  O2-  O181  1  0.32076890  0.06575922  0.56422014  1
  O2-  O182  1  0.32185549  0.07265541  0.90093179  1
  O2-  O183  1  0.32170267  0.57080105  0.24340428  1
  O2-  O184  1  0.31869922  0.57290573  0.56852260  1
  O2-  O185  1  0.31622884  0.56981875  0.90236268  1
  O2-  O186  1  0.82518808  0.07033417  0.24693115  1
  O2-  O187  1  0.82132016  0.06946608  0.57741824  1
  O2-  O188  1  0.81988794  0.06892652  0.89986277  1
  O2-  O189  1  0.82291573  0.57175731  0.24468922  1
  O2-  O190  1  0.81696284  0.57451339  0.57717576  1
  O2-  O191  1  0.82686051  0.57250016  0.91099312  1
  O2-  O192  1  0.04016119  0.08703796  0.27154476  1
  O2-  O193  1  0.03716087  0.08026981  0.59571949  1
  O2-  O194  1  0.03211074  0.08451537  0.93273008  1
  O2-  O195  1  0.04619441  0.58498809  0.26588964  1
  O2-  O196  1  0.03469626  0.58734571  0.59627094  1
  O2-  O197  1  0.03632925  0.58776488  0.93695775  1
  O2-  O198  1  0.54763729  0.07815947  0.26520851  1
  O2-  O199  1  0.54322140  0.07825762  0.60030224  1
  O2-  O200  1  0.56102903  0.07457607  0.93797907  1
  O2-  O201  1  0.54215108  0.58940921  0.27450542  1
  O2-  O202  1  0.55580495  0.58218558  0.60669449  1
  O2-  O203  1  0.54955156  0.57938450  0.93402302  1
  O2-  O204  1  0.16039341  0.20761188  0.26830225  1
  O2-  O205  1  0.17060045  0.20103336  0.59538772  1
  O2-  O206  1  0.16593116  0.20568202  0.93394887  1
  O2-  O207  1  0.16843641  0.70217248  0.26867967  1
  O2-  O208  1  0.16387767  0.70951968  0.59426585  1
  O2-  O209  1  0.16217891  0.70238890  0.94003177  1
  O2-  O210  1  0.67293239  0.20722256  0.26912645  1
  O2-  O211  1  0.66863544  0.20488342  0.59777935  1
  O2-  O212  1  0.66849216  0.21731590  0.93335807  1
  O2-  O213  1  0.66381495  0.70599349  0.27481522  1
  O2-  O214  1  0.66662490  0.70880912  0.59829081  1
  O2-  O215  1  0.67191863  0.70533786  0.93269295  1
  O2-  O216  1  0.08361903  0.46079941  0.06884631  1
  O2-  O217  1  0.08685477  0.45948645  0.39685292  1
  O2-  O218  1  0.07919600  0.46277186  0.73283353  1
  O2-  O219  1  0.08151224  0.96173449  0.06651770  1
  O2-  O220  1  0.08257150  0.95841585  0.40231134  1
  O2-  O221  1  0.07819547  0.94719202  0.72285764  1
  O2-  O222  1  0.59037623  0.45919842  0.06425140  1
  O2-  O223  1  0.58653649  0.46564123  0.40552094  1
  O2-  O224  1  0.59025807  0.45480022  0.73246074  1
  O2-  O225  1  0.58280929  0.94086860  0.05803232  1
  O2-  O226  1  0.58061182  0.95561944  0.40180043  1
  O2-  O227  1  0.58525905  0.95077513  0.72820550  1
  O2-  O228  1  0.19258862  0.33237209  0.06195154  1
  O2-  O229  1  0.20116569  0.33490414  0.39275672  1
  O2-  O230  1  0.19493966  0.32599664  0.72893779  1
  O2-  O231  1  0.20094732  0.82987698  0.06839617  1
  O2-  O232  1  0.20877281  0.83122193  0.40040136  1
  O2-  O233  1  0.20286681  0.83442213  0.72373967  1
  O2-  O234  1  0.71278930  0.34288043  0.06671453  1
  O2-  O235  1  0.71137891  0.33329192  0.40389967  1
  O2-  O236  1  0.71278052  0.33555109  0.72942736  1
  O2-  O237  1  0.71325273  0.83426290  0.06388548  1
  O2-  O238  1  0.71419543  0.83418077  0.40280817  1
  O2-  O239  1  0.70976194  0.83670351  0.73135833  1
  O2-  O240  1  0.46246686  0.42234347  0.26732688  1
  O2-  O241  1  0.45897792  0.42297823  0.60192840  1
  O2-  O242  1  0.46712582  0.41476961  0.93066538  1
  O2-  O243  1  0.45361423  0.91346557  0.27260687  1
  O2-  O244  1  0.46300379  0.91158323  0.59440246  1
  O2-  O245  1  0.45387040  0.91817851  0.93236464  1
  O2-  O246  1  0.95861997  0.41446376  0.26944652  1
  O2-  O247  1  0.94993027  0.42085609  0.59923675  1
  O2-  O248  1  0.95138077  0.41901838  0.94137327  1
  O2-  O249  1  0.95948675  0.91784769  0.26542694  1
  O2-  O250  1  0.94310783  0.91627634  0.60395499  1
  O2-  O251  1  0.95661940  0.91290642  0.93647238  1
  O2-  O252  1  0.32838763  0.30148587  0.26439909  1
  O2-  O253  1  0.32907776  0.29846667  0.60057202  1
  O2-  O254  1  0.32439192  0.30822510  0.93813019  1
  O2-  O255  1  0.33693239  0.78973668  0.27128341  1
  O2-  O256  1  0.33318848  0.78833471  0.59460083  1
  O2-  O257  1  0.32744663  0.78815392  0.93592938  1
  O2-  O258  1  0.83676696  0.29853599  0.27169765  1
  O2-  O259  1  0.83448322  0.28640439  0.59660895  1
  O2-  O260  1  0.83502067  0.29878354  0.94158688  1
  O2-  O261  1  0.83502896  0.78661035  0.26317105  1
  O2-  O262  1  0.83299632  0.78960922  0.60285225  1
  O2-  O263  1  0.84031123  0.79196681  0.93437322  1
  O2-  O264  1  0.42460977  0.04663671  0.06630521  1
  O2-  O265  1  0.41548757  0.04824644  0.39366923  1
  O2-  O266  1  0.41523772  0.03305546  0.73141141  1
  O2-  O267  1  0.41955175  0.53944562  0.06674117  1
  O2-  O268  1  0.41311783  0.54569642  0.39762871  1
  O2-  O269  1  0.42392558  0.55283629  0.73394391  1
  O2-  O270  1  0.91181505  0.03601349  0.06940158  1
  O2-  O271  1  0.91412893  0.04020005  0.40027019  1
  O2-  O272  1  0.91053677  0.04043524  0.73054652  1
  O2-  O273  1  0.91298943  0.54425824  0.06789616  1
  O2-  O274  1  0.91966894  0.54892117  0.39368035  1
  O2-  O275  1  0.91185584  0.54580263  0.72941702  1
  O2-  O276  1  0.29317596  0.17209220  0.06772994  1
  O2-  O277  1  0.29277562  0.16758030  0.39228444  1
  O2-  O278  1  0.29445672  0.16714095  0.73051448  1
  O2-  O279  1  0.28663034  0.66183984  0.07238700  1
  O2-  O280  1  0.29161617  0.66090650  0.39603782  1
  O2-  O281  1  0.28486252  0.66903649  0.73280167  1
  O2-  O282  1  0.79312250  0.16944523  0.06851302  1
  O2-  O283  1  0.80473074  0.16804517  0.39669990  1
  O2-  O284  1  0.79207510  0.16246577  0.72962763  1
  O2-  O285  1  0.79875014  0.66683962  0.06229826  1
  O2-  O286  1  0.79582572  0.66436845  0.39723300  1
  O2-  O287  1  0.79100916  0.66267610  0.73150764  1
