# generated using pymatgen
data_Ca2Al2SiO7
_symmetry_space_group_name_H-M   'P 1'
_cell_length_a   15.46255523
_cell_length_b   15.46296466
_cell_length_c   15.28661650
_cell_angle_alpha   89.99529109
_cell_angle_beta   89.99893631
_cell_angle_gamma   89.98706010
_symmetry_Int_Tables_number   1
_chemical_formula_structural   Ca2Al2SiO7
_chemical_formula_sum   'Ca48 Al48 Si24 O168'
_cell_volume   3654.98319673
_cell_formula_units_Z   24
loop_
 _symmetry_equiv_pos_site_id
 _symmetry_equiv_pos_as_xyz
  1  'x, y, z'
loop_
 _atom_type_symbol
 _atom_type_oxidation_number
  Ca2+  2.0
  Al0+  0.0
  Si0+  0.0
  O2-  -2.0
loop_
 _atom_site_type_symbol
 _atom_site_label
 _atom_site_symmetry_multiplicity
 _atom_site_fract_x
 _atom_site_fract_y
 _atom_site_fract_z
 _atom_site_occupancy
  Ca2+  Ca0  1  0.17772301  0.08684436  0.16562244  1
  Ca2+  Ca1  1  0.17147952  0.07485176  0.51016434  1
  Ca2+  Ca2  1  0.17366829  0.07453062  0.84043978  1
  Ca2+  Ca3  1  0.16948164  0.58173370  0.16013611  1
  Ca2+  Ca4  1  0.16736000  0.57917845  0.51037460  1
  Ca2+  Ca5  1  0.16787750  0.57839359  0.84048699  1
  Ca2+  Ca6  1  0.67303267  0.09536921  0.16900521  1
  Ca2+  Ca7  1  0.67434468  0.09348553  0.50440669  1
  Ca2+  Ca8  1  0.67274099  0.09398897  0.83633339  1
  Ca2+  Ca9  1  0.66065087  0.57540708  0.17098541  1
  Ca2+  Ca10  1  0.66449421  0.57130686  0.50854139  1
  Ca2+  Ca11  1  0.65834752  0.57999659  0.83696765  1
  Ca2+  Ca12  1  0.07074064  0.33755677  0.15850758  1
  Ca2+  Ca13  1  0.07098099  0.33800701  0.49926172  1
  Ca2+  Ca14  1  0.07379470  0.34298310  0.82908641  1
  Ca2+  Ca15  1  0.08105620  0.82634687  0.15973028  1
  Ca2+  Ca16  1  0.08869829  0.82976545  0.50233352  1
  Ca2+  Ca17  1  0.09248172  0.82209446  0.82823968  1
  Ca2+  Ca18  1  0.58311198  0.32560686  0.16088584  1
  Ca2+  Ca19  1  0.59526003  0.32644798  0.49854080  1
  Ca2+  Ca20  1  0.57908139  0.32629054  0.83056675  1
  Ca2+  Ca21  1  0.57419728  0.82730173  0.15663576  1
  Ca2+  Ca22  1  0.57217564  0.83344284  0.49699598  1
  Ca2+  Ca23  1  0.57398828  0.82272389  0.82770289  1
  Ca2+  Ca24  1  0.33600668  0.41977605  0.16395185  1
  Ca2+  Ca25  1  0.32442857  0.41887266  0.51045101  1
  Ca2+  Ca26  1  0.32183169  0.41901485  0.84735934  1
  Ca2+  Ca27  1  0.34345955  0.91873590  0.16458090  1
  Ca2+  Ca28  1  0.33351059  0.91152340  0.50556450  1
  Ca2+  Ca29  1  0.33651710  0.91482605  0.83617510  1
  Ca2+  Ca30  1  0.82939248  0.41143465  0.17144209  1
  Ca2+  Ca31  1  0.82548778  0.40849183  0.50480030  1
  Ca2+  Ca32  1  0.82989138  0.41056758  0.83395085  1
  Ca2+  Ca33  1  0.82967795  0.93015667  0.17174502  1
  Ca2+  Ca34  1  0.83287741  0.93212612  0.50892568  1
  Ca2+  Ca35  1  0.83256859  0.93122550  0.84061423  1
  Ca2+  Ca36  1  0.42834069  0.17026429  0.15423838  1
  Ca2+  Ca37  1  0.43176566  0.16583538  0.49559098  1
  Ca2+  Ca38  1  0.42492125  0.16384554  0.83165435  1
  Ca2+  Ca39  1  0.41773474  0.67512827  0.15535965  1
  Ca2+  Ca40  1  0.41866920  0.67577695  0.50114381  1
  Ca2+  Ca41  1  0.41940081  0.67031433  0.83129354  1
  Ca2+  Ca42  1  0.90988701  0.17505022  0.16244602  1
  Ca2+  Ca43  1  0.90790019  0.17492023  0.49814048  1
  Ca2+  Ca44  1  0.91032561  0.17526359  0.82965057  1
  Ca2+  Ca45  1  0.92316193  0.66640635  0.15671082  1
  Ca2+  Ca46  1  0.92478955  0.66304284  0.50076152  1
  Ca2+  Ca47  1  0.93007568  0.66394650  0.82877514  1
  Al0+  Al48  1  -0.00126311  0.00201400  0.00784196  1
  Al0+  Al49  1  0.00197113  -0.00013896  0.33732504  1
  Al0+  Al50  1  0.00196289  0.00051323  0.67719256  1
  Al0+  Al51  1  -0.00202286  0.50034775  -0.00315332  1
  Al0+  Al52  1  0.00053863  0.50015278  0.32916583  1
  Al0+  Al53  1  -0.00134051  0.50039728  0.66036629  1
  Al0+  Al54  1  0.50145262  -0.00155099  -0.00399742  1
  Al0+  Al55  1  0.50120180  0.00007411  0.32539567  1
  Al0+  Al56  1  0.50224727  0.00035207  0.65745243  1
  Al0+  Al57  1  0.49778113  0.49848156  -0.00031751  1
  Al0+  Al58  1  0.49837864  0.49996140  0.34160228  1
  Al0+  Al59  1  0.49939384  0.49992609  0.66740429  1
  Al0+  Al60  1  0.24651997  0.24773399  0.00738226  1
  Al0+  Al61  1  0.24962582  0.24949959  0.33682546  1
  Al0+  Al62  1  0.24863112  0.24913075  0.67135973  1
  Al0+  Al63  1  0.24869710  0.74816875  -0.00226249  1
  Al0+  Al64  1  0.25076400  0.74936594  0.32895331  1
  Al0+  Al65  1  0.24982609  0.74963464  0.66176078  1
  Al0+  Al66  1  0.75085859  0.25158705  -0.00284917  1
  Al0+  Al67  1  0.75095472  0.25134183  0.33260835  1
  Al0+  Al68  1  0.74991464  0.25249676  0.66866913  1
  Al0+  Al69  1  0.75039593  0.75125312  -0.00238136  1
  Al0+  Al70  1  0.75114117  0.75018215  0.33515099  1
  Al0+  Al71  1  0.75146127  0.75029391  0.66268512  1
  Al0+  Al72  1  0.17487360  0.42797167  0.01672127  1
  Al0+  Al73  1  0.57131911  0.18023342  0.98393921  1
  Al0+  Al74  1  0.57307772  0.67642472  0.98668418  1
  Al0+  Al75  1  0.06847963  0.68096847  0.98625760  1
  Al0+  Al76  1  0.81905512  0.07123744  0.68222126  1
  Al0+  Al77  1  0.67915875  0.43075451  0.68313548  1
  Al0+  Al78  1  0.93171562  0.31847533  0.31898944  1
  Al0+  Al79  1  0.18126562  0.92798052  0.68049657  1
  Al0+  Al80  1  0.68034955  0.43123253  0.34638472  1
  Al0+  Al81  1  0.81980953  0.07008239  0.34833346  1
  Al0+  Al82  1  0.56989621  0.18247977  0.65159918  1
  Al0+  Al83  1  0.42849614  0.82091636  0.98338625  1
  Al0+  Al84  1  0.57036038  0.18280046  0.31885753  1
  Al0+  Al85  1  0.32104115  0.57038683  0.01539748  1
  Al0+  Al86  1  0.81884589  0.07269159  0.01606562  1
  Al0+  Al87  1  0.43049365  0.81971133  0.65011553  1
  Al0+  Al88  1  0.06922085  0.68069988  0.65172263  1
  Al0+  Al89  1  0.93070012  0.31950819  0.98506572  1
  Al0+  Al90  1  0.42493492  0.32065620  0.98674496  1
  Al0+  Al91  1  0.17699963  0.42886463  0.67966539  1
  Al0+  Al92  1  0.93115424  0.31854871  0.65207264  1
  Al0+  Al93  1  0.57429819  0.67537925  0.64939263  1
  Al0+  Al94  1  0.32317306  0.06949532  0.01314927  1
  Al0+  Al95  1  0.42972418  0.81876317  0.31640805  1
  Si0+  Si96  1  0.42406273  0.32219591  0.65120204  1
  Si0+  Si97  1  0.07404048  0.17483188  0.65197946  1
  Si0+  Si98  1  0.92867750  0.82633429  0.65098129  1
  Si0+  Si99  1  0.32513518  0.07143331  0.68140342  1
  Si0+  Si100  1  0.67700785  0.92628949  0.68220591  1
  Si0+  Si101  1  0.57271681  0.67563348  0.31862313  1
  Si0+  Si102  1  0.82076465  0.57262174  0.01273197  1
  Si0+  Si103  1  0.92772922  0.82542584  0.98456094  1
  Si0+  Si104  1  0.07521796  0.17493098  0.31721286  1
  Si0+  Si105  1  0.31867985  0.57197462  0.35008639  1
  Si0+  Si106  1  0.42328126  0.32371320  0.31896855  1
  Si0+  Si107  1  0.07227991  0.17500012  0.98436545  1
  Si0+  Si108  1  0.82525591  0.57446797  0.34969088  1
  Si0+  Si109  1  0.32323543  0.07091763  0.34831165  1
  Si0+  Si110  1  0.06977735  0.68010322  0.31667937  1
  Si0+  Si111  1  0.17809952  0.92693189  0.01843312  1
  Si0+  Si112  1  0.67688458  0.92622120  0.35004704  1
  Si0+  Si113  1  0.17719268  0.42911318  0.34916144  1
  Si0+  Si114  1  0.67901118  0.92591993  0.01658934  1
  Si0+  Si115  1  0.92858862  0.82369524  0.31976531  1
  Si0+  Si116  1  0.32043281  0.57120198  0.68254601  1
  Si0+  Si117  1  0.18115803  0.92783058  0.34775667  1
  Si0+  Si118  1  0.82257880  0.57362694  0.68267118  1
  Si0+  Si119  1  0.67919887  0.43042672  0.01417980  1
  O2-  O120  1  0.24870436  -0.00590904  0.06218594  1
  O2-  O121  1  0.25165243  -0.00026754  0.38982246  1
  O2-  O122  1  0.25625978  0.00274519  0.72504060  1
  O2-  O123  1  0.25122897  0.49594526  0.06690817  1
  O2-  O124  1  0.25057985  0.49752085  0.39157411  1
  O2-  O125  1  0.25559773  0.49869014  0.72582663  1
  O2-  O126  1  0.74421626  -0.00234051  0.06227946  1
  O2-  O127  1  0.74611582  -0.00584108  0.39503994  1
  O2-  O128  1  0.74596250  -0.00587821  0.72759852  1
  O2-  O129  1  0.74572851  0.50653174  0.05552112  1
  O2-  O130  1  0.75319515  0.50898629  0.39242986  1
  O2-  O131  1  0.74917156  0.51105499  0.72815652  1
  O2-  O132  1  0.00725099  0.24425634  0.27307456  1
  O2-  O133  1  0.00657615  0.24377290  0.60591117  1
  O2-  O134  1  0.00678258  0.24593152  0.93944787  1
  O2-  O135  1  -0.00457035  0.74889457  0.27649788  1
  O2-  O136  1  -0.00503436  0.75599343  0.60432972  1
  O2-  O137  1  -0.00322176  0.75828981  0.93942898  1
  O2-  O138  1  0.49263218  0.25577371  0.27546506  1
  O2-  O139  1  0.49371868  0.25589586  0.60442077  1
  O2-  O140  1  0.49445218  0.24760176  0.93501563  1
  O2-  O141  1  0.50731831  0.74587743  0.27263948  1
  O2-  O142  1  0.50455081  0.74973722  0.59963349  1
  O2-  O143  1  0.49988461  0.74685786  0.93693122  1
  O2-  O144  1  0.06954516  0.17345554  0.09034689  1
  O2-  O145  1  0.07809813  0.17428125  0.42273791  1
  O2-  O146  1  0.07427096  0.17392343  0.75707376  1
  O2-  O147  1  0.06552206  0.68211442  0.10022688  1
  O2-  O148  1  0.07111302  0.68011048  0.42176814  1
  O2-  O149  1  0.06890764  0.68049413  0.76423595  1
  O2-  O150  1  0.57337632  0.18452612  0.09784519  1
  O2-  O151  1  0.57042768  0.18395553  0.43209926  1
  O2-  O152  1  0.56906232  0.18222095  0.76405070  1
  O2-  O153  1  0.57461524  0.67874095  0.10102066  1
  O2-  O154  1  0.57032362  0.67600408  0.42379786  1
  O2-  O155  1  0.57180460  0.67666947  0.76253279  1
  O2-  O156  1  0.17486562  0.43063242  0.24474651  1
  O2-  O157  1  0.17801216  0.43208844  0.56541126  1
  O2-  O158  1  0.17284290  0.43336928  0.90329025  1
  O2-  O159  1  0.17967181  0.92683784  0.24302155  1
  O2-  O160  1  0.18185415  0.92965022  0.56641408  1
  O2-  O161  1  0.17615377  0.92838178  0.91307540  1
  O2-  O162  1  0.68110951  0.43228099  0.23297311  1
  O2-  O163  1  0.68404335  0.42853659  0.56967563  1
  O2-  O164  1  0.68141969  0.42901773  0.90932723  1
  O2-  O165  1  0.67987756  0.92349613  0.24469599  1
  O2-  O166  1  0.67885971  0.92784069  0.57618750  1
  O2-  O167  1  0.68357267  0.92230422  0.91144162  1
  O2-  O168  1  0.43117637  0.32081354  0.10104971  1
  O2-  O169  1  0.41836395  0.32138147  0.42453068  1
  O2-  O170  1  0.42294859  0.31963994  0.75618797  1
  O2-  O171  1  0.43084143  0.81926108  0.09755179  1
  O2-  O172  1  0.42669005  0.81685373  0.42914637  1
  O2-  O173  1  0.42958454  0.81868709  0.76279354  1
  O2-  O174  1  0.92840402  0.31903357  0.09856849  1
  O2-  O175  1  0.93271972  0.31860877  0.43194744  1
  O2-  O176  1  0.93116941  0.31881408  0.76481645  1
  O2-  O177  1  0.92892296  0.82275581  0.09097643  1
  O2-  O178  1  0.93176032  0.82491406  0.42458061  1
  O2-  O179  1  0.93007931  0.82550009  0.75626970  1
  O2-  O180  1  0.32203283  0.07162170  0.24352832  1
  O2-  O181  1  0.32311473  0.07214868  0.57511839  1
  O2-  O182  1  0.32073023  0.06792917  0.90014229  1
  O2-  O183  1  0.31800712  0.57355151  0.24553673  1
  O2-  O184  1  0.31703776  0.57060357  0.57587291  1
  O2-  O185  1  0.31834946  0.57160181  0.90212493  1
  O2-  O186  1  0.81883597  0.06927526  0.23543129  1
  O2-  O187  1  0.81822087  0.07119742  0.56863091  1
  O2-  O188  1  0.81871428  0.07185355  0.90317106  1
  O2-  O189  1  0.82801885  0.57534867  0.24402389  1
  O2-  O190  1  0.82507372  0.57041017  0.57674723  1
  O2-  O191  1  0.82359164  0.57152070  0.90810811  1
  O2-  O192  1  0.05039102  0.08086089  0.27184042  1
  O2-  O193  1  0.04796593  0.08072355  0.60660568  1
  O2-  O194  1  0.04450495  0.08143182  0.93924862  1
  O2-  O195  1  0.04369899  0.58842070  0.26864755  1
  O2-  O196  1  0.03582750  0.58653132  0.59377206  1
  O2-  O197  1  0.03333736  0.58683965  0.93198775  1
  O2-  O198  1  0.54357295  0.08551037  0.26479139  1
  O2-  O199  1  0.54305340  0.08607152  0.59460372  1
  O2-  O200  1  0.54974325  0.07981543  0.93364833  1
  O2-  O201  1  0.54382489  0.58184856  0.27456720  1
  O2-  O202  1  0.54245009  0.57739404  0.59637871  1
  O2-  O203  1  0.54618101  0.57788567  0.93552663  1
  O2-  O204  1  0.16928859  0.20084682  0.27154570  1
  O2-  O205  1  0.16843053  0.19836435  0.60535776  1
  O2-  O206  1  0.16754696  0.19463155  0.94095520  1
  O2-  O207  1  0.15961805  0.71184912  0.26858214  1
  O2-  O208  1  0.16422314  0.71176454  0.59470914  1
  O2-  O209  1  0.16448922  0.70888077  0.93180047  1
  O2-  O210  1  0.66541833  0.21718311  0.26507614  1
  O2-  O211  1  0.66569944  0.21755345  0.59882818  1
  O2-  O212  1  0.66700454  0.21528029  0.93080083  1
  O2-  O213  1  0.66943936  0.69583320  0.27583784  1
  O2-  O214  1  0.67510732  0.69838979  0.59783562  1
  O2-  O215  1  0.67172044  0.70413981  0.93329320  1
  O2-  O216  1  0.07823700  0.46519942  0.07005082  1
  O2-  O217  1  0.08641580  0.46171108  0.39651071  1
  O2-  O218  1  0.08089234  0.46455321  0.73021433  1
  O2-  O219  1  0.08538423  0.95394451  0.06716059  1
  O2-  O220  1  0.08971437  0.95367523  0.39728849  1
  O2-  O221  1  0.08646700  0.95622434  0.73849976  1
  O2-  O222  1  0.58668851  0.45303491  0.06236235  1
  O2-  O223  1  0.58281262  0.45625133  0.40298980  1
  O2-  O224  1  0.57979579  0.45543779  0.73458862  1
  O2-  O225  1  0.58412474  0.94823396  0.06041287  1
  O2-  O226  1  0.58250910  0.95374592  0.39336363  1
  O2-  O227  1  0.58283492  0.95316562  0.72522725  1
  O2-  O228  1  0.19388712  0.32754063  0.06958364  1
  O2-  O229  1  0.20113862  0.33585735  0.39648638  1
  O2-  O230  1  0.20018899  0.33026873  0.73288459  1
  O2-  O231  1  0.20097102  0.83254646  0.06356256  1
  O2-  O232  1  0.21058209  0.83584777  0.39474131  1
  O2-  O233  1  0.21210772  0.83085277  0.73238685  1
  O2-  O234  1  0.71415994  0.34137454  0.06235483  1
  O2-  O235  1  0.71680493  0.33680669  0.40065122  1
  O2-  O236  1  0.71577141  0.33712763  0.73788843  1
  O2-  O237  1  0.70796589  0.83393111  0.06629574  1
  O2-  O238  1  0.70033034  0.83204045  0.39698795  1
  O2-  O239  1  0.70101186  0.83161935  0.72679107  1
  O2-  O240  1  0.44867897  0.41913423  0.27704744  1
  O2-  O241  1  0.44659100  0.41693338  0.60643866  1
  O2-  O242  1  0.45258352  0.41835260  0.93376841  1
  O2-  O243  1  0.45833483  0.91593877  0.26300585  1
  O2-  O244  1  0.45699833  0.91791396  0.59407263  1
  O2-  O245  1  0.45707942  0.91803531  0.92973280  1
  O2-  O246  1  0.96073028  0.41632195  0.26526210  1
  O2-  O247  1  0.96089874  0.41434284  0.59559193  1
  O2-  O248  1  0.95885338  0.41633113  0.93127019  1
  O2-  O249  1  0.96115104  0.91354713  0.27083267  1
  O2-  O250  1  0.95911130  0.91913540  0.60537243  1
  O2-  O251  1  0.95264048  0.92020755  0.94178190  1
  O2-  O252  1  0.32972419  0.29881593  0.27226400  1
  O2-  O253  1  0.33018424  0.29598811  0.60427220  1
  O2-  O254  1  0.32328382  0.29631827  0.93986101  1
  O2-  O255  1  0.33356224  0.78630767  0.26232718  1
  O2-  O256  1  0.33341887  0.78815484  0.59502710  1
  O2-  O257  1  0.32887298  0.79487508  0.93352780  1
  O2-  O258  1  0.83602963  0.28705360  0.26479176  1
  O2-  O259  1  0.83516320  0.28540806  0.59880154  1
  O2-  O260  1  0.83563450  0.28735048  0.93035485  1
  O2-  O261  1  0.83507893  0.80055024  0.27318376  1
  O2-  O262  1  0.83467605  0.80510377  0.60372042  1
  O2-  O263  1  0.83497496  0.80092162  0.93811074  1
  O2-  O264  1  0.42039134  0.03895154  0.06736130  1
  O2-  O265  1  0.41551296  0.04171110  0.39389332  1
  O2-  O266  1  0.41917482  0.04446184  0.72466976  1
  O2-  O267  1  0.41976503  0.54353140  0.07056268  1
  O2-  O268  1  0.41040399  0.54810581  0.39978119  1
  O2-  O269  1  0.41550338  0.55159608  0.72629122  1
  O2-  O270  1  0.91515498  0.04289421  0.07246854  1
  O2-  O271  1  0.91785081  0.04033075  0.40136223  1
  O2-  O272  1  0.91587070  0.04322416  0.73699962  1
  O2-  O273  1  0.90974113  0.54028387  0.06332312  1
  O2-  O274  1  0.91849442  0.54544484  0.39567675  1
  O2-  O275  1  0.91422474  0.54133282  0.72854992  1
  O2-  O276  1  0.29114597  0.16372205  0.07222271  1
  O2-  O277  1  0.29616457  0.16248851  0.39760185  1
  O2-  O278  1  0.30017982  0.16425472  0.72856101  1
  O2-  O279  1  0.28716595  0.66772399  0.06936438  1
  O2-  O280  1  0.28486773  0.66229464  0.39734992  1
  O2-  O281  1  0.28955367  0.66332239  0.72654126  1
  O2-  O282  1  0.78594032  0.16951740  0.06897356  1
  O2-  O283  1  0.78686802  0.16632996  0.40090611  1
  O2-  O284  1  0.78518233  0.16656713  0.73530750  1
  O2-  O285  1  0.79996503  0.66662097  0.06039793  1
  O2-  O286  1  0.80587277  0.66959070  0.39600759  1
  O2-  O287  1  0.80699428  0.67071468  0.72543563  1
