# generated using pymatgen
data_Ca2Al2SiO7
_symmetry_space_group_name_H-M   'P 1'
_cell_length_a   15.45542296
_cell_length_b   15.45613537
_cell_length_c   15.28233968
_cell_angle_alpha   89.99753958
_cell_angle_beta   90.00195711
_cell_angle_gamma   90.00975247
_symmetry_Int_Tables_number   1
_chemical_formula_structural   Ca2Al2SiO7
_chemical_formula_sum   'Ca48 Al48 Si24 O168'
_cell_volume   3650.66219920
_cell_formula_units_Z   24
loop_
 _symmetry_equiv_pos_site_id
 _symmetry_equiv_pos_as_xyz
  1  'x, y, z'
loop_
 _atom_type_symbol
 _atom_type_oxidation_number
  Ca2+  2.0
  Al0+  0.0
  Si0+  0.0
  O2-  -2.0
loop_
 _atom_site_type_symbol
 _atom_site_label
 _atom_site_symmetry_multiplicity
 _atom_site_fract_x
 _atom_site_fract_y
 _atom_site_fract_z
 _atom_site_occupancy
  Ca2+  Ca0  1  0.17995937  0.07891609  0.17693864  1
  Ca2+  Ca1  1  0.17359200  0.07668058  0.50289685  1
  Ca2+  Ca2  1  0.17719409  0.07725982  0.83645441  1
  Ca2+  Ca3  1  0.16647601  0.58090549  0.17309416  1
  Ca2+  Ca4  1  0.17081649  0.58425303  0.49897340  1
  Ca2+  Ca5  1  0.15986901  0.57343030  0.83906419  1
  Ca2+  Ca6  1  0.66540802  0.08419555  0.17135059  1
  Ca2+  Ca7  1  0.66521025  0.07164983  0.50374960  1
  Ca2+  Ca8  1  0.67586024  0.08259048  0.83761550  1
  Ca2+  Ca9  1  0.67136270  0.58677814  0.17802181  1
  Ca2+  Ca10  1  0.67049905  0.58510944  0.50256896  1
  Ca2+  Ca11  1  0.66508378  0.57713998  0.83408065  1
  Ca2+  Ca12  1  0.08660005  0.32833106  0.16419776  1
  Ca2+  Ca13  1  0.08560395  0.32693884  0.49527525  1
  Ca2+  Ca14  1  0.08694737  0.33444375  0.82891210  1
  Ca2+  Ca15  1  0.09675863  0.81988664  0.16614512  1
  Ca2+  Ca16  1  0.07911130  0.84003192  0.49372224  1
  Ca2+  Ca17  1  0.08093565  0.83168025  0.82586884  1
  Ca2+  Ca18  1  0.57424903  0.32167656  0.15954038  1
  Ca2+  Ca19  1  0.58530439  0.32585030  0.49411527  1
  Ca2+  Ca20  1  0.57848641  0.32914730  0.83040753  1
  Ca2+  Ca21  1  0.57210210  0.83703289  0.16862277  1
  Ca2+  Ca22  1  0.57981003  0.83584598  0.48871139  1
  Ca2+  Ca23  1  0.57893795  0.83980432  0.83123753  1
  Ca2+  Ca24  1  0.33323339  0.42050530  0.16831156  1
  Ca2+  Ca25  1  0.33031779  0.42466157  0.50331824  1
  Ca2+  Ca26  1  0.32236404  0.41356661  0.84051825  1
  Ca2+  Ca27  1  0.33659901  0.92198243  0.17507693  1
  Ca2+  Ca28  1  0.32690959  0.92291258  0.50093149  1
  Ca2+  Ca29  1  0.33608859  0.92559351  0.83696651  1
  Ca2+  Ca30  1  0.83134264  0.42480209  0.17309658  1
  Ca2+  Ca31  1  0.82827467  0.42401076  0.50178244  1
  Ca2+  Ca32  1  0.82443551  0.41311246  0.83556874  1
  Ca2+  Ca33  1  0.82441321  0.91998066  0.17188413  1
  Ca2+  Ca34  1  0.82243141  0.91675860  0.50831611  1
  Ca2+  Ca35  1  0.83332363  0.92322158  0.83276829  1
  Ca2+  Ca36  1  0.42522323  0.15960247  0.15985376  1
  Ca2+  Ca37  1  0.41695905  0.16352952  0.49262842  1
  Ca2+  Ca38  1  0.41481474  0.16428561  0.83444824  1
  Ca2+  Ca39  1  0.40852409  0.68045855  0.16752644  1
  Ca2+  Ca40  1  0.42247370  0.67326805  0.48649273  1
  Ca2+  Ca41  1  0.41508266  0.67536568  0.83210982  1
  Ca2+  Ca42  1  0.92441846  0.16086224  0.16371265  1
  Ca2+  Ca43  1  0.92148051  0.16414148  0.49523630  1
  Ca2+  Ca44  1  0.91439518  0.16103680  0.82788425  1
  Ca2+  Ca45  1  0.92600250  0.66528430  0.16534194  1
  Ca2+  Ca46  1  0.92131803  0.67225187  0.49287952  1
  Ca2+  Ca47  1  0.92317264  0.67397430  0.82795889  1
  Al0+  Al48  1  -0.00085923  -0.00177861  0.00468607  1
  Al0+  Al49  1  -0.00043856  0.00159036  0.32883606  1
  Al0+  Al50  1  0.00093689  -0.00068247  0.66773558  1
  Al0+  Al51  1  -0.00048065  0.49852785  -0.00055166  1
  Al0+  Al52  1  -0.00268829  0.50102319  0.33548293  1
  Al0+  Al53  1  0.00021162  0.49978311  0.66767192  1
  Al0+  Al54  1  0.50162194  -0.00111935  -0.00633154  1
  Al0+  Al55  1  0.50116404  0.00153200  0.33328954  1
  Al0+  Al56  1  0.50110624  0.00087697  0.67208844  1
  Al0+  Al57  1  0.49827606  0.49908474  -0.00273093  1
  Al0+  Al58  1  0.50010865  0.49895620  0.33396355  1
  Al0+  Al59  1  0.50003590  0.49970235  0.66996053  1
  Al0+  Al60  1  0.24939721  0.24896137  0.00546492  1
  Al0+  Al61  1  0.24869868  0.25058106  0.33212756  1
  Al0+  Al62  1  0.25101693  0.25242632  0.67166865  1
  Al0+  Al63  1  0.25013948  0.74728666  -0.01330824  1
  Al0+  Al64  1  0.24856924  0.74903232  0.33490456  1
  Al0+  Al65  1  0.25139190  0.74967333  0.66761064  1
  Al0+  Al66  1  0.75084188  0.24930208  0.00241089  1
  Al0+  Al67  1  0.75004581  0.25191025  0.32837654  1
  Al0+  Al68  1  0.74987809  0.25195986  0.67071709  1
  Al0+  Al69  1  0.75057461  0.74983082  -0.00061414  1
  Al0+  Al70  1  0.75114632  0.75012438  0.33796341  1
  Al0+  Al71  1  0.75137804  0.74991370  0.66837784  1
  Al0+  Al72  1  0.42886717  0.82072779  0.32080455  1
  Al0+  Al73  1  0.17791472  0.42933653  0.01611222  1
  Al0+  Al74  1  0.17981932  0.43148630  0.67907526  1
  Al0+  Al75  1  0.17787725  0.92769143  0.34633853  1
  Al0+  Al76  1  0.82154974  0.07137514  0.01673206  1
  Al0+  Al77  1  0.67841966  0.92641213  0.68327413  1
  Al0+  Al78  1  0.57027841  0.17957483  0.32134734  1
  Al0+  Al79  1  0.32092054  0.06810750  0.01523189  1
  Al0+  Al80  1  0.82097632  0.57159844  0.34756876  1
  Al0+  Al81  1  0.67878183  0.42969843  0.68032495  1
  Al0+  Al82  1  0.32149780  0.57084457  0.34525240  1
  Al0+  Al83  1  0.43013760  0.82012901  0.98412970  1
  Al0+  Al84  1  0.42697750  0.32108233  0.98359522  1
  Al0+  Al85  1  0.06957591  0.67776727  0.98465957  1
  Al0+  Al86  1  0.32246813  0.07227429  0.34758353  1
  Al0+  Al87  1  0.68029861  0.93127011  0.34514348  1
  Al0+  Al88  1  0.57254348  0.17894952  0.98143589  1
  Al0+  Al89  1  0.06971550  0.67950748  0.32117114  1
  Al0+  Al90  1  0.17835755  0.92739017  0.68212615  1
  Al0+  Al91  1  0.07127013  0.17847610  0.31948001  1
  Al0+  Al92  1  0.32123784  0.07181135  0.68263461  1
  Al0+  Al93  1  0.82096971  0.07110419  0.67880039  1
  Al0+  Al94  1  0.57332708  0.67741837  0.32050642  1
  Al0+  Al95  1  0.93050221  0.82164732  0.65201842  1
  Si0+  Si96  1  0.82246251  0.07477090  0.34845951  1
  Si0+  Si97  1  0.92846098  0.32243328  0.31622462  1
  Si0+  Si98  1  0.92721511  0.32215645  0.65143676  1
  Si0+  Si99  1  0.32179998  0.57315411  0.01567626  1
  Si0+  Si100  1  0.07220252  0.67614984  0.64826068  1
  Si0+  Si101  1  0.57173069  0.18097089  0.65158538  1
  Si0+  Si102  1  0.57522791  0.67690910  0.98282775  1
  Si0+  Si103  1  0.67735911  0.42908238  0.01599867  1
  Si0+  Si104  1  0.17663683  0.42854000  0.34992003  1
  Si0+  Si105  1  0.07032858  0.17754438  0.98496499  1
  Si0+  Si106  1  0.81953277  0.57023029  0.01386204  1
  Si0+  Si107  1  0.92630317  0.82202870  0.98320251  1
  Si0+  Si108  1  0.42806816  0.32173281  0.65064555  1
  Si0+  Si109  1  0.67790795  0.42708244  0.34834486  1
  Si0+  Si110  1  0.17812202  0.92485888  0.01549609  1
  Si0+  Si111  1  0.93001514  0.32020921  0.98442335  1
  Si0+  Si112  1  0.82240522  0.57163250  0.68510949  1
  Si0+  Si113  1  0.92698577  0.82326860  0.31593880  1
  Si0+  Si114  1  0.56999954  0.67732516  0.65250859  1
  Si0+  Si115  1  0.43028319  0.82248006  0.65030423  1
  Si0+  Si116  1  0.42607905  0.32345076  0.31787601  1
  Si0+  Si117  1  0.67869819  0.92693988  0.01777360  1
  Si0+  Si118  1  0.07207233  0.18094279  0.65374269  1
  Si0+  Si119  1  0.32350507  0.57238258  0.68458513  1
  O2-  O120  1  0.24721150  -0.00809104  0.06067003  1
  O2-  O121  1  0.24883708  0.00102426  0.39587707  1
  O2-  O122  1  0.25180362  -0.00283984  0.73269392  1
  O2-  O123  1  0.25375800  0.50384446  0.06007719  1
  O2-  O124  1  0.24701552  0.49591705  0.39297216  1
  O2-  O125  1  0.25103754  0.50763683  0.72823814  1
  O2-  O126  1  0.74566247  -0.00247417  0.06172334  1
  O2-  O127  1  0.75493498  0.00594151  0.39264596  1
  O2-  O128  1  0.75071761  -0.00094465  0.73136978  1
  O2-  O129  1  0.74486718  0.50374836  0.05747342  1
  O2-  O130  1  0.74227135  0.49996357  0.39264974  1
  O2-  O131  1  0.75308453  0.50369642  0.72951957  1
  O2-  O132  1  -0.00420049  0.25277270  0.27197808  1
  O2-  O133  1  -0.00148143  0.25060909  0.61126860  1
  O2-  O134  1  -0.00120436  0.24768685  0.94107769  1
  O2-  O135  1  -0.00091098  0.75744842  0.27237442  1
  O2-  O136  1  0.00723218  0.74857489  0.60508469  1
  O2-  O137  1  -0.00254843  0.75546861  0.93949573  1
  O2-  O138  1  0.49273226  0.25200757  0.27555883  1
  O2-  O139  1  0.49804653  0.24958995  0.60871105  1
  O2-  O140  1  0.49882481  0.24984907  0.93144247  1
  O2-  O141  1  0.49974280  0.74695189  0.26988455  1
  O2-  O142  1  0.50218811  0.75094853  0.60992212  1
  O2-  O143  1  0.50641982  0.74508858  0.93844510  1
  O2-  O144  1  0.06824769  0.17966253  0.08995854  1
  O2-  O145  1  0.06992412  0.18134797  0.43324046  1
  O2-  O146  1  0.07158570  0.18359066  0.75913021  1
  O2-  O147  1  0.06817752  0.67678599  0.09779729  1
  O2-  O148  1  0.06674239  0.67620292  0.43396095  1
  O2-  O149  1  0.06758915  0.67281080  0.75394284  1
  O2-  O150  1  0.57243365  0.18131372  0.09526711  1
  O2-  O151  1  0.57276878  0.18209833  0.43496785  1
  O2-  O152  1  0.57331178  0.18432180  0.75625982  1
  O2-  O153  1  0.57916088  0.67719333  0.08779139  1
  O2-  O154  1  0.57207253  0.67868392  0.43467088  1
  O2-  O155  1  0.56681350  0.67462770  0.75780287  1
  O2-  O156  1  0.17523769  0.42958961  0.24441155  1
  O2-  O157  1  0.18166759  0.43005263  0.56611491  1
  O2-  O158  1  0.17608079  0.43135022  0.90274995  1
  O2-  O159  1  0.18069359  0.92739818  0.23249686  1
  O2-  O160  1  0.17837106  0.92993727  0.56884690  1
  O2-  O161  1  0.17640860  0.92842906  0.90986857  1
  O2-  O162  1  0.68136857  0.42570582  0.24271236  1
  O2-  O163  1  0.68061171  0.43016680  0.56738291  1
  O2-  O164  1  0.68012252  0.42954516  0.91056212  1
  O2-  O165  1  0.68082050  0.93190177  0.23200056  1
  O2-  O166  1  0.67710199  0.92734279  0.56962594  1
  O2-  O167  1  0.68223774  0.92478078  0.91227596  1
  O2-  O168  1  0.43089838  0.32421695  0.09706504  1
  O2-  O169  1  0.42735104  0.32528519  0.42401068  1
  O2-  O170  1  0.42814982  0.32301546  0.75531771  1
  O2-  O171  1  0.42849342  0.81963138  0.09689366  1
  O2-  O172  1  0.43054103  0.82028771  0.43471008  1
  O2-  O173  1  0.43100173  0.82019175  0.75559384  1
  O2-  O174  1  0.93091749  0.32289012  0.08937812  1
  O2-  O175  1  0.92763419  0.32256822  0.42211949  1
  O2-  O176  1  0.92684511  0.32362332  0.75669054  1
  O2-  O177  1  0.92139398  0.81924818  0.08839246  1
  O2-  O178  1  0.92660894  0.82175823  0.42166259  1
  O2-  O179  1  0.93109981  0.81830412  0.76550268  1
  O2-  O180  1  0.32293835  0.07087705  0.23396228  1
  O2-  O181  1  0.32032545  0.07342814  0.56932426  1
  O2-  O182  1  0.31752882  0.06783881  0.90214744  1
  O2-  O183  1  0.31945756  0.56972452  0.23219875  1
  O2-  O184  1  0.32580253  0.57014422  0.57893732  1
  O2-  O185  1  0.32116818  0.57258572  0.90983991  1
  O2-  O186  1  0.82088533  0.07391688  0.24276656  1
  O2-  O187  1  0.81874969  0.07277295  0.56527543  1
  O2-  O188  1  0.82276321  0.07042318  0.90375670  1
  O2-  O189  1  0.82269609  0.56785759  0.23389732  1
  O2-  O190  1  0.82234244  0.57021294  0.57962139  1
  O2-  O191  1  0.81882769  0.56786670  0.90865054  1
  O2-  O192  1  0.04079984  0.08366675  0.26133751  1
  O2-  O193  1  0.04598222  0.08901092  0.60675481  1
  O2-  O194  1  0.04260706  0.08451478  0.93957949  1
  O2-  O195  1  0.03470156  0.58360174  0.26706081  1
  O2-  O196  1  0.04265326  0.58347803  0.60158916  1
  O2-  O197  1  0.03270043  0.58255599  0.93039688  1
  O2-  O198  1  0.54206788  0.08411484  0.26504678  1
  O2-  O199  1  0.54582471  0.08727850  0.60716604  1
  O2-  O200  1  0.54836516  0.07992097  0.92914849  1
  O2-  O201  1  0.55051145  0.57666794  0.26957477  1
  O2-  O202  1  0.54061618  0.58586332  0.60445587  1
  O2-  O203  1  0.54937055  0.58303517  0.93670982  1
  O2-  O204  1  0.16661756  0.21121083  0.26375420  1
  O2-  O205  1  0.16238615  0.21413036  0.60647139  1
  O2-  O206  1  0.16161380  0.20703666  0.93863570  1
  O2-  O207  1  0.16661415  0.70600496  0.26582666  1
  O2-  O208  1  0.16924167  0.69593075  0.60706158  1
  O2-  O209  1  0.16508515  0.70244345  0.92616787  1
  O2-  O210  1  0.66587563  0.21212007  0.26518810  1
  O2-  O211  1  0.66247414  0.21340239  0.60428660  1
  O2-  O212  1  0.67154097  0.21165515  0.93108519  1
  O2-  O213  1  0.67256676  0.70544914  0.26910758  1
  O2-  O214  1  0.66492718  0.69962867  0.60935825  1
  O2-  O215  1  0.66879390  0.70163265  0.93452323  1
  O2-  O216  1  0.08075897  0.46066919  0.06915485  1
  O2-  O217  1  0.08357151  0.45469253  0.39651635  1
  O2-  O218  1  0.08172402  0.45812937  0.73365635  1
  O2-  O219  1  0.08416532  0.94751540  0.06179753  1
  O2-  O220  1  0.07799880  0.95741755  0.39631154  1
  O2-  O221  1  0.08118196  0.95710020  0.73610688  1
  O2-  O222  1  0.58394794  0.45309795  0.06116469  1
  O2-  O223  1  0.58317991  0.44561688  0.39425822  1
  O2-  O224  1  0.58324768  0.46093552  0.73639769  1
  O2-  O225  1  0.58423567  0.95174313  0.06059094  1
  O2-  O226  1  0.58537463  0.96306704  0.40100544  1
  O2-  O227  1  0.58169827  0.95641303  0.73713451  1
  O2-  O228  1  0.20660143  0.33286872  0.07045500  1
  O2-  O229  1  0.20156798  0.33495702  0.39584665  1
  O2-  O230  1  0.21163807  0.33714508  0.73627599  1
  O2-  O231  1  0.20447817  0.82857985  0.05473422  1
  O2-  O232  1  0.20276920  0.82965287  0.40073665  1
  O2-  O233  1  0.20301188  0.82683712  0.73304427  1
  O2-  O234  1  0.70995166  0.33948595  0.06387000  1
  O2-  O235  1  0.71019052  0.33594107  0.39658561  1
  O2-  O236  1  0.71192200  0.33595286  0.73761508  1
  O2-  O237  1  0.70629796  0.83331868  0.06367508  1
  O2-  O238  1  0.71031521  0.83544310  0.40071083  1
  O2-  O239  1  0.70569933  0.82768145  0.73638931  1
  O2-  O240  1  0.45453744  0.41517757  0.26956037  1
  O2-  O241  1  0.45820984  0.41378625  0.60393651  1
  O2-  O242  1  0.45425770  0.42027837  0.92960673  1
  O2-  O243  1  0.46092490  0.91753463  0.26727818  1
  O2-  O244  1  0.45797926  0.91524499  0.60544662  1
  O2-  O245  1  0.46276498  0.91432387  0.92707260  1
  O2-  O246  1  0.95590097  0.41522313  0.26948551  1
  O2-  O247  1  0.95593737  0.41382053  0.60348321  1
  O2-  O248  1  0.95816414  0.41088033  0.93466794  1
  O2-  O249  1  0.94620604  0.91807220  0.27009086  1
  O2-  O250  1  0.95859253  0.91902573  0.59768737  1
  O2-  O251  1  0.95168693  0.91657368  0.93876053  1
  O2-  O252  1  0.33128733  0.30340953  0.27271026  1
  O2-  O253  1  0.33571899  0.29543120  0.60334888  1
  O2-  O254  1  0.32699016  0.29198338  0.93364853  1
  O2-  O255  1  0.33100135  0.79107887  0.26768760  1
  O2-  O256  1  0.33772619  0.79431376  0.60449837  1
  O2-  O257  1  0.33629183  0.78791456  0.92469616  1
  O2-  O258  1  0.83508150  0.30016095  0.26788689  1
  O2-  O259  1  0.83551291  0.29515933  0.60317443  1
  O2-  O260  1  0.83736942  0.29386985  0.93781506  1
  O2-  O261  1  0.83548310  0.79197935  0.26939459  1
  O2-  O262  1  0.83324837  0.78857708  0.59932345  1
  O2-  O263  1  0.83437505  0.79320870  0.93443140  1
  O2-  O264  1  0.42037246  0.03822116  0.06340890  1
  O2-  O265  1  0.42013740  0.04444147  0.40100881  1
  O2-  O266  1  0.41958212  0.04515111  0.73571495  1
  O2-  O267  1  0.41645911  0.54945153  0.06057238  1
  O2-  O268  1  0.41783873  0.54012257  0.40133074  1
  O2-  O269  1  0.41493201  0.54351973  0.73277747  1
  O2-  O270  1  0.91781939  0.03950757  0.07180182  1
  O2-  O271  1  0.91704832  0.05140311  0.39240789  1
  O2-  O272  1  0.91944848  0.04480013  0.73234953  1
  O2-  O273  1  0.90914981  0.53685994  0.06170967  1
  O2-  O274  1  0.91408086  0.53539108  0.40523537  1
  O2-  O275  1  0.91514657  0.54373778  0.73126219  1
  O2-  O276  1  0.28981180  0.16411653  0.06916185  1
  O2-  O277  1  0.29406489  0.17192738  0.39891376  1
  O2-  O278  1  0.29102864  0.16944765  0.73599379  1
  O2-  O279  1  0.29306812  0.66706534  0.05864973  1
  O2-  O280  1  0.28976702  0.66512886  0.40237261  1
  O2-  O281  1  0.30193610  0.66713386  0.72930404  1
  O2-  O282  1  0.79418134  0.16934752  0.07025413  1
  O2-  O283  1  0.79878234  0.17003107  0.39204826  1
  O2-  O284  1  0.79356499  0.16941810  0.73328247  1
  O2-  O285  1  0.79660722  0.66351417  0.06058753  1
  O2-  O286  1  0.79407693  0.66723511  0.40432193  1
  O2-  O287  1  0.79683438  0.66425318  0.73231884  1
