# generated using pymatgen
data_Ca2Al2SiO7
_symmetry_space_group_name_H-M   'P 1'
_cell_length_a   15.45823784
_cell_length_b   15.45937036
_cell_length_c   15.28407000
_cell_angle_alpha   90.00877097
_cell_angle_beta   90.00019705
_cell_angle_gamma   90.02414138
_symmetry_Int_Tables_number   1
_chemical_formula_structural   Ca2Al2SiO7
_chemical_formula_sum   'Ca48 Al48 Si24 O168'
_cell_volume   3652.50451277
_cell_formula_units_Z   24
loop_
 _symmetry_equiv_pos_site_id
 _symmetry_equiv_pos_as_xyz
  1  'x, y, z'
loop_
 _atom_type_symbol
 _atom_type_oxidation_number
  Ca2+  2.0
  Al0+  0.0
  Si0+  0.0
  O2-  -2.0
loop_
 _atom_site_type_symbol
 _atom_site_label
 _atom_site_symmetry_multiplicity
 _atom_site_fract_x
 _atom_site_fract_y
 _atom_site_fract_z
 _atom_site_occupancy
  Ca2+  Ca0  1  0.16521489  0.07563911  0.16475638  1
  Ca2+  Ca1  1  0.16361824  0.07003374  0.50295610  1
  Ca2+  Ca2  1  0.17090865  0.07512439  0.84140458  1
  Ca2+  Ca3  1  0.17502969  0.58766317  0.17066960  1
  Ca2+  Ca4  1  0.17146385  0.57114097  0.50252760  1
  Ca2+  Ca5  1  0.16958604  0.57862640  0.84040788  1
  Ca2+  Ca6  1  0.67401568  0.06953692  0.17298071  1
  Ca2+  Ca7  1  0.67353216  0.07754733  0.50613839  1
  Ca2+  Ca8  1  0.66584632  0.07922797  0.83648853  1
  Ca2+  Ca9  1  0.67063903  0.57913671  0.16982016  1
  Ca2+  Ca10  1  0.68061562  0.58732404  0.50274969  1
  Ca2+  Ca11  1  0.67123579  0.57848863  0.83723299  1
  Ca2+  Ca12  1  0.08566670  0.32808057  0.16233498  1
  Ca2+  Ca13  1  0.08888026  0.33366773  0.49510500  1
  Ca2+  Ca14  1  0.08978411  0.32539080  0.82898723  1
  Ca2+  Ca15  1  0.07452614  0.83588644  0.15662940  1
  Ca2+  Ca16  1  0.07701099  0.83739242  0.49128411  1
  Ca2+  Ca17  1  0.08465963  0.83239351  0.83407324  1
  Ca2+  Ca18  1  0.57925266  0.33504819  0.16164685  1
  Ca2+  Ca19  1  0.57435929  0.32877685  0.49520706  1
  Ca2+  Ca20  1  0.57852399  0.32797565  0.82245085  1
  Ca2+  Ca21  1  0.58100646  0.83563637  0.15944249  1
  Ca2+  Ca22  1  0.58780116  0.83696429  0.49620393  1
  Ca2+  Ca23  1  0.57767232  0.84512435  0.83224314  1
  Ca2+  Ca24  1  0.32965462  0.42842883  0.17571582  1
  Ca2+  Ca25  1  0.32973405  0.41154245  0.49946281  1
  Ca2+  Ca26  1  0.33327957  0.41927847  0.83713523  1
  Ca2+  Ca27  1  0.32332114  0.91600090  0.16555354  1
  Ca2+  Ca28  1  0.31869725  0.91212200  0.50452432  1
  Ca2+  Ca29  1  0.32549274  0.92018139  0.84574773  1
  Ca2+  Ca30  1  0.82832279  0.42179046  0.17049938  1
  Ca2+  Ca31  1  0.84037293  0.43190015  0.50516660  1
  Ca2+  Ca32  1  0.82745073  0.42137063  0.83715286  1
  Ca2+  Ca33  1  0.82922231  0.91232476  0.17428488  1
  Ca2+  Ca34  1  0.82704922  0.92399154  0.50338174  1
  Ca2+  Ca35  1  0.82300391  0.91833809  0.83685471  1
  Ca2+  Ca36  1  0.41058252  0.17219049  0.16140821  1
  Ca2+  Ca37  1  0.41973971  0.17548367  0.49764118  1
  Ca2+  Ca38  1  0.42144814  0.16838678  0.82331782  1
  Ca2+  Ca39  1  0.41117601  0.67070726  0.15878769  1
  Ca2+  Ca40  1  0.42001870  0.66478691  0.49435290  1
  Ca2+  Ca41  1  0.41269274  0.67187152  0.83646486  1
  Ca2+  Ca42  1  0.92305384  0.16251264  0.16157424  1
  Ca2+  Ca43  1  0.91305124  0.16215294  0.49569590  1
  Ca2+  Ca44  1  0.92056406  0.16335433  0.83072150  1
  Ca2+  Ca45  1  0.92157381  0.67673571  0.16024584  1
  Ca2+  Ca46  1  0.91436728  0.67137187  0.49073093  1
  Ca2+  Ca47  1  0.91867733  0.67154898  0.83300145  1
  Al0+  Al48  1  -0.00072314  0.00173573  -0.00803496  1
  Al0+  Al49  1  -0.00058710  -0.00001379  0.33490561  1
  Al0+  Al50  1  -0.00126152  -0.00116006  0.67368912  1
  Al0+  Al51  1  -0.00134226  0.50000713  -0.00381114  1
  Al0+  Al52  1  0.00142691  0.49914115  0.33735505  1
  Al0+  Al53  1  0.00295519  0.50026940  0.67609847  1
  Al0+  Al54  1  0.50072664  0.00173276  0.00477366  1
  Al0+  Al55  1  0.49984880  -0.00005635  0.33507579  1
  Al0+  Al56  1  0.49903965  0.00040951  0.66027831  1
  Al0+  Al57  1  0.49971214  0.50034425  0.00630692  1
  Al0+  Al58  1  0.50007831  0.49971060  0.33196685  1
  Al0+  Al59  1  0.49991580  0.50269060  0.66021190  1
  Al0+  Al60  1  0.24961953  0.25045076  -0.00257511  1
  Al0+  Al61  1  0.25089686  0.24974604  0.33042698  1
  Al0+  Al62  1  0.24864412  0.24923677  0.66403613  1
  Al0+  Al63  1  0.24972160  0.74964375  -0.00162441  1
  Al0+  Al64  1  0.25115116  0.74867360  0.34226849  1
  Al0+  Al65  1  0.24892502  0.74696735  0.66827960  1
  Al0+  Al66  1  0.74866318  0.25057332  0.00451123  1
  Al0+  Al67  1  0.74967638  0.24914123  0.33343763  1
  Al0+  Al68  1  0.75198122  0.25099983  0.66354708  1
  Al0+  Al69  1  0.75008316  0.74860499  -0.00149376  1
  Al0+  Al70  1  0.74926815  0.74902510  0.33460512  1
  Al0+  Al71  1  0.75041480  0.75151912  0.67500536  1
  Al0+  Al72  1  0.42771458  0.32257466  0.65061234  1
  Al0+  Al73  1  0.67972583  0.92838109  0.01435330  1
  Al0+  Al74  1  0.92975875  0.82037307  0.32157659  1
  Al0+  Al75  1  0.17747783  0.92923721  0.01447572  1
  Al0+  Al76  1  0.17953299  0.92973485  0.34552163  1
  Al0+  Al77  1  0.82265962  0.57236763  0.68274757  1
  Al0+  Al78  1  0.82001343  0.56897174  0.34439031  1
  Al0+  Al79  1  0.07210488  0.67852341  0.98464130  1
  Al0+  Al80  1  0.18004965  0.42736900  0.34670149  1
  Al0+  Al81  1  0.82196950  0.07134375  0.34676030  1
  Al0+  Al82  1  0.07122760  0.18093654  0.98492117  1
  Al0+  Al83  1  0.43101891  0.82185520  0.98834942  1
  Al0+  Al84  1  0.17866666  0.92642682  0.68215087  1
  Al0+  Al85  1  0.67774290  0.92764983  0.34839286  1
  Al0+  Al86  1  0.92635745  0.82237398  0.98201442  1
  Al0+  Al87  1  0.82084073  0.07414580  0.68390281  1
  Al0+  Al88  1  0.18172569  0.42778087  0.68240713  1
  Al0+  Al89  1  0.31904584  0.57006155  0.01270003  1
  Al0+  Al90  1  0.67908640  0.42864371  0.01254418  1
  Al0+  Al91  1  0.32225796  0.07323145  0.01387066  1
  Al0+  Al92  1  0.42981677  0.31971908  0.31536013  1
  Al0+  Al93  1  0.32321872  0.57185047  0.35037770  1
  Al0+  Al94  1  0.67691197  0.93068940  0.68326028  1
  Al0+  Al95  1  0.57359271  0.17761170  0.64953496  1
  Si0+  Si96  1  0.42716777  0.81999914  0.65130947  1
  Si0+  Si97  1  0.57274628  0.68045810  0.65175164  1
  Si0+  Si98  1  0.32472663  0.57153846  0.68472135  1
  Si0+  Si99  1  0.07135669  0.67698055  0.64993202  1
  Si0+  Si100  1  0.67780991  0.43036491  0.67920888  1
  Si0+  Si101  1  0.57144762  0.67597008  0.98356764  1
  Si0+  Si102  1  0.07287469  0.67686528  0.31958890  1
  Si0+  Si103  1  0.57109760  0.18051252  0.98660046  1
  Si0+  Si104  1  0.57130618  0.67974374  0.31816833  1
  Si0+  Si105  1  0.82151028  0.07259009  0.01627385  1
  Si0+  Si106  1  0.06912088  0.17772752  0.65007787  1
  Si0+  Si107  1  0.31981404  0.07021002  0.67995044  1
  Si0+  Si108  1  0.17626664  0.42712196  0.01560588  1
  Si0+  Si109  1  0.43006972  0.32258777  0.98540675  1
  Si0+  Si110  1  0.93094150  0.32308526  0.65204781  1
  Si0+  Si111  1  0.06992551  0.17883965  0.31909714  1
  Si0+  Si112  1  0.92532411  0.32177651  0.98321646  1
  Si0+  Si113  1  0.42687328  0.82082988  0.31954421  1
  Si0+  Si114  1  0.82316549  0.57151656  0.01757926  1
  Si0+  Si115  1  0.32217524  0.07293708  0.35052109  1
  Si0+  Si116  1  0.92844735  0.32381688  0.31945659  1
  Si0+  Si117  1  0.67741664  0.42679265  0.35085912  1
  Si0+  Si118  1  0.57302564  0.17705635  0.31306209  1
  Si0+  Si119  1  0.92960139  0.81943599  0.65127124  1
  O2-  O120  1  0.24996447  0.00134787  0.06383743  1
  O2-  O121  1  0.25585694  0.00183407  0.39463661  1
  O2-  O122  1  0.25598296  -0.00110438  0.72639268  1
  O2-  O123  1  0.24140727  0.49869716  0.05967089  1
  O2-  O124  1  0.25249188  0.49793757  0.39834485  1
  O2-  O125  1  0.25902203  0.49973969  0.72793527  1
  O2-  O126  1  0.75896809  -0.00160310  0.06033585  1
  O2-  O127  1  0.74826061  0.00153315  0.39663605  1
  O2-  O128  1  0.74532316  0.00589613  0.73321679  1
  O2-  O129  1  0.75413659  0.50234893  0.06026737  1
  O2-  O130  1  0.74868127  0.49269763  0.39493934  1
  O2-  O131  1  0.74680427  0.49704802  0.72609089  1
  O2-  O132  1  -0.00212221  0.25050845  0.27829510  1
  O2-  O133  1  -0.00170480  0.24920686  0.60784018  1
  O2-  O134  1  -0.00349223  0.25631638  0.93815593  1
  O2-  O135  1  0.00629691  0.74717155  0.27532944  1
  O2-  O136  1  0.00116865  0.74897793  0.60738189  1
  O2-  O137  1  0.00064020  0.75099757  0.93345644  1
  O2-  O138  1  0.50443462  0.24530074  0.26725875  1
  O2-  O139  1  0.50169153  0.25154943  0.60158895  1
  O2-  O140  1  0.49907748  0.25006882  0.94300592  1
  O2-  O141  1  0.49903919  0.75045513  0.27756638  1
  O2-  O142  1  0.50153460  0.75177760  0.60961289  1
  O2-  O143  1  0.50697228  0.74869129  0.93927356  1
  O2-  O144  1  0.06969072  0.18239420  0.09863020  1
  O2-  O145  1  0.06989230  0.17849515  0.42449544  1
  O2-  O146  1  0.07030727  0.18025528  0.75490108  1
  O2-  O147  1  0.06973169  0.67732523  0.09861211  1
  O2-  O148  1  0.07007018  0.67626323  0.42560515  1
  O2-  O149  1  0.07165191  0.67722627  0.75463758  1
  O2-  O150  1  0.57194152  0.18321664  0.09153015  1
  O2-  O151  1  0.57245528  0.17950221  0.41841059  1
  O2-  O152  1  0.57070824  0.17933485  0.76401634  1
  O2-  O153  1  0.57009650  0.67437189  0.08935201  1
  O2-  O154  1  0.57253224  0.68024228  0.42371412  1
  O2-  O155  1  0.57123768  0.67604325  0.75642000  1
  O2-  O156  1  0.17931761  0.42772995  0.23324586  1
  O2-  O157  1  0.17978440  0.42926002  0.56961329  1
  O2-  O158  1  0.18046390  0.42589369  0.90992244  1
  O2-  O159  1  0.17865900  0.93064827  0.23311458  1
  O2-  O160  1  0.17785686  0.92794634  0.56839314  1
  O2-  O161  1  0.18137019  0.93085276  0.90084604  1
  O2-  O162  1  0.67828201  0.42859531  0.24495112  1
  O2-  O163  1  0.67934664  0.43405886  0.57370583  1
  O2-  O164  1  0.67966614  0.42935375  0.89905599  1
  O2-  O165  1  0.67852924  0.92686242  0.23472511  1
  O2-  O166  1  0.68082709  0.92739586  0.56996190  1
  O2-  O167  1  0.67670820  0.93388618  0.90170707  1
  O2-  O168  1  0.43137285  0.32251161  0.09045751  1
  O2-  O169  1  0.43081869  0.31747149  0.42830688  1
  O2-  O170  1  0.42984586  0.32236693  0.76485771  1
  O2-  O171  1  0.43131087  0.81942922  0.10170396  1
  O2-  O172  1  0.42641104  0.81907352  0.42507817  1
  O2-  O173  1  0.42639155  0.81949048  0.75622738  1
  O2-  O174  1  0.92470523  0.32089482  0.08915888  1
  O2-  O175  1  0.92954387  0.32600390  0.42461150  1
  O2-  O176  1  0.93195665  0.32332385  0.75705778  1
  O2-  O177  1  0.92572831  0.81997426  0.09619379  1
  O2-  O178  1  0.93043063  0.81934925  0.43524386  1
  O2-  O179  1  0.93007688  0.81737988  0.75593088  1
  O2-  O180  1  0.32033064  0.07343869  0.24511741  1
  O2-  O181  1  0.31593968  0.06900168  0.57407131  1
  O2-  O182  1  0.32290063  0.07329253  0.89992750  1
  O2-  O183  1  0.32129649  0.57359943  0.23682072  1
  O2-  O184  1  0.32333281  0.57455354  0.57938720  1
  O2-  O185  1  0.32245343  0.56574469  0.89954746  1
  O2-  O186  1  0.82308989  0.07055503  0.23314317  1
  O2-  O187  1  0.82326402  0.07031336  0.57048740  1
  O2-  O188  1  0.81630360  0.07756039  0.91109897  1
  O2-  O189  1  0.81744355  0.56670797  0.23164128  1
  O2-  O190  1  0.82225255  0.57261173  0.56923804  1
  O2-  O191  1  0.82186473  0.56974660  0.91180960  1
  O2-  O192  1  0.04040207  0.08846559  0.27010832  1
  O2-  O193  1  0.04011706  0.08494410  0.60460691  1
  O2-  O194  1  0.04161902  0.08626810  0.92745995  1
  O2-  O195  1  0.04661707  0.58350301  0.27330684  1
  O2-  O196  1  0.04176581  0.58441190  0.60485294  1
  O2-  O197  1  0.04367813  0.57938119  0.93053233  1
  O2-  O198  1  0.54754580  0.08212892  0.26933084  1
  O2-  O199  1  0.54332872  0.08059378  0.59380613  1
  O2-  O200  1  0.54402682  0.08869638  0.93959575  1
  O2-  O201  1  0.54615878  0.58717807  0.27080087  1
  O2-  O202  1  0.54588319  0.59040503  0.59960930  1
  O2-  O203  1  0.54028009  0.58389982  0.93661378  1
  O2-  O204  1  0.16096173  0.20659986  0.27059456  1
  O2-  O205  1  0.16039535  0.20510934  0.60129091  1
  O2-  O206  1  0.16713881  0.21268626  0.92847026  1
  O2-  O207  1  0.16855165  0.70123520  0.27770305  1
  O2-  O208  1  0.16439758  0.70219943  0.60301268  1
  O2-  O209  1  0.17023365  0.70453822  0.92972626  1
  O2-  O210  1  0.66712795  0.20284239  0.26712659  1
  O2-  O211  1  0.67237735  0.20621117  0.59675643  1
  O2-  O212  1  0.66250646  0.21007730  0.93908285  1
  O2-  O213  1  0.66188108  0.70760242  0.26856448  1
  O2-  O214  1  0.66528022  0.70967381  0.60568603  1
  O2-  O215  1  0.66660122  0.69518629  0.93885539  1
  O2-  O216  1  0.07974053  0.44675383  0.05763242  1
  O2-  O217  1  0.08238126  0.45461300  0.40215485  1
  O2-  O218  1  0.08753504  0.45970438  0.73952782  1
  O2-  O219  1  0.07797858  0.96039683  0.06338768  1
  O2-  O220  1  0.08510876  0.96391022  0.40151115  1
  O2-  O221  1  0.08383771  0.95869347  0.73608702  1
  O2-  O222  1  0.58496321  0.46083452  0.07010969  1
  O2-  O223  1  0.58510549  0.45549884  0.39624506  1
  O2-  O224  1  0.58424322  0.45770315  0.72456203  1
  O2-  O225  1  0.58556779  0.96270623  0.07033989  1
  O2-  O226  1  0.57819275  0.95364584  0.40079685  1
  O2-  O227  1  0.57511284  0.95578552  0.73094103  1
  O2-  O228  1  0.20450444  0.33481988  0.06171683  1
  O2-  O229  1  0.20846434  0.32861322  0.39954107  1
  O2-  O230  1  0.20942658  0.32939783  0.73447652  1
  O2-  O231  1  0.20602526  0.83083049  0.06569697  1
  O2-  O232  1  0.20840349  0.83431723  0.40300024  1
  O2-  O233  1  0.20809475  0.82873367  0.73348188  1
  O2-  O234  1  0.70926611  0.33372993  0.07063388  1
  O2-  O235  1  0.69933081  0.33205961  0.39457929  1
  O2-  O236  1  0.70248330  0.33643156  0.72407324  1
  O2-  O237  1  0.70394825  0.82832529  0.06456384  1
  O2-  O238  1  0.70622814  0.82968621  0.40119560  1
  O2-  O239  1  0.70633316  0.83368188  0.73810655  1
  O2-  O240  1  0.46090772  0.41763067  0.26322475  1
  O2-  O241  1  0.45419666  0.42167363  0.59696175  1
  O2-  O242  1  0.46102823  0.41373680  0.93871550  1
  O2-  O243  1  0.45169676  0.91403137  0.27364816  1
  O2-  O244  1  0.44972124  0.91204232  0.60190970  1
  O2-  O245  1  0.46152662  0.91925013  0.93476808  1
  O2-  O246  1  0.95843434  0.41394593  0.26945727  1
  O2-  O247  1  0.96357807  0.41475879  0.60626563  1
  O2-  O248  1  0.94592461  0.41633067  0.93728965  1
  O2-  O249  1  0.95953546  0.91725622  0.26776778  1
  O2-  O250  1  0.95807012  0.91246214  0.60634498  1
  O2-  O251  1  0.95038728  0.92126155  0.92906347  1
  O2-  O252  1  0.33278143  0.28905567  0.26145412  1
  O2-  O253  1  0.33020937  0.28998226  0.59705667  1
  O2-  O254  1  0.33743639  0.29812094  0.93848929  1
  O2-  O255  1  0.33506212  0.79083651  0.27311896  1
  O2-  O256  1  0.33640552  0.78746831  0.60319205  1
  O2-  O257  1  0.33604202  0.78923911  0.93252879  1
  O2-  O258  1  0.83523582  0.29932216  0.27246565  1
  O2-  O259  1  0.83825869  0.30193170  0.60320432  1
  O2-  O260  1  0.83225515  0.29300900  0.93700432  1
  O2-  O261  1  0.83362246  0.78665144  0.26819181  1
  O2-  O262  1  0.83677239  0.79028965  0.60648216  1
  O2-  O263  1  0.82875291  0.78966036  0.92837942  1
  O2-  O264  1  0.41930807  0.04690271  0.06961826  1
  O2-  O265  1  0.41656339  0.05055996  0.39550976  1
  O2-  O266  1  0.41552675  0.04933824  0.72235009  1
  O2-  O267  1  0.41399103  0.53863355  0.06918719  1
  O2-  O268  1  0.42270306  0.54411053  0.40128848  1
  O2-  O269  1  0.42014558  0.55003830  0.72855708  1
  O2-  O270  1  0.91801796  0.05288786  0.05696452  1
  O2-  O271  1  0.91913472  0.04335030  0.40179595  1
  O2-  O272  1  0.91732281  0.04230347  0.73806571  1
  O2-  O273  1  0.91652663  0.54512017  0.06321812  1
  O2-  O274  1  0.91615136  0.54012537  0.40037125  1
  O2-  O275  1  0.91692395  0.53962932  0.73850859  1
  O2-  O276  1  0.29169008  0.17164303  0.06635468  1
  O2-  O277  1  0.29314695  0.16509976  0.39662912  1
  O2-  O278  1  0.29194987  0.16277448  0.72599964  1
  O2-  O279  1  0.29083732  0.66691703  0.06648713  1
  O2-  O280  1  0.29577524  0.66816904  0.40768319  1
  O2-  O281  1  0.29478882  0.66329620  0.73174319  1
  O2-  O282  1  0.79232805  0.16393547  0.06537780  1
  O2-  O283  1  0.79682231  0.17149045  0.39892564  1
  O2-  O284  1  0.79974194  0.17601043  0.73341945  1
  O2-  O285  1  0.79644979  0.66454286  0.06300501  1
  O2-  O286  1  0.78598243  0.66315406  0.40071416  1
  O2-  O287  1  0.78959279  0.66616473  0.73884320  1
