# generated using pymatgen
data_Ca2Al2SiO7
_symmetry_space_group_name_H-M   'P 1'
_cell_length_a   15.46524423
_cell_length_b   15.46583509
_cell_length_c   15.28874332
_cell_angle_alpha   89.99727406
_cell_angle_beta   89.99113132
_cell_angle_gamma   90.04092545
_symmetry_Int_Tables_number   1
_chemical_formula_structural   Ca2Al2SiO7
_chemical_formula_sum   'Ca48 Al48 Si24 O168'
_cell_volume   3656.80524164
_cell_formula_units_Z   24
loop_
 _symmetry_equiv_pos_site_id
 _symmetry_equiv_pos_as_xyz
  1  'x, y, z'
loop_
 _atom_type_symbol
 _atom_type_oxidation_number
  Ca2+  2.0
  Al0+  0.0
  Si0+  0.0
  O2-  -2.0
loop_
 _atom_site_type_symbol
 _atom_site_label
 _atom_site_symmetry_multiplicity
 _atom_site_fract_x
 _atom_site_fract_y
 _atom_site_fract_z
 _atom_site_occupancy
  Ca2+  Ca0  1  0.18024218  0.08530976  0.17060706  1
  Ca2+  Ca1  1  0.17328917  0.09150242  0.50203035  1
  Ca2+  Ca2  1  0.16891324  0.08536211  0.83792149  1
  Ca2+  Ca3  1  0.17039849  0.57271559  0.17031830  1
  Ca2+  Ca4  1  0.17356708  0.56992401  0.50626562  1
  Ca2+  Ca5  1  0.17425340  0.57460796  0.83867202  1
  Ca2+  Ca6  1  0.67160185  0.08370493  0.17265178  1
  Ca2+  Ca7  1  0.67687073  0.08574856  0.50406727  1
  Ca2+  Ca8  1  0.67836886  0.07199854  0.83844936  1
  Ca2+  Ca9  1  0.67449087  0.58356656  0.17035575  1
  Ca2+  Ca10  1  0.67182968  0.57141534  0.50430210  1
  Ca2+  Ca11  1  0.67408395  0.58359529  0.83542226  1
  Ca2+  Ca12  1  0.07871281  0.34201791  0.16615191  1
  Ca2+  Ca13  1  0.08054195  0.33439674  0.49588948  1
  Ca2+  Ca14  1  0.08671507  0.33064077  0.82759064  1
  Ca2+  Ca15  1  0.08025289  0.83006874  0.16300221  1
  Ca2+  Ca16  1  0.07447805  0.82984295  0.49757568  1
  Ca2+  Ca17  1  0.07315007  0.83052876  0.82245350  1
  Ca2+  Ca18  1  0.58392939  0.33131056  0.16918197  1
  Ca2+  Ca19  1  0.58294834  0.33260227  0.48750108  1
  Ca2+  Ca20  1  0.58227046  0.33503489  0.82722387  1
  Ca2+  Ca21  1  0.58292211  0.82919917  0.16048941  1
  Ca2+  Ca22  1  0.58136130  0.83325762  0.49503956  1
  Ca2+  Ca23  1  0.59333669  0.83007351  0.83215211  1
  Ca2+  Ca24  1  0.32311791  0.41287431  0.17204936  1
  Ca2+  Ca25  1  0.32583809  0.41192377  0.50469646  1
  Ca2+  Ca26  1  0.32320556  0.42433204  0.83667314  1
  Ca2+  Ca27  1  0.34100275  0.92528664  0.17187106  1
  Ca2+  Ca28  1  0.33804450  0.92062121  0.49736273  1
  Ca2+  Ca29  1  0.33045153  0.92419072  0.83957567  1
  Ca2+  Ca30  1  0.83011350  0.42626290  0.17929743  1
  Ca2+  Ca31  1  0.82605805  0.41943928  0.50092527  1
  Ca2+  Ca32  1  0.82988064  0.42511316  0.83539505  1
  Ca2+  Ca33  1  0.82707185  0.92788148  0.16823230  1
  Ca2+  Ca34  1  0.82873977  0.92616943  0.50929930  1
  Ca2+  Ca35  1  0.82943575  0.92125887  0.83540616  1
  Ca2+  Ca36  1  0.41697875  0.16751624  0.16823043  1
  Ca2+  Ca37  1  0.42684580  0.17277926  0.48577441  1
  Ca2+  Ca38  1  0.41638268  0.16647348  0.83028355  1
  Ca2+  Ca39  1  0.42183311  0.67022972  0.15724369  1
  Ca2+  Ca40  1  0.41515073  0.67115317  0.49340365  1
  Ca2+  Ca41  1  0.42014776  0.65832824  0.83063326  1
  Ca2+  Ca42  1  0.90798467  0.17388015  0.16538517  1
  Ca2+  Ca43  1  0.91841110  0.16942167  0.49309426  1
  Ca2+  Ca44  1  0.92238849  0.16144385  0.82401756  1
  Ca2+  Ca45  1  0.91234471  0.66216046  0.16080630  1
  Ca2+  Ca46  1  0.90567975  0.66796935  0.49882934  1
  Ca2+  Ca47  1  0.90860869  0.67000463  0.82647744  1
  Al0+  Al48  1  -0.00069351  0.00088071  0.00318410  1
  Al0+  Al49  1  0.00090109  -0.00204019  0.33390079  1
  Al0+  Al50  1  0.00256289  -0.00081081  0.65861340  1
  Al0+  Al51  1  -0.00071337  0.49995033  0.00334014  1
  Al0+  Al52  1  0.00257501  0.50086513  0.33833891  1
  Al0+  Al53  1  0.00098235  0.49889427  0.67226652  1
  Al0+  Al54  1  0.49970323  -0.00027264  0.00418843  1
  Al0+  Al55  1  0.49961029  -0.00084961  0.32972833  1
  Al0+  Al56  1  0.50064331  -0.00009171  0.66930169  1
  Al0+  Al57  1  0.49913577  0.50059479  -0.00366260  1
  Al0+  Al58  1  0.49980038  0.50134100  0.32952449  1
  Al0+  Al59  1  0.49929384  0.50039241  0.67004712  1
  Al0+  Al60  1  0.24847543  0.24928149  0.00595711  1
  Al0+  Al61  1  0.25094997  0.24822003  0.33819097  1
  Al0+  Al62  1  0.25084707  0.24990245  0.66621896  1
  Al0+  Al63  1  0.24898900  0.74960004  0.00001176  1
  Al0+  Al64  1  0.24836728  0.75087596  0.32758515  1
  Al0+  Al65  1  0.25054413  0.75164750  0.66840820  1
  Al0+  Al66  1  0.74924348  0.25076346  -0.00212541  1
  Al0+  Al67  1  0.75188409  0.25061298  0.33139261  1
  Al0+  Al68  1  0.75130141  0.24918180  0.67456022  1
  Al0+  Al69  1  0.74843844  0.75029436  0.00308750  1
  Al0+  Al70  1  0.75053020  0.75261247  0.33429181  1
  Al0+  Al71  1  0.74767765  0.75001094  0.66469602  1
  Al0+  Al72  1  0.32014576  0.06991868  0.01330460  1
  Al0+  Al73  1  0.42708244  0.32277483  0.31777480  1
  Al0+  Al74  1  0.57304403  0.17964111  0.31824848  1
  Al0+  Al75  1  0.82279157  0.07287617  0.01593500  1
  Al0+  Al76  1  0.18096632  0.42876013  0.34925095  1
  Al0+  Al77  1  0.82004628  0.57101567  0.68123912  1
  Al0+  Al78  1  0.17950824  0.42920450  0.01680617  1
  Al0+  Al79  1  0.67754661  0.42962917  0.34554523  1
  Al0+  Al80  1  0.67983839  0.92901292  0.01672691  1
  Al0+  Al81  1  0.07211392  0.17942069  0.65258207  1
  Al0+  Al82  1  0.32085739  0.57415093  0.68023635  1
  Al0+  Al83  1  0.67734757  0.92963396  0.68045763  1
  Al0+  Al84  1  0.57046027  0.67961156  0.98417626  1
  Al0+  Al85  1  0.82213621  0.57325817  0.34888004  1
  Al0+  Al86  1  0.32268490  0.57224155  0.01657414  1
  Al0+  Al87  1  0.42840260  0.81961024  0.31891362  1
  Al0+  Al88  1  0.81846308  0.56935994  0.01317356  1
  Al0+  Al89  1  0.17958754  0.42669313  0.68230118  1
  Al0+  Al90  1  0.92776182  0.81847949  0.65202965  1
  Al0+  Al91  1  0.82192318  0.07161436  0.34715907  1
  Al0+  Al92  1  0.93197280  0.32104534  0.32089271  1
  Al0+  Al93  1  0.67759551  0.42688143  0.68196145  1
  Al0+  Al94  1  0.82506414  0.07037034  0.68065431  1
  Al0+  Al95  1  0.32102115  0.06850040  0.34884918  1
  Si0+  Si96  1  0.93033493  0.82074502  0.98596183  1
  Si0+  Si97  1  0.17926438  0.92887131  0.67984076  1
  Si0+  Si98  1  0.57126564  0.17803507  0.65453484  1
  Si0+  Si99  1  0.57137545  0.17778259  0.98242228  1
  Si0+  Si100  1  0.42689694  0.31855976  0.98382269  1
  Si0+  Si101  1  0.43097201  0.32036613  0.65340415  1
  Si0+  Si102  1  0.92690059  0.32276322  0.65123609  1
  Si0+  Si103  1  0.07074371  0.67767615  0.98422347  1
  Si0+  Si104  1  0.17765750  0.92549893  0.35113124  1
  Si0+  Si105  1  0.17633751  0.92715859  0.01544996  1
  Si0+  Si106  1  0.57343359  0.67911146  0.31640791  1
  Si0+  Si107  1  0.07010005  0.17990058  0.98705787  1
  Si0+  Si108  1  0.32092730  0.07019485  0.68037463  1
  Si0+  Si109  1  0.32161986  0.57449945  0.34707293  1
  Si0+  Si110  1  0.67584956  0.42638243  0.01629250  1
  Si0+  Si111  1  0.07259261  0.17570649  0.31531658  1
  Si0+  Si112  1  0.06991666  0.67995829  0.31762434  1
  Si0+  Si113  1  0.92824352  0.32279363  0.98438250  1
  Si0+  Si114  1  0.42693051  0.82318115  0.98094763  1
  Si0+  Si115  1  0.56902672  0.67892712  0.65027403  1
  Si0+  Si116  1  0.42723300  0.82361881  0.65199104  1
  Si0+  Si117  1  0.67818626  0.92931011  0.34990334  1
  Si0+  Si118  1  0.07395489  0.67729371  0.65042260  1
  Si0+  Si119  1  0.92789479  0.82192098  0.31573253  1
  O2-  O120  1  0.24851514  -0.00822776  0.05919457  1
  O2-  O121  1  0.24475368  -0.00464093  0.39587419  1
  O2-  O122  1  0.24872699  0.00079972  0.72296488  1
  O2-  O123  1  0.25249596  0.49977857  0.06728550  1
  O2-  O124  1  0.26086133  0.49988187  0.39291952  1
  O2-  O125  1  0.24784761  0.50315281  0.72978602  1
  O2-  O126  1  0.74739722  0.00504413  0.06611743  1
  O2-  O127  1  0.74585110  -0.00141935  0.39376892  1
  O2-  O128  1  0.75263976  -0.00148278  0.72958464  1
  O2-  O129  1  0.74508779  0.49426790  0.05990623  1
  O2-  O130  1  0.74918912  0.50141203  0.39619538  1
  O2-  O131  1  0.75024209  0.49780972  0.73232625  1
  O2-  O132  1  0.00431603  0.24444176  0.27097258  1
  O2-  O133  1  -0.00441328  0.25299638  0.60802450  1
  O2-  O134  1  -0.00304306  0.24816143  0.94384016  1
  O2-  O135  1  -0.00416078  0.74774041  0.27406278  1
  O2-  O136  1  0.00003716  0.74021904  0.60523369  1
  O2-  O137  1  0.00129500  0.75028006  0.94227399  1
  O2-  O138  1  0.50081968  0.25212176  0.26787765  1
  O2-  O139  1  0.50614424  0.25389383  0.61163057  1
  O2-  O140  1  0.50012949  0.24947411  0.94042743  1
  O2-  O141  1  0.50178631  0.74457559  0.27207077  1
  O2-  O142  1  0.49653450  0.75044744  0.61047703  1
  O2-  O143  1  0.49347735  0.75309582  0.93598502  1
  O2-  O144  1  0.07153883  0.17924865  0.09166231  1
  O2-  O145  1  0.07138231  0.17583831  0.42102944  1
  O2-  O146  1  0.07436033  0.17897184  0.76641851  1
  O2-  O147  1  0.06984199  0.67911816  0.08952452  1
  O2-  O148  1  0.07344953  0.68386504  0.42240336  1
  O2-  O149  1  0.07661800  0.68327931  0.75606043  1
  O2-  O150  1  0.57250102  0.17853268  0.08703448  1
  O2-  O151  1  0.57134898  0.17898988  0.43264294  1
  O2-  O152  1  0.56550681  0.17583546  0.75974941  1
  O2-  O153  1  0.57092280  0.68235283  0.09724375  1
  O2-  O154  1  0.57340114  0.68126715  0.42226648  1
  O2-  O155  1  0.56950364  0.67939679  0.75524033  1
  O2-  O156  1  0.17878190  0.43218316  0.23644925  1
  O2-  O157  1  0.18317415  0.42579382  0.56881087  1
  O2-  O158  1  0.18047622  0.42819015  0.90339181  1
  O2-  O159  1  0.17668367  0.92501572  0.24540533  1
  O2-  O160  1  0.18150136  0.92615650  0.57519527  1
  O2-  O161  1  0.17418283  0.92959139  0.90946575  1
  O2-  O162  1  0.67962946  0.43166873  0.23182203  1
  O2-  O163  1  0.67495690  0.42753806  0.56880360  1
  O2-  O164  1  0.67809755  0.42578115  0.91057161  1
  O2-  O165  1  0.68096897  0.92695023  0.24452104  1
  O2-  O166  1  0.67419475  0.93302091  0.56692018  1
  O2-  O167  1  0.68340722  0.92927405  0.90314723  1
  O2-  O168  1  0.42591637  0.31645606  0.08845745  1
  O2-  O169  1  0.42710475  0.31961564  0.43200301  1
  O2-  O170  1  0.42916000  0.31670565  0.75888082  1
  O2-  O171  1  0.42732179  0.82278489  0.08640591  1
  O2-  O172  1  0.42872856  0.81802501  0.43281022  1
  O2-  O173  1  0.42515312  0.82730376  0.75654504  1
  O2-  O174  1  0.92924524  0.32415589  0.08936217  1
  O2-  O175  1  0.93330860  0.32052579  0.43391840  1
  O2-  O176  1  0.92776725  0.32211502  0.75723249  1
  O2-  O177  1  0.93360292  0.82081627  0.09127379  1
  O2-  O178  1  0.92913542  0.82299861  0.42059394  1
  O2-  O179  1  0.93155305  0.81946480  0.76574797  1
  O2-  O180  1  0.31891352  0.06677360  0.23581058  1
  O2-  O181  1  0.32236536  0.06859734  0.57577246  1
  O2-  O182  1  0.31691174  0.07024622  0.89932833  1
  O2-  O183  1  0.31643000  0.57729024  0.24201018  1
  O2-  O184  1  0.32040499  0.57532315  0.56642107  1
  O2-  O185  1  0.31942753  0.57036049  0.90302477  1
  O2-  O186  1  0.82168315  0.06864820  0.23421425  1
  O2-  O187  1  0.82275071  0.07057660  0.56712622  1
  O2-  O188  1  0.82663892  0.06890307  0.90259699  1
  O2-  O189  1  0.82074132  0.57304503  0.23500607  1
  O2-  O190  1  0.81601780  0.57088435  0.56814642  1
  O2-  O191  1  0.81909930  0.56941438  0.90041025  1
  O2-  O192  1  0.04989216  0.08053411  0.27043273  1
  O2-  O193  1  0.04811536  0.08247936  0.59591055  1
  O2-  O194  1  0.04508393  0.08650338  0.93954049  1
  O2-  O195  1  0.04448336  0.58764213  0.27097045  1
  O2-  O196  1  0.05468411  0.58065023  0.60876189  1
  O2-  O197  1  0.04137663  0.58634067  0.93718435  1
  O2-  O198  1  0.54237366  0.08188208  0.26533542  1
  O2-  O199  1  0.53819156  0.08844687  0.60569036  1
  O2-  O200  1  0.54107390  0.08578882  0.93635949  1
  O2-  O201  1  0.55254350  0.58514926  0.26983199  1
  O2-  O202  1  0.54030134  0.58710524  0.60296607  1
  O2-  O203  1  0.54278621  0.58205341  0.92878912  1
  O2-  O204  1  0.16716286  0.20141495  0.27228568  1
  O2-  O205  1  0.16900489  0.21109384  0.59807597  1
  O2-  O206  1  0.16170812  0.20898890  0.93871391  1
  O2-  O207  1  0.15867168  0.71170214  0.26583662  1
  O2-  O208  1  0.16511639  0.71014927  0.60262753  1
  O2-  O209  1  0.16293813  0.70441307  0.93642871  1
  O2-  O210  1  0.67046594  0.20742819  0.26335529  1
  O2-  O211  1  0.66634269  0.19993001  0.61164846  1
  O2-  O212  1  0.66321913  0.20518738  0.93368761  1
  O2-  O213  1  0.66581681  0.70995832  0.26975904  1
  O2-  O214  1  0.65903889  0.70785427  0.60059648  1
  O2-  O215  1  0.66694646  0.71422689  0.93062466  1
  O2-  O216  1  0.08188329  0.46041350  0.06900187  1
  O2-  O217  1  0.08767893  0.46487836  0.40519166  1
  O2-  O218  1  0.08057358  0.44953893  0.73525464  1
  O2-  O219  1  0.08519270  0.95543845  0.06446641  1
  O2-  O220  1  0.08366278  0.94887273  0.39698862  1
  O2-  O221  1  0.08785338  0.95634077  0.72716957  1
  O2-  O222  1  0.58144281  0.45078670  0.05912481  1
  O2-  O223  1  0.57791079  0.45638807  0.39800706  1
  O2-  O224  1  0.57983571  0.45625453  0.73544920  1
  O2-  O225  1  0.57969239  0.95231262  0.06700634  1
  O2-  O226  1  0.58341098  0.95165389  0.39367432  1
  O2-  O227  1  0.58050577  0.95956041  0.73665151  1
  O2-  O228  1  0.20638970  0.33123181  0.07027824  1
  O2-  O229  1  0.20731388  0.33114356  0.40245887  1
  O2-  O230  1  0.21406860  0.33016692  0.73631389  1
  O2-  O231  1  0.19690027  0.83227840  0.06024851  1
  O2-  O232  1  0.20566985  0.83268198  0.39730305  1
  O2-  O233  1  0.20727889  0.83903285  0.73090122  1
  O2-  O234  1  0.70005653  0.33222126  0.06067290  1
  O2-  O235  1  0.70683977  0.33161883  0.39756717  1
  O2-  O236  1  0.70278074  0.32904547  0.73779025  1
  O2-  O237  1  0.71207168  0.83323391  0.07133627  1
  O2-  O238  1  0.70546858  0.83678795  0.39724159  1
  O2-  O239  1  0.70387766  0.83055493  0.73089065  1
  O2-  O240  1  0.45014958  0.42258639  0.26470017  1
  O2-  O241  1  0.45263161  0.41415840  0.60760602  1
  O2-  O242  1  0.45240095  0.41095167  0.93625234  1
  O2-  O243  1  0.45948192  0.91510995  0.26394837  1
  O2-  O244  1  0.45788501  0.91461545  0.60333889  1
  O2-  O245  1  0.45259656  0.91777269  0.93598841  1
  O2-  O246  1  0.96530547  0.41821083  0.26783212  1
  O2-  O247  1  0.95313550  0.41669346  0.60595757  1
  O2-  O248  1  0.95985886  0.41330729  0.93621353  1
  O2-  O249  1  0.96074029  0.91169899  0.26659295  1
  O2-  O250  1  0.96400745  0.91210204  0.59533958  1
  O2-  O251  1  0.95927145  0.91280021  0.93880896  1
  O2-  O252  1  0.32938556  0.28842641  0.26618471  1
  O2-  O253  1  0.34122419  0.28771820  0.60524487  1
  O2-  O254  1  0.33571164  0.28608792  0.93682691  1
  O2-  O255  1  0.33098233  0.79329517  0.26347254  1
  O2-  O256  1  0.33491229  0.79812029  0.60356950  1
  O2-  O257  1  0.33071895  0.80153737  0.93684030  1
  O2-  O258  1  0.83606836  0.29237952  0.26458283  1
  O2-  O259  1  0.83229027  0.29707173  0.60699820  1
  O2-  O260  1  0.83516016  0.29920208  0.93691859  1
  O2-  O261  1  0.83525630  0.79723962  0.26844893  1
  O2-  O262  1  0.83062674  0.79103032  0.59701504  1
  O2-  O263  1  0.83873759  0.79170701  0.94029738  1
  O2-  O264  1  0.41653514  0.04286887  0.06770493  1
  O2-  O265  1  0.41736315  0.03535867  0.40193418  1
  O2-  O266  1  0.41086777  0.04074297  0.73010435  1
  O2-  O267  1  0.42285984  0.54688402  0.06557321  1
  O2-  O268  1  0.41860033  0.55863279  0.38864981  1
  O2-  O269  1  0.41754690  0.54379904  0.73399297  1
  O2-  O270  1  0.91989811  0.04253636  0.07038340  1
  O2-  O271  1  0.91900615  0.03904141  0.39900929  1
  O2-  O272  1  0.92456137  0.03989403  0.73012521  1
  O2-  O273  1  0.91535072  0.54086283  0.06695807  1
  O2-  O274  1  0.92047235  0.54692863  0.40112792  1
  O2-  O275  1  0.92032843  0.54917553  0.73306366  1
  O2-  O276  1  0.28568246  0.16326093  0.06946822  1
  O2-  O277  1  0.29135549  0.16404313  0.40474357  1
  O2-  O278  1  0.29358761  0.16142218  0.72834050  1
  O2-  O279  1  0.29436943  0.67193452  0.06680949  1
  O2-  O280  1  0.28858971  0.66596789  0.39384983  1
  O2-  O281  1  0.29544018  0.67308990  0.73431859  1
  O2-  O282  1  0.79551485  0.17321996  0.06430408  1
  O2-  O283  1  0.79368011  0.16854829  0.40001512  1
  O2-  O284  1  0.79917779  0.16765567  0.73586829  1
  O2-  O285  1  0.78876917  0.66553412  0.06743520  1
  O2-  O286  1  0.79411824  0.67280198  0.39944362  1
  O2-  O287  1  0.78843255  0.66894334  0.73289353  1
