# generated using pymatgen
data_Ca2Al2SiO7
_symmetry_space_group_name_H-M   'P 1'
_cell_length_a   15.46599350
_cell_length_b   15.46484657
_cell_length_c   15.28982306
_cell_angle_alpha   90.01297364
_cell_angle_beta   90.00067472
_cell_angle_gamma   90.00824309
_symmetry_Int_Tables_number   1
_chemical_formula_structural   Ca2Al2SiO7
_chemical_formula_sum   'Ca48 Al48 Si24 O168'
_cell_volume   3657.00776945
_cell_formula_units_Z   24
loop_
 _symmetry_equiv_pos_site_id
 _symmetry_equiv_pos_as_xyz
  1  'x, y, z'
loop_
 _atom_type_symbol
 _atom_type_oxidation_number
  Ca2+  2.0
  Al0+  0.0
  Si0+  0.0
  O2-  -2.0
loop_
 _atom_site_type_symbol
 _atom_site_label
 _atom_site_symmetry_multiplicity
 _atom_site_fract_x
 _atom_site_fract_y
 _atom_site_fract_z
 _atom_site_occupancy
  Ca2+  Ca0  1  0.17444360  0.07549512  0.17143276  1
  Ca2+  Ca1  1  0.17408918  0.07745459  0.50147980  1
  Ca2+  Ca2  1  0.17524498  0.07440698  0.83909567  1
  Ca2+  Ca3  1  0.16861270  0.58170022  0.17013320  1
  Ca2+  Ca4  1  0.17047673  0.58103106  0.50465846  1
  Ca2+  Ca5  1  0.16861187  0.58122354  0.83515507  1
  Ca2+  Ca6  1  0.67064970  0.07529613  0.16792449  1
  Ca2+  Ca7  1  0.66761032  0.07767180  0.50421578  1
  Ca2+  Ca8  1  0.66517353  0.07639501  0.84037499  1
  Ca2+  Ca9  1  0.66956925  0.58145016  0.16739102  1
  Ca2+  Ca10  1  0.65709094  0.57789331  0.50689267  1
  Ca2+  Ca11  1  0.66435177  0.57161679  0.83706766  1
  Ca2+  Ca12  1  0.07486500  0.32935654  0.16451704  1
  Ca2+  Ca13  1  0.06961915  0.33175547  0.49443615  1
  Ca2+  Ca14  1  0.07390594  0.32824150  0.82507396  1
  Ca2+  Ca15  1  0.07946107  0.84409286  0.16024197  1
  Ca2+  Ca16  1  0.08014621  0.84442370  0.50044394  1
  Ca2+  Ca17  1  0.07230605  0.84510103  0.83018670  1
  Ca2+  Ca18  1  0.58040608  0.32374451  0.16011262  1
  Ca2+  Ca19  1  0.58041347  0.32591802  0.50020821  1
  Ca2+  Ca20  1  0.58943596  0.32135930  0.82652309  1
  Ca2+  Ca21  1  0.59472961  0.83289747  0.16404003  1
  Ca2+  Ca22  1  0.59475292  0.82541702  0.49714189  1
  Ca2+  Ca23  1  0.58292488  0.83243424  0.82083270  1
  Ca2+  Ca24  1  0.33480264  0.41486185  0.17423345  1
  Ca2+  Ca25  1  0.34344126  0.41458679  0.50527914  1
  Ca2+  Ca26  1  0.33850226  0.41488264  0.83305565  1
  Ca2+  Ca27  1  0.32748165  0.92994508  0.17355139  1
  Ca2+  Ca28  1  0.32435855  0.91253763  0.50638471  1
  Ca2+  Ca29  1  0.32602075  0.91580532  0.83985575  1
  Ca2+  Ca30  1  0.82745350  0.41816150  0.16787488  1
  Ca2+  Ca31  1  0.83019569  0.41675524  0.50884237  1
  Ca2+  Ca32  1  0.82236751  0.41948020  0.83805622  1
  Ca2+  Ca33  1  0.82821647  0.92554474  0.16906000  1
  Ca2+  Ca34  1  0.82601053  0.92111994  0.50434822  1
  Ca2+  Ca35  1  0.82415835  0.91624734  0.84061460  1
  Ca2+  Ca36  1  0.41690346  0.16312624  0.16072840  1
  Ca2+  Ca37  1  0.41876908  0.17186042  0.49721290  1
  Ca2+  Ca38  1  0.42885028  0.16531364  0.82909388  1
  Ca2+  Ca39  1  0.42504890  0.67084667  0.16603553  1
  Ca2+  Ca40  1  0.42891925  0.67537831  0.50113449  1
  Ca2+  Ca41  1  0.42492610  0.67569807  0.82378298  1
  Ca2+  Ca42  1  0.90558957  0.16564615  0.16380321  1
  Ca2+  Ca43  1  0.90830871  0.17659724  0.49420488  1
  Ca2+  Ca44  1  0.91292263  0.16775005  0.82860505  1
  Ca2+  Ca45  1  0.91670045  0.67497083  0.15623530  1
  Ca2+  Ca46  1  0.91442069  0.67711470  0.49937938  1
  Ca2+  Ca47  1  0.90972580  0.67852933  0.83239303  1
  Al0+  Al48  1  -0.00056360  0.00161505  0.00045504  1
  Al0+  Al49  1  -0.00007087  0.00254818  0.34027089  1
  Al0+  Al50  1  0.00260330  0.00083434  0.66527389  1
  Al0+  Al51  1  0.00104736  0.50092286  0.00172690  1
  Al0+  Al52  1  -0.00058015  0.50037654  0.32827860  1
  Al0+  Al53  1  0.00145498  0.50045585  0.66472213  1
  Al0+  Al54  1  0.49873624  -0.00037538  0.00333239  1
  Al0+  Al55  1  0.49950473  -0.00120770  0.34143674  1
  Al0+  Al56  1  0.49873366  0.00065618  0.66150138  1
  Al0+  Al57  1  0.49820079  0.50021380  0.00412002  1
  Al0+  Al58  1  0.50052422  0.50115085  0.32417351  1
  Al0+  Al59  1  0.50053149  0.50102185  0.66754416  1
  Al0+  Al60  1  0.24791417  0.25121554  0.00129725  1
  Al0+  Al61  1  0.24648545  0.25049642  0.33363296  1
  Al0+  Al62  1  0.24919008  0.25008160  0.66522862  1
  Al0+  Al63  1  0.24915376  0.74675865  0.00349020  1
  Al0+  Al64  1  0.25144897  0.74734060  0.33670950  1
  Al0+  Al65  1  0.24990197  0.74815414  0.66916780  1
  Al0+  Al66  1  0.74698460  0.25122002  0.00197985  1
  Al0+  Al67  1  0.74709847  0.25224201  0.33053128  1
  Al0+  Al68  1  0.74991562  0.25148348  0.66223588  1
  Al0+  Al69  1  0.75141386  0.74685395  0.00063974  1
  Al0+  Al70  1  0.75355097  0.74801641  0.33029651  1
  Al0+  Al71  1  0.75337765  0.75053694  0.66114276  1
  Al0+  Al72  1  0.57269026  0.68106776  0.65390888  1
  Al0+  Al73  1  0.82074675  0.07209768  0.01175251  1
  Al0+  Al74  1  0.18039247  0.92844810  0.68338148  1
  Al0+  Al75  1  0.67941122  0.92883684  0.67906093  1
  Al0+  Al76  1  0.81899160  0.07392075  0.34974592  1
  Al0+  Al77  1  0.56986281  0.17835850  0.98734499  1
  Al0+  Al78  1  0.42660668  0.82246190  0.65337694  1
  Al0+  Al79  1  0.42880974  0.31914091  0.31916136  1
  Al0+  Al80  1  0.18002099  0.92740835  0.35041852  1
  Al0+  Al81  1  0.57226837  0.68118890  0.31669306  1
  Al0+  Al82  1  0.32174226  0.07401152  0.35121290  1
  Al0+  Al83  1  0.93079171  0.82240874  0.65201426  1
  Al0+  Al84  1  0.32132877  0.07197477  0.01356661  1
  Al0+  Al85  1  0.67731584  0.92646813  0.01211652  1
  Al0+  Al86  1  0.82173863  0.56984466  0.01457811  1
  Al0+  Al87  1  0.67892459  0.42989733  0.67873727  1
  Al0+  Al88  1  0.67667672  0.42863336  0.01702341  1
  Al0+  Al89  1  0.17842888  0.92804933  0.01407494  1
  Al0+  Al90  1  0.57296961  0.17663326  0.65055035  1
  Al0+  Al91  1  0.92658937  0.32169827  0.31641872  1
  Al0+  Al92  1  0.42918075  0.32034647  0.65422819  1
  Al0+  Al93  1  0.68089425  0.92577956  0.34949806  1
  Al0+  Al94  1  0.92941406  0.32096576  0.65470486  1
  Al0+  Al95  1  0.93028011  0.82159154  0.98710804  1
  Si0+  Si96  1  0.92892210  0.32225087  0.98474888  1
  Si0+  Si97  1  0.17744581  0.42818658  0.68126882  1
  Si0+  Si98  1  0.42571274  0.32318692  0.98391797  1
  Si0+  Si99  1  0.32056823  0.57034318  0.01670632  1
  Si0+  Si100  1  0.17716303  0.43050757  0.34835786  1
  Si0+  Si101  1  0.07282686  0.67828676  0.31836185  1
  Si0+  Si102  1  0.07162202  0.18022775  0.98421486  1
  Si0+  Si103  1  0.17827307  0.42882909  0.01550010  1
  Si0+  Si104  1  0.07243485  0.17852718  0.64878776  1
  Si0+  Si105  1  0.32258688  0.56821675  0.34962110  1
  Si0+  Si106  1  0.67802164  0.43230025  0.34806193  1
  Si0+  Si107  1  0.82165449  0.07279878  0.68171823  1
  Si0+  Si108  1  0.42780090  0.81922592  0.98802074  1
  Si0+  Si109  1  0.82338697  0.56943707  0.34901218  1
  Si0+  Si110  1  0.57075907  0.17556312  0.31539090  1
  Si0+  Si111  1  0.06940103  0.17863847  0.31521593  1
  Si0+  Si112  1  0.07391624  0.67602256  0.98216377  1
  Si0+  Si113  1  0.82566136  0.57205109  0.68194354  1
  Si0+  Si114  1  0.57074349  0.67787933  0.98488138  1
  Si0+  Si115  1  0.07275702  0.67709069  0.64992933  1
  Si0+  Si116  1  0.93259551  0.82166951  0.31798360  1
  Si0+  Si117  1  0.42625656  0.82149297  0.31658331  1
  Si0+  Si118  1  0.32082962  0.56922579  0.68245025  1
  Si0+  Si119  1  0.32164358  0.07494070  0.68409757  1
  O2-  O120  1  0.25083676  -0.00120357  0.06373872  1
  O2-  O121  1  0.25455469  -0.00329534  0.40030671  1
  O2-  O122  1  0.25820062  0.00078567  0.72800568  1
  O2-  O123  1  0.25114003  0.49740058  0.05818109  1
  O2-  O124  1  0.25236316  0.49618186  0.39203686  1
  O2-  O125  1  0.25083122  0.49628270  0.72416680  1
  O2-  O126  1  0.74990887  -0.00137429  0.06064457  1
  O2-  O127  1  0.74803936  0.00181121  0.40022520  1
  O2-  O128  1  0.75299711  0.00457391  0.72614453  1
  O2-  O129  1  0.74984354  0.49962688  0.06717312  1
  O2-  O130  1  0.75132272  0.50036479  0.39156869  1
  O2-  O131  1  0.75475955  0.50472600  0.72409279  1
  O2-  O132  1  -0.00290162  0.24321274  0.26938735  1
  O2-  O133  1  0.00116135  0.24503477  0.60554652  1
  O2-  O134  1  -0.00303240  0.24835810  0.94263872  1
  O2-  O135  1  0.00827626  0.75456337  0.27666947  1
  O2-  O136  1  0.00642282  0.74740345  0.60555897  1
  O2-  O137  1  0.00694914  0.74696204  0.94034202  1
  O2-  O138  1  0.49698471  0.23985763  0.27146661  1
  O2-  O139  1  0.49863682  0.24809027  0.60260958  1
  O2-  O140  1  0.49433678  0.25429663  0.94190682  1
  O2-  O141  1  0.50146828  0.76038365  0.27067161  1
  O2-  O142  1  0.50649114  0.75864329  0.60352099  1
  O2-  O143  1  0.50364055  0.75332646  0.94471754  1
  O2-  O144  1  0.07538280  0.18427723  0.08892156  1
  O2-  O145  1  0.07068175  0.18356167  0.42068125  1
  O2-  O146  1  0.07338440  0.18144011  0.75485491  1
  O2-  O147  1  0.07476423  0.67202203  0.08782190  1
  O2-  O148  1  0.07068540  0.67237877  0.42309737  1
  O2-  O149  1  0.07245083  0.67250510  0.75519071  1
  O2-  O150  1  0.56828141  0.17934300  0.10038553  1
  O2-  O151  1  0.57405624  0.18079544  0.42059420  1
  O2-  O152  1  0.57424065  0.17806999  0.76448027  1
  O2-  O153  1  0.56776029  0.67609524  0.09016034  1
  O2-  O154  1  0.56916443  0.67707381  0.42933275  1
  O2-  O155  1  0.56854633  0.67833672  0.76780764  1
  O2-  O156  1  0.17650129  0.43464132  0.24291298  1
  O2-  O157  1  0.17433498  0.43152133  0.57638449  1
  O2-  O158  1  0.17680507  0.42978938  0.91030454  1
  O2-  O159  1  0.18040984  0.92793638  0.23684036  1
  O2-  O160  1  0.18095784  0.92962212  0.57059156  1
  O2-  O161  1  0.18033060  0.92930955  0.90048085  1
  O2-  O162  1  0.67888401  0.43419796  0.24311855  1
  O2-  O163  1  0.67914184  0.43196725  0.56520260  1
  O2-  O164  1  0.67751859  0.42944104  0.90329186  1
  O2-  O165  1  0.68577158  0.92457742  0.23593987  1
  O2-  O166  1  0.68492419  0.92731584  0.56649337  1
  O2-  O167  1  0.67705656  0.92611208  0.89837841  1
  O2-  O168  1  0.42432117  0.32403020  0.08958432  1
  O2-  O169  1  0.43337001  0.32292038  0.43171152  1
  O2-  O170  1  0.42792909  0.31930472  0.76781900  1
  O2-  O171  1  0.42479284  0.81441341  0.09292807  1
  O2-  O172  1  0.42067603  0.81375035  0.42140981  1
  O2-  O173  1  0.42423938  0.81665939  0.76759438  1
  O2-  O174  1  0.93270469  0.32375657  0.08983772  1
  O2-  O175  1  0.93058535  0.32583226  0.42940387  1
  O2-  O176  1  0.93232049  0.32161955  0.76815651  1
  O2-  O177  1  0.93310069  0.81970274  0.10051510  1
  O2-  O178  1  0.93220485  0.81792296  0.42311366  1
  O2-  O179  1  0.93032682  0.82116129  0.76501202  1
  O2-  O180  1  0.31739964  0.07458269  0.23743467  1
  O2-  O181  1  0.31536403  0.08020868  0.57910720  1
  O2-  O182  1  0.31989622  0.07241837  0.90006390  1
  O2-  O183  1  0.31960680  0.56824462  0.24412419  1
  O2-  O184  1  0.31911282  0.56883808  0.57732728  1
  O2-  O185  1  0.32043303  0.57080906  0.91165249  1
  O2-  O186  1  0.81860623  0.07132136  0.23628097  1
  O2-  O187  1  0.82150332  0.07274831  0.57619829  1
  O2-  O188  1  0.82119464  0.07219231  0.89812376  1
  O2-  O189  1  0.82464873  0.56860998  0.24415469  1
  O2-  O190  1  0.82993839  0.56916868  0.57608624  1
  O2-  O191  1  0.82152565  0.56825136  0.90100193  1
  O2-  O192  1  0.04783959  0.08309581  0.27183247  1
  O2-  O193  1  0.05054128  0.08487791  0.60286165  1
  O2-  O194  1  0.04618498  0.08847363  0.93637521  1
  O2-  O195  1  0.04071926  0.58938294  0.26693798  1
  O2-  O196  1  0.04666578  0.58455109  0.60089210  1
  O2-  O197  1  0.04772469  0.58243871  0.93505122  1
  O2-  O198  1  0.55083637  0.07872295  0.27395512  1
  O2-  O199  1  0.54666592  0.07941122  0.59563205  1
  O2-  O200  1  0.53868242  0.08124736  0.93354474  1
  O2-  O201  1  0.53492717  0.58809345  0.25924544  1
  O2-  O202  1  0.53555153  0.58555205  0.60029207  1
  O2-  O203  1  0.53610050  0.58736531  0.93840255  1
  O2-  O204  1  0.16039935  0.21037354  0.26706160  1
  O2-  O205  1  0.16348705  0.20909595  0.60114803  1
  O2-  O206  1  0.16099318  0.21343105  0.93411261  1
  O2-  O207  1  0.16744915  0.69875589  0.27254410  1
  O2-  O208  1  0.16706830  0.69963156  0.60458895  1
  O2-  O209  1  0.16896501  0.69760808  0.93671330  1
  O2-  O210  1  0.66133424  0.20850793  0.26733163  1
  O2-  O211  1  0.66879292  0.20966985  0.59546938  1
  O2-  O212  1  0.66578544  0.21140163  0.93249164  1
  O2-  O213  1  0.67115715  0.70636681  0.26339629  1
  O2-  O214  1  0.67210617  0.70072104  0.59951039  1
  O2-  O215  1  0.66456162  0.69776553  0.93950717  1
  O2-  O216  1  0.08859534  0.45926348  0.06539624  1
  O2-  O217  1  0.08725520  0.46506457  0.39565184  1
  O2-  O218  1  0.08797494  0.45998507  0.73173687  1
  O2-  O219  1  0.08171308  0.96022363  0.06653621  1
  O2-  O220  1  0.08256129  0.95837117  0.40343606  1
  O2-  O221  1  0.08401719  0.96350993  0.73585137  1
  O2-  O222  1  0.57842271  0.45798060  0.06995789  1
  O2-  O223  1  0.58678284  0.46524384  0.39282448  1
  O2-  O224  1  0.58371763  0.46217376  0.73477562  1
  O2-  O225  1  0.57966532  0.95250800  0.06705115  1
  O2-  O226  1  0.57922386  0.94379003  0.39898381  1
  O2-  O227  1  0.57916031  0.95431478  0.72884725  1
  O2-  O228  1  0.20320429  0.33756883  0.06473712  1
  O2-  O229  1  0.19725427  0.33733990  0.39449453  1
  O2-  O230  1  0.20243160  0.33609874  0.72942483  1
  O2-  O231  1  0.20160484  0.82722675  0.06486031  1
  O2-  O232  1  0.20478775  0.82635661  0.40144780  1
  O2-  O233  1  0.20637094  0.82936605  0.73529838  1
  O2-  O234  1  0.70590162  0.33179759  0.07101588  1
  O2-  O235  1  0.70258058  0.33933757  0.39330612  1
  O2-  O236  1  0.71217170  0.33377927  0.73228019  1
  O2-  O237  1  0.70576968  0.82801809  0.06389835  1
  O2-  O238  1  0.71608531  0.82772384  0.40021275  1
  O2-  O239  1  0.71166705  0.83083418  0.73060481  1
  O2-  O240  1  0.46093419  0.41450368  0.26246131  1
  O2-  O241  1  0.45649988  0.41947080  0.60277035  1
  O2-  O242  1  0.45000367  0.41834706  0.93985549  1
  O2-  O243  1  0.44380776  0.91898646  0.27654403  1
  O2-  O244  1  0.44030598  0.92340769  0.60315113  1
  O2-  O245  1  0.44848279  0.91288412  0.94251150  1
  O2-  O246  1  0.96449608  0.41616035  0.26127551  1
  O2-  O247  1  0.96403486  0.41629225  0.59977392  1
  O2-  O248  1  0.96254617  0.41257000  0.93783621  1
  O2-  O249  1  0.95747044  0.91571690  0.27421463  1
  O2-  O250  1  0.96320110  0.91821490  0.59753296  1
  O2-  O251  1  0.95986393  0.91839469  0.93247201  1
  O2-  O252  1  0.32733063  0.29807988  0.26922018  1
  O2-  O253  1  0.32852855  0.29757989  0.60171053  1
  O2-  O254  1  0.33042733  0.30120635  0.93890686  1
  O2-  O255  1  0.33586303  0.78608586  0.26822089  1
  O2-  O256  1  0.33208150  0.78201773  0.59955859  1
  O2-  O257  1  0.33769951  0.78464488  0.94012969  1
  O2-  O258  1  0.82852322  0.29599515  0.26322658  1
  O2-  O259  1  0.83411500  0.29402006  0.59784927  1
  O2-  O260  1  0.83558561  0.29808702  0.93990333  1
  O2-  O261  1  0.84390416  0.78777612  0.26912960  1
  O2-  O262  1  0.83764905  0.78887877  0.59364714  1
  O2-  O263  1  0.83459163  0.78635449  0.93264002  1
  O2-  O264  1  0.41753662  0.04326518  0.06937729  1
  O2-  O265  1  0.42197761  0.05371208  0.40218844  1
  O2-  O266  1  0.41790921  0.05512315  0.72539572  1
  O2-  O267  1  0.41127976  0.54421523  0.06667200  1
  O2-  O268  1  0.41466475  0.53897725  0.39436560  1
  O2-  O269  1  0.41116249  0.54187819  0.73245118  1
  O2-  O270  1  0.91940070  0.04728771  0.06578611  1
  O2-  O271  1  0.91828398  0.04929523  0.40236128  1
  O2-  O272  1  0.91695036  0.04909574  0.72518640  1
  O2-  O273  1  0.92116219  0.54334717  0.06775914  1
  O2-  O274  1  0.91507770  0.54030556  0.39601855  1
  O2-  O275  1  0.91841071  0.54498924  0.72935998  1
  O2-  O276  1  0.29124166  0.17079991  0.06563304  1
  O2-  O277  1  0.28615927  0.17124333  0.40347526  1
  O2-  O278  1  0.28940690  0.16624870  0.73252612  1
  O2-  O279  1  0.29019949  0.65934201  0.06796262  1
  O2-  O280  1  0.29299597  0.65818206  0.39867502  1
  O2-  O281  1  0.28963063  0.65827898  0.73299502  1
  O2-  O282  1  0.79303881  0.17001095  0.06517832  1
  O2-  O283  1  0.79079902  0.17430703  0.39962520  1
  O2-  O284  1  0.79802967  0.16758827  0.72586044  1
  O2-  O285  1  0.79399597  0.66706238  0.06951907  1
  O2-  O286  1  0.79806879  0.66206179  0.39498761  1
  O2-  O287  1  0.80154350  0.66659947  0.72519238  1
