# generated using pymatgen
data_Ca2Al2SiO7
_symmetry_space_group_name_H-M   'P 1'
_cell_length_a   15.45187349
_cell_length_b   15.45215245
_cell_length_c   15.27922892
_cell_angle_alpha   89.99337448
_cell_angle_beta   90.00719767
_cell_angle_gamma   89.99223156
_symmetry_Int_Tables_number   1
_chemical_formula_structural   Ca2Al2SiO7
_chemical_formula_sum   'Ca48 Al48 Si24 O168'
_cell_volume   3648.14049469
_cell_formula_units_Z   24
loop_
 _symmetry_equiv_pos_site_id
 _symmetry_equiv_pos_as_xyz
  1  'x, y, z'
loop_
 _atom_type_symbol
 _atom_type_oxidation_number
  Ca2+  2.0
  Al0+  0.0
  Si0+  0.0
  O2-  -2.0
loop_
 _atom_site_type_symbol
 _atom_site_label
 _atom_site_symmetry_multiplicity
 _atom_site_fract_x
 _atom_site_fract_y
 _atom_site_fract_z
 _atom_site_occupancy
  Ca2+  Ca0  1  0.16123932  0.08065254  0.17447060  1
  Ca2+  Ca1  1  0.16094206  0.08017850  0.49816628  1
  Ca2+  Ca2  1  0.16525211  0.08544118  0.83923674  1
  Ca2+  Ca3  1  0.17901086  0.58040449  0.17530771  1
  Ca2+  Ca4  1  0.17108105  0.58592941  0.50685967  1
  Ca2+  Ca5  1  0.16789746  0.57062865  0.84077455  1
  Ca2+  Ca6  1  0.67614887  0.08514945  0.17400932  1
  Ca2+  Ca7  1  0.66737580  0.08364801  0.50902960  1
  Ca2+  Ca8  1  0.66816971  0.07343766  0.83935962  1
  Ca2+  Ca9  1  0.66768554  0.58833229  0.16710074  1
  Ca2+  Ca10  1  0.66290321  0.57915043  0.50856979  1
  Ca2+  Ca11  1  0.66801993  0.58350498  0.83838536  1
  Ca2+  Ca12  1  0.08863088  0.32166711  0.15995479  1
  Ca2+  Ca13  1  0.07817432  0.33354716  0.49944742  1
  Ca2+  Ca14  1  0.08145866  0.33488392  0.82830664  1
  Ca2+  Ca15  1  0.08681492  0.82980294  0.16681906  1
  Ca2+  Ca16  1  0.08201542  0.82680932  0.49514890  1
  Ca2+  Ca17  1  0.07233390  0.82337600  0.82236505  1
  Ca2+  Ca18  1  0.57756569  0.32837715  0.16258253  1
  Ca2+  Ca19  1  0.58443457  0.32670618  0.49943698  1
  Ca2+  Ca20  1  0.57196674  0.33497555  0.82310549  1
  Ca2+  Ca21  1  0.58801232  0.82379147  0.16143957  1
  Ca2+  Ca22  1  0.58919845  0.82272826  0.49848175  1
  Ca2+  Ca23  1  0.59343756  0.82533700  0.82909169  1
  Ca2+  Ca24  1  0.33544305  0.42271523  0.16428733  1
  Ca2+  Ca25  1  0.32848075  0.41935906  0.50679207  1
  Ca2+  Ca26  1  0.32670682  0.41424795  0.84015379  1
  Ca2+  Ca27  1  0.32559807  0.91744926  0.17418208  1
  Ca2+  Ca28  1  0.32794219  0.91584916  0.49989018  1
  Ca2+  Ca29  1  0.33241975  0.92015475  0.83539532  1
  Ca2+  Ca30  1  0.83340716  0.42351567  0.16669561  1
  Ca2+  Ca31  1  0.82809705  0.41611555  0.50971271  1
  Ca2+  Ca32  1  0.82864794  0.41907098  0.83408290  1
  Ca2+  Ca33  1  0.82928375  0.92729396  0.16738278  1
  Ca2+  Ca34  1  0.83123576  0.92288203  0.50625349  1
  Ca2+  Ca35  1  0.82372638  0.91584237  0.83893373  1
  Ca2+  Ca36  1  0.42094730  0.17234465  0.15985483  1
  Ca2+  Ca37  1  0.42850957  0.17110037  0.49925292  1
  Ca2+  Ca38  1  0.42040010  0.17993560  0.82576016  1
  Ca2+  Ca39  1  0.42420521  0.65773202  0.16247177  1
  Ca2+  Ca40  1  0.42729976  0.65987088  0.49526652  1
  Ca2+  Ca41  1  0.42726535  0.66009972  0.83246682  1
  Ca2+  Ca42  1  0.92399637  0.15783515  0.16352819  1
  Ca2+  Ca43  1  0.91392193  0.17420728  0.49408026  1
  Ca2+  Ca44  1  0.91860718  0.16954243  0.83199864  1
  Ca2+  Ca45  1  0.92108251  0.66497792  0.16200500  1
  Ca2+  Ca46  1  0.92856073  0.67103304  0.49920103  1
  Ca2+  Ca47  1  0.91771065  0.66902393  0.82399711  1
  Al0+  Al48  1  -0.00098543  -0.00110464  -0.00307242  1
  Al0+  Al49  1  -0.00232515  0.00116608  0.34019326  1
  Al0+  Al50  1  -0.00001618  -0.00036774  0.66512847  1
  Al0+  Al51  1  -0.00025786  0.49654859  0.00935416  1
  Al0+  Al52  1  -0.00047856  0.50137632  0.32920580  1
  Al0+  Al53  1  0.00167878  0.49888628  0.66200029  1
  Al0+  Al54  1  0.49853888  -0.00292575  0.00510652  1
  Al0+  Al55  1  0.50002496  -0.00032753  0.32920869  1
  Al0+  Al56  1  0.49968571  -0.00037895  0.66879527  1
  Al0+  Al57  1  0.49946149  0.49927029  -0.00541849  1
  Al0+  Al58  1  0.49957030  0.50028578  0.33325500  1
  Al0+  Al59  1  0.49920036  0.50006135  0.66259890  1
  Al0+  Al60  1  0.24980164  0.24812737  -0.00412525  1
  Al0+  Al61  1  0.24908174  0.25082649  0.33094194  1
  Al0+  Al62  1  0.25048961  0.25079975  0.66549540  1
  Al0+  Al63  1  0.25163682  0.74920736  0.00112011  1
  Al0+  Al64  1  0.25018592  0.74994250  0.33920608  1
  Al0+  Al65  1  0.25206055  0.75090662  0.66734532  1
  Al0+  Al66  1  0.75201540  0.24956919  0.00395418  1
  Al0+  Al67  1  0.74905400  0.25169560  0.33145560  1
  Al0+  Al68  1  0.75152207  0.25112219  0.66662934  1
  Al0+  Al69  1  0.75060248  0.74967905  0.00544611  1
  Al0+  Al70  1  0.75127226  0.75075395  0.32973297  1
  Al0+  Al71  1  0.75113845  0.75249192  0.66021566  1
  Al0+  Al72  1  0.43122217  0.31888154  0.98577777  1
  Al0+  Al73  1  0.06890497  0.17819202  0.98578142  1
  Al0+  Al74  1  0.32109050  0.56921242  0.34932822  1
  Al0+  Al75  1  0.07263700  0.67797334  0.65385820  1
  Al0+  Al76  1  0.07252469  0.67980134  0.31759581  1
  Al0+  Al77  1  0.92969510  0.32025475  0.65464102  1
  Al0+  Al78  1  0.92822461  0.82239767  0.65089038  1
  Al0+  Al79  1  0.57000792  0.68067830  0.65363353  1
  Al0+  Al80  1  0.17894624  0.42954907  0.67960715  1
  Al0+  Al81  1  0.81847274  0.07175428  0.34972393  1
  Al0+  Al82  1  0.57079468  0.67879022  0.31850026  1
  Al0+  Al83  1  0.42714100  0.32222731  0.64950838  1
  Al0+  Al84  1  0.17947461  0.93060131  0.34760030  1
  Al0+  Al85  1  0.82135107  0.07149515  0.01487712  1
  Al0+  Al86  1  0.32147827  0.57067557  0.01462953  1
  Al0+  Al87  1  0.57085643  0.68172649  0.98562417  1
  Al0+  Al88  1  0.57153371  0.17833028  0.31850970  1
  Al0+  Al89  1  0.17879283  0.42580219  0.01725298  1
  Al0+  Al90  1  0.06826159  0.18024560  0.32130874  1
  Al0+  Al91  1  0.67728885  0.92812718  0.01745149  1
  Al0+  Al92  1  0.67941112  0.92931448  0.67933088  1
  Al0+  Al93  1  0.82073008  0.57067349  0.01255065  1
  Al0+  Al94  1  0.67814131  0.42864816  0.67941799  1
  Al0+  Al95  1  0.57119741  0.17804146  0.65507529  1
  Si0+  Si96  1  0.17660651  0.42689742  0.35070925  1
  Si0+  Si97  1  0.67703856  0.92747974  0.35091939  1
  Si0+  Si98  1  0.42514154  0.82412703  0.98269629  1
  Si0+  Si99  1  0.92612896  0.32367253  0.31431781  1
  Si0+  Si100  1  0.31981686  0.07074361  0.01427993  1
  Si0+  Si101  1  0.68022326  0.43163441  0.34749984  1
  Si0+  Si102  1  0.92696401  0.32437311  0.98346588  1
  Si0+  Si103  1  0.82275604  0.57315025  0.34970459  1
  Si0+  Si104  1  0.17858109  0.92874147  0.01253093  1
  Si0+  Si105  1  0.67653960  0.42805243  0.01593944  1
  Si0+  Si106  1  0.32004288  0.07032121  0.68130385  1
  Si0+  Si107  1  0.32279930  0.57334604  0.68434429  1
  Si0+  Si108  1  0.82352892  0.07353384  0.68423360  1
  Si0+  Si109  1  0.57447199  0.17561036  0.98474067  1
  Si0+  Si110  1  0.93110565  0.81879565  0.98646390  1
  Si0+  Si111  1  0.17777893  0.92868739  0.68303122  1
  Si0+  Si112  1  0.92943101  0.82235812  0.31453060  1
  Si0+  Si113  1  0.42734146  0.82170465  0.31711992  1
  Si0+  Si114  1  0.82120215  0.57159461  0.67924325  1
  Si0+  Si115  1  0.07311414  0.17714286  0.64959019  1
  Si0+  Si116  1  0.32393710  0.07451255  0.34995597  1
  Si0+  Si117  1  0.07267537  0.67671978  0.98764713  1
  Si0+  Si118  1  0.42794200  0.32134853  0.31591765  1
  Si0+  Si119  1  0.42677507  0.82444113  0.64955495  1
  O2-  O120  1  0.24995524  -0.00149172  0.05598092  1
  O2-  O121  1  0.25418537  0.00637908  0.39395003  1
  O2-  O122  1  0.24720671  0.00107047  0.72524817  1
  O2-  O123  1  0.24780207  0.50116079  0.06629132  1
  O2-  O124  1  0.24375152  0.49676403  0.39511500  1
  O2-  O125  1  0.25273725  0.50515441  0.72677141  1
  O2-  O126  1  0.74381517  0.00596512  0.06609108  1
  O2-  O127  1  0.74108213  -0.00025387  0.39602843  1
  O2-  O128  1  0.75408388  0.00440520  0.72634621  1
  O2-  O129  1  0.74583169  0.49615830  0.06050441  1
  O2-  O130  1  0.75095275  0.50280597  0.39089102  1
  O2-  O131  1  0.75112198  0.50556259  0.72542514  1
  O2-  O132  1  -0.00365126  0.25578386  0.27156789  1
  O2-  O133  1  0.00253871  0.24425715  0.60693110  1
  O2-  O134  1  -0.00477903  0.25429428  0.94055532  1
  O2-  O135  1  -0.00270996  0.75325105  0.26896830  1
  O2-  O136  1  0.00344622  0.75257885  0.60303074  1
  O2-  O137  1  -0.00032534  0.74502790  0.94432020  1
  O2-  O138  1  0.49349195  0.24938099  0.27180418  1
  O2-  O139  1  0.50290451  0.25252414  0.60253620  1
  O2-  O140  1  0.50814223  0.24565245  0.93988488  1
  O2-  O141  1  0.49709114  0.75469031  0.27222087  1
  O2-  O142  1  0.49477155  0.75476494  0.60642670  1
  O2-  O143  1  0.49598685  0.75712018  0.93969979  1
  O2-  O144  1  0.06870353  0.17549976  0.09892838  1
  O2-  O145  1  0.06698016  0.18195143  0.43429504  1
  O2-  O146  1  0.07316199  0.17618037  0.75537885  1
  O2-  O147  1  0.07311040  0.68156491  0.09273101  1
  O2-  O148  1  0.07105002  0.68102574  0.43043815  1
  O2-  O149  1  0.06979837  0.67891279  0.76827897  1
  O2-  O150  1  0.57149647  0.17797830  0.09074006  1
  O2-  O151  1  0.57173890  0.18016930  0.43137528  1
  O2-  O152  1  0.56682012  0.17635331  0.76866288  1
  O2-  O153  1  0.56962423  0.68207042  0.09884087  1
  O2-  O154  1  0.57089984  0.67836304  0.43159266  1
  O2-  O155  1  0.57090674  0.68148821  0.76676775  1
  O2-  O156  1  0.17857041  0.42579140  0.24530767  1
  O2-  O157  1  0.17961471  0.42945465  0.56640065  1
  O2-  O158  1  0.17804148  0.42757473  0.90340027  1
  O2-  O159  1  0.18089771  0.93170902  0.23373364  1
  O2-  O160  1  0.17877215  0.92903693  0.57809544  1
  O2-  O161  1  0.17953215  0.92950791  0.90720385  1
  O2-  O162  1  0.68102180  0.43229863  0.24212569  1
  O2-  O163  1  0.68072348  0.42946434  0.56576417  1
  O2-  O164  1  0.67740734  0.42889598  0.91040936  1
  O2-  O165  1  0.68004294  0.92682713  0.24546886  1
  O2-  O166  1  0.68011078  0.93011735  0.56617816  1
  O2-  O167  1  0.68107675  0.92676025  0.90360909  1
  O2-  O168  1  0.43258725  0.31665196  0.09939808  1
  O2-  O169  1  0.42898171  0.32106423  0.42123937  1
  O2-  O170  1  0.42582309  0.31926890  0.76324316  1
  O2-  O171  1  0.42095556  0.82557892  0.08795999  1
  O2-  O172  1  0.42839630  0.82235056  0.42277244  1
  O2-  O173  1  0.42422472  0.82537597  0.75514225  1
  O2-  O174  1  0.92666370  0.32530180  0.08897704  1
  O2-  O175  1  0.92512476  0.32381402  0.42010413  1
  O2-  O176  1  0.93025892  0.32051659  0.76768223  1
  O2-  O177  1  0.93464314  0.82066081  0.09156896  1
  O2-  O178  1  0.92966359  0.82018949  0.41996370  1
  O2-  O179  1  0.92895700  0.82051397  0.76533069  1
  O2-  O180  1  0.32331837  0.07344497  0.24400850  1
  O2-  O181  1  0.31987174  0.06825487  0.57626217  1
  O2-  O182  1  0.31928719  0.06997693  0.90890710  1
  O2-  O183  1  0.32273910  0.56691177  0.23631147  1
  O2-  O184  1  0.32184759  0.57341851  0.57848604  1
  O2-  O185  1  0.31947503  0.57129927  0.90121579  1
  O2-  O186  1  0.81989496  0.06920460  0.23673910  1
  O2-  O187  1  0.82344425  0.07355701  0.57849156  1
  O2-  O188  1  0.82337194  0.06844199  0.90138975  1
  O2-  O189  1  0.82249224  0.57193942  0.24437879  1
  O2-  O190  1  0.82022141  0.56936051  0.57332463  1
  O2-  O191  1  0.82107521  0.57181242  0.89932346  1
  O2-  O192  1  0.03638354  0.08263569  0.26939185  1
  O2-  O193  1  0.05020904  0.08259952  0.60472790  1
  O2-  O194  1  0.03832478  0.08188049  0.92954354  1
  O2-  O195  1  0.04197322  0.58308410  0.26337204  1
  O2-  O196  1  0.04324912  0.58228669  0.59726455  1
  O2-  O197  1  0.04586369  0.58256424  0.94558315  1
  O2-  O198  1  0.54462018  0.08074238  0.26412670  1
  O2-  O199  1  0.53834792  0.08123005  0.60061203  1
  O2-  O200  1  0.54666864  0.08074917  0.94287248  1
  O2-  O201  1  0.53911096  0.58223631  0.26474352  1
  O2-  O202  1  0.53943558  0.58502627  0.59788980  1
  O2-  O203  1  0.54097049  0.58502286  0.93143623  1
  O2-  O204  1  0.16682966  0.20623653  0.26694761  1
  O2-  O205  1  0.16580959  0.20337418  0.60312141  1
  O2-  O206  1  0.16572839  0.20606743  0.93108529  1
  O2-  O207  1  0.16944530  0.71332887  0.26600795  1
  O2-  O208  1  0.17182342  0.70684564  0.60279090  1
  O2-  O209  1  0.16352897  0.70619972  0.93956077  1
  O2-  O210  1  0.66586953  0.21458926  0.26323809  1
  O2-  O211  1  0.67030457  0.20399324  0.60319188  1
  O2-  O212  1  0.67022022  0.19724982  0.94222182  1
  O2-  O213  1  0.66851774  0.70834081  0.26514147  1
  O2-  O214  1  0.66551704  0.71092352  0.59756011  1
  O2-  O215  1  0.66910308  0.71228415  0.93431548  1
  O2-  O216  1  0.07991784  0.44780814  0.07144865  1
  O2-  O217  1  0.08078637  0.45134527  0.39297792  1
  O2-  O218  1  0.08181422  0.45989776  0.73373348  1
  O2-  O219  1  0.08749366  0.95725246  0.05999932  1
  O2-  O220  1  0.08437115  0.96184388  0.40377538  1
  O2-  O221  1  0.08546548  0.95516457  0.73072220  1
  O2-  O222  1  0.58383010  0.45517725  0.06222179  1
  O2-  O223  1  0.58858273  0.45896242  0.39478953  1
  O2-  O224  1  0.58050918  0.45867006  0.73136932  1
  O2-  O225  1  0.57588354  0.94678797  0.06902190  1
  O2-  O226  1  0.58041814  0.94732736  0.39283649  1
  O2-  O227  1  0.58192621  0.95653209  0.73446073  1
  O2-  O228  1  0.21187606  0.32741212  0.06780015  1
  O2-  O229  1  0.20307364  0.33323334  0.39687487  1
  O2-  O230  1  0.20855855  0.33181629  0.73308536  1
  O2-  O231  1  0.20563806  0.83718809  0.06100935  1
  O2-  O232  1  0.21196501  0.83612958  0.40448239  1
  O2-  O233  1  0.20718641  0.83763474  0.73161856  1
  O2-  O234  1  0.70122465  0.33443661  0.06322264  1
  O2-  O235  1  0.70848521  0.34004428  0.39477582  1
  O2-  O236  1  0.71056768  0.33342117  0.73504854  1
  O2-  O237  1  0.71308400  0.83325371  0.07245876  1
  O2-  O238  1  0.70772152  0.83424085  0.39588626  1
  O2-  O239  1  0.71341458  0.83273451  0.73259031  1
  O2-  O240  1  0.45972669  0.41280503  0.26935183  1
  O2-  O241  1  0.45277915  0.42054339  0.59654732  1
  O2-  O242  1  0.45962945  0.41469410  0.92976016  1
  O2-  O243  1  0.44840403  0.91611890  0.26972052  1
  O2-  O244  1  0.45192917  0.91743724  0.60280632  1
  O2-  O245  1  0.44815226  0.91898457  0.93675709  1
  O2-  O246  1  0.94977788  0.41783663  0.26852350  1
  O2-  O247  1  0.96051078  0.41473746  0.59654336  1
  O2-  O248  1  0.95361465  0.41793727  0.93756268  1
  O2-  O249  1  0.95737705  0.91614746  0.27107588  1
  O2-  O250  1  0.95653547  0.92101181  0.59815447  1
  O2-  O251  1  0.96118150  0.90810056  0.93573297  1
  O2-  O252  1  0.33359888  0.29897808  0.26982624  1
  O2-  O253  1  0.33068906  0.28906717  0.59543351  1
  O2-  O254  1  0.33604912  0.28457583  0.93132876  1
  O2-  O255  1  0.33359112  0.79547877  0.27226353  1
  O2-  O256  1  0.33293279  0.80049499  0.60297350  1
  O2-  O257  1  0.33197554  0.79792797  0.93428046  1
  O2-  O258  1  0.83314342  0.29814704  0.26755114  1
  O2-  O259  1  0.83393069  0.29117864  0.59786394  1
  O2-  O260  1  0.83233761  0.29962185  0.93815336  1
  O2-  O261  1  0.83624592  0.79669713  0.26740807  1
  O2-  O262  1  0.83286486  0.79394322  0.59338738  1
  O2-  O263  1  0.83862024  0.79134720  0.94116189  1
  O2-  O264  1  0.41115158  0.04495923  0.06394755  1
  O2-  O265  1  0.41717152  0.04627468  0.39586216  1
  O2-  O266  1  0.40962586  0.04032399  0.73181380  1
  O2-  O267  1  0.41973047  0.53795460  0.06609965  1
  O2-  O268  1  0.41751399  0.53645130  0.40315088  1
  O2-  O269  1  0.41626543  0.54612757  0.72895528  1
  O2-  O270  1  0.91806942  0.03422655  0.06758810  1
  O2-  O271  1  0.91309573  0.03984657  0.40621744  1
  O2-  O272  1  0.91812941  0.04777202  0.72908765  1
  O2-  O273  1  0.91510832  0.53981063  0.07182088  1
  O2-  O274  1  0.91488183  0.54459389  0.39618988  1
  O2-  O275  1  0.91443647  0.54412699  0.72459242  1
  O2-  O276  1  0.29048640  0.16091286  0.06277501  1
  O2-  O277  1  0.29815537  0.16827908  0.39524954  1
  O2-  O278  1  0.29232967  0.16198264  0.72897992  1
  O2-  O279  1  0.29671808  0.67067839  0.06765822  1
  O2-  O280  1  0.29303752  0.66618307  0.40346148  1
  O2-  O281  1  0.30140742  0.66850872  0.72983103  1
  O2-  O282  1  0.80168930  0.17191351  0.06863389  1
  O2-  O283  1  0.78980171  0.17087839  0.40018942  1
  O2-  O284  1  0.79958951  0.16698279  0.73055972  1
  O2-  O285  1  0.79111191  0.66533617  0.07075548  1
  O2-  O286  1  0.79659214  0.66626390  0.39469737  1
  O2-  O287  1  0.79745625  0.66642986  0.72313893  1
