# generated using pymatgen
data_Ca2Al2SiO7
_symmetry_space_group_name_H-M   'P 1'
_cell_length_a   15.47460929
_cell_length_b   15.47153971
_cell_length_c   15.29396716
_cell_angle_alpha   89.99971346
_cell_angle_beta   89.98903784
_cell_angle_gamma   90.00144656
_symmetry_Int_Tables_number   1
_chemical_formula_structural   Ca2Al2SiO7
_chemical_formula_sum   'Ca48 Al48 Si24 O168'
_cell_volume   3661.62086243
_cell_formula_units_Z   24
loop_
 _symmetry_equiv_pos_site_id
 _symmetry_equiv_pos_as_xyz
  1  'x, y, z'
loop_
 _atom_type_symbol
 _atom_type_oxidation_number
  Ca2+  2.0
  Al0+  0.0
  Si0+  0.0
  O2-  -2.0
loop_
 _atom_site_type_symbol
 _atom_site_label
 _atom_site_symmetry_multiplicity
 _atom_site_fract_x
 _atom_site_fract_y
 _atom_site_fract_z
 _atom_site_occupancy
  Ca2+  Ca0  1  0.15747310  0.06946917  0.17323437  1
  Ca2+  Ca1  1  0.16054438  0.07621367  0.50927784  1
  Ca2+  Ca2  1  0.16006098  0.07169767  0.83079675  1
  Ca2+  Ca3  1  0.16583421  0.58178002  0.17760665  1
  Ca2+  Ca4  1  0.16935761  0.58339836  0.50177078  1
  Ca2+  Ca5  1  0.16938391  0.59502176  0.83214478  1
  Ca2+  Ca6  1  0.67489686  0.08155400  0.17373719  1
  Ca2+  Ca7  1  0.68113371  0.08218372  0.50774956  1
  Ca2+  Ca8  1  0.67046926  0.07701203  0.82583045  1
  Ca2+  Ca9  1  0.67798821  0.58103524  0.17496963  1
  Ca2+  Ca10  1  0.67715954  0.57888346  0.50563612  1
  Ca2+  Ca11  1  0.66828530  0.57832892  0.82982184  1
  Ca2+  Ca12  1  0.07175334  0.33888770  0.16773804  1
  Ca2+  Ca13  1  0.08056378  0.31952663  0.49279665  1
  Ca2+  Ca14  1  0.07193913  0.32652011  0.82185612  1
  Ca2+  Ca15  1  0.09331396  0.82360207  0.16593410  1
  Ca2+  Ca16  1  0.09168695  0.82677489  0.49988057  1
  Ca2+  Ca17  1  0.08813904  0.82773859  0.82510410  1
  Ca2+  Ca18  1  0.58136023  0.33208582  0.16452671  1
  Ca2+  Ca19  1  0.57815957  0.34263399  0.50416629  1
  Ca2+  Ca20  1  0.57819750  0.33329733  0.82113538  1
  Ca2+  Ca21  1  0.57426393  0.82994932  0.15893717  1
  Ca2+  Ca22  1  0.57507697  0.84657528  0.50146331  1
  Ca2+  Ca23  1  0.57200136  0.83946830  0.82363713  1
  Ca2+  Ca24  1  0.32093747  0.42639109  0.18017942  1
  Ca2+  Ca25  1  0.32916943  0.42641892  0.50800797  1
  Ca2+  Ca26  1  0.33264277  0.42124405  0.83069637  1
  Ca2+  Ca27  1  0.32336241  0.91229894  0.16927889  1
  Ca2+  Ca28  1  0.32233010  0.92203605  0.50948550  1
  Ca2+  Ca29  1  0.32429445  0.91230571  0.83282667  1
  Ca2+  Ca30  1  0.83917262  0.41780735  0.17510814  1
  Ca2+  Ca31  1  0.83709396  0.41609309  0.50490601  1
  Ca2+  Ca32  1  0.83204044  0.40747930  0.83368627  1
  Ca2+  Ca33  1  0.83326945  0.92415198  0.17690552  1
  Ca2+  Ca34  1  0.83459016  0.92607065  0.51228913  1
  Ca2+  Ca35  1  0.84526405  0.92357138  0.82909161  1
  Ca2+  Ca36  1  0.41922953  0.16663317  0.16409104  1
  Ca2+  Ca37  1  0.41189141  0.16964615  0.50224881  1
  Ca2+  Ca38  1  0.41541315  0.17060340  0.81947900  1
  Ca2+  Ca39  1  0.41155252  0.67107734  0.16390564  1
  Ca2+  Ca40  1  0.41032758  0.66793476  0.50104587  1
  Ca2+  Ca41  1  0.41389144  0.67813635  0.82364674  1
  Ca2+  Ca42  1  0.92071242  0.17241199  0.16978890  1
  Ca2+  Ca43  1  0.92150857  0.16833492  0.49666424  1
  Ca2+  Ca44  1  0.91921380  0.17359432  0.82265792  1
  Ca2+  Ca45  1  0.92992373  0.65965968  0.16575008  1
  Ca2+  Ca46  1  0.92737418  0.66918117  0.49578281  1
  Ca2+  Ca47  1  0.93218985  0.67444028  0.82321327  1
  Al0+  Al48  1  0.00010476  0.00001397  0.00838937  1
  Al0+  Al49  1  -0.00200133  -0.00045710  0.33778101  1
  Al0+  Al50  1  -0.00005320  -0.00030631  0.67154524  1
  Al0+  Al51  1  0.00011164  0.49993529  -0.01011048  1
  Al0+  Al52  1  0.00019556  0.50031037  0.33535036  1
  Al0+  Al53  1  0.00101861  0.50096153  0.66096674  1
  Al0+  Al54  1  0.50101098  0.00059036  -0.00260153  1
  Al0+  Al55  1  0.49764398  0.00047208  0.32820105  1
  Al0+  Al56  1  0.50143788  0.00238687  0.66681685  1
  Al0+  Al57  1  0.50168248  0.49973968  0.00247963  1
  Al0+  Al58  1  0.50050816  0.50232711  0.33263214  1
  Al0+  Al59  1  0.50026661  0.50092685  0.67162676  1
  Al0+  Al60  1  0.24981620  0.25012356  0.00229995  1
  Al0+  Al61  1  0.25068775  0.24776359  0.32812944  1
  Al0+  Al62  1  0.24997055  0.25267219  0.66211810  1
  Al0+  Al63  1  0.25182715  0.75082406  -0.00219721  1
  Al0+  Al64  1  0.25029897  0.75165742  0.33637070  1
  Al0+  Al65  1  0.25368925  0.75032330  0.66509171  1
  Al0+  Al66  1  0.74791101  0.24939291  -0.00139122  1
  Al0+  Al67  1  0.74738842  0.24845527  0.33252244  1
  Al0+  Al68  1  0.74813660  0.24997826  0.67196209  1
  Al0+  Al69  1  0.75035481  0.74859804  0.00076508  1
  Al0+  Al70  1  0.74626825  0.74849996  0.33634442  1
  Al0+  Al71  1  0.74875736  0.74779098  0.66928531  1
  Al0+  Al72  1  0.82214259  0.07016913  0.68360465  1
  Al0+  Al73  1  0.92543720  0.32075193  0.65093989  1
  Al0+  Al74  1  0.32133226  0.57134392  0.34851101  1
  Al0+  Al75  1  0.07071530  0.68046804  0.98707454  1
  Al0+  Al76  1  0.67860239  0.92625974  0.68101918  1
  Al0+  Al77  1  0.18021054  0.92911164  0.68237953  1
  Al0+  Al78  1  0.18082238  0.92903901  0.01611566  1
  Al0+  Al79  1  0.82176660  0.57092300  0.34658080  1
  Al0+  Al80  1  0.31989114  0.56991249  0.68226808  1
  Al0+  Al81  1  0.17973139  0.93092221  0.34762432  1
  Al0+  Al82  1  0.92854190  0.31961306  0.31917877  1
  Al0+  Al83  1  0.43202438  0.82287882  0.65064756  1
  Al0+  Al84  1  0.32047666  0.07460921  0.67967084  1
  Al0+  Al85  1  0.42885092  0.32338981  0.65320094  1
  Al0+  Al86  1  0.92724825  0.82115348  0.65304047  1
  Al0+  Al87  1  0.07112278  0.17907438  0.65344171  1
  Al0+  Al88  1  0.92933696  0.31922863  0.98552764  1
  Al0+  Al89  1  0.81901143  0.07018007  0.34695902  1
  Al0+  Al90  1  0.43148029  0.81938690  0.98554421  1
  Al0+  Al91  1  0.07033916  0.68161430  0.31972299  1
  Al0+  Al92  1  0.68166611  0.43084482  0.68031372  1
  Al0+  Al93  1  0.07312896  0.17465741  0.31673286  1
  Al0+  Al94  1  0.07404551  0.68090032  0.64883007  1
  Al0+  Al95  1  0.17725391  0.42630963  0.34837008  1
  Si0+  Si96  1  0.92374484  0.82103320  0.31815178  1
  Si0+  Si97  1  0.56859634  0.17890324  0.31709613  1
  Si0+  Si98  1  0.32545391  0.07171936  0.34768466  1
  Si0+  Si99  1  0.57212214  0.67687511  0.31656533  1
  Si0+  Si100  1  0.57138845  0.67653525  0.64964733  1
  Si0+  Si101  1  0.67701165  0.92829470  0.01553571  1
  Si0+  Si102  1  0.07205505  0.17544075  0.98465427  1
  Si0+  Si103  1  0.81890682  0.07117454  0.01714985  1
  Si0+  Si104  1  0.17777386  0.42805691  0.01331976  1
  Si0+  Si105  1  0.67508429  0.92764628  0.34692785  1
  Si0+  Si106  1  0.17679386  0.42851220  0.68385142  1
  Si0+  Si107  1  0.42871204  0.32181478  0.98660277  1
  Si0+  Si108  1  0.57110481  0.17947756  0.64842670  1
  Si0+  Si109  1  0.92569340  0.82375488  0.98709987  1
  Si0+  Si110  1  0.82568268  0.57247802  0.68550242  1
  Si0+  Si111  1  0.67931234  0.42834297  0.01678773  1
  Si0+  Si112  1  0.32440787  0.07395937  0.01722539  1
  Si0+  Si113  1  0.57004635  0.18003406  0.98367509  1
  Si0+  Si114  1  0.43075055  0.82049847  0.31724702  1
  Si0+  Si115  1  0.32076281  0.56979481  0.01444629  1
  Si0+  Si116  1  0.42935334  0.32423545  0.31699374  1
  Si0+  Si117  1  0.57490337  0.67632603  0.98258117  1
  Si0+  Si118  1  0.67754361  0.42737746  0.34852025  1
  Si0+  Si119  1  0.82214665  0.56971749  0.01378861  1
  O2-  O120  1  0.25459560  0.00666879  0.06147157  1
  O2-  O121  1  0.24912283  0.01225262  0.39003897  1
  O2-  O122  1  0.25067653  0.00309357  0.73283594  1
  O2-  O123  1  0.25009706  0.49840472  0.05571389  1
  O2-  O124  1  0.25161164  0.49686790  0.39696875  1
  O2-  O125  1  0.24235171  0.49924698  0.73085494  1
  O2-  O126  1  0.75110965  -0.00436123  0.05864374  1
  O2-  O127  1  0.74819596  -0.00962984  0.39031849  1
  O2-  O128  1  0.75466461  -0.00738408  0.73322916  1
  O2-  O129  1  0.75126503  0.49835860  0.05788421  1
  O2-  O130  1  0.75019718  0.49186144  0.39084568  1
  O2-  O131  1  0.75991905  0.50021959  0.72981261  1
  O2-  O132  1  0.00360136  0.25075216  0.26773954  1
  O2-  O133  1  -0.00205900  0.24935212  0.60282050  1
  O2-  O134  1  0.00461951  0.24497241  0.94075630  1
  O2-  O135  1  -0.00711399  0.75372226  0.27186660  1
  O2-  O136  1  0.00003125  0.75194068  0.60063013  1
  O2-  O137  1  -0.00382591  0.75685016  0.94441836  1
  O2-  O138  1  0.49840088  0.25090602  0.27412817  1
  O2-  O139  1  0.50069799  0.24676661  0.60484783  1
  O2-  O140  1  0.49540232  0.24772716  0.94320673  1
  O2-  O141  1  0.50102353  0.74825938  0.27501479  1
  O2-  O142  1  0.50970415  0.75075397  0.60404333  1
  O2-  O143  1  0.50763068  0.74579671  0.93910893  1
  O2-  O144  1  0.06957436  0.17473090  0.09006088  1
  O2-  O145  1  0.07094981  0.17391602  0.42937937  1
  O2-  O146  1  0.07051061  0.18154524  0.76799741  1
  O2-  O147  1  0.07037012  0.67798799  0.10041881  1
  O2-  O148  1  0.07236072  0.68357127  0.43145973  1
  O2-  O149  1  0.07314284  0.68266941  0.76316844  1
  O2-  O150  1  0.57105184  0.18154579  0.08942195  1
  O2-  O151  1  0.56743699  0.17549369  0.42101131  1
  O2-  O152  1  0.57066242  0.18113081  0.75470172  1
  O2-  O153  1  0.57566570  0.67632867  0.08855035  1
  O2-  O154  1  0.57425155  0.67366781  0.42056407  1
  O2-  O155  1  0.56711022  0.67425304  0.75566305  1
  O2-  O156  1  0.17908790  0.43084969  0.23316385  1
  O2-  O157  1  0.18057471  0.42766038  0.57880465  1
  O2-  O158  1  0.18051097  0.42513905  0.90880846  1
  O2-  O159  1  0.18464016  0.92748162  0.23377513  1
  O2-  O160  1  0.18272231  0.92865196  0.56907724  1
  O2-  O161  1  0.18089147  0.92820275  0.90405289  1
  O2-  O162  1  0.67490938  0.42945473  0.24209845  1
  O2-  O163  1  0.67874779  0.43490612  0.56735424  1
  O2-  O164  1  0.67586229  0.42813039  0.91242655  1
  O2-  O165  1  0.67385309  0.93002418  0.24038239  1
  O2-  O166  1  0.67695936  0.93311846  0.56727597  1
  O2-  O167  1  0.67387665  0.93055377  0.91156766  1
  O2-  O168  1  0.43271491  0.32236688  0.09193801  1
  O2-  O169  1  0.43249091  0.32645384  0.42133139  1
  O2-  O170  1  0.43270756  0.32316330  0.76711745  1
  O2-  O171  1  0.43257806  0.81637818  0.09944695  1
  O2-  O172  1  0.43438625  0.82422182  0.42146216  1
  O2-  O173  1  0.43192012  0.82016878  0.76399908  1
  O2-  O174  1  0.92839344  0.32081104  0.09842375  1
  O2-  O175  1  0.92416279  0.31633843  0.43130839  1
  O2-  O176  1  0.92696773  0.31765377  0.76540222  1
  O2-  O177  1  0.92126009  0.82266088  0.09269156  1
  O2-  O178  1  0.92072318  0.81854434  0.42281228  1
  O2-  O179  1  0.92969776  0.81786979  0.76758936  1
  O2-  O180  1  0.33428532  0.06546495  0.24206750  1
  O2-  O181  1  0.32024542  0.07226698  0.56582056  1
  O2-  O182  1  0.32704263  0.07657127  0.91264433  1
  O2-  O183  1  0.32199017  0.57052641  0.23360748  1
  O2-  O184  1  0.32212713  0.56756496  0.56978642  1
  O2-  O185  1  0.32308510  0.56859533  0.90988182  1
  O2-  O186  1  0.81455251  0.07025822  0.23262433  1
  O2-  O187  1  0.81820866  0.07285066  0.57041365  1
  O2-  O188  1  0.81835212  0.07214396  0.91282133  1
  O2-  O189  1  0.81873699  0.57076238  0.23232502  1
  O2-  O190  1  0.82232532  0.57386369  0.58007060  1
  O2-  O191  1  0.81902359  0.56966010  0.90943023  1
  O2-  O192  1  0.03671695  0.07776091  0.26339365  1
  O2-  O193  1  0.04479044  0.07935413  0.60466725  1
  O2-  O194  1  0.04443385  0.08145960  0.94088696  1
  O2-  O195  1  0.04042619  0.58420922  0.26604735  1
  O2-  O196  1  0.04803931  0.58148413  0.59813725  1
  O2-  O197  1  0.04034256  0.58612604  0.92925078  1
  O2-  O198  1  0.53917172  0.08870170  0.26496940  1
  O2-  O199  1  0.54804203  0.08658724  0.60127055  1
  O2-  O200  1  0.54738339  0.08708960  0.93742355  1
  O2-  O201  1  0.54447645  0.58617890  0.26517676  1
  O2-  O202  1  0.53849053  0.58609024  0.60271037  1
  O2-  O203  1  0.54828785  0.58184563  0.93877432  1
  O2-  O204  1  0.17456616  0.19392743  0.26374203  1
  O2-  O205  1  0.16800793  0.20819516  0.59875910  1
  O2-  O206  1  0.16761142  0.19911605  0.94230345  1
  O2-  O207  1  0.16749376  0.71478982  0.26575333  1
  O2-  O208  1  0.17213874  0.70965068  0.59731321  1
  O2-  O209  1  0.16736466  0.71064827  0.93430856  1
  O2-  O210  1  0.65865160  0.20752585  0.26604839  1
  O2-  O211  1  0.66311539  0.20953117  0.60341869  1
  O2-  O212  1  0.65938652  0.21205908  0.93544691  1
  O2-  O213  1  0.66276830  0.70583495  0.26595605  1
  O2-  O214  1  0.66789904  0.69306545  0.60728172  1
  O2-  O215  1  0.66908487  0.69933261  0.93700572  1
  O2-  O216  1  0.08560334  0.45911316  0.05789689  1
  O2-  O217  1  0.08027429  0.45416461  0.40085063  1
  O2-  O218  1  0.08167619  0.45157034  0.72808625  1
  O2-  O219  1  0.08336397  0.95654007  0.07201737  1
  O2-  O220  1  0.08113686  0.95344347  0.39914039  1
  O2-  O221  1  0.08202198  0.95440597  0.73733261  1
  O2-  O222  1  0.58807178  0.45709789  0.06666849  1
  O2-  O223  1  0.58592916  0.45842524  0.39442973  1
  O2-  O224  1  0.58754017  0.46606818  0.73790932  1
  O2-  O225  1  0.58691944  0.96008726  0.06546344  1
  O2-  O226  1  0.58311479  0.96031593  0.39122412  1
  O2-  O227  1  0.58360205  0.96394413  0.73613996  1
  O2-  O228  1  0.20393052  0.33656517  0.06320018  1
  O2-  O229  1  0.20496614  0.32541205  0.39524867  1
  O2-  O230  1  0.20660282  0.33675425  0.73112071  1
  O2-  O231  1  0.21717754  0.83300223  0.06947907  1
  O2-  O232  1  0.21768875  0.83788263  0.40177162  1
  O2-  O233  1  0.21475185  0.83221916  0.73461750  1
  O2-  O234  1  0.70490520  0.33555530  0.06414300  1
  O2-  O235  1  0.69515642  0.33189562  0.39198209  1
  O2-  O236  1  0.70488432  0.33382197  0.73748225  1
  O2-  O237  1  0.70016374  0.83393382  0.06159421  1
  O2-  O238  1  0.69008780  0.83186854  0.39072936  1
  O2-  O239  1  0.69427591  0.82459333  0.73241235  1
  O2-  O240  1  0.46094565  0.41438570  0.26694039  1
  O2-  O241  1  0.46660312  0.41793714  0.60013371  1
  O2-  O242  1  0.46037708  0.41299528  0.94024386  1
  O2-  O243  1  0.45995062  0.91070095  0.26582627  1
  O2-  O244  1  0.46276347  0.91982706  0.59706787  1
  O2-  O245  1  0.46108214  0.91710452  0.93397177  1
  O2-  O246  1  0.95611517  0.41922966  0.26638335  1
  O2-  O247  1  0.94958732  0.42086241  0.60182168  1
  O2-  O248  1  0.95757176  0.41482885  0.92925720  1
  O2-  O249  1  0.94866571  0.91523923  0.27346520  1
  O2-  O250  1  0.95019614  0.92208891  0.60534831  1
  O2-  O251  1  0.95068379  0.91894578  0.94469975  1
  O2-  O252  1  0.33821169  0.29859216  0.26713424  1
  O2-  O253  1  0.33329437  0.29721219  0.59697405  1
  O2-  O254  1  0.33481211  0.29946453  0.94166781  1
  O2-  O255  1  0.33982448  0.79058363  0.26986785  1
  O2-  O256  1  0.33798516  0.78830012  0.59637587  1
  O2-  O257  1  0.33681944  0.78630129  0.93149567  1
  O2-  O258  1  0.82876923  0.29031930  0.26547244  1
  O2-  O259  1  0.82507632  0.29456463  0.60245404  1
  O2-  O260  1  0.83112626  0.28825447  0.93458436  1
  O2-  O261  1  0.82874225  0.79684357  0.27185975  1
  O2-  O262  1  0.82682890  0.79472642  0.60298990  1
  O2-  O263  1  0.83245686  0.79822894  0.94008334  1
  O2-  O264  1  0.41880677  0.04729578  0.06325732  1
  O2-  O265  1  0.41572704  0.03899648  0.39646400  1
  O2-  O266  1  0.42072857  0.04963507  0.73045342  1
  O2-  O267  1  0.41360838  0.54288202  0.06226083  1
  O2-  O268  1  0.42144709  0.54538261  0.39842765  1
  O2-  O269  1  0.41447558  0.53605640  0.73876237  1
  O2-  O270  1  0.91088971  0.04727912  0.06610351  1
  O2-  O271  1  0.91480927  0.04328052  0.40120611  1
  O2-  O272  1  0.91935226  0.04491395  0.74061657  1
  O2-  O273  1  0.91456714  0.54041859  0.05904695  1
  O2-  O274  1  0.91781653  0.54502753  0.40082811  1
  O2-  O275  1  0.92071182  0.55014178  0.72956287  1
  O2-  O276  1  0.30217365  0.16873776  0.06451715  1
  O2-  O277  1  0.31196280  0.16989283  0.38635151  1
  O2-  O278  1  0.29649875  0.17504568  0.73120163  1
  O2-  O279  1  0.29319609  0.66144096  0.06149513  1
  O2-  O280  1  0.29383873  0.66926976  0.39998274  1
  O2-  O281  1  0.29157100  0.66711765  0.73579698  1
  O2-  O282  1  0.78306139  0.16091006  0.06433378  1
  O2-  O283  1  0.78036519  0.16409141  0.39959244  1
  O2-  O284  1  0.78525153  0.16526830  0.73880025  1
  O2-  O285  1  0.79441743  0.66141844  0.06280489  1
  O2-  O286  1  0.78485643  0.66495495  0.40129053  1
  O2-  O287  1  0.79522190  0.66330383  0.73469455  1
