# generated using pymatgen
data_Ca2Al2SiO7
_symmetry_space_group_name_H-M   'P 1'
_cell_length_a   15.45829232
_cell_length_b   15.45929113
_cell_length_c   15.28329740
_cell_angle_alpha   90.02279878
_cell_angle_beta   90.00428065
_cell_angle_gamma   89.98830389
_symmetry_Int_Tables_number   1
_chemical_formula_structural   Ca2Al2SiO7
_chemical_formula_sum   'Ca48 Al48 Si24 O168'
_cell_volume   3652.31402483
_cell_formula_units_Z   24
loop_
 _symmetry_equiv_pos_site_id
 _symmetry_equiv_pos_as_xyz
  1  'x, y, z'
loop_
 _atom_type_symbol
 _atom_type_oxidation_number
  Ca2+  2.0
  Al0+  0.0
  Si0+  0.0
  O2-  -2.0
loop_
 _atom_site_type_symbol
 _atom_site_label
 _atom_site_symmetry_multiplicity
 _atom_site_fract_x
 _atom_site_fract_y
 _atom_site_fract_z
 _atom_site_occupancy
  Ca2+  Ca0  1  0.16218968  0.07945793  0.16787716  1
  Ca2+  Ca1  1  0.16083042  0.07089662  0.50445279  1
  Ca2+  Ca2  1  0.16204693  0.08039565  0.83687846  1
  Ca2+  Ca3  1  0.16434783  0.57271375  0.17256097  1
  Ca2+  Ca4  1  0.16170017  0.57787319  0.50565080  1
  Ca2+  Ca5  1  0.15710861  0.57134763  0.83414302  1
  Ca2+  Ca6  1  0.67136450  0.08061461  0.16510543  1
  Ca2+  Ca7  1  0.67458570  0.08267096  0.50880862  1
  Ca2+  Ca8  1  0.68149857  0.07865164  0.84168714  1
  Ca2+  Ca9  1  0.66891571  0.58088968  0.16977630  1
  Ca2+  Ca10  1  0.66703216  0.57352162  0.50638999  1
  Ca2+  Ca11  1  0.66188042  0.58306898  0.83438623  1
  Ca2+  Ca12  1  0.07678997  0.33332263  0.15742119  1
  Ca2+  Ca13  1  0.07090461  0.34535459  0.49606928  1
  Ca2+  Ca14  1  0.07614241  0.33174959  0.82982865  1
  Ca2+  Ca15  1  0.08384522  0.82769951  0.16273152  1
  Ca2+  Ca16  1  0.08708357  0.82767088  0.49800472  1
  Ca2+  Ca17  1  0.07419313  0.83198653  0.82312515  1
  Ca2+  Ca18  1  0.57169703  0.34113704  0.16427469  1
  Ca2+  Ca19  1  0.57360314  0.34392634  0.49635291  1
  Ca2+  Ca20  1  0.57092324  0.34070569  0.82526310  1
  Ca2+  Ca21  1  0.58001111  0.82843839  0.15051609  1
  Ca2+  Ca22  1  0.58712428  0.82377668  0.49852673  1
  Ca2+  Ca23  1  0.58857536  0.82475652  0.83197872  1
  Ca2+  Ca24  1  0.32256643  0.40895194  0.16960585  1
  Ca2+  Ca25  1  0.32224359  0.41086875  0.50564573  1
  Ca2+  Ca26  1  0.32348658  0.40993189  0.83791500  1
  Ca2+  Ca27  1  0.33104118  0.91736555  0.17287878  1
  Ca2+  Ca28  1  0.32069759  0.91557094  0.50527755  1
  Ca2+  Ca29  1  0.32812869  0.91225117  0.83772651  1
  Ca2+  Ca30  1  0.83111539  0.41224228  0.17335927  1
  Ca2+  Ca31  1  0.82366026  0.40831045  0.50755841  1
  Ca2+  Ca32  1  0.83030222  0.41185705  0.83673053  1
  Ca2+  Ca33  1  0.83695595  0.91980760  0.16187421  1
  Ca2+  Ca34  1  0.83944321  0.92546807  0.51016325  1
  Ca2+  Ca35  1  0.83863605  0.92404250  0.84239736  1
  Ca2+  Ca36  1  0.41510415  0.17759145  0.16137056  1
  Ca2+  Ca37  1  0.41561023  0.17888513  0.49742593  1
  Ca2+  Ca38  1  0.41713410  0.17705755  0.83079565  1
  Ca2+  Ca39  1  0.42396222  0.67240687  0.15751278  1
  Ca2+  Ca40  1  0.42148339  0.66215853  0.50130039  1
  Ca2+  Ca41  1  0.42730326  0.66800043  0.83311066  1
  Ca2+  Ca42  1  0.92175666  0.17645807  0.15887739  1
  Ca2+  Ca43  1  0.91330276  0.17571549  0.50096784  1
  Ca2+  Ca44  1  0.91540359  0.16998007  0.83234365  1
  Ca2+  Ca45  1  0.92382794  0.67001302  0.16243274  1
  Ca2+  Ca46  1  0.92998417  0.66870239  0.50063375  1
  Ca2+  Ca47  1  0.91857611  0.68024048  0.82642565  1
  Al0+  Al48  1  0.00102275  0.00080021  0.00054419  1
  Al0+  Al49  1  -0.00069869  0.00051350  0.33744709  1
  Al0+  Al50  1  0.00032179  0.00173452  0.67162227  1
  Al0+  Al51  1  -0.00192704  0.49851338  0.00213272  1
  Al0+  Al52  1  -0.00069045  0.50326143  0.32832173  1
  Al0+  Al53  1  -0.00227365  0.50106554  0.66448068  1
  Al0+  Al54  1  0.49832578  0.00056747  0.00013596  1
  Al0+  Al55  1  0.50154536  0.00097008  0.33637435  1
  Al0+  Al56  1  0.49987931  0.00048222  0.66626070  1
  Al0+  Al57  1  0.49804044  0.50165966  -0.00616066  1
  Al0+  Al58  1  0.50039429  0.50072908  0.33101685  1
  Al0+  Al59  1  0.49867015  0.50089093  0.66186054  1
  Al0+  Al60  1  0.24868510  0.24796045  -0.00255848  1
  Al0+  Al61  1  0.24986024  0.24932597  0.33455192  1
  Al0+  Al62  1  0.24951500  0.24870811  0.66565068  1
  Al0+  Al63  1  0.25242730  0.74663854  -0.00301748  1
  Al0+  Al64  1  0.25105300  0.74940754  0.33299658  1
  Al0+  Al65  1  0.25150714  0.74895341  0.66947609  1
  Al0+  Al66  1  0.74933452  0.24956253  0.00426559  1
  Al0+  Al67  1  0.74891357  0.24884750  0.33333896  1
  Al0+  Al68  1  0.74869161  0.24877835  0.67370640  1
  Al0+  Al69  1  0.75177384  0.74828614  -0.00231519  1
  Al0+  Al70  1  0.75160220  0.75033240  0.33393883  1
  Al0+  Al71  1  0.74986930  0.74954040  0.65520476  1
  Al0+  Al72  1  0.17806237  0.42897467  0.34671578  1
  Al0+  Al73  1  0.42718554  0.82386224  0.98522259  1
  Al0+  Al74  1  0.57048609  0.67981712  0.64955913  1
  Al0+  Al75  1  0.57261837  0.67976974  0.98500433  1
  Al0+  Al76  1  0.07082104  0.17911703  0.98509564  1
  Al0+  Al77  1  0.93248596  0.81943695  0.98847207  1
  Al0+  Al78  1  0.18041757  0.92897176  0.34578919  1
  Al0+  Al79  1  0.42804028  0.32016060  0.65138681  1
  Al0+  Al80  1  0.82017961  0.07043237  0.68191888  1
  Al0+  Al81  1  0.92792701  0.31996875  0.65389957  1
  Al0+  Al82  1  0.07242623  0.67897346  0.65274019  1
  Al0+  Al83  1  0.92827869  0.32075840  0.32067878  1
  Al0+  Al84  1  0.17688797  0.42928477  0.68040138  1
  Al0+  Al85  1  0.17913336  0.42854435  0.01382862  1
  Al0+  Al86  1  0.42967912  0.32020224  0.98594864  1
  Al0+  Al87  1  0.67816830  0.43057920  0.68130166  1
  Al0+  Al88  1  0.82352417  0.07233487  0.01942382  1
  Al0+  Al89  1  0.67995741  0.92774267  0.01368491  1
  Al0+  Al90  1  0.68010587  0.43025176  0.34590227  1
  Al0+  Al91  1  0.92646199  0.32232907  0.98462292  1
  Al0+  Al92  1  0.93007770  0.82447150  0.65059443  1
  Al0+  Al93  1  0.07246893  0.68053826  0.31784487  1
  Al0+  Al94  1  0.42864744  0.32086707  0.31847359  1
  Al0+  Al95  1  0.18102147  0.92869034  0.68245357  1
  Si0+  Si96  1  0.32087848  0.07090479  0.01533915  1
  Si0+  Si97  1  0.18016272  0.92649144  0.01454489  1
  Si0+  Si98  1  0.82082945  0.57056717  0.01513676  1
  Si0+  Si99  1  0.32317244  0.57099835  0.01733876  1
  Si0+  Si100  1  0.57223548  0.17592594  0.31594760  1
  Si0+  Si101  1  0.32447835  0.07243923  0.35103272  1
  Si0+  Si102  1  0.07229682  0.17869827  0.64868144  1
  Si0+  Si103  1  0.57210024  0.17732928  0.98391983  1
  Si0+  Si104  1  0.57210702  0.68023052  0.31731848  1
  Si0+  Si105  1  0.32284637  0.57132429  0.68474508  1
  Si0+  Si106  1  0.32339601  0.07206432  0.68436272  1
  Si0+  Si107  1  0.57181050  0.17789545  0.65137213  1
  Si0+  Si108  1  0.81947311  0.06977718  0.34964266  1
  Si0+  Si109  1  0.43094376  0.82187513  0.32036654  1
  Si0+  Si110  1  0.67708623  0.92558993  0.68130094  1
  Si0+  Si111  1  0.07085817  0.17610828  0.31886795  1
  Si0+  Si112  1  0.82256226  0.57468386  0.35134019  1
  Si0+  Si113  1  0.82062268  0.57304302  0.68278308  1
  Si0+  Si114  1  0.32238872  0.57189332  0.34925965  1
  Si0+  Si115  1  0.92833197  0.82436634  0.31586778  1
  Si0+  Si116  1  0.07352558  0.67603977  0.98394531  1
  Si0+  Si117  1  0.67756730  0.92745388  0.34923541  1
  Si0+  Si118  1  0.42788035  0.82406060  0.64846387  1
  Si0+  Si119  1  0.67601688  0.42981448  0.01429206  1
  O2-  O120  1  0.25354404  -0.00455226  0.05688856  1
  O2-  O121  1  0.25439672  0.00429384  0.39361688  1
  O2-  O122  1  0.25704242  0.00186333  0.72953060  1
  O2-  O123  1  0.25336972  0.50371043  0.06162686  1
  O2-  O124  1  0.25420289  0.50279825  0.39336607  1
  O2-  O125  1  0.25143728  0.50459339  0.72757272  1
  O2-  O126  1  0.75037177  -0.00060704  0.06769076  1
  O2-  O127  1  0.74938006  -0.00284294  0.39156653  1
  O2-  O128  1  0.74762770  -0.00837234  0.72514878  1
  O2-  O129  1  0.75059491  0.49738878  0.05625760  1
  O2-  O130  1  0.75691824  0.50219546  0.39409695  1
  O2-  O131  1  0.75283517  0.50454360  0.72917017  1
  O2-  O132  1  0.00768423  0.25012118  0.27557767  1
  O2-  O133  1  0.00633578  0.25008990  0.60467822  1
  O2-  O134  1  -0.00216398  0.24986516  0.93535632  1
  O2-  O135  1  -0.00240774  0.75606593  0.27245454  1
  O2-  O136  1  0.00409808  0.75415921  0.60138961  1
  O2-  O137  1  0.00953175  0.74865843  0.94040310  1
  O2-  O138  1  0.50332929  0.24500413  0.27265045  1
  O2-  O139  1  0.50388631  0.24605735  0.60499463  1
  O2-  O140  1  0.50792950  0.24958325  0.93888856  1
  O2-  O141  1  0.50422963  0.75445801  0.27624121  1
  O2-  O142  1  0.49749316  0.75690001  0.60292773  1
  O2-  O143  1  0.50333007  0.75566757  0.93685578  1
  O2-  O144  1  0.07179649  0.17999548  0.09943631  1
  O2-  O145  1  0.06724438  0.17083927  0.42413166  1
  O2-  O146  1  0.07266053  0.17852642  0.75397320  1
  O2-  O147  1  0.07271502  0.67739567  0.08997818  1
  O2-  O148  1  0.07272124  0.68187237  0.43049220  1
  O2-  O149  1  0.06845858  0.67933976  0.76641317  1
  O2-  O150  1  0.56885541  0.17704270  0.08993746  1
  O2-  O151  1  0.57192512  0.17259576  0.42142285  1
  O2-  O152  1  0.56917181  0.17744310  0.75665361  1
  O2-  O153  1  0.57032086  0.67858780  0.09940474  1
  O2-  O154  1  0.57091442  0.68038384  0.42231301  1
  O2-  O155  1  0.56972716  0.68061892  0.76209226  1
  O2-  O156  1  0.17948386  0.42899947  0.23350978  1
  O2-  O157  1  0.17767606  0.43067070  0.56696096  1
  O2-  O158  1  0.17930415  0.42971817  0.90078703  1
  O2-  O159  1  0.18255082  0.92979510  0.23232728  1
  O2-  O160  1  0.18247129  0.93005177  0.56880998  1
  O2-  O161  1  0.18058090  0.92755989  0.90970500  1
  O2-  O162  1  0.67872298  0.43419573  0.23243304  1
  O2-  O163  1  0.67854931  0.43118266  0.56782066  1
  O2-  O164  1  0.67448208  0.43168266  0.90934540  1
  O2-  O165  1  0.67458852  0.92695220  0.24470417  1
  O2-  O166  1  0.67584864  0.92915469  0.57493497  1
  O2-  O167  1  0.68224410  0.92869471  0.90024640  1
  O2-  O168  1  0.43024225  0.31906161  0.09939600  1
  O2-  O169  1  0.42973190  0.32019974  0.43144243  1
  O2-  O170  1  0.42835148  0.31843692  0.76447220  1
  O2-  O171  1  0.42631275  0.82103887  0.09983929  1
  O2-  O172  1  0.43250575  0.82066467  0.42538668  1
  O2-  O173  1  0.42885942  0.82465992  0.75357651  1
  O2-  O174  1  0.92828566  0.32277143  0.09875829  1
  O2-  O175  1  0.92569947  0.31737849  0.43381651  1
  O2-  O176  1  0.92759379  0.31839761  0.76633195  1
  O2-  O177  1  0.93440084  0.81674806  0.10211848  1
  O2-  O178  1  0.92746050  0.82562870  0.42104975  1
  O2-  O179  1  0.92984329  0.82299419  0.76424477  1
  O2-  O180  1  0.32760566  0.07039358  0.24537212  1
  O2-  O181  1  0.32334709  0.07083768  0.57851245  1
  O2-  O182  1  0.32029028  0.07242879  0.91052314  1
  O2-  O183  1  0.32281985  0.57331244  0.24376698  1
  O2-  O184  1  0.32396867  0.57029874  0.57863723  1
  O2-  O185  1  0.32501290  0.57081318  0.91219624  1
  O2-  O186  1  0.81949350  0.06880183  0.24505600  1
  O2-  O187  1  0.81723203  0.07101543  0.56780739  1
  O2-  O188  1  0.82214938  0.07100462  0.90617711  1
  O2-  O189  1  0.81893235  0.57897906  0.24547316  1
  O2-  O190  1  0.81908939  0.57143586  0.57695976  1
  O2-  O191  1  0.82164084  0.57202565  0.91038961  1
  O2-  O192  1  0.03998512  0.08456818  0.27030214  1
  O2-  O193  1  0.04193056  0.08621395  0.60308771  1
  O2-  O194  1  0.04475834  0.08010531  0.93296027  1
  O2-  O195  1  0.03949597  0.58626738  0.26066120  1
  O2-  O196  1  0.03912238  0.58310542  0.59718012  1
  O2-  O197  1  0.04182544  0.58429631  0.93936108  1
  O2-  O198  1  0.54642035  0.08196651  0.26927075  1
  O2-  O199  1  0.54763363  0.08378806  0.60350071  1
  O2-  O200  1  0.54309636  0.08572444  0.93663813  1
  O2-  O201  1  0.54199164  0.59006034  0.26882767  1
  O2-  O202  1  0.53567665  0.58540547  0.59356130  1
  O2-  O203  1  0.53934516  0.58438926  0.92946090  1
  O2-  O204  1  0.16730990  0.19437650  0.27600182  1
  O2-  O205  1  0.16715916  0.19791878  0.60274746  1
  O2-  O206  1  0.16834698  0.20564075  0.93024167  1
  O2-  O207  1  0.16936000  0.71122593  0.26352747  1
  O2-  O208  1  0.17312301  0.70307428  0.60214355  1
  O2-  O209  1  0.16879605  0.69446436  0.93966508  1
  O2-  O210  1  0.66529854  0.20128840  0.26952266  1
  O2-  O211  1  0.66532066  0.20347126  0.60599149  1
  O2-  O212  1  0.66751365  0.19867398  0.94147653  1
  O2-  O213  1  0.66545558  0.70590180  0.27174754  1
  O2-  O214  1  0.66539465  0.70803203  0.59032288  1
  O2-  O215  1  0.67096661  0.70417372  0.93127937  1
  O2-  O216  1  0.08219895  0.45949257  0.06805057  1
  O2-  O217  1  0.08077004  0.46305826  0.39746530  1
  O2-  O218  1  0.07985035  0.46086151  0.73352286  1
  O2-  O219  1  0.09016372  0.95652799  0.06376473  1
  O2-  O220  1  0.08370402  0.95916856  0.40055878  1
  O2-  O221  1  0.08567553  0.96187592  0.73623548  1
  O2-  O222  1  0.58502559  0.46227070  0.06142348  1
  O2-  O223  1  0.58394010  0.46478641  0.39921335  1
  O2-  O224  1  0.58096573  0.46410853  0.73239762  1
  O2-  O225  1  0.57971597  0.95563970  0.06566592  1
  O2-  O226  1  0.58666071  0.95532031  0.39923763  1
  O2-  O227  1  0.58308208  0.95091909  0.72668393  1
  O2-  O228  1  0.21214698  0.33166593  0.06643708  1
  O2-  O229  1  0.20631586  0.33114589  0.39990872  1
  O2-  O230  1  0.20864615  0.33156090  0.73150007  1
  O2-  O231  1  0.20650748  0.83291819  0.06018781  1
  O2-  O232  1  0.21438719  0.83360092  0.40033055  1
  O2-  O233  1  0.21067145  0.83178331  0.73630462  1
  O2-  O234  1  0.69824080  0.33694460  0.06222703  1
  O2-  O235  1  0.70599395  0.33147495  0.39851117  1
  O2-  O236  1  0.70539514  0.33399730  0.73603726  1
  O2-  O237  1  0.70881787  0.82875207  0.06672613  1
  O2-  O238  1  0.70450854  0.83489439  0.39617247  1
  O2-  O239  1  0.69985145  0.82952060  0.72181944  1
  O2-  O240  1  0.46121421  0.41720796  0.26455903  1
  O2-  O241  1  0.45844036  0.41611626  0.59695074  1
  O2-  O242  1  0.45684117  0.41677783  0.93161250  1
  O2-  O243  1  0.45549766  0.91563769  0.27491380  1
  O2-  O244  1  0.45059503  0.91863326  0.60200696  1
  O2-  O245  1  0.44768107  0.92426155  0.93412163  1
  O2-  O246  1  0.95216925  0.41938385  0.26803354  1
  O2-  O247  1  0.95356975  0.41773883  0.59984158  1
  O2-  O248  1  0.95380039  0.42129652  0.93308415  1
  O2-  O249  1  0.95415228  0.91823559  0.27067356  1
  O2-  O250  1  0.95953423  0.92350011  0.59955174  1
  O2-  O251  1  0.96050002  0.91656563  0.93631502  1
  O2-  O252  1  0.33185246  0.28814410  0.26520771  1
  O2-  O253  1  0.33236965  0.28635783  0.59679760  1
  O2-  O254  1  0.33531415  0.28422971  0.93262941  1
  O2-  O255  1  0.34030481  0.79285837  0.27208322  1
  O2-  O256  1  0.33519168  0.79506327  0.60249085  1
  O2-  O257  1  0.33118053  0.79053844  0.92991359  1
  O2-  O258  1  0.83250461  0.28645077  0.26661410  1
  O2-  O259  1  0.83103945  0.28441300  0.60210970  1
  O2-  O260  1  0.82586513  0.29593181  0.93577082  1
  O2-  O261  1  0.83422941  0.79745446  0.27054111  1
  O2-  O262  1  0.83266782  0.79714322  0.59494183  1
  O2-  O263  1  0.83748092  0.78694696  0.93412843  1
  O2-  O264  1  0.41300710  0.04789302  0.06506235  1
  O2-  O265  1  0.41748760  0.04643945  0.39922156  1
  O2-  O266  1  0.41825179  0.04939293  0.72990799  1
  O2-  O267  1  0.41675924  0.54485650  0.06417950  1
  O2-  O268  1  0.41649346  0.54680871  0.39492622  1
  O2-  O269  1  0.41539632  0.54249260  0.73037117  1
  O2-  O270  1  0.92155003  0.04104781  0.07256012  1
  O2-  O271  1  0.91081957  0.04284767  0.39851131  1
  O2-  O272  1  0.91691823  0.04345625  0.73612809  1
  O2-  O273  1  0.91173422  0.54388552  0.06584790  1
  O2-  O274  1  0.91775002  0.55297670  0.39402762  1
  O2-  O275  1  0.91405153  0.54958614  0.72898015  1
  O2-  O276  1  0.28831728  0.16013194  0.06547952  1
  O2-  O277  1  0.29920303  0.16564554  0.39733990  1
  O2-  O278  1  0.29561385  0.16470866  0.73067774  1
  O2-  O279  1  0.29933174  0.66552468  0.06418469  1
  O2-  O280  1  0.29819818  0.66545017  0.39654698  1
  O2-  O281  1  0.30288380  0.66613006  0.73054325  1
  O2-  O282  1  0.79255003  0.17024925  0.07358980  1
  O2-  O283  1  0.78887694  0.16040777  0.39778553  1
  O2-  O284  1  0.78533144  0.16347353  0.73933336  1
  O2-  O285  1  0.79126735  0.66054788  0.06561232  1
  O2-  O286  1  0.79375402  0.66697884  0.39943673  1
  O2-  O287  1  0.79241961  0.66780416  0.72542169  1
