# generated using pymatgen
data_Ca2Al2SiO7
_symmetry_space_group_name_H-M   'P 1'
_cell_length_a   15.45933459
_cell_length_b   15.45801354
_cell_length_c   15.28368810
_cell_angle_alpha   89.99921742
_cell_angle_beta   90.01204199
_cell_angle_gamma   90.01105844
_symmetry_Int_Tables_number   1
_chemical_formula_structural   Ca2Al2SiO7
_chemical_formula_sum   'Ca48 Al48 Si24 O168'
_cell_volume   3652.35201792
_cell_formula_units_Z   24
loop_
 _symmetry_equiv_pos_site_id
 _symmetry_equiv_pos_as_xyz
  1  'x, y, z'
loop_
 _atom_type_symbol
 _atom_type_oxidation_number
  Ca2+  2.0
  Al0+  0.0
  Si0+  0.0
  O2-  -2.0
loop_
 _atom_site_type_symbol
 _atom_site_label
 _atom_site_symmetry_multiplicity
 _atom_site_fract_x
 _atom_site_fract_y
 _atom_site_fract_z
 _atom_site_occupancy
  Ca2+  Ca0  1  0.15638338  0.07462094  0.17105905  1
  Ca2+  Ca1  1  0.16498829  0.07356142  0.50560950  1
  Ca2+  Ca2  1  0.16947491  0.07341916  0.83883179  1
  Ca2+  Ca3  1  0.17254223  0.57985374  0.17121208  1
  Ca2+  Ca4  1  0.16930528  0.58673828  0.49723964  1
  Ca2+  Ca5  1  0.17059169  0.57652600  0.84934431  1
  Ca2+  Ca6  1  0.67110061  0.08561489  0.17203505  1
  Ca2+  Ca7  1  0.67912567  0.08009707  0.51167394  1
  Ca2+  Ca8  1  0.66684487  0.08965561  0.83371362  1
  Ca2+  Ca9  1  0.67252351  0.57859077  0.17097624  1
  Ca2+  Ca10  1  0.66147552  0.57280425  0.50668556  1
  Ca2+  Ca11  1  0.66863306  0.58299682  0.83630907  1
  Ca2+  Ca12  1  0.09561086  0.32414557  0.16120660  1
  Ca2+  Ca13  1  0.08218245  0.32488239  0.49003477  1
  Ca2+  Ca14  1  0.08889454  0.32774869  0.83360796  1
  Ca2+  Ca15  1  0.08585712  0.82619681  0.16448714  1
  Ca2+  Ca16  1  0.08115872  0.83619624  0.48848236  1
  Ca2+  Ca17  1  0.09244693  0.82916152  0.83362128  1
  Ca2+  Ca18  1  0.57890866  0.33090234  0.15991796  1
  Ca2+  Ca19  1  0.58814997  0.33148897  0.49780986  1
  Ca2+  Ca20  1  0.57967091  0.32745710  0.82872213  1
  Ca2+  Ca21  1  0.57102527  0.83278316  0.15708686  1
  Ca2+  Ca22  1  0.58869829  0.82947993  0.50059060  1
  Ca2+  Ca23  1  0.57817014  0.82947850  0.82565638  1
  Ca2+  Ca24  1  0.32752613  0.42284748  0.16899551  1
  Ca2+  Ca25  1  0.32780596  0.42034117  0.49713118  1
  Ca2+  Ca26  1  0.33228788  0.42299530  0.84402889  1
  Ca2+  Ca27  1  0.32177648  0.91136835  0.16742194  1
  Ca2+  Ca28  1  0.31983606  0.92204281  0.50595543  1
  Ca2+  Ca29  1  0.32814029  0.91848433  0.83808488  1
  Ca2+  Ca30  1  0.82977223  0.42142521  0.16872551  1
  Ca2+  Ca31  1  0.82093025  0.41414406  0.50387090  1
  Ca2+  Ca32  1  0.82548388  0.42080348  0.83826052  1
  Ca2+  Ca33  1  0.83713769  0.92240968  0.17290190  1
  Ca2+  Ca34  1  0.83651115  0.92644287  0.50451794  1
  Ca2+  Ca35  1  0.82569570  0.91921917  0.83156003  1
  Ca2+  Ca36  1  0.42277780  0.17633886  0.15330724  1
  Ca2+  Ca37  1  0.42097793  0.16055951  0.50108776  1
  Ca2+  Ca38  1  0.42268757  0.16997000  0.82830520  1
  Ca2+  Ca39  1  0.40900047  0.66766425  0.16112452  1
  Ca2+  Ca40  1  0.42017125  0.66366203  0.49741726  1
  Ca2+  Ca41  1  0.41317096  0.67306257  0.83151183  1
  Ca2+  Ca42  1  0.92614653  0.16544819  0.16637328  1
  Ca2+  Ca43  1  0.91812940  0.16087293  0.49211248  1
  Ca2+  Ca44  1  0.92125395  0.16298871  0.83242808  1
  Ca2+  Ca45  1  0.92735877  0.66657037  0.16088464  1
  Ca2+  Ca46  1  0.92488178  0.67934565  0.48833447  1
  Ca2+  Ca47  1  0.92111526  0.66242921  0.83301832  1
  Al0+  Al48  1  -0.00197280  -0.00012914  -0.00152388  1
  Al0+  Al49  1  -0.00118667  0.00093944  0.33293336  1
  Al0+  Al50  1  -0.00009242  -0.00140228  0.67583839  1
  Al0+  Al51  1  -0.00151237  0.49926424  0.00387010  1
  Al0+  Al52  1  -0.00084223  0.49962282  0.33420551  1
  Al0+  Al53  1  -0.00017358  0.49905944  0.66263316  1
  Al0+  Al54  1  0.50020742  -0.00164841  -0.00758833  1
  Al0+  Al55  1  0.50062974  -0.00142517  0.33206098  1
  Al0+  Al56  1  0.49877674  0.00050155  0.66605997  1
  Al0+  Al57  1  0.50117043  0.49984204  0.00030632  1
  Al0+  Al58  1  0.50006819  0.49939857  0.33971616  1
  Al0+  Al59  1  0.49865382  0.49983674  0.66684141  1
  Al0+  Al60  1  0.25180832  0.24864846  -0.00779905  1
  Al0+  Al61  1  0.25276023  0.25113266  0.33270048  1
  Al0+  Al62  1  0.24958471  0.25030744  0.66676964  1
  Al0+  Al63  1  0.24895998  0.75073657  -0.00190707  1
  Al0+  Al64  1  0.25109797  0.75077542  0.33963240  1
  Al0+  Al65  1  0.25065225  0.74868983  0.66738379  1
  Al0+  Al66  1  0.75196118  0.24939467  -0.00210223  1
  Al0+  Al67  1  0.75123848  0.24942272  0.33917341  1
  Al0+  Al68  1  0.74941239  0.25203467  0.67215300  1
  Al0+  Al69  1  0.75052402  0.75172786  0.00545947  1
  Al0+  Al70  1  0.74887766  0.75047635  0.32748470  1
  Al0+  Al71  1  0.75208271  0.75040969  0.66369821  1
  Al0+  Al72  1  0.06875910  0.67932547  0.98651231  1
  Al0+  Al73  1  0.42924095  0.32321337  0.98436388  1
  Al0+  Al74  1  0.82080014  0.57281871  0.01396165  1
  Al0+  Al75  1  0.07070156  0.17780991  0.98503882  1
  Al0+  Al76  1  0.17901374  0.92743534  0.68364135  1
  Al0+  Al77  1  0.57074600  0.67976087  0.65327991  1
  Al0+  Al78  1  0.42757143  0.81854362  0.98577574  1
  Al0+  Al79  1  0.68103887  0.43099819  0.34664152  1
  Al0+  Al80  1  0.57304573  0.17887367  0.98499653  1
  Al0+  Al81  1  0.57103091  0.17969305  0.65041650  1
  Al0+  Al82  1  0.18025802  0.93218586  0.34522292  1
  Al0+  Al83  1  0.07295262  0.67841609  0.31769599  1
  Al0+  Al84  1  0.67760571  0.43052993  0.68269385  1
  Al0+  Al85  1  0.17689042  0.42623487  0.34897069  1
  Al0+  Al86  1  0.31989873  0.57149973  0.35053886  1
  Al0+  Al87  1  0.81892785  0.06825921  0.34525428  1
  Al0+  Al88  1  0.07185787  0.18086578  0.32173122  1
  Al0+  Al89  1  0.67894926  0.92679172  0.68058292  1
  Al0+  Al90  1  0.92835436  0.82282662  0.31718141  1
  Al0+  Al91  1  0.17884725  0.42556571  0.01382265  1
  Al0+  Al92  1  0.32200645  0.57184449  0.01359909  1
  Al0+  Al93  1  0.17869648  0.93077230  0.01572265  1
  Al0+  Al94  1  0.32107781  0.07311348  0.68215705  1
  Al0+  Al95  1  0.82082789  0.07238668  0.68502804  1
  Si0+  Si96  1  0.07216380  0.67725253  0.65161805  1
  Si0+  Si97  1  0.31989288  0.56934678  0.68235753  1
  Si0+  Si98  1  0.42603031  0.82197624  0.64721736  1
  Si0+  Si99  1  0.82000278  0.07137478  0.01680799  1
  Si0+  Si100  1  0.57227495  0.17909153  0.32079614  1
  Si0+  Si101  1  0.17662907  0.42966479  0.68076629  1
  Si0+  Si102  1  0.43099368  0.32191049  0.31888034  1
  Si0+  Si103  1  0.43038367  0.82105506  0.31950565  1
  Si0+  Si104  1  0.42672014  0.32262098  0.64620214  1
  Si0+  Si105  1  0.82240387  0.57521961  0.35070817  1
  Si0+  Si106  1  0.92591836  0.82248250  0.98090185  1
  Si0+  Si107  1  0.32619153  0.07373182  0.34706891  1
  Si0+  Si108  1  0.82328444  0.57151589  0.68077433  1
  Si0+  Si109  1  0.92916442  0.32212797  0.65152725  1
  Si0+  Si110  1  0.57491137  0.67882963  0.98562016  1
  Si0+  Si111  1  0.92764979  0.32235771  0.98291758  1
  Si0+  Si112  1  0.06917330  0.17862789  0.65242120  1
  Si0+  Si113  1  0.93090872  0.82092624  0.65254475  1
  Si0+  Si114  1  0.56980055  0.67622621  0.31792508  1
  Si0+  Si115  1  0.92548236  0.32167082  0.31797818  1
  Si0+  Si116  1  0.67404995  0.92653879  0.34829187  1
  Si0+  Si117  1  0.32391366  0.07066630  0.01585831  1
  Si0+  Si118  1  0.67743618  0.92942759  0.01557069  1
  Si0+  Si119  1  0.67942168  0.42705228  0.01630348  1
  O2-  O120  1  0.25231284  0.00690131  0.06286524  1
  O2-  O121  1  0.25318355  0.00933833  0.39040909  1
  O2-  O122  1  0.25170348  -0.00089718  0.73251568  1
  O2-  O123  1  0.25063459  0.49861613  0.06245657  1
  O2-  O124  1  0.24452018  0.50211040  0.40028940  1
  O2-  O125  1  0.24681077  0.50057701  0.72340191  1
  O2-  O126  1  0.74663066  0.00217078  0.05786004  1
  O2-  O127  1  0.74532508  -0.00756134  0.39126119  1
  O2-  O128  1  0.74440268  0.00353064  0.73350863  1
  O2-  O129  1  0.74543742  0.49829237  0.06021096  1
  O2-  O130  1  0.75475859  0.50599600  0.39551696  1
  O2-  O131  1  0.75197779  0.50674909  0.72673831  1
  O2-  O132  1  0.00130640  0.26044238  0.27472036  1
  O2-  O133  1  -0.00309016  0.24791592  0.60922431  1
  O2-  O134  1  -0.00054974  0.25663104  0.93874813  1
  O2-  O135  1  -0.00213015  0.74792985  0.26813791  1
  O2-  O136  1  0.00426462  0.75171282  0.61098575  1
  O2-  O137  1  -0.00572477  0.75336484  0.93671014  1
  O2-  O138  1  0.49957535  0.24750078  0.27801433  1
  O2-  O139  1  0.49517815  0.25316644  0.60184077  1
  O2-  O140  1  0.50111727  0.25067784  0.93517293  1
  O2-  O141  1  0.50134887  0.74978376  0.27663302  1
  O2-  O142  1  0.49854178  0.75613708  0.60376772  1
  O2-  O143  1  0.50207807  0.74236500  0.94104152  1
  O2-  O144  1  0.06683942  0.17604929  0.09822858  1
  O2-  O145  1  0.06851927  0.17918508  0.43537295  1
  O2-  O146  1  0.06885350  0.18145058  0.75742415  1
  O2-  O147  1  0.06908221  0.68017090  0.09895739  1
  O2-  O148  1  0.07157097  0.68287245  0.43233079  1
  O2-  O149  1  0.07043806  0.67340616  0.75652898  1
  O2-  O150  1  0.57366584  0.18055711  0.09976031  1
  O2-  O151  1  0.57183731  0.17945549  0.42566060  1
  O2-  O152  1  0.57076735  0.18439664  0.76295944  1
  O2-  O153  1  0.57721537  0.68248219  0.09150698  1
  O2-  O154  1  0.56971226  0.67641538  0.42317153  1
  O2-  O155  1  0.56860715  0.67987496  0.76632184  1
  O2-  O156  1  0.18341853  0.42215072  0.23633228  1
  O2-  O157  1  0.17581615  0.43005811  0.57589048  1
  O2-  O158  1  0.17862787  0.42924569  0.89923743  1
  O2-  O159  1  0.18183767  0.93108856  0.23231267  1
  O2-  O160  1  0.17698565  0.92873870  0.56962452  1
  O2-  O161  1  0.18072881  0.93075449  0.90288480  1
  O2-  O162  1  0.68109702  0.43156374  0.23344294  1
  O2-  O163  1  0.67982755  0.43087048  0.56929749  1
  O2-  O164  1  0.68125706  0.42697932  0.91081566  1
  O2-  O165  1  0.66848616  0.93055882  0.24267517  1
  O2-  O166  1  0.68586461  0.92578407  0.56672823  1
  O2-  O167  1  0.67939566  0.92585513  0.91096287  1
  O2-  O168  1  0.43227636  0.32227894  0.09876535  1
  O2-  O169  1  0.43154121  0.32272019  0.42400634  1
  O2-  O170  1  0.42693642  0.32436139  0.75137184  1
  O2-  O171  1  0.43006664  0.81985589  0.09955204  1
  O2-  O172  1  0.43310194  0.82325740  0.42435165  1
  O2-  O173  1  0.42331406  0.81708519  0.75267312  1
  O2-  O174  1  0.92157171  0.31889662  0.08822024  1
  O2-  O175  1  0.92184432  0.31679848  0.42386998  1
  O2-  O176  1  0.93348087  0.32734807  0.75626701  1
  O2-  O177  1  0.92534405  0.82276371  0.08622374  1
  O2-  O178  1  0.92971480  0.82302173  0.43154766  1
  O2-  O179  1  0.92814029  0.81834249  0.75748313  1
  O2-  O180  1  0.33206561  0.07146508  0.24191506  1
  O2-  O181  1  0.31621606  0.07297168  0.56770058  1
  O2-  O182  1  0.32365477  0.06718987  0.91047635  1
  O2-  O183  1  0.32333820  0.56981887  0.23763544  1
  O2-  O184  1  0.31955520  0.56942045  0.57731333  1
  O2-  O185  1  0.31982648  0.57158476  0.89935240  1
  O2-  O186  1  0.81588505  0.07039073  0.23187128  1
  O2-  O187  1  0.82398084  0.06992626  0.57127368  1
  O2-  O188  1  0.82038852  0.07079140  0.91200507  1
  O2-  O189  1  0.81920483  0.57419665  0.24509174  1
  O2-  O190  1  0.82495284  0.56837247  0.57537830  1
  O2-  O191  1  0.81813563  0.57192699  0.90032806  1
  O2-  O192  1  0.03473413  0.08732225  0.26657013  1
  O2-  O193  1  0.04185745  0.08482150  0.60891161  1
  O2-  O194  1  0.03371568  0.08350694  0.92984092  1
  O2-  O195  1  0.04793261  0.57739544  0.26828661  1
  O2-  O196  1  0.04175932  0.58708065  0.60169314  1
  O2-  O197  1  0.03687509  0.58186098  0.93332548  1
  O2-  O198  1  0.54791027  0.08588917  0.27366902  1
  O2-  O199  1  0.54357161  0.08126591  0.59680290  1
  O2-  O200  1  0.54750056  0.08038197  0.93178321  1
  O2-  O201  1  0.53972928  0.58505910  0.27101958  1
  O2-  O202  1  0.53631417  0.58380154  0.59886591  1
  O2-  O203  1  0.55676520  0.58277394  0.94265535  1
  O2-  O204  1  0.17077148  0.20536394  0.26846494  1
  O2-  O205  1  0.16052550  0.20788934  0.60493238  1
  O2-  O206  1  0.16744757  0.20362576  0.92927797  1
  O2-  O207  1  0.17228942  0.70965891  0.26884405  1
  O2-  O208  1  0.16543349  0.70168671  0.60563547  1
  O2-  O209  1  0.16421365  0.71086616  0.93089362  1
  O2-  O210  1  0.66337591  0.20974366  0.27371133  1
  O2-  O211  1  0.66921195  0.21306801  0.59956782  1
  O2-  O212  1  0.67166308  0.20717711  0.93241229  1
  O2-  O213  1  0.66232902  0.69993525  0.26988610  1
  O2-  O214  1  0.66865926  0.70708527  0.59832971  1
  O2-  O215  1  0.66660021  0.70995408  0.93857272  1
  O2-  O216  1  0.07914601  0.44919498  0.06511817  1
  O2-  O217  1  0.07523359  0.44683427  0.39974121  1
  O2-  O218  1  0.08457064  0.45733592  0.72759591  1
  O2-  O219  1  0.08005584  0.96048374  0.06637128  1
  O2-  O220  1  0.08395574  0.96289342  0.39924458  1
  O2-  O221  1  0.08202829  0.95447365  0.73871971  1
  O2-  O222  1  0.58557118  0.45020175  0.06230059  1
  O2-  O223  1  0.58603291  0.46143318  0.40342843  1
  O2-  O224  1  0.58066493  0.46104899  0.73512054  1
  O2-  O225  1  0.58480046  0.95634640  0.06214189  1
  O2-  O226  1  0.58223375  0.95304634  0.39770990  1
  O2-  O227  1  0.57673469  0.94557590  0.72759587  1
  O2-  O228  1  0.20858076  0.32595217  0.06330861  1
  O2-  O229  1  0.21142980  0.32948577  0.40427430  1
  O2-  O230  1  0.20346885  0.33736032  0.72673716  1
  O2-  O231  1  0.21222806  0.83461308  0.06781405  1
  O2-  O232  1  0.21286504  0.83806051  0.40227615  1
  O2-  O233  1  0.20798533  0.82777738  0.73411718  1
  O2-  O234  1  0.70918305  0.33452913  0.06282939  1
  O2-  O235  1  0.71270790  0.33539317  0.40246744  1
  O2-  O236  1  0.71100701  0.33664399  0.73837691  1
  O2-  O237  1  0.70592856  0.83947117  0.06650241  1
  O2-  O238  1  0.69613307  0.83044326  0.39035969  1
  O2-  O239  1  0.71313582  0.83000659  0.73459434  1
  O2-  O240  1  0.46380555  0.41239656  0.27222281  1
  O2-  O241  1  0.45389443  0.41590634  0.60024694  1
  O2-  O242  1  0.45824587  0.42171760  0.93070403  1
  O2-  O243  1  0.45843217  0.91195682  0.26896871  1
  O2-  O244  1  0.44556910  0.91721206  0.60291204  1
  O2-  O245  1  0.46034808  0.91295534  0.92949748  1
  O2-  O246  1  0.94056822  0.41870799  0.27591463  1
  O2-  O247  1  0.95875968  0.41184598  0.59963785  1
  O2-  O248  1  0.94833245  0.41716744  0.93773858  1
  O2-  O249  1  0.95838833  0.91997752  0.26359565  1
  O2-  O250  1  0.95865762  0.91404691  0.60737738  1
  O2-  O251  1  0.95020680  0.91602857  0.93492945  1
  O2-  O252  1  0.33941241  0.29701571  0.27040344  1
  O2-  O253  1  0.33236240  0.29676781  0.60037464  1
  O2-  O254  1  0.33241575  0.29613649  0.92804198  1
  O2-  O255  1  0.33860753  0.79247362  0.27367426  1
  O2-  O256  1  0.33416411  0.79003498  0.59960597  1
  O2-  O257  1  0.33284994  0.78835913  0.92879617  1
  O2-  O258  1  0.83496183  0.28828052  0.26928126  1
  O2-  O259  1  0.83563186  0.29736543  0.60683266  1
  O2-  O260  1  0.83658357  0.29234458  0.93327060  1
  O2-  O261  1  0.82751589  0.80019665  0.26465787  1
  O2-  O262  1  0.84110057  0.79248964  0.60152964  1
  O2-  O263  1  0.83173762  0.79533228  0.93622629  1
  O2-  O264  1  0.41773536  0.04270170  0.06085752  1
  O2-  O265  1  0.41740092  0.04226529  0.39645969  1
  O2-  O266  1  0.42099329  0.04908120  0.73247664  1
  O2-  O267  1  0.42241736  0.54767995  0.06552865  1
  O2-  O268  1  0.41657959  0.53839803  0.40545824  1
  O2-  O269  1  0.41056745  0.54037501  0.72991753  1
  O2-  O270  1  0.91041940  0.04017181  0.06438139  1
  O2-  O271  1  0.91444959  0.03806365  0.40100409  1
  O2-  O272  1  0.91655800  0.03961017  0.74015260  1
  O2-  O273  1  0.91490592  0.53997648  0.07054561  1
  O2-  O274  1  0.91667764  0.55296689  0.39610160  1
  O2-  O275  1  0.91583067  0.54139918  0.72768410  1
  O2-  O276  1  0.30297026  0.16689223  0.05726780  1
  O2-  O277  1  0.30690147  0.16860141  0.39216653  1
  O2-  O278  1  0.29156866  0.17160544  0.73456493  1
  O2-  O279  1  0.29189286  0.66960870  0.06569880  1
  O2-  O280  1  0.29544011  0.66971034  0.40648118  1
  O2-  O281  1  0.29458364  0.66201845  0.72846271  1
  O2-  O282  1  0.79435728  0.16401546  0.06378552  1
  O2-  O283  1  0.78841131  0.16325782  0.40226763  1
  O2-  O284  1  0.79672771  0.17178962  0.73703319  1
  O2-  O285  1  0.79086876  0.66859688  0.07043341  1
  O2-  O286  1  0.79535678  0.66956216  0.39492297  1
  O2-  O287  1  0.80144064  0.66600521  0.72541055  1
