# generated using pymatgen
data_Ca2Al2SiO7
_symmetry_space_group_name_H-M   'P 1'
_cell_length_a   15.45951856
_cell_length_b   15.45872936
_cell_length_c   15.28385850
_cell_angle_alpha   90.01362103
_cell_angle_beta   89.99016304
_cell_angle_gamma   90.00933127
_symmetry_Int_Tables_number   1
_chemical_formula_structural   Ca2Al2SiO7
_chemical_formula_sum   'Ca48 Al48 Si24 O168'
_cell_volume   3652.60528209
_cell_formula_units_Z   24
loop_
 _symmetry_equiv_pos_site_id
 _symmetry_equiv_pos_as_xyz
  1  'x, y, z'
loop_
 _atom_type_symbol
 _atom_type_oxidation_number
  Ca2+  2.0
  Al0+  0.0
  Si0+  0.0
  O2-  -2.0
loop_
 _atom_site_type_symbol
 _atom_site_label
 _atom_site_symmetry_multiplicity
 _atom_site_fract_x
 _atom_site_fract_y
 _atom_site_fract_z
 _atom_site_occupancy
  Ca2+  Ca0  1  0.17173470  0.08448386  0.16797662  1
  Ca2+  Ca1  1  0.16858006  0.07400658  0.50606018  1
  Ca2+  Ca2  1  0.17116364  0.08010624  0.83456871  1
  Ca2+  Ca3  1  0.17665091  0.59101801  0.17136861  1
  Ca2+  Ca4  1  0.17032605  0.58685561  0.50541846  1
  Ca2+  Ca5  1  0.16626916  0.57948342  0.83509353  1
  Ca2+  Ca6  1  0.67803513  0.07209255  0.17235868  1
  Ca2+  Ca7  1  0.67532812  0.07158795  0.50444344  1
  Ca2+  Ca8  1  0.67525307  0.07494913  0.83602190  1
  Ca2+  Ca9  1  0.67023097  0.58083380  0.17221725  1
  Ca2+  Ca10  1  0.65986474  0.57603686  0.49941392  1
  Ca2+  Ca11  1  0.67290881  0.57520565  0.83713510  1
  Ca2+  Ca12  1  0.07601233  0.32955856  0.15984826  1
  Ca2+  Ca13  1  0.07781229  0.33564473  0.50148559  1
  Ca2+  Ca14  1  0.07211193  0.33495389  0.82555591  1
  Ca2+  Ca15  1  0.07041727  0.82917752  0.16632710  1
  Ca2+  Ca16  1  0.08323473  0.82521157  0.49270864  1
  Ca2+  Ca17  1  0.07864321  0.82917369  0.82697555  1
  Ca2+  Ca18  1  0.58088693  0.33775365  0.16854365  1
  Ca2+  Ca19  1  0.57588883  0.34140589  0.49340693  1
  Ca2+  Ca20  1  0.57809203  0.33191275  0.82255925  1
  Ca2+  Ca21  1  0.58859177  0.83345985  0.16562975  1
  Ca2+  Ca22  1  0.58311324  0.83065444  0.48957156  1
  Ca2+  Ca23  1  0.58717423  0.83696836  0.83079820  1
  Ca2+  Ca24  1  0.33603945  0.42856032  0.17461255  1
  Ca2+  Ca25  1  0.33184991  0.42045597  0.50421398  1
  Ca2+  Ca26  1  0.32668416  0.41802565  0.83587804  1
  Ca2+  Ca27  1  0.33619931  0.91990181  0.17089457  1
  Ca2+  Ca28  1  0.32880412  0.91000177  0.50448594  1
  Ca2+  Ca29  1  0.32400327  0.91950012  0.83857540  1
  Ca2+  Ca30  1  0.83268142  0.42210070  0.17067294  1
  Ca2+  Ca31  1  0.82049160  0.41396053  0.50752293  1
  Ca2+  Ca32  1  0.83483438  0.41760108  0.83742426  1
  Ca2+  Ca33  1  0.83219697  0.91938546  0.17562560  1
  Ca2+  Ca34  1  0.83120547  0.92145042  0.50420144  1
  Ca2+  Ca35  1  0.82707750  0.92357541  0.84354537  1
  Ca2+  Ca36  1  0.41705075  0.17088046  0.16080848  1
  Ca2+  Ca37  1  0.41778423  0.18059107  0.49426470  1
  Ca2+  Ca38  1  0.41699764  0.16945888  0.82648947  1
  Ca2+  Ca39  1  0.42060227  0.66605723  0.16979020  1
  Ca2+  Ca40  1  0.42206618  0.67205597  0.48650146  1
  Ca2+  Ca41  1  0.41738196  0.66437081  0.83150902  1
  Ca2+  Ca42  1  0.90816674  0.16967249  0.16087825  1
  Ca2+  Ca43  1  0.90675065  0.16694854  0.50028895  1
  Ca2+  Ca44  1  0.90475206  0.17452417  0.83057007  1
  Ca2+  Ca45  1  0.91078769  0.67704993  0.16121985  1
  Ca2+  Ca46  1  0.93110361  0.67090035  0.49193134  1
  Ca2+  Ca47  1  0.91588241  0.67137982  0.82938087  1
  Al0+  Al48  1  0.00080418  -0.00008527  -0.00210551  1
  Al0+  Al49  1  0.00281077  0.00139179  0.33354935  1
  Al0+  Al50  1  0.00128078  0.00161564  0.67596454  1
  Al0+  Al51  1  -0.00063496  0.49866559  0.00108632  1
  Al0+  Al52  1  0.00276959  0.49768632  0.32855322  1
  Al0+  Al53  1  0.00159777  0.49976600  0.66072954  1
  Al0+  Al54  1  0.49848616  -0.00015341  0.00500786  1
  Al0+  Al55  1  0.50167437  0.00331881  0.33438983  1
  Al0+  Al56  1  0.50081398  0.00099308  0.66761838  1
  Al0+  Al57  1  0.49769356  0.50063483  0.00110471  1
  Al0+  Al58  1  0.49812646  0.50196547  0.33237393  1
  Al0+  Al59  1  0.50026603  0.50128318  0.66750821  1
  Al0+  Al60  1  0.24865430  0.24970453  0.00211233  1
  Al0+  Al61  1  0.24938091  0.25175645  0.32868703  1
  Al0+  Al62  1  0.24875540  0.25258935  0.66539837  1
  Al0+  Al63  1  0.25074625  0.74933378  0.00299557  1
  Al0+  Al64  1  0.25199129  0.75076023  0.32891610  1
  Al0+  Al65  1  0.25101367  0.75051185  0.66939283  1
  Al0+  Al66  1  0.74602560  0.24744333  -0.00179555  1
  Al0+  Al67  1  0.74863951  0.25056623  0.33994271  1
  Al0+  Al68  1  0.74734613  0.24929716  0.66896710  1
  Al0+  Al69  1  0.74870127  0.74620095  -0.00047802  1
  Al0+  Al70  1  0.75111019  0.74872237  0.33159726  1
  Al0+  Al71  1  0.74975777  0.74930168  0.66711399  1
  Al0+  Al72  1  0.42869760  0.32101212  0.31760108  1
  Al0+  Al73  1  0.17807827  0.42946683  0.67957991  1
  Al0+  Al74  1  0.67812507  0.92596774  0.68238230  1
  Al0+  Al75  1  0.57171633  0.67909040  0.31746427  1
  Al0+  Al76  1  0.67919583  0.92631867  0.34938573  1
  Al0+  Al77  1  0.18002307  0.92696152  0.68007029  1
  Al0+  Al78  1  0.42829191  0.32187029  0.65315446  1
  Al0+  Al79  1  0.92747382  0.31945553  0.65190498  1
  Al0+  Al80  1  0.07167530  0.68031613  0.65399486  1
  Al0+  Al81  1  0.67726846  0.43035782  0.68051084  1
  Al0+  Al82  1  0.67945388  0.92732315  0.01620575  1
  Al0+  Al83  1  0.42994789  0.82476727  0.31813327  1
  Al0+  Al84  1  0.68054862  0.43209952  0.34613982  1
  Al0+  Al85  1  0.31940348  0.07114159  0.01303050  1
  Al0+  Al86  1  0.93060545  0.82124026  0.32040015  1
  Al0+  Al87  1  0.82141214  0.07082656  0.68424675  1
  Al0+  Al88  1  0.82131565  0.56831545  0.01240318  1
  Al0+  Al89  1  0.82389689  0.07062017  0.35000023  1
  Al0+  Al90  1  0.07301540  0.67640487  0.31649581  1
  Al0+  Al91  1  0.92746872  0.82026164  0.98464287  1
  Al0+  Al92  1  0.32079855  0.57038568  0.01487681  1
  Al0+  Al93  1  0.82185017  0.07162390  0.01578000  1
  Al0+  Al94  1  0.31804259  0.57122628  0.34824253  1
  Al0+  Al95  1  0.92783238  0.31967901  0.98707191  1
  Si0+  Si96  1  0.42844285  0.32197493  0.98419579  1
  Si0+  Si97  1  0.32242932  0.07527567  0.34822953  1
  Si0+  Si98  1  0.07187142  0.17909538  0.31838143  1
  Si0+  Si99  1  0.42884048  0.82176325  0.98387446  1
  Si0+  Si100  1  0.82359268  0.57016973  0.68043078  1
  Si0+  Si101  1  0.07342383  0.67890080  0.98278836  1
  Si0+  Si102  1  0.17783204  0.92690705  0.01873227  1
  Si0+  Si103  1  0.57280319  0.18011591  0.31568385  1
  Si0+  Si104  1  0.57172871  0.67922416  0.65319182  1
  Si0+  Si105  1  0.17729733  0.42533597  0.35039632  1
  Si0+  Si106  1  0.32125544  0.07312438  0.68011080  1
  Si0+  Si107  1  0.92677782  0.31913449  0.31943426  1
  Si0+  Si108  1  0.92816470  0.82369308  0.65197199  1
  Si0+  Si109  1  0.32169181  0.57207975  0.68349534  1
  Si0+  Si110  1  0.56749554  0.17747696  0.98399295  1
  Si0+  Si111  1  0.56950534  0.67710635  0.98267563  1
  Si0+  Si112  1  0.82647459  0.57215299  0.35009320  1
  Si0+  Si113  1  0.57065329  0.17740254  0.64818473  1
  Si0+  Si114  1  0.67604254  0.42679860  0.01520460  1
  Si0+  Si115  1  0.17728292  0.42818034  0.01745065  1
  Si0+  Si116  1  0.07283566  0.17712665  0.64995163  1
  Si0+  Si117  1  0.42982802  0.82149291  0.65524106  1
  Si0+  Si118  1  0.18258713  0.93148833  0.34653326  1
  Si0+  Si119  1  0.07453650  0.17807198  0.98148191  1
  O2-  O120  1  0.24506791  -0.00229948  0.06212162  1
  O2-  O121  1  0.25670666  -0.00055355  0.39007623  1
  O2-  O122  1  0.25440009  0.00316787  0.72507783  1
  O2-  O123  1  0.24551531  0.49674653  0.06182351  1
  O2-  O124  1  0.24160837  0.49826920  0.39424379  1
  O2-  O125  1  0.25298501  0.50328557  0.72734738  1
  O2-  O126  1  0.75672776  -0.00618215  0.06576328  1
  O2-  O127  1  0.75437701  -0.00445780  0.39837605  1
  O2-  O128  1  0.75302000  -0.00557220  0.73227817  1
  O2-  O129  1  0.74889702  0.49106462  0.05852961  1
  O2-  O130  1  0.75611824  0.50524864  0.39456274  1
  O2-  O131  1  0.75528366  0.50144481  0.72620873  1
  O2-  O132  1  -0.00223104  0.24770837  0.27772388  1
  O2-  O133  1  0.00041501  0.24198432  0.60556563  1
  O2-  O134  1  0.00146684  0.24347708  0.93960510  1
  O2-  O135  1  -0.00423632  0.74346327  0.26821563  1
  O2-  O136  1  -0.00178133  0.75637942  0.60768183  1
  O2-  O137  1  0.00356631  0.74594419  0.93801063  1
  O2-  O138  1  0.50228137  0.24620231  0.26925517  1
  O2-  O139  1  0.50324656  0.24824438  0.60500153  1
  O2-  O140  1  0.49791577  0.25043958  0.94099600  1
  O2-  O141  1  0.50501171  0.75643046  0.26702730  1
  O2-  O142  1  0.50464479  0.75498087  0.61358967  1
  O2-  O143  1  0.50005093  0.75083864  0.94111308  1
  O2-  O144  1  0.07972931  0.18173400  0.08729207  1
  O2-  O145  1  0.07685600  0.17922541  0.42312382  1
  O2-  O146  1  0.07780903  0.18037413  0.75524535  1
  O2-  O147  1  0.07474994  0.68162764  0.08795938  1
  O2-  O148  1  0.07395540  0.67982201  0.43051814  1
  O2-  O149  1  0.07134051  0.68064083  0.76730022  1
  O2-  O150  1  0.56606185  0.17910648  0.08892243  1
  O2-  O151  1  0.57012555  0.18181388  0.42118008  1
  O2-  O152  1  0.56692362  0.17675557  0.75430403  1
  O2-  O153  1  0.56795309  0.67337701  0.08702046  1
  O2-  O154  1  0.56681149  0.67718554  0.43165917  1
  O2-  O155  1  0.56949400  0.67607274  0.75859373  1
  O2-  O156  1  0.17911811  0.42100377  0.24482145  1
  O2-  O157  1  0.17958652  0.42997843  0.56681363  1
  O2-  O158  1  0.17841665  0.42805540  0.91163084  1
  O2-  O159  1  0.18177938  0.93559568  0.24147871  1
  O2-  O160  1  0.18329114  0.92655768  0.56662215  1
  O2-  O161  1  0.18148977  0.92549272  0.91284647  1
  O2-  O162  1  0.68386391  0.43057916  0.23268058  1
  O2-  O163  1  0.67466252  0.43423271  0.56761594  1
  O2-  O164  1  0.67309976  0.42971243  0.90945176  1
  O2-  O165  1  0.67910334  0.93021278  0.23611731  1
  O2-  O166  1  0.67592007  0.92592289  0.56944325  1
  O2-  O167  1  0.67779442  0.93084229  0.90253508  1
  O2-  O168  1  0.43019551  0.32217553  0.08915511  1
  O2-  O169  1  0.42780664  0.31972255  0.43078954  1
  O2-  O170  1  0.42883961  0.31942433  0.76698639  1
  O2-  O171  1  0.42827913  0.82216555  0.08829024  1
  O2-  O172  1  0.42700467  0.82112481  0.43247954  1
  O2-  O173  1  0.42766860  0.81974865  0.76066243  1
  O2-  O174  1  0.93032499  0.31947405  0.10066694  1
  O2-  O175  1  0.92751466  0.31967370  0.42443536  1
  O2-  O176  1  0.92959104  0.32045586  0.76515978  1
  O2-  O177  1  0.92893318  0.81945973  0.09747087  1
  O2-  O178  1  0.93642398  0.82324147  0.43428028  1
  O2-  O179  1  0.92829282  0.81969334  0.75772960  1
  O2-  O180  1  0.31808354  0.07736782  0.24303456  1
  O2-  O181  1  0.32018797  0.07252533  0.57442589  1
  O2-  O182  1  0.31833165  0.07010725  0.89957672  1
  O2-  O183  1  0.31814747  0.56871527  0.23504947  1
  O2-  O184  1  0.32184997  0.57347299  0.57825506  1
  O2-  O185  1  0.32179312  0.56787395  0.90148296  1
  O2-  O186  1  0.82314480  0.07243921  0.23659928  1
  O2-  O187  1  0.82012809  0.06906772  0.57072698  1
  O2-  O188  1  0.81635209  0.07389941  0.90277129  1
  O2-  O189  1  0.82646395  0.56833612  0.24423040  1
  O2-  O190  1  0.82229262  0.56987624  0.57505220  1
  O2-  O191  1  0.81954459  0.56779289  0.89885844  1
  O2-  O192  1  0.04843539  0.08735835  0.26913453  1
  O2-  O193  1  0.05146940  0.08093282  0.60680235  1
  O2-  O194  1  0.05622043  0.08223951  0.93777787  1
  O2-  O195  1  0.05379813  0.57506269  0.26513941  1
  O2-  O196  1  0.04234236  0.58509530  0.59710663  1
  O2-  O197  1  0.04966882  0.58325170  0.94026872  1
  O2-  O198  1  0.54874629  0.08656286  0.26949321  1
  O2-  O199  1  0.54261324  0.08473821  0.60076463  1
  O2-  O200  1  0.53552395  0.08686772  0.93637719  1
  O2-  O201  1  0.53631709  0.58377018  0.26240940  1
  O2-  O202  1  0.53919410  0.58975690  0.60424551  1
  O2-  O203  1  0.53675452  0.58664749  0.93359293  1
  O2-  O204  1  0.16100499  0.21046534  0.26669822  1
  O2-  O205  1  0.16449708  0.20589234  0.60093188  1
  O2-  O206  1  0.16664393  0.20788944  0.93308043  1
  O2-  O207  1  0.16831634  0.71197263  0.26284688  1
  O2-  O208  1  0.16934421  0.71175236  0.60149095  1
  O2-  O209  1  0.16724873  0.70577215  0.93643995  1
  O2-  O210  1  0.66553201  0.21010074  0.27018992  1
  O2-  O211  1  0.66429690  0.20173209  0.60369842  1
  O2-  O212  1  0.65854026  0.20416841  0.93468337  1
  O2-  O213  1  0.67272837  0.69813706  0.26630665  1
  O2-  O214  1  0.66464984  0.70105161  0.60518644  1
  O2-  O215  1  0.66133175  0.70115627  0.93382142  1
  O2-  O216  1  0.08390104  0.45181483  0.06406681  1
  O2-  O217  1  0.08148325  0.44572173  0.39408660  1
  O2-  O218  1  0.08186304  0.46150407  0.73369498  1
  O2-  O219  1  0.08417430  0.95236051  0.06344849  1
  O2-  O220  1  0.09340006  0.96294658  0.39628621  1
  O2-  O221  1  0.08552901  0.95630117  0.73770208  1
  O2-  O222  1  0.58442873  0.45767303  0.06208477  1
  O2-  O223  1  0.58372696  0.46416870  0.39881107  1
  O2-  O224  1  0.58251187  0.46433446  0.73697637  1
  O2-  O225  1  0.58183036  0.95914962  0.06804550  1
  O2-  O226  1  0.58047187  0.95845708  0.40165753  1
  O2-  O227  1  0.57932161  0.95713669  0.73499880  1
  O2-  O228  1  0.20277213  0.33460748  0.06326472  1
  O2-  O229  1  0.20736871  0.33330985  0.39751800  1
  O2-  O230  1  0.20878658  0.33334032  0.73506053  1
  O2-  O231  1  0.20629971  0.83485043  0.06512526  1
  O2-  O232  1  0.20930034  0.83925700  0.39294787  1
  O2-  O233  1  0.21474465  0.83359612  0.73816835  1
  O2-  O234  1  0.69533765  0.33152204  0.05888007  1
  O2-  O235  1  0.70899330  0.33635863  0.40266156  1
  O2-  O236  1  0.70235877  0.33244184  0.73314263  1
  O2-  O237  1  0.69971058  0.82527895  0.06316377  1
  O2-  O238  1  0.70248609  0.82544018  0.39965576  1
  O2-  O239  1  0.70135626  0.82540285  0.73419580  1
  O2-  O240  1  0.46161415  0.41645966  0.26396003  1
  O2-  O241  1  0.45934640  0.41925291  0.60084986  1
  O2-  O242  1  0.45655038  0.41358563  0.93647187  1
  O2-  O243  1  0.45063242  0.92677665  0.26861511  1
  O2-  O244  1  0.45056878  0.91538559  0.60864145  1
  O2-  O245  1  0.45520739  0.91434020  0.93666460  1
  O2-  O246  1  0.95475878  0.41009848  0.27018162  1
  O2-  O247  1  0.96096485  0.41419967  0.59619128  1
  O2-  O248  1  0.96012000  0.41622314  0.93267632  1
  O2-  O249  1  0.96632225  0.91787897  0.26668765  1
  O2-  O250  1  0.95357787  0.91900365  0.61069427  1
  O2-  O251  1  0.95827093  0.91768504  0.93147920  1
  O2-  O252  1  0.33261010  0.28993517  0.26228153  1
  O2-  O253  1  0.33201308  0.29144903  0.59840866  1
  O2-  O254  1  0.33513732  0.29439262  0.93931216  1
  O2-  O255  1  0.33344529  0.79425345  0.26291786  1
  O2-  O256  1  0.33976174  0.79031832  0.60647822  1
  O2-  O257  1  0.33666432  0.79225629  0.93672037  1
  O2-  O258  1  0.83485905  0.29164046  0.27243804  1
  O2-  O259  1  0.82919187  0.29049046  0.59982271  1
  O2-  O260  1  0.82915947  0.29213027  0.93427381  1
  O2-  O261  1  0.83119323  0.79784782  0.26817917  1
  O2-  O262  1  0.83458310  0.79722925  0.60618664  1
  O2-  O263  1  0.83149376  0.78590490  0.93075828  1
  O2-  O264  1  0.41410505  0.04076304  0.06949485  1
  O2-  O265  1  0.41605155  0.05577876  0.39443710  1
  O2-  O266  1  0.41495060  0.04983788  0.72656043  1
  O2-  O267  1  0.41625845  0.53755172  0.06947519  1
  O2-  O268  1  0.41379431  0.53839224  0.40180021  1
  O2-  O269  1  0.41456791  0.54564228  0.73051620  1
  O2-  O270  1  0.92525323  0.05369057  0.06229260  1
  O2-  O271  1  0.92465219  0.04703025  0.40123562  1
  O2-  O272  1  0.92183613  0.05231171  0.73700143  1
  O2-  O273  1  0.91783005  0.54038688  0.06790181  1
  O2-  O274  1  0.92054240  0.54410722  0.39419769  1
  O2-  O275  1  0.91681317  0.54450509  0.72627986  1
  O2-  O276  1  0.28964937  0.16783078  0.06850334  1
  O2-  O277  1  0.28784579  0.16497220  0.39569799  1
  O2-  O278  1  0.29343250  0.16554159  0.72721581  1
  O2-  O279  1  0.29248030  0.66762006  0.06834792  1
  O2-  O280  1  0.29010158  0.66960546  0.40060870  1
  O2-  O281  1  0.29616792  0.66475574  0.73164827  1
  O2-  O282  1  0.78646313  0.16869053  0.06852092  1
  O2-  O283  1  0.79123991  0.16771760  0.40322306  1
  O2-  O284  1  0.78706512  0.16777164  0.73652895  1
  O2-  O285  1  0.78656977  0.66237857  0.06729770  1
  O2-  O286  1  0.80477118  0.66659664  0.39475267  1
  O2-  O287  1  0.79688961  0.66338770  0.72705336  1
