# generated using pymatgen
data_Ca2Al2SiO7
_symmetry_space_group_name_H-M   'P 1'
_cell_length_a   15.46302814
_cell_length_b   15.46486068
_cell_length_c   15.28873233
_cell_angle_alpha   90.00416675
_cell_angle_beta   90.01189977
_cell_angle_gamma   90.00218032
_symmetry_Int_Tables_number   1
_chemical_formula_structural   Ca2Al2SiO7
_chemical_formula_sum   'Ca48 Al48 Si24 O168'
_cell_volume   3656.04914378
_cell_formula_units_Z   24
loop_
 _symmetry_equiv_pos_site_id
 _symmetry_equiv_pos_as_xyz
  1  'x, y, z'
loop_
 _atom_type_symbol
 _atom_type_oxidation_number
  Ca2+  2.0
  Al0+  0.0
  Si0+  0.0
  O2-  -2.0
loop_
 _atom_site_type_symbol
 _atom_site_label
 _atom_site_symmetry_multiplicity
 _atom_site_fract_x
 _atom_site_fract_y
 _atom_site_fract_z
 _atom_site_occupancy
  Ca2+  Ca0  1  0.17263400  0.08557986  0.17074842  1
  Ca2+  Ca1  1  0.17381813  0.07285101  0.50886614  1
  Ca2+  Ca2  1  0.17303992  0.09294411  0.83573580  1
  Ca2+  Ca3  1  0.16728098  0.58159654  0.17527836  1
  Ca2+  Ca4  1  0.16407558  0.58714970  0.50395927  1
  Ca2+  Ca5  1  0.16514305  0.58465530  0.83404051  1
  Ca2+  Ca6  1  0.67792752  0.08364885  0.17535504  1
  Ca2+  Ca7  1  0.66558594  0.08003112  0.50371567  1
  Ca2+  Ca8  1  0.66919916  0.07494486  0.83811807  1
  Ca2+  Ca9  1  0.66060994  0.57201990  0.17300850  1
  Ca2+  Ca10  1  0.65380853  0.57169400  0.50167243  1
  Ca2+  Ca11  1  0.66744181  0.57035421  0.83870289  1
  Ca2+  Ca12  1  0.07140862  0.32489158  0.15500817  1
  Ca2+  Ca13  1  0.08234145  0.32437477  0.49828860  1
  Ca2+  Ca14  1  0.07606897  0.32037074  0.83234704  1
  Ca2+  Ca15  1  0.08757589  0.83215126  0.16837768  1
  Ca2+  Ca16  1  0.08703719  0.83090815  0.49469925  1
  Ca2+  Ca17  1  0.07535497  0.83224224  0.81915906  1
  Ca2+  Ca18  1  0.57959049  0.33226231  0.16538559  1
  Ca2+  Ca19  1  0.58528128  0.32350072  0.49282981  1
  Ca2+  Ca20  1  0.58356957  0.32792123  0.82883038  1
  Ca2+  Ca21  1  0.59109510  0.83544464  0.16655330  1
  Ca2+  Ca22  1  0.58004190  0.83504211  0.48848917  1
  Ca2+  Ca23  1  0.58624206  0.83970640  0.82668189  1
  Ca2+  Ca24  1  0.33756765  0.41229824  0.17144055  1
  Ca2+  Ca25  1  0.33826151  0.41737209  0.50068802  1
  Ca2+  Ca26  1  0.33337772  0.41539296  0.84027757  1
  Ca2+  Ca27  1  0.32997722  0.92214618  0.17194009  1
  Ca2+  Ca28  1  0.32720750  0.91642004  0.50567556  1
  Ca2+  Ca29  1  0.32662028  0.93268337  0.83383020  1
  Ca2+  Ca30  1  0.82162938  0.40877356  0.17057665  1
  Ca2+  Ca31  1  0.81980795  0.41824810  0.50387319  1
  Ca2+  Ca32  1  0.82311460  0.40955660  0.83817307  1
  Ca2+  Ca33  1  0.82565370  0.92858612  0.17146451  1
  Ca2+  Ca34  1  0.82282724  0.91664615  0.50176360  1
  Ca2+  Ca35  1  0.82570199  0.91703213  0.83824390  1
  Ca2+  Ca36  1  0.42168334  0.17291673  0.16214534  1
  Ca2+  Ca37  1  0.42908801  0.16477028  0.49602648  1
  Ca2+  Ca38  1  0.41860791  0.16553276  0.82827277  1
  Ca2+  Ca39  1  0.42287975  0.67617737  0.17164627  1
  Ca2+  Ca40  1  0.42274320  0.67705577  0.48899150  1
  Ca2+  Ca41  1  0.41988566  0.67123720  0.83041504  1
  Ca2+  Ca42  1  0.91892393  0.16194422  0.15814068  1
  Ca2+  Ca43  1  0.92097932  0.15761104  0.49796112  1
  Ca2+  Ca44  1  0.92244142  0.16072321  0.83286000  1
  Ca2+  Ca45  1  0.92096489  0.66620269  0.16508513  1
  Ca2+  Ca46  1  0.92449650  0.67527067  0.49857763  1
  Ca2+  Ca47  1  0.92061340  0.67566422  0.82236274  1
  Al0+  Al48  1  0.00045839  -0.00439470  -0.00196426  1
  Al0+  Al49  1  0.00182457  -0.00135424  0.33924863  1
  Al0+  Al50  1  -0.00215185  -0.00057948  0.65951617  1
  Al0+  Al51  1  0.00026798  0.49866035  -0.00518398  1
  Al0+  Al52  1  0.00022870  0.49967442  0.33111202  1
  Al0+  Al53  1  -0.00015551  0.50107256  0.66393410  1
  Al0+  Al54  1  0.49567359  -0.00193402  0.00654679  1
  Al0+  Al55  1  0.50052291  0.00272004  0.32623545  1
  Al0+  Al56  1  0.49915051  0.00162380  0.67008533  1
  Al0+  Al57  1  0.49927811  0.50158367  -0.00013094  1
  Al0+  Al58  1  0.49818872  0.50223847  0.33175120  1
  Al0+  Al59  1  0.49845234  0.50029232  0.67339475  1
  Al0+  Al60  1  0.25028188  0.25187795  -0.00173357  1
  Al0+  Al61  1  0.24885428  0.25064661  0.33250635  1
  Al0+  Al62  1  0.24849649  0.25344899  0.66538483  1
  Al0+  Al63  1  0.25335759  0.74951717  -0.00114324  1
  Al0+  Al64  1  0.25095602  0.74860099  0.32802756  1
  Al0+  Al65  1  0.25133056  0.75000110  0.66933624  1
  Al0+  Al66  1  0.74833708  0.24911277  0.00374107  1
  Al0+  Al67  1  0.75163528  0.25186678  0.34038655  1
  Al0+  Al68  1  0.74830638  0.24999518  0.66769195  1
  Al0+  Al69  1  0.75121508  0.74611236  0.00243947  1
  Al0+  Al70  1  0.75336951  0.74988286  0.33122252  1
  Al0+  Al71  1  0.75066478  0.74705857  0.66506762  1
  Al0+  Al72  1  0.18316882  0.92824769  0.34603526  1
  Al0+  Al73  1  0.17720801  0.92819322  0.68118951  1
  Al0+  Al74  1  0.57386154  0.68022146  0.31887343  1
  Al0+  Al75  1  0.07026876  0.67912791  0.31807224  1
  Al0+  Al76  1  0.67785859  0.92603890  0.01487646  1
  Al0+  Al77  1  0.57464100  0.17959331  0.31723580  1
  Al0+  Al78  1  0.31802235  0.07389784  0.01560377  1
  Al0+  Al79  1  0.07282273  0.68045533  0.65127676  1
  Al0+  Al80  1  0.92499548  0.32085786  0.98487217  1
  Al0+  Al81  1  0.57005972  0.17909123  0.65500610  1
  Al0+  Al82  1  0.43100243  0.32179915  0.98509708  1
  Al0+  Al83  1  0.07161470  0.17937166  0.65052007  1
  Al0+  Al84  1  0.67825177  0.42899654  0.01486326  1
  Al0+  Al85  1  0.07030707  0.17631392  0.98618367  1
  Al0+  Al86  1  0.31971796  0.07322409  0.68033736  1
  Al0+  Al87  1  0.67822788  0.42861059  0.68201062  1
  Al0+  Al88  1  0.42845787  0.32056661  0.31975269  1
  Al0+  Al89  1  0.92567578  0.82260391  0.64926516  1
  Al0+  Al90  1  0.82208751  0.06943362  0.01299573  1
  Al0+  Al91  1  0.67776269  0.92928467  0.34815697  1
  Al0+  Al92  1  0.82193855  0.07258203  0.35076460  1
  Al0+  Al93  1  0.42915043  0.82382850  0.31821521  1
  Al0+  Al94  1  0.67777520  0.43260305  0.34845027  1
  Al0+  Al95  1  0.67941038  0.92774767  0.67843010  1
  Si0+  Si96  1  0.57015853  0.67679384  0.65438975  1
  Si0+  Si97  1  0.57090426  0.68022139  0.98390229  1
  Si0+  Si98  1  0.92965174  0.82351758  0.31342595  1
  Si0+  Si99  1  0.82596456  0.57191866  0.35042844  1
  Si0+  Si100  1  0.17677627  0.42991734  0.68250258  1
  Si0+  Si101  1  0.92914982  0.81733868  0.98554618  1
  Si0+  Si102  1  0.32190084  0.07568281  0.34936496  1
  Si0+  Si103  1  0.82288545  0.56992409  0.68341386  1
  Si0+  Si104  1  0.32072980  0.57092260  0.68308940  1
  Si0+  Si105  1  0.17882512  0.92531060  0.01549956  1
  Si0+  Si106  1  0.43166123  0.82069083  0.65443340  1
  Si0+  Si107  1  0.17917258  0.43118289  0.01474281  1
  Si0+  Si108  1  0.32083657  0.57263417  0.01747788  1
  Si0+  Si109  1  0.07350733  0.67814126  0.98476874  1
  Si0+  Si110  1  0.17696565  0.42837398  0.34844084  1
  Si0+  Si111  1  0.42787426  0.32476155  0.65139055  1
  Si0+  Si112  1  0.42798964  0.82152451  0.98162409  1
  Si0+  Si113  1  0.06989373  0.17785444  0.31928582  1
  Si0+  Si114  1  0.57045960  0.17569109  0.98391363  1
  Si0+  Si115  1  0.31870461  0.56986089  0.34837594  1
  Si0+  Si116  1  0.92718234  0.32176028  0.64871954  1
  Si0+  Si117  1  0.82389070  0.57018721  0.01655127  1
  Si0+  Si118  1  0.82162925  0.07261529  0.68305591  1
  Si0+  Si119  1  0.93078219  0.32156270  0.32037659  1
  O2-  O120  1  0.24118875  -0.00042548  0.05950383  1
  O2-  O121  1  0.25940373  0.00102905  0.39276160  1
  O2-  O122  1  0.24254503  0.00621736  0.73119717  1
  O2-  O123  1  0.24922441  0.50211099  0.05906989  1
  O2-  O124  1  0.24905057  0.49792503  0.39141312  1
  O2-  O125  1  0.24826088  0.50102804  0.72466891  1
  O2-  O126  1  0.74598642  0.00201678  0.06325725  1
  O2-  O127  1  0.74673700  0.00314267  0.39962862  1
  O2-  O128  1  0.75564581  0.00041160  0.72585729  1
  O2-  O129  1  0.75782016  0.49949955  0.06078645  1
  O2-  O130  1  0.75033178  0.51072048  0.39454645  1
  O2-  O131  1  0.75504601  0.50119620  0.72864252  1
  O2-  O132  1  -0.00301349  0.24654215  0.27739144  1
  O2-  O133  1  -0.00613462  0.25154104  0.60349404  1
  O2-  O134  1  -0.00603403  0.24477975  0.93664642  1
  O2-  O135  1  -0.00310456  0.75279694  0.26853905  1
  O2-  O136  1  0.00477962  0.75582457  0.60152056  1
  O2-  O137  1  0.00265305  0.74838059  0.94304780  1
  O2-  O138  1  0.50021325  0.25017156  0.26813016  1
  O2-  O139  1  0.49508452  0.25478648  0.60914757  1
  O2-  O140  1  0.50373881  0.24613321  0.93807211  1
  O2-  O141  1  0.50890360  0.75896471  0.26840868  1
  O2-  O142  1  0.50545981  0.75279307  0.61213586  1
  O2-  O143  1  0.50530448  0.75596085  0.94033948  1
  O2-  O144  1  0.07101544  0.18004039  0.10026439  1
  O2-  O145  1  0.07179149  0.18120487  0.42429392  1
  O2-  O146  1  0.07258863  0.18356438  0.76336371  1
  O2-  O147  1  0.07391503  0.67712756  0.08979254  1
  O2-  O148  1  0.07010050  0.67810422  0.43047368  1
  O2-  O149  1  0.07078229  0.67887680  0.76552850  1
  O2-  O150  1  0.56915809  0.17817990  0.08912717  1
  O2-  O151  1  0.57294058  0.18109245  0.43127238  1
  O2-  O152  1  0.56948909  0.17917931  0.76828316  1
  O2-  O153  1  0.56825767  0.67872966  0.08848176  1
  O2-  O154  1  0.56620157  0.67644757  0.43284186  1
  O2-  O155  1  0.56642662  0.67490182  0.75984781  1
  O2-  O156  1  0.17568218  0.42989416  0.24330333  1
  O2-  O157  1  0.17743705  0.42984407  0.57724413  1
  O2-  O158  1  0.18015938  0.43447520  0.90949688  1
  O2-  O159  1  0.18239973  0.93067312  0.23249156  1
  O2-  O160  1  0.18497869  0.92474527  0.56789142  1
  O2-  O161  1  0.18207557  0.91980530  0.91047632  1
  O2-  O162  1  0.67924029  0.43285951  0.23537009  1
  O2-  O163  1  0.67645890  0.43197330  0.56911020  1
  O2-  O164  1  0.67713345  0.43308723  0.90161276  1
  O2-  O165  1  0.68383039  0.92927975  0.23492012  1
  O2-  O166  1  0.67657500  0.92748030  0.56612056  1
  O2-  O167  1  0.68128224  0.92499041  0.90079373  1
  O2-  O168  1  0.43125635  0.32325089  0.09767505  1
  O2-  O169  1  0.42732822  0.32064129  0.43351378  1
  O2-  O170  1  0.42907808  0.32768871  0.75702961  1
  O2-  O171  1  0.42138461  0.81704317  0.08583501  1
  O2-  O172  1  0.42542362  0.81762098  0.43232909  1
  O2-  O173  1  0.43176556  0.81742079  0.75988147  1
  O2-  O174  1  0.93030478  0.32547165  0.09858958  1
  O2-  O175  1  0.93568179  0.32526405  0.42536038  1
  O2-  O176  1  0.92881200  0.32230086  0.75415840  1
  O2-  O177  1  0.92997590  0.81505926  0.09035955  1
  O2-  O178  1  0.93082331  0.82197607  0.41859494  1
  O2-  O179  1  0.92433859  0.81675821  0.76378412  1
  O2-  O180  1  0.31495688  0.07975995  0.24382688  1
  O2-  O181  1  0.32223225  0.06949393  0.56695599  1
  O2-  O182  1  0.31872849  0.07265457  0.90254616  1
  O2-  O183  1  0.31658292  0.56978088  0.24311503  1
  O2-  O184  1  0.32408734  0.57027759  0.57829623  1
  O2-  O185  1  0.31961786  0.57455078  0.91199804  1
  O2-  O186  1  0.82540256  0.07132250  0.23714351  1
  O2-  O187  1  0.81800978  0.07520683  0.57785577  1
  O2-  O188  1  0.82389021  0.06513574  0.89933362  1
  O2-  O189  1  0.83108244  0.56572484  0.24488648  1
  O2-  O190  1  0.82404782  0.56836384  0.57814040  1
  O2-  O191  1  0.82139199  0.57352993  0.91103242  1
  O2-  O192  1  0.04510743  0.08502274  0.27339123  1
  O2-  O193  1  0.04518501  0.08230233  0.59612385  1
  O2-  O194  1  0.04842082  0.07582969  0.93392235  1
  O2-  O195  1  0.03973798  0.58191920  0.26352425  1
  O2-  O196  1  0.04335463  0.58182002  0.59860030  1
  O2-  O197  1  0.04753014  0.58644799  0.93624955  1
  O2-  O198  1  0.55044578  0.08179310  0.26233559  1
  O2-  O199  1  0.53699806  0.08337959  0.60032840  1
  O2-  O200  1  0.54169444  0.08144325  0.94045120  1
  O2-  O201  1  0.53446321  0.58613900  0.26369021  1
  O2-  O202  1  0.53405881  0.58746984  0.60710513  1
  O2-  O203  1  0.53574745  0.59149086  0.93457579  1
  O2-  O204  1  0.16030293  0.20924125  0.27142815  1
  O2-  O205  1  0.16643479  0.21613913  0.59575372  1
  O2-  O206  1  0.16562438  0.21390281  0.93287222  1
  O2-  O207  1  0.16637500  0.70786711  0.26222429  1
  O2-  O208  1  0.17408922  0.70346409  0.60133053  1
  O2-  O209  1  0.16644327  0.70463583  0.93856819  1
  O2-  O210  1  0.67359058  0.21221229  0.26794368  1
  O2-  O211  1  0.66600877  0.21071527  0.60064643  1
  O2-  O212  1  0.66502372  0.19946999  0.93959945  1
  O2-  O213  1  0.67564937  0.69635631  0.26773709  1
  O2-  O214  1  0.66400941  0.69435566  0.60881666  1
  O2-  O215  1  0.66543670  0.70043699  0.93816447  1
  O2-  O216  1  0.08677326  0.45904823  0.06148645  1
  O2-  O217  1  0.08662416  0.45845128  0.39710850  1
  O2-  O218  1  0.08557675  0.45909309  0.73030372  1
  O2-  O219  1  0.08285607  0.94227902  0.05911742  1
  O2-  O220  1  0.08761326  0.95813219  0.40101489  1
  O2-  O221  1  0.07433613  0.94874571  0.72688922  1
  O2-  O222  1  0.58332034  0.46739820  0.06743260  1
  O2-  O223  1  0.58044538  0.46406744  0.40123250  1
  O2-  O224  1  0.58309265  0.46279249  0.73753018  1
  O2-  O225  1  0.57603716  0.94427024  0.06329388  1
  O2-  O226  1  0.57567157  0.95295294  0.39583864  1
  O2-  O227  1  0.58386675  0.95975724  0.73427623  1
  O2-  O228  1  0.20676821  0.34016759  0.06243672  1
  O2-  O229  1  0.20417090  0.33673905  0.39681618  1
  O2-  O230  1  0.20516668  0.33958811  0.73164656  1
  O2-  O231  1  0.21182683  0.83374871  0.06329045  1
  O2-  O232  1  0.21251981  0.82987088  0.39723788  1
  O2-  O233  1  0.21042756  0.83137866  0.73598394  1
  O2-  O234  1  0.70346977  0.33165049  0.06886509  1
  O2-  O235  1  0.71240925  0.33862637  0.40435579  1
  O2-  O236  1  0.70869645  0.33223743  0.73619846  1
  O2-  O237  1  0.70988226  0.82775089  0.06653558  1
  O2-  O238  1  0.70677469  0.82854980  0.39817075  1
  O2-  O239  1  0.70645932  0.82855536  0.73092234  1
  O2-  O240  1  0.45320988  0.42037971  0.26818168  1
  O2-  O241  1  0.45483997  0.41884197  0.60615556  1
  O2-  O242  1  0.45917318  0.42021621  0.93160165  1
  O2-  O243  1  0.44524906  0.92408621  0.26576250  1
  O2-  O244  1  0.45576933  0.91276372  0.60776828  1
  O2-  O245  1  0.44968171  0.91533134  0.93588917  1
  O2-  O246  1  0.96269534  0.41029232  0.26954081  1
  O2-  O247  1  0.95561761  0.41462186  0.60268267  1
  O2-  O248  1  0.95825319  0.41765091  0.92924194  1
  O2-  O249  1  0.96097297  0.91594880  0.26826360  1
  O2-  O250  1  0.94379426  0.92230753  0.59671659  1
  O2-  O251  1  0.95444944  0.90841800  0.93630157  1
  O2-  O252  1  0.32835705  0.29458741  0.26674517  1
  O2-  O253  1  0.33282407  0.30507773  0.60651692  1
  O2-  O254  1  0.33281432  0.29500452  0.93227326  1
  O2-  O255  1  0.33602567  0.78347567  0.26144688  1
  O2-  O256  1  0.34137936  0.78797124  0.60760299  1
  O2-  O257  1  0.33990092  0.78457742  0.93132144  1
  O2-  O258  1  0.83713932  0.29853761  0.27627753  1
  O2-  O259  1  0.83250289  0.29861446  0.60443648  1
  O2-  O260  1  0.82479762  0.29710262  0.93407187  1
  O2-  O261  1  0.83660904  0.79858980  0.26639637  1
  O2-  O262  1  0.83053515  0.78469297  0.59431612  1
  O2-  O263  1  0.83850067  0.78557748  0.93739347  1
  O2-  O264  1  0.41239755  0.04028282  0.07110282  1
  O2-  O265  1  0.41880794  0.05662914  0.38901481  1
  O2-  O266  1  0.41486376  0.03923704  0.73676968  1
  O2-  O267  1  0.41218404  0.54449637  0.06403100  1
  O2-  O268  1  0.40975164  0.54345701  0.39751923  1
  O2-  O269  1  0.41005796  0.54190975  0.73558696  1
  O2-  O270  1  0.92021286  0.03715281  0.06605874  1
  O2-  O271  1  0.91954580  0.04066876  0.40369540  1
  O2-  O272  1  0.91737000  0.05072298  0.72535783  1
  O2-  O273  1  0.91980515  0.54814367  0.05997616  1
  O2-  O274  1  0.91624871  0.53825729  0.39934263  1
  O2-  O275  1  0.91708123  0.54589898  0.72994769  1
  O2-  O276  1  0.28809272  0.17094845  0.06926067  1
  O2-  O277  1  0.28985142  0.16637080  0.39815305  1
  O2-  O278  1  0.29472899  0.17414368  0.73103585  1
  O2-  O279  1  0.29218401  0.66383929  0.06553602  1
  O2-  O280  1  0.28861937  0.66046139  0.39601074  1
  O2-  O281  1  0.29421899  0.66184710  0.73333887  1
  O2-  O282  1  0.79911086  0.16914244  0.06567117  1
  O2-  O283  1  0.80003432  0.17204791  0.40445041  1
  O2-  O284  1  0.79421393  0.16510013  0.73047933  1
  O2-  O285  1  0.79690284  0.66180835  0.06564400  1
  O2-  O286  1  0.80981618  0.66880500  0.39174072  1
  O2-  O287  1  0.79552365  0.66250333  0.73059557  1
