# generated using pymatgen
data_Ca2Al2SiO7
_symmetry_space_group_name_H-M   'P 1'
_cell_length_a   15.46249665
_cell_length_b   15.46382495
_cell_length_c   15.28758539
_cell_angle_alpha   89.99051288
_cell_angle_beta   90.00921514
_cell_angle_gamma   90.03119913
_symmetry_Int_Tables_number   1
_chemical_formula_structural   Ca2Al2SiO7
_chemical_formula_sum   'Ca48 Al48 Si24 O168'
_cell_volume   3655.40383543
_cell_formula_units_Z   24
loop_
 _symmetry_equiv_pos_site_id
 _symmetry_equiv_pos_as_xyz
  1  'x, y, z'
loop_
 _atom_type_symbol
 _atom_type_oxidation_number
  Ca2+  2.0
  Al0+  0.0
  Si0+  0.0
  O2-  -2.0
loop_
 _atom_site_type_symbol
 _atom_site_label
 _atom_site_symmetry_multiplicity
 _atom_site_fract_x
 _atom_site_fract_y
 _atom_site_fract_z
 _atom_site_occupancy
  Ca2+  Ca0  1  0.17166349  0.08366343  0.17064016  1
  Ca2+  Ca1  1  0.17441110  0.09028404  0.50071362  1
  Ca2+  Ca2  1  0.17172440  0.08627632  0.84040928  1
  Ca2+  Ca3  1  0.18176791  0.57786950  0.17628185  1
  Ca2+  Ca4  1  0.16394192  0.57070494  0.50258709  1
  Ca2+  Ca5  1  0.17349469  0.57472170  0.83997661  1
  Ca2+  Ca6  1  0.66949787  0.07107214  0.17214058  1
  Ca2+  Ca7  1  0.66992126  0.07136616  0.51342436  1
  Ca2+  Ca8  1  0.67274976  0.07992357  0.84135026  1
  Ca2+  Ca9  1  0.66270011  0.58155524  0.17129369  1
  Ca2+  Ca10  1  0.67090645  0.58865212  0.49564821  1
  Ca2+  Ca11  1  0.66323870  0.57710442  0.84275386  1
  Ca2+  Ca12  1  0.09044910  0.32278580  0.16413559  1
  Ca2+  Ca13  1  0.09225606  0.32568004  0.49527619  1
  Ca2+  Ca14  1  0.08608160  0.32082517  0.82731895  1
  Ca2+  Ca15  1  0.08016968  0.84513265  0.16356620  1
  Ca2+  Ca16  1  0.07426182  0.83834487  0.48865265  1
  Ca2+  Ca17  1  0.08602223  0.83652600  0.83287326  1
  Ca2+  Ca18  1  0.57565139  0.33469682  0.15572035  1
  Ca2+  Ca19  1  0.58310515  0.32125763  0.49776604  1
  Ca2+  Ca20  1  0.57779854  0.32807523  0.83230575  1
  Ca2+  Ca21  1  0.59011112  0.82413660  0.16338603  1
  Ca2+  Ca22  1  0.58599915  0.83313507  0.49102829  1
  Ca2+  Ca23  1  0.59104637  0.83226236  0.83210613  1
  Ca2+  Ca24  1  0.33591583  0.42452104  0.17085506  1
  Ca2+  Ca25  1  0.32323358  0.41924117  0.49775968  1
  Ca2+  Ca26  1  0.33157441  0.41654138  0.83930831  1
  Ca2+  Ca27  1  0.32275145  0.92760525  0.17208575  1
  Ca2+  Ca28  1  0.32942337  0.92701218  0.50128535  1
  Ca2+  Ca29  1  0.32924771  0.93197768  0.84144785  1
  Ca2+  Ca30  1  0.82585044  0.42185841  0.16936027  1
  Ca2+  Ca31  1  0.83989250  0.42609697  0.49981289  1
  Ca2+  Ca32  1  0.82466187  0.41602491  0.83905563  1
  Ca2+  Ca33  1  0.82685860  0.91618054  0.16746121  1
  Ca2+  Ca34  1  0.82520156  0.91722807  0.50152187  1
  Ca2+  Ca35  1  0.82456753  0.92879020  0.83667527  1
  Ca2+  Ca36  1  0.40934933  0.17180334  0.16045337  1
  Ca2+  Ca37  1  0.41807687  0.15807904  0.49834729  1
  Ca2+  Ca38  1  0.41441764  0.16790529  0.82866425  1
  Ca2+  Ca39  1  0.42312405  0.66138431  0.15888214  1
  Ca2+  Ca40  1  0.42328650  0.66892394  0.49023130  1
  Ca2+  Ca41  1  0.41928651  0.66711061  0.83546819  1
  Ca2+  Ca42  1  0.92934143  0.15787803  0.16095461  1
  Ca2+  Ca43  1  0.92909739  0.15911255  0.49616547  1
  Ca2+  Ca44  1  0.92470792  0.15606923  0.82912968  1
  Ca2+  Ca45  1  0.91356036  0.67173518  0.16771878  1
  Ca2+  Ca46  1  0.91552465  0.67418649  0.48714101  1
  Ca2+  Ca47  1  0.91827568  0.67083906  0.82955152  1
  Al0+  Al48  1  -0.00166529  -0.00076330  -0.00182158  1
  Al0+  Al49  1  -0.00122425  0.00028725  0.32589732  1
  Al0+  Al50  1  -0.00118428  -0.00142979  0.66311426  1
  Al0+  Al51  1  -0.00055501  0.49964050  -0.00190762  1
  Al0+  Al52  1  -0.00190380  0.50002728  0.33837287  1
  Al0+  Al53  1  0.00076680  0.49977944  0.67254723  1
  Al0+  Al54  1  0.49976258  -0.00144403  0.00849290  1
  Al0+  Al55  1  0.50013842  -0.00227745  0.33804144  1
  Al0+  Al56  1  0.49772306  -0.00226385  0.67089861  1
  Al0+  Al57  1  0.50031332  0.49904209  -0.00349206  1
  Al0+  Al58  1  0.50080967  0.49804137  0.33661054  1
  Al0+  Al59  1  0.50020656  0.50127706  0.66250869  1
  Al0+  Al60  1  0.24910300  0.25096781  -0.00713813  1
  Al0+  Al61  1  0.25173915  0.25087557  0.33554032  1
  Al0+  Al62  1  0.24906441  0.25247184  0.66947897  1
  Al0+  Al63  1  0.25084156  0.74934427  0.00516739  1
  Al0+  Al64  1  0.25054355  0.75152366  0.34056576  1
  Al0+  Al65  1  0.25141880  0.74834781  0.66409962  1
  Al0+  Al66  1  0.75096638  0.25181337  0.00958557  1
  Al0+  Al67  1  0.75129519  0.24935753  0.33202010  1
  Al0+  Al68  1  0.75070875  0.25226275  0.66379351  1
  Al0+  Al69  1  0.75185868  0.74979197  -0.00513404  1
  Al0+  Al70  1  0.75038954  0.74925317  0.33186098  1
  Al0+  Al71  1  0.75102837  0.74933906  0.66974857  1
  Al0+  Al72  1  0.17954610  0.43047452  0.68339132  1
  Al0+  Al73  1  0.93008074  0.82006901  0.31772820  1
  Al0+  Al74  1  0.67877782  0.92676684  0.01654763  1
  Al0+  Al75  1  0.32031114  0.07180227  0.34930657  1
  Al0+  Al76  1  0.07064822  0.18234040  0.31837511  1
  Al0+  Al77  1  0.82133059  0.07224166  0.01652022  1
  Al0+  Al78  1  0.32098834  0.56920228  0.01182741  1
  Al0+  Al79  1  0.82198560  0.07284020  0.67959936  1
  Al0+  Al80  1  0.32476027  0.57274296  0.34944794  1
  Al0+  Al81  1  0.32075441  0.07473329  0.01469865  1
  Al0+  Al82  1  0.42979749  0.31971306  0.98632653  1
  Al0+  Al83  1  0.57055809  0.17822041  0.65566834  1
  Al0+  Al84  1  0.56843949  0.67995552  0.31990770  1
  Al0+  Al85  1  0.07007369  0.17962489  0.65143399  1
  Al0+  Al86  1  0.17925825  0.43002686  0.34659674  1
  Al0+  Al87  1  0.17515190  0.93017571  0.34884051  1
  Al0+  Al88  1  0.06787803  0.17981014  0.98473604  1
  Al0+  Al89  1  0.67890491  0.43043700  0.01224826  1
  Al0+  Al90  1  0.17865522  0.92868379  0.01312559  1
  Al0+  Al91  1  0.31907438  0.07040497  0.68149031  1
  Al0+  Al92  1  0.81813813  0.56946190  0.34506112  1
  Al0+  Al93  1  0.67818145  0.92771569  0.68240287  1
  Al0+  Al94  1  0.68148096  0.92924496  0.34696947  1
  Al0+  Al95  1  0.57052604  0.68076925  0.98516417  1
  Si0+  Si96  1  0.93003167  0.81950106  0.98123908  1
  Si0+  Si97  1  0.67750370  0.42968835  0.68012223  1
  Si0+  Si98  1  0.92589217  0.32537464  0.31500071  1
  Si0+  Si99  1  0.42595067  0.82374496  0.31595021  1
  Si0+  Si100  1  0.82402871  0.57252626  0.01507335  1
  Si0+  Si101  1  0.92718755  0.32538675  0.64925824  1
  Si0+  Si102  1  0.43242785  0.31826260  0.31975966  1
  Si0+  Si103  1  0.07330742  0.67695252  0.98541231  1
  Si0+  Si104  1  0.57315727  0.17544518  0.31913786  1
  Si0+  Si105  1  0.82199920  0.07351950  0.34987575  1
  Si0+  Si106  1  0.92576025  0.32480039  0.98312147  1
  Si0+  Si107  1  0.42597961  0.82262991  0.98385841  1
  Si0+  Si108  1  0.82031359  0.57096029  0.68237968  1
  Si0+  Si109  1  0.57362858  0.17628613  0.98776845  1
  Si0+  Si110  1  0.17708208  0.92554064  0.68121163  1
  Si0+  Si111  1  0.92966360  0.81789193  0.65095278  1
  Si0+  Si112  1  0.67681079  0.42485233  0.35208883  1
  Si0+  Si113  1  0.17648212  0.42829862  0.01556083  1
  Si0+  Si114  1  0.07303989  0.67597061  0.31788485  1
  Si0+  Si115  1  0.42810828  0.82052312  0.65143250  1
  Si0+  Si116  1  0.57211282  0.67919796  0.65036755  1
  Si0+  Si117  1  0.42816522  0.32349598  0.64758051  1
  Si0+  Si118  1  0.32373721  0.57292349  0.68412899  1
  Si0+  Si119  1  0.07154744  0.67735292  0.65223186  1
  O2-  O120  1  0.24883212  0.00207879  0.06278958  1
  O2-  O121  1  0.24732119  0.00082365  0.39985331  1
  O2-  O122  1  0.24216146  -0.00323555  0.72591771  1
  O2-  O123  1  0.24456582  0.49719087  0.05903754  1
  O2-  O124  1  0.24668746  0.50637701  0.39780120  1
  O2-  O125  1  0.25609572  0.50390052  0.72867486  1
  O2-  O126  1  0.74688548  0.00247877  0.06594161  1
  O2-  O127  1  0.75027588  0.00863929  0.39443028  1
  O2-  O128  1  0.74450270  0.00639760  0.72963515  1
  O2-  O129  1  0.75384787  0.50526628  0.05783409  1
  O2-  O130  1  0.74707717  0.49269140  0.39524601  1
  O2-  O131  1  0.74902964  0.50016952  0.72312923  1
  O2-  O132  1  -0.00496934  0.25711914  0.27178953  1
  O2-  O133  1  -0.00698930  0.25368985  0.60589024  1
  O2-  O134  1  -0.00802414  0.25442673  0.93838293  1
  O2-  O135  1  0.00981572  0.74892975  0.27202474  1
  O2-  O136  1  0.00368669  0.75003562  0.60859498  1
  O2-  O137  1  0.00339270  0.74878311  0.94121072  1
  O2-  O138  1  0.50360662  0.24767878  0.27695505  1
  O2-  O139  1  0.49478018  0.25140096  0.60539587  1
  O2-  O140  1  0.50145907  0.24063152  0.94185588  1
  O2-  O141  1  0.49022644  0.75025979  0.27242801  1
  O2-  O142  1  0.50201906  0.75126646  0.60977516  1
  O2-  O143  1  0.49873879  0.75813170  0.93757253  1
  O2-  O144  1  0.06927185  0.18240071  0.09777264  1
  O2-  O145  1  0.07011471  0.18368745  0.43171637  1
  O2-  O146  1  0.06911783  0.18017667  0.76435345  1
  O2-  O147  1  0.07125317  0.67310835  0.08981658  1
  O2-  O148  1  0.06707865  0.67428047  0.42399097  1
  O2-  O149  1  0.06989324  0.67783080  0.75769200  1
  O2-  O150  1  0.57378517  0.18054364  0.09353884  1
  O2-  O151  1  0.57344461  0.17728259  0.42448096  1
  O2-  O152  1  0.57093963  0.18248295  0.76864358  1
  O2-  O153  1  0.57010267  0.67894020  0.09792701  1
  O2-  O154  1  0.56992840  0.68266377  0.43378802  1
  O2-  O155  1  0.57200986  0.67599071  0.75531126  1
  O2-  O156  1  0.18269291  0.42981798  0.23298603  1
  O2-  O157  1  0.17876034  0.43287771  0.57053703  1
  O2-  O158  1  0.17642065  0.43128900  0.90971782  1
  O2-  O159  1  0.17650284  0.93312045  0.23561473  1
  O2-  O160  1  0.17847935  0.92289036  0.57616538  1
  O2-  O161  1  0.18073765  0.92813258  0.89882091  1
  O2-  O162  1  0.67530023  0.42559641  0.24668186  1
  O2-  O163  1  0.67724047  0.43151875  0.57520654  1
  O2-  O164  1  0.68013896  0.43179053  0.89840049  1
  O2-  O165  1  0.68327765  0.92850268  0.23439961  1
  O2-  O166  1  0.68236629  0.92362673  0.56875754  1
  O2-  O167  1  0.68237124  0.92641792  0.90289282  1
  O2-  O168  1  0.43140439  0.32216565  0.09970575  1
  O2-  O169  1  0.43406729  0.31853231  0.42497425  1
  O2-  O170  1  0.43123708  0.32746687  0.75308120  1
  O2-  O171  1  0.42359905  0.81849447  0.08884051  1
  O2-  O172  1  0.43031773  0.82507552  0.42212486  1
  O2-  O173  1  0.42446247  0.81722552  0.75629696  1
  O2-  O174  1  0.92826747  0.33068742  0.08818272  1
  O2-  O175  1  0.92368287  0.32550863  0.42066874  1
  O2-  O176  1  0.92764181  0.33024158  0.75460491  1
  O2-  O177  1  0.92786523  0.81731704  0.08601459  1
  O2-  O178  1  0.92850336  0.81685112  0.43149318  1
  O2-  O179  1  0.92942726  0.81459264  0.75615614  1
  O2-  O180  1  0.31984891  0.07405264  0.23619486  1
  O2-  O181  1  0.31985958  0.06814491  0.56877928  1
  O2-  O182  1  0.31916508  0.07401593  0.90074409  1
  O2-  O183  1  0.32708602  0.56752454  0.23587641  1
  O2-  O184  1  0.32357852  0.57353575  0.57900372  1
  O2-  O185  1  0.31891127  0.56856420  0.89827732  1
  O2-  O186  1  0.82005503  0.07347879  0.24454783  1
  O2-  O187  1  0.82277276  0.06781943  0.56601950  1
  O2-  O188  1  0.82094998  0.07035077  0.90260541  1
  O2-  O189  1  0.81636371  0.56871294  0.23225310  1
  O2-  O190  1  0.82030353  0.57307421  0.57756102  1
  O2-  O191  1  0.82506449  0.57115448  0.90880067  1
  O2-  O192  1  0.03903774  0.08674657  0.26353382  1
  O2-  O193  1  0.04100263  0.08179104  0.59779733  1
  O2-  O194  1  0.03752211  0.08266715  0.93065501  1
  O2-  O195  1  0.04210316  0.58402397  0.27147955  1
  O2-  O196  1  0.03949930  0.58629526  0.60605674  1
  O2-  O197  1  0.04342431  0.58628633  0.93474865  1
  O2-  O198  1  0.54505772  0.08341046  0.27320472  1
  O2-  O199  1  0.54048701  0.08016916  0.60330365  1
  O2-  O200  1  0.55372790  0.07997054  0.94517776  1
  O2-  O201  1  0.54309782  0.57959329  0.27000980  1
  O2-  O202  1  0.54452724  0.58804489  0.60091283  1
  O2-  O203  1  0.53647567  0.58574106  0.92919665  1
  O2-  O204  1  0.16786621  0.21532223  0.26634789  1
  O2-  O205  1  0.16669832  0.21480234  0.59959937  1
  O2-  O206  1  0.16305166  0.21244364  0.92866533  1
  O2-  O207  1  0.17035743  0.69519646  0.27765217  1
  O2-  O208  1  0.16503662  0.69917824  0.60562693  1
  O2-  O209  1  0.16518396  0.70433447  0.93727226  1
  O2-  O210  1  0.66573221  0.20135171  0.27220456  1
  O2-  O211  1  0.66612653  0.21112252  0.59876980  1
  O2-  O212  1  0.66661803  0.20751502  0.94301766  1
  O2-  O213  1  0.66428148  0.71200708  0.26615032  1
  O2-  O214  1  0.66558576  0.70596765  0.60516940  1
  O2-  O215  1  0.66875924  0.70662119  0.92969509  1
  O2-  O216  1  0.08227392  0.45247518  0.06017810  1
  O2-  O217  1  0.07996424  0.45350889  0.40067614  1
  O2-  O218  1  0.08402513  0.46295142  0.73902586  1
  O2-  O219  1  0.07886258  0.95389511  0.06223046  1
  O2-  O220  1  0.07514125  0.95801898  0.39867965  1
  O2-  O221  1  0.08165563  0.94696913  0.72467410  1
  O2-  O222  1  0.58385873  0.46317403  0.06641818  1
  O2-  O223  1  0.58544955  0.45182160  0.40092115  1
  O2-  O224  1  0.58603687  0.46005227  0.72699740  1
  O2-  O225  1  0.57909202  0.94650865  0.06955427  1
  O2-  O226  1  0.58407299  0.95524753  0.40119638  1
  O2-  O227  1  0.57756037  0.94682783  0.73284500  1
  O2-  O228  1  0.20376203  0.33486684  0.05845849  1
  O2-  O229  1  0.21508160  0.33555695  0.40220375  1
  O2-  O230  1  0.21019690  0.33504728  0.73807765  1
  O2-  O231  1  0.20407176  0.83039292  0.06728151  1
  O2-  O232  1  0.19809378  0.83029605  0.40203507  1
  O2-  O233  1  0.20421892  0.83139258  0.72682350  1
  O2-  O234  1  0.70707782  0.33647347  0.07162466  1
  O2-  O235  1  0.70231776  0.33050898  0.39711814  1
  O2-  O236  1  0.70449818  0.33849886  0.72811915  1
  O2-  O237  1  0.71430069  0.82862459  0.06607221  1
  O2-  O238  1  0.71650234  0.83427298  0.40083844  1
  O2-  O239  1  0.71313067  0.83099768  0.73591470  1
  O2-  O240  1  0.46121968  0.41000071  0.27251659  1
  O2-  O241  1  0.45729940  0.41583228  0.59961241  1
  O2-  O242  1  0.46529022  0.41319670  0.92860932  1
  O2-  O243  1  0.45608753  0.91588831  0.26955977  1
  O2-  O244  1  0.45347156  0.91238711  0.60375736  1
  O2-  O245  1  0.44848118  0.91861415  0.94067109  1
  O2-  O246  1  0.94970287  0.42004102  0.27020985  1
  O2-  O247  1  0.95729403  0.41897061  0.60354776  1
  O2-  O248  1  0.95115305  0.41802527  0.93371554  1
  O2-  O249  1  0.95553680  0.91642183  0.26112218  1
  O2-  O250  1  0.95367970  0.90965146  0.60250636  1
  O2-  O251  1  0.95748307  0.91035136  0.93222797  1
  O2-  O252  1  0.34095674  0.29160673  0.27193328  1
  O2-  O253  1  0.33333878  0.30022418  0.60445434  1
  O2-  O254  1  0.33349641  0.29394604  0.92896361  1
  O2-  O255  1  0.32939671  0.80406149  0.27391884  1
  O2-  O256  1  0.33784804  0.79026383  0.60094615  1
  O2-  O257  1  0.33429344  0.79160706  0.93543839  1
  O2-  O258  1  0.83149580  0.30085954  0.26877386  1
  O2-  O259  1  0.83232865  0.30728028  0.60246467  1
  O2-  O260  1  0.83000100  0.30140757  0.93994265  1
  O2-  O261  1  0.83665330  0.78149199  0.26302276  1
  O2-  O262  1  0.83893838  0.78472999  0.60394514  1
  O2-  O263  1  0.84099025  0.78819531  0.92988467  1
  O2-  O264  1  0.41931721  0.05019325  0.06810940  1
  O2-  O265  1  0.41831648  0.04129407  0.40254312  1
  O2-  O266  1  0.41408078  0.03785447  0.73695593  1
  O2-  O267  1  0.41635769  0.53560532  0.06446148  1
  O2-  O268  1  0.41993923  0.53715012  0.40538363  1
  O2-  O269  1  0.41868199  0.54762278  0.72799982  1
  O2-  O270  1  0.91757547  0.03706980  0.06805103  1
  O2-  O271  1  0.91449416  0.04279400  0.39360747  1
  O2-  O272  1  0.91819579  0.03638099  0.73291088  1
  O2-  O273  1  0.91697374  0.54649283  0.06191639  1
  O2-  O274  1  0.91401895  0.54232323  0.40335247  1
  O2-  O275  1  0.91156513  0.54431710  0.73145941  1
  O2-  O276  1  0.29058692  0.17382515  0.06469941  1
  O2-  O277  1  0.29338278  0.16982183  0.40334960  1
  O2-  O278  1  0.29204118  0.16869655  0.73269929  1
  O2-  O279  1  0.29289177  0.66482873  0.06744702  1
  O2-  O280  1  0.30507296  0.67316621  0.40084561  1
  O2-  O281  1  0.29674537  0.66625676  0.73030742  1
  O2-  O282  1  0.80153700  0.17171897  0.07004907  1
  O2-  O283  1  0.80232510  0.16909525  0.39471764  1
  O2-  O284  1  0.80227726  0.17516999  0.72805561  1
  O2-  O285  1  0.79982830  0.66663461  0.05839047  1
  O2-  O286  1  0.78429443  0.66362610  0.40195477  1
  O2-  O287  1  0.79230848  0.66133091  0.73223699  1
