# generated using pymatgen
data_Ca2Al2SiO7
_symmetry_space_group_name_H-M   'P 1'
_cell_length_a   15.45860088
_cell_length_b   15.45963708
_cell_length_c   15.28490044
_cell_angle_alpha   90.00407146
_cell_angle_beta   89.99480441
_cell_angle_gamma   90.00404744
_symmetry_Int_Tables_number   1
_chemical_formula_structural   Ca2Al2SiO7
_chemical_formula_sum   'Ca48 Al48 Si24 O168'
_cell_volume   3652.85210829
_cell_formula_units_Z   24
loop_
 _symmetry_equiv_pos_site_id
 _symmetry_equiv_pos_as_xyz
  1  'x, y, z'
loop_
 _atom_type_symbol
 _atom_type_oxidation_number
  Ca2+  2.0
  Al0+  0.0
  Si0+  0.0
  O2-  -2.0
loop_
 _atom_site_type_symbol
 _atom_site_label
 _atom_site_symmetry_multiplicity
 _atom_site_fract_x
 _atom_site_fract_y
 _atom_site_fract_z
 _atom_site_occupancy
  Ca2+  Ca0  1  0.17425043  0.07505522  0.17958997  1
  Ca2+  Ca1  1  0.17375055  0.08761130  0.50461685  1
  Ca2+  Ca2  1  0.17304438  0.09170477  0.83177088  1
  Ca2+  Ca3  1  0.16759611  0.58497793  0.17593624  1
  Ca2+  Ca4  1  0.16544392  0.57887619  0.49530067  1
  Ca2+  Ca5  1  0.16505380  0.58349974  0.83856179  1
  Ca2+  Ca6  1  0.66935063  0.08021540  0.16911469  1
  Ca2+  Ca7  1  0.67962626  0.08265379  0.50812129  1
  Ca2+  Ca8  1  0.66168383  0.07952868  0.83592854  1
  Ca2+  Ca9  1  0.66924460  0.57417060  0.17495930  1
  Ca2+  Ca10  1  0.67216378  0.57082156  0.50651901  1
  Ca2+  Ca11  1  0.67204659  0.57684104  0.83091524  1
  Ca2+  Ca12  1  0.07176264  0.34091800  0.16681342  1
  Ca2+  Ca13  1  0.07737581  0.32805124  0.49315261  1
  Ca2+  Ca14  1  0.07559503  0.32822519  0.82815239  1
  Ca2+  Ca15  1  0.07870023  0.82942778  0.16494640  1
  Ca2+  Ca16  1  0.07825028  0.82853427  0.48709068  1
  Ca2+  Ca17  1  0.07723673  0.82937052  0.83249667  1
  Ca2+  Ca18  1  0.57963324  0.32805847  0.16549318  1
  Ca2+  Ca19  1  0.57749830  0.33643374  0.49517955  1
  Ca2+  Ca20  1  0.58050294  0.32161505  0.82304756  1
  Ca2+  Ca21  1  0.57714756  0.83541389  0.15833445  1
  Ca2+  Ca22  1  0.58720520  0.83469029  0.49974376  1
  Ca2+  Ca23  1  0.58327700  0.84249381  0.83050210  1
  Ca2+  Ca24  1  0.32459358  0.42292749  0.18262962  1
  Ca2+  Ca25  1  0.33390937  0.41396514  0.50001808  1
  Ca2+  Ca26  1  0.33357443  0.41258865  0.83347693  1
  Ca2+  Ca27  1  0.32911231  0.91946515  0.17583850  1
  Ca2+  Ca28  1  0.32693386  0.92957539  0.50015198  1
  Ca2+  Ca29  1  0.33789431  0.92394616  0.83687975  1
  Ca2+  Ca30  1  0.83098709  0.41145502  0.17526031  1
  Ca2+  Ca31  1  0.82330285  0.41503513  0.50416220  1
  Ca2+  Ca32  1  0.83263279  0.41552116  0.83433420  1
  Ca2+  Ca33  1  0.83408503  0.91711827  0.17141550  1
  Ca2+  Ca34  1  0.83420784  0.92509019  0.50589583  1
  Ca2+  Ca35  1  0.82380913  0.92171459  0.83746180  1
  Ca2+  Ca36  1  0.41978756  0.16805215  0.16463511  1
  Ca2+  Ca37  1  0.41915103  0.17171873  0.49850035  1
  Ca2+  Ca38  1  0.42764416  0.16738271  0.82187420  1
  Ca2+  Ca39  1  0.41365949  0.67102323  0.16376468  1
  Ca2+  Ca40  1  0.41835199  0.66455585  0.49296607  1
  Ca2+  Ca41  1  0.41737489  0.67723826  0.83138914  1
  Ca2+  Ca42  1  0.90893314  0.17632825  0.16762190  1
  Ca2+  Ca43  1  0.91724013  0.16310315  0.49386077  1
  Ca2+  Ca44  1  0.91975544  0.16747666  0.82729173  1
  Ca2+  Ca45  1  0.92840035  0.67652485  0.16171191  1
  Ca2+  Ca46  1  0.91661584  0.67278297  0.49005573  1
  Ca2+  Ca47  1  0.91432936  0.66934806  0.83147155  1
  Al0+  Al48  1  0.00133287  0.00024548  -0.00262246  1
  Al0+  Al49  1  -0.00078402  -0.00066919  0.33464141  1
  Al0+  Al50  1  0.00046388  -0.00209006  0.66719208  1
  Al0+  Al51  1  0.00003682  0.49951152  -0.00726062  1
  Al0+  Al52  1  0.00068805  0.50085305  0.33002873  1
  Al0+  Al53  1  0.00196290  0.50072152  0.66984186  1
  Al0+  Al54  1  0.50110158  0.00033372  -0.00152899  1
  Al0+  Al55  1  0.50080223  -0.00079011  0.33712196  1
  Al0+  Al56  1  0.49755745  0.00141394  0.66624437  1
  Al0+  Al57  1  0.49983784  0.50088752  0.00075313  1
  Al0+  Al58  1  0.49991874  0.49844858  0.33459161  1
  Al0+  Al59  1  0.49934063  0.50261061  0.66983550  1
  Al0+  Al60  1  0.24923402  0.25191659  0.00406634  1
  Al0+  Al61  1  0.25101325  0.25143599  0.33511260  1
  Al0+  Al62  1  0.24849909  0.25041724  0.66488935  1
  Al0+  Al63  1  0.25112346  0.75070005  -0.00867615  1
  Al0+  Al64  1  0.25147390  0.75008266  0.33870013  1
  Al0+  Al65  1  0.24910680  0.74955785  0.66588675  1
  Al0+  Al66  1  0.74950071  0.24968540  -0.00798287  1
  Al0+  Al67  1  0.74913778  0.24724859  0.33729630  1
  Al0+  Al68  1  0.75016893  0.24994723  0.67120616  1
  Al0+  Al69  1  0.75001445  0.74878357  0.00241908  1
  Al0+  Al70  1  0.74863583  0.74880245  0.32722376  1
  Al0+  Al71  1  0.74928954  0.74970970  0.67300106  1
  Al0+  Al72  1  0.32156158  0.57109180  0.34830770  1
  Al0+  Al73  1  0.92939397  0.31951002  0.98551842  1
  Al0+  Al74  1  0.67994105  0.42780836  0.34495916  1
  Al0+  Al75  1  0.17548035  0.42889394  0.34891486  1
  Al0+  Al76  1  0.92811281  0.31881088  0.32282139  1
  Al0+  Al77  1  0.92658570  0.82310459  0.98231334  1
  Al0+  Al78  1  0.43132028  0.82002733  0.98696841  1
  Al0+  Al79  1  0.07056834  0.68023601  0.98283715  1
  Al0+  Al80  1  0.06868427  0.17823092  0.65288791  1
  Al0+  Al81  1  0.42872041  0.32112320  0.31830727  1
  Al0+  Al82  1  0.07243038  0.67975613  0.31921068  1
  Al0+  Al83  1  0.57296828  0.17739901  0.64854241  1
  Al0+  Al84  1  0.42956069  0.32287261  0.65143023  1
  Al0+  Al85  1  0.56841440  0.18031590  0.98711229  1
  Al0+  Al86  1  0.32324124  0.07296901  0.34852520  1
  Al0+  Al87  1  0.82274697  0.57002794  0.68133639  1
  Al0+  Al88  1  0.92672968  0.82374310  0.31837864  1
  Al0+  Al89  1  0.31763950  0.07158456  0.68162229  1
  Al0+  Al90  1  0.81959888  0.06913070  0.34450555  1
  Al0+  Al91  1  0.67897690  0.93050812  0.68127384  1
  Al0+  Al92  1  0.67702376  0.42827841  0.68361720  1
  Al0+  Al93  1  0.67927709  0.92939738  0.01568919  1
  Al0+  Al94  1  0.82434463  0.07205968  0.68336902  1
  Al0+  Al95  1  0.17843562  0.92872221  0.34740847  1
  Si0+  Si96  1  0.18003831  0.92830142  0.01324694  1
  Si0+  Si97  1  0.57295366  0.67465202  0.98278936  1
  Si0+  Si98  1  0.82349229  0.07292134  0.01679094  1
  Si0+  Si99  1  0.42626867  0.32369238  0.98538022  1
  Si0+  Si100  1  0.42702021  0.82146205  0.64927905  1
  Si0+  Si101  1  0.82132257  0.57262807  0.34594018  1
  Si0+  Si102  1  0.57075538  0.67700464  0.31833845  1
  Si0+  Si103  1  0.57152303  0.17680818  0.31667249  1
  Si0+  Si104  1  0.32104304  0.57377241  0.68437997  1
  Si0+  Si105  1  0.32045686  0.57212492  0.01331943  1
  Si0+  Si106  1  0.82248115  0.56926309  0.01706958  1
  Si0+  Si107  1  0.07253081  0.67790340  0.64937250  1
  Si0+  Si108  1  0.32118974  0.07152053  0.01475562  1
  Si0+  Si109  1  0.17851708  0.42972431  0.01486475  1
  Si0+  Si110  1  0.92885682  0.32368602  0.65003868  1
  Si0+  Si111  1  0.43130331  0.82105564  0.32074151  1
  Si0+  Si112  1  0.07548157  0.17778684  0.98551935  1
  Si0+  Si113  1  0.67748696  0.92477593  0.34847932  1
  Si0+  Si114  1  0.67939836  0.42786338  0.01552113  1
  Si0+  Si115  1  0.92826821  0.81802668  0.65211004  1
  Si0+  Si116  1  0.07335573  0.17738200  0.31703950  1
  Si0+  Si117  1  0.57077213  0.68100067  0.65204509  1
  Si0+  Si118  1  0.17869659  0.92547170  0.68558457  1
  Si0+  Si119  1  0.18016870  0.43006382  0.68324695  1
  O2-  O120  1  0.24842769  0.00189808  0.05577946  1
  O2-  O121  1  0.24546586  0.00577862  0.39679330  1
  O2-  O122  1  0.24471038  -0.00394085  0.73118288  1
  O2-  O123  1  0.25112864  0.49995878  0.05548926  1
  O2-  O124  1  0.25036156  0.49853623  0.39872602  1
  O2-  O125  1  0.25187314  0.50085913  0.72616242  1
  O2-  O126  1  0.75788066  0.00081469  0.06110113  1
  O2-  O127  1  0.74949629  -0.01013371  0.39062863  1
  O2-  O128  1  0.74726434  0.00504110  0.73292096  1
  O2-  O129  1  0.75040880  0.49861780  0.05892635  1
  O2-  O130  1  0.75607552  0.50152119  0.39060141  1
  O2-  O131  1  0.75410299  0.49566350  0.73344354  1
  O2-  O132  1  0.00505075  0.24701394  0.27316635  1
  O2-  O133  1  -0.00952838  0.24892051  0.60596921  1
  O2-  O134  1  0.00387273  0.24343893  0.94174877  1
  O2-  O135  1  0.00107537  0.75284912  0.27023753  1
  O2-  O136  1  -0.00051108  0.74716160  0.60922045  1
  O2-  O137  1  -0.00283584  0.74978650  0.93129103  1
  O2-  O138  1  0.50045393  0.24333338  0.27187822  1
  O2-  O139  1  0.50446164  0.25428860  0.60077639  1
  O2-  O140  1  0.49362900  0.25524933  0.94097172  1
  O2-  O141  1  0.50131780  0.74990972  0.27682365  1
  O2-  O142  1  0.50018895  0.75194247  0.60826584  1
  O2-  O143  1  0.50804718  0.74744787  0.93918296  1
  O2-  O144  1  0.08022716  0.17900544  0.09059195  1
  O2-  O145  1  0.07125242  0.17783577  0.42263272  1
  O2-  O146  1  0.07064716  0.18344209  0.76662492  1
  O2-  O147  1  0.07284399  0.68114664  0.09585901  1
  O2-  O148  1  0.06925627  0.67986953  0.43326067  1
  O2-  O149  1  0.07532049  0.67968471  0.75440813  1
  O2-  O150  1  0.56758390  0.18151900  0.10057747  1
  O2-  O151  1  0.57238646  0.17696509  0.42155788  1
  O2-  O152  1  0.56723208  0.17639844  0.76257558  1
  O2-  O153  1  0.56885745  0.67033576  0.08846133  1
  O2-  O154  1  0.57219263  0.67819301  0.42351402  1
  O2-  O155  1  0.56801353  0.68090058  0.75721141  1
  O2-  O156  1  0.17597884  0.43160966  0.23452394  1
  O2-  O157  1  0.17769126  0.43234749  0.57885511  1
  O2-  O158  1  0.18104186  0.42768740  0.90949018  1
  O2-  O159  1  0.18303807  0.92838002  0.23282383  1
  O2-  O160  1  0.18164920  0.92268514  0.58051154  1
  O2-  O161  1  0.18180887  0.92848346  0.90812513  1
  O2-  O162  1  0.68067381  0.42911512  0.23099968  1
  O2-  O163  1  0.67591592  0.43301252  0.56998783  1
  O2-  O164  1  0.67825236  0.43042037  0.91093569  1
  O2-  O165  1  0.67350213  0.92619948  0.24287611  1
  O2-  O166  1  0.68385221  0.92551934  0.56755596  1
  O2-  O167  1  0.67676150  0.93328575  0.90325553  1
  O2-  O168  1  0.42608822  0.32416622  0.09071774  1
  O2-  O169  1  0.43257687  0.32417283  0.43066410  1
  O2-  O170  1  0.42863892  0.32091465  0.76602688  1
  O2-  O171  1  0.42963020  0.81768328  0.10038120  1
  O2-  O172  1  0.43412640  0.82109137  0.42582510  1
  O2-  O173  1  0.42538285  0.81889491  0.75467087  1
  O2-  O174  1  0.92879722  0.32038217  0.09886444  1
  O2-  O175  1  0.92697147  0.31712828  0.43545707  1
  O2-  O176  1  0.93520016  0.32650085  0.75588708  1
  O2-  O177  1  0.92972497  0.82222897  0.09555865  1
  O2-  O178  1  0.92393904  0.81932946  0.43242154  1
  O2-  O179  1  0.92964302  0.81673064  0.75708622  1
  O2-  O180  1  0.32523523  0.06769023  0.23387002  1
  O2-  O181  1  0.31629009  0.07022337  0.56920250  1
  O2-  O182  1  0.31991807  0.07234285  0.90967751  1
  O2-  O183  1  0.32192637  0.57183560  0.23396335  1
  O2-  O184  1  0.32050234  0.57765577  0.58002037  1
  O2-  O185  1  0.32077132  0.57114805  0.90798556  1
  O2-  O186  1  0.81498159  0.07269971  0.23121321  1
  O2-  O187  1  0.82651884  0.06654715  0.56976277  1
  O2-  O188  1  0.82286766  0.07319555  0.91159784  1
  O2-  O189  1  0.81744980  0.57303942  0.24010681  1
  O2-  O190  1  0.82087641  0.57127412  0.56752078  1
  O2-  O191  1  0.82137341  0.56813493  0.91201843  1
  O2-  O192  1  0.04785959  0.08381868  0.27105055  1
  O2-  O193  1  0.04518311  0.07874932  0.60086994  1
  O2-  O194  1  0.05503134  0.08354914  0.93886877  1
  O2-  O195  1  0.04458556  0.58230193  0.26404552  1
  O2-  O196  1  0.04756333  0.58445031  0.60475290  1
  O2-  O197  1  0.04370645  0.58173344  0.92899681  1
  O2-  O198  1  0.54659098  0.08191401  0.27137576  1
  O2-  O199  1  0.54010613  0.07985792  0.59621759  1
  O2-  O200  1  0.53631700  0.08513405  0.93240905  1
  O2-  O201  1  0.54119060  0.58687991  0.26900059  1
  O2-  O202  1  0.54086516  0.59012537  0.60445361  1
  O2-  O203  1  0.54224608  0.58341826  0.93367168  1
  O2-  O204  1  0.16778895  0.20034413  0.27176408  1
  O2-  O205  1  0.16315252  0.21389073  0.59868705  1
  O2-  O206  1  0.16751650  0.20867032  0.93719062  1
  O2-  O207  1  0.17256474  0.70772617  0.26882711  1
  O2-  O208  1  0.16402174  0.70717280  0.60209262  1
  O2-  O209  1  0.16793292  0.70931169  0.92716469  1
  O2-  O210  1  0.66336500  0.20625481  0.26938591  1
  O2-  O211  1  0.67517943  0.20048139  0.60163178  1
  O2-  O212  1  0.66362897  0.20982926  0.93106274  1
  O2-  O213  1  0.66143661  0.70229792  0.26702492  1
  O2-  O214  1  0.66277955  0.70864509  0.60500490  1
  O2-  O215  1  0.66823639  0.69538202  0.94003583  1
  O2-  O216  1  0.08613902  0.45897022  0.05972957  1
  O2-  O217  1  0.07810573  0.45978476  0.40308926  1
  O2-  O218  1  0.09005579  0.45979775  0.73359201  1
  O2-  O219  1  0.08723376  0.95315928  0.06016760  1
  O2-  O220  1  0.07833539  0.94995138  0.39876334  1
  O2-  O221  1  0.08414808  0.94796941  0.72999263  1
  O2-  O222  1  0.58661886  0.45644714  0.06238180  1
  O2-  O223  1  0.58587534  0.46263986  0.39932096  1
  O2-  O224  1  0.58096643  0.46414107  0.73838784  1
  O2-  O225  1  0.58268018  0.96313066  0.06983549  1
  O2-  O226  1  0.58566778  0.95142952  0.39708399  1
  O2-  O227  1  0.57780728  0.95413117  0.73100072  1
  O2-  O228  1  0.20400561  0.33828462  0.06464821  1
  O2-  O229  1  0.20107670  0.32984605  0.40020572  1
  O2-  O230  1  0.20817763  0.33908730  0.73185482  1
  O2-  O231  1  0.21251852  0.83699654  0.05857831  1
  O2-  O232  1  0.21129823  0.83375761  0.40361413  1
  O2-  O233  1  0.20778235  0.83262790  0.73272381  1
  O2-  O234  1  0.70777889  0.33533585  0.06060186  1
  O2-  O235  1  0.70916412  0.33269406  0.40050855  1
  O2-  O236  1  0.70089665  0.32926544  0.73619014  1
  O2-  O237  1  0.70244506  0.82931957  0.06768183  1
  O2-  O238  1  0.69868052  0.82893642  0.39205293  1
  O2-  O239  1  0.70708618  0.83278495  0.73646559  1
  O2-  O240  1  0.46248288  0.41708273  0.26321657  1
  O2-  O241  1  0.45284384  0.42488277  0.60288827  1
  O2-  O242  1  0.45076191  0.41804340  0.93983206  1
  O2-  O243  1  0.45951713  0.91224694  0.27159385  1
  O2-  O244  1  0.45236359  0.91327885  0.60246459  1
  O2-  O245  1  0.46045966  0.91637888  0.93241532  1
  O2-  O246  1  0.95587163  0.41601166  0.26741006  1
  O2-  O247  1  0.96165813  0.41555970  0.60429993  1
  O2-  O248  1  0.96233832  0.41380554  0.92894990  1
  O2-  O249  1  0.95335974  0.92227602  0.26473528  1
  O2-  O250  1  0.95660286  0.90966011  0.60543626  1
  O2-  O251  1  0.95647467  0.92160028  0.93001596  1
  O2-  O252  1  0.33034253  0.29503990  0.26454890  1
  O2-  O253  1  0.33106428  0.29327155  0.60046362  1
  O2-  O254  1  0.33145473  0.29945491  0.94073618  1
  O2-  O255  1  0.33951993  0.79332093  0.27398584  1
  O2-  O256  1  0.33624933  0.78928208  0.60256148  1
  O2-  O257  1  0.33799030  0.78759003  0.92763130  1
  O2-  O258  1  0.83237669  0.28484650  0.26722552  1
  O2-  O259  1  0.83145412  0.30699179  0.61070260  1
  O2-  O260  1  0.83400471  0.29129442  0.92909157  1
  O2-  O261  1  0.82894816  0.79380755  0.26341173  1
  O2-  O262  1  0.83611096  0.78918691  0.60638773  1
  O2-  O263  1  0.82705600  0.79336543  0.93243377  1
  O2-  O264  1  0.41179403  0.04143807  0.06186730  1
  O2-  O265  1  0.41895194  0.03823645  0.40300288  1
  O2-  O266  1  0.41361596  0.03862919  0.73527574  1
  O2-  O267  1  0.41352121  0.54788466  0.06074749  1
  O2-  O268  1  0.41983247  0.54302109  0.40137496  1
  O2-  O269  1  0.41285434  0.54976677  0.73334918  1
  O2-  O270  1  0.91964554  0.05248946  0.06064994  1
  O2-  O271  1  0.91711238  0.04422207  0.39863361  1
  O2-  O272  1  0.92154350  0.03892257  0.73727477  1
  O2-  O273  1  0.91493064  0.53932731  0.06163307  1
  O2-  O274  1  0.91600012  0.55206742  0.38982088  1
  O2-  O275  1  0.92225788  0.54563624  0.73538072  1
  O2-  O276  1  0.29498761  0.16419356  0.06250594  1
  O2-  O277  1  0.30048506  0.17252816  0.39935626  1
  O2-  O278  1  0.28488845  0.16770062  0.73643938  1
  O2-  O279  1  0.29172046  0.66455846  0.05877595  1
  O2-  O280  1  0.29642945  0.66872559  0.40384747  1
  O2-  O281  1  0.28934375  0.66445356  0.73317276  1
  O2-  O282  1  0.79222711  0.16637773  0.06084625  1
  O2-  O283  1  0.78588584  0.16217566  0.40272713  1
  O2-  O284  1  0.80522178  0.17316938  0.73358921  1
  O2-  O285  1  0.79597232  0.66114100  0.06465306  1
  O2-  O286  1  0.79114227  0.66487961  0.39274416  1
  O2-  O287  1  0.78878872  0.66535771  0.73751561  1
