# generated using pymatgen
data_Ca2Al2SiO7
_symmetry_space_group_name_H-M   'P 1'
_cell_length_a   15.46374641
_cell_length_b   15.46234567
_cell_length_c   15.28785508
_cell_angle_alpha   90.00359236
_cell_angle_beta   90.00349989
_cell_angle_gamma   89.99908194
_symmetry_Int_Tables_number   1
_chemical_formula_structural   Ca2Al2SiO7
_chemical_formula_sum   'Ca48 Al48 Si24 O168'
_cell_volume   3655.41468868
_cell_formula_units_Z   24
loop_
 _symmetry_equiv_pos_site_id
 _symmetry_equiv_pos_as_xyz
  1  'x, y, z'
loop_
 _atom_type_symbol
 _atom_type_oxidation_number
  Ca2+  2.0
  Al0+  0.0
  Si0+  0.0
  O2-  -2.0
loop_
 _atom_site_type_symbol
 _atom_site_label
 _atom_site_symmetry_multiplicity
 _atom_site_fract_x
 _atom_site_fract_y
 _atom_site_fract_z
 _atom_site_occupancy
  Ca2+  Ca0  1  0.15713596  0.07010700  0.17123024  1
  Ca2+  Ca1  1  0.15998634  0.07474030  0.50830343  1
  Ca2+  Ca2  1  0.16269364  0.07416973  0.83351600  1
  Ca2+  Ca3  1  0.15527821  0.58223398  0.16564278  1
  Ca2+  Ca4  1  0.16809083  0.58708456  0.50754740  1
  Ca2+  Ca5  1  0.16380913  0.58222826  0.83826868  1
  Ca2+  Ca6  1  0.67584343  0.07789631  0.17045707  1
  Ca2+  Ca7  1  0.68085470  0.08238711  0.50935406  1
  Ca2+  Ca8  1  0.66824317  0.07857844  0.83224058  1
  Ca2+  Ca9  1  0.68040171  0.58037235  0.17062524  1
  Ca2+  Ca10  1  0.66767868  0.57526807  0.50305762  1
  Ca2+  Ca11  1  0.67735254  0.58203645  0.84043367  1
  Ca2+  Ca12  1  0.07464874  0.32995537  0.15985100  1
  Ca2+  Ca13  1  0.07865280  0.31588635  0.49386234  1
  Ca2+  Ca14  1  0.08144469  0.33014015  0.82964757  1
  Ca2+  Ca15  1  0.07626979  0.82903763  0.16198285  1
  Ca2+  Ca16  1  0.08707420  0.82954860  0.49178983  1
  Ca2+  Ca17  1  0.08856513  0.82707699  0.83012220  1
  Ca2+  Ca18  1  0.58737430  0.33407789  0.16562888  1
  Ca2+  Ca19  1  0.58042418  0.32984841  0.49850938  1
  Ca2+  Ca20  1  0.57533290  0.32461201  0.82085414  1
  Ca2+  Ca21  1  0.57694507  0.83877891  0.15508529  1
  Ca2+  Ca22  1  0.58254887  0.83983932  0.50124792  1
  Ca2+  Ca23  1  0.58041239  0.84287242  0.83044607  1
  Ca2+  Ca24  1  0.32177760  0.41706005  0.16798205  1
  Ca2+  Ca25  1  0.33247596  0.42343530  0.50986323  1
  Ca2+  Ca26  1  0.32848647  0.41956686  0.83513947  1
  Ca2+  Ca27  1  0.32083589  0.90906475  0.16665929  1
  Ca2+  Ca28  1  0.31874666  0.92311519  0.50761138  1
  Ca2+  Ca29  1  0.32281367  0.91877501  0.83641825  1
  Ca2+  Ca30  1  0.83955424  0.41929757  0.17089895  1
  Ca2+  Ca31  1  0.83176199  0.41003163  0.49833900  1
  Ca2+  Ca32  1  0.84002602  0.42321324  0.84312542  1
  Ca2+  Ca33  1  0.83558471  0.91490752  0.17202166  1
  Ca2+  Ca34  1  0.83722543  0.92685974  0.50503892  1
  Ca2+  Ca35  1  0.82609552  0.91815599  0.83805901  1
  Ca2+  Ca36  1  0.42019561  0.16627591  0.16126776  1
  Ca2+  Ca37  1  0.41890305  0.16232086  0.50501238  1
  Ca2+  Ca38  1  0.41874169  0.16957651  0.81967789  1
  Ca2+  Ca39  1  0.42181110  0.67397993  0.16032733  1
  Ca2+  Ca40  1  0.41536332  0.66630445  0.49844721  1
  Ca2+  Ca41  1  0.41104120  0.67393177  0.82996663  1
  Ca2+  Ca42  1  0.91497776  0.17343363  0.16991389  1
  Ca2+  Ca43  1  0.92297566  0.16028851  0.49357106  1
  Ca2+  Ca44  1  0.91854108  0.17105609  0.82795042  1
  Ca2+  Ca45  1  0.92238869  0.67598023  0.15818493  1
  Ca2+  Ca46  1  0.93040152  0.67751784  0.49287566  1
  Ca2+  Ca47  1  0.92555436  0.67002085  0.83372186  1
  Al0+  Al48  1  -0.00076030  0.00127746  0.00123957  1
  Al0+  Al49  1  -0.00036295  -0.00191447  0.33383031  1
  Al0+  Al50  1  -0.00303083  0.00043940  0.67430519  1
  Al0+  Al51  1  0.00028032  0.49972498  0.00167304  1
  Al0+  Al52  1  0.00097136  0.49897682  0.33283667  1
  Al0+  Al53  1  -0.00049933  0.50228414  0.66034739  1
  Al0+  Al54  1  0.50130659  0.00070031  -0.00071589  1
  Al0+  Al55  1  0.49903126  0.00111531  0.33140295  1
  Al0+  Al56  1  0.49909892  0.00077369  0.66548642  1
  Al0+  Al57  1  0.49975525  0.49944135  0.00015920  1
  Al0+  Al58  1  0.50047697  0.49951596  0.33480044  1
  Al0+  Al59  1  0.49917367  0.50169699  0.66874269  1
  Al0+  Al60  1  0.25121225  0.25102248  0.00443533  1
  Al0+  Al61  1  0.25274409  0.24976733  0.32946478  1
  Al0+  Al62  1  0.24758115  0.25171146  0.66046733  1
  Al0+  Al63  1  0.25306552  0.75083754  -0.00310605  1
  Al0+  Al64  1  0.25259088  0.74974280  0.33282551  1
  Al0+  Al65  1  0.25151504  0.74862827  0.66924137  1
  Al0+  Al66  1  0.75007088  0.24930063  -0.00502928  1
  Al0+  Al67  1  0.74848093  0.24880716  0.33775112  1
  Al0+  Al68  1  0.74741052  0.25032845  0.66773649  1
  Al0+  Al69  1  0.75026144  0.74907711  0.00584006  1
  Al0+  Al70  1  0.74868044  0.74745564  0.33338793  1
  Al0+  Al71  1  0.74932121  0.74851589  0.66811693  1
  Al0+  Al72  1  0.81933058  0.06791678  0.34588309  1
  Al0+  Al73  1  0.31899945  0.07343309  0.67986475  1
  Al0+  Al74  1  0.07359916  0.17679891  0.31723477  1
  Al0+  Al75  1  0.18130487  0.92994225  0.34565284  1
  Al0+  Al76  1  0.82172828  0.07368089  0.68449174  1
  Al0+  Al77  1  0.07070625  0.68036890  0.98409319  1
  Al0+  Al78  1  0.57071124  0.17755658  0.64893269  1
  Al0+  Al79  1  0.67960275  0.43013998  0.34772042  1
  Al0+  Al80  1  0.42775610  0.32316007  0.65077842  1
  Al0+  Al81  1  0.82151266  0.56979083  0.01418104  1
  Al0+  Al82  1  0.17749320  0.92801726  0.68235506  1
  Al0+  Al83  1  0.43111685  0.82117550  0.98446414  1
  Al0+  Al84  1  0.17993499  0.42945453  0.01357455  1
  Al0+  Al85  1  0.67960424  0.92751921  0.68069939  1
  Al0+  Al86  1  0.92764090  0.82077930  0.31985322  1
  Al0+  Al87  1  0.32173257  0.57051829  0.68118951  1
  Al0+  Al88  1  0.68014228  0.93090298  0.01440517  1
  Al0+  Al89  1  0.07484250  0.67924955  0.31800181  1
  Al0+  Al90  1  0.06822583  0.17786800  0.65522334  1
  Al0+  Al91  1  0.92763179  0.31865011  0.31955905  1
  Al0+  Al92  1  0.92628817  0.82373002  0.98343823  1
  Al0+  Al93  1  0.17879961  0.92845807  0.01525856  1
  Al0+  Al94  1  0.93003179  0.31981098  0.98644490  1
  Al0+  Al95  1  0.07205338  0.68119499  0.65223392  1
  Si0+  Si96  1  0.32515443  0.07423396  0.34953661  1
  Si0+  Si97  1  0.56973465  0.17974959  0.31713332  1
  Si0+  Si98  1  0.17607907  0.42978097  0.68071360  1
  Si0+  Si99  1  0.82185781  0.07507402  0.01810573  1
  Si0+  Si100  1  0.32246352  0.07222905  0.01662101  1
  Si0+  Si101  1  0.32055321  0.56861106  0.34723842  1
  Si0+  Si102  1  0.17827212  0.42639313  0.34938845  1
  Si0+  Si103  1  0.67726380  0.42631998  0.01443679  1
  Si0+  Si104  1  0.57236734  0.67639311  0.98369742  1
  Si0+  Si105  1  0.57266799  0.67886029  0.65155137  1
  Si0+  Si106  1  0.07461212  0.17832531  0.98347807  1
  Si0+  Si107  1  0.92564626  0.82065959  0.65204294  1
  Si0+  Si108  1  0.92673113  0.32404523  0.65051049  1
  Si0+  Si109  1  0.82118751  0.56929965  0.68064968  1
  Si0+  Si110  1  0.32406222  0.57217785  0.01812617  1
  Si0+  Si111  1  0.43030897  0.32425092  0.31556550  1
  Si0+  Si112  1  0.43219756  0.82089538  0.31914235  1
  Si0+  Si113  1  0.67807611  0.42990699  0.68242267  1
  Si0+  Si114  1  0.42762945  0.32159805  0.98553914  1
  Si0+  Si115  1  0.82394478  0.57269909  0.35324897  1
  Si0+  Si116  1  0.42937564  0.82057271  0.65034815  1
  Si0+  Si117  1  0.67437135  0.92585134  0.34864963  1
  Si0+  Si118  1  0.57015155  0.67588309  0.31897849  1
  Si0+  Si119  1  0.57024600  0.18019253  0.98471530  1
  O2-  O120  1  0.25262337  0.00548578  0.06138475  1
  O2-  O121  1  0.25116472  0.01034347  0.39082340  1
  O2-  O122  1  0.24719283  0.00320900  0.73178076  1
  O2-  O123  1  0.25310018  0.50594421  0.06200997  1
  O2-  O124  1  0.24689073  0.50088841  0.39016347  1
  O2-  O125  1  0.24584396  0.49683046  0.72615397  1
  O2-  O126  1  0.75859016  0.00066036  0.06188627  1
  O2-  O127  1  0.74736992  -0.01071495  0.39151628  1
  O2-  O128  1  0.74997857  -0.00013573  0.73198737  1
  O2-  O129  1  0.74596678  0.49395538  0.05915393  1
  O2-  O130  1  0.75620762  0.50189447  0.39659047  1
  O2-  O131  1  0.75348826  0.49553491  0.72439309  1
  O2-  O132  1  0.00330383  0.25137152  0.26810203  1
  O2-  O133  1  -0.00911170  0.25059417  0.60856913  1
  O2-  O134  1  0.00448605  0.24571542  0.93955314  1
  O2-  O135  1  -0.00117508  0.74773150  0.27005072  1
  O2-  O136  1  0.00096284  0.75960381  0.60708763  1
  O2-  O137  1  0.00210271  0.75544235  0.93335088  1
  O2-  O138  1  0.49813024  0.24992611  0.27330748  1
  O2-  O139  1  0.49808339  0.25001263  0.59936211  1
  O2-  O140  1  0.49950069  0.25212835  0.94406517  1
  O2-  O141  1  0.50745837  0.75406609  0.27693660  1
  O2-  O142  1  0.50258576  0.75065457  0.60850769  1
  O2-  O143  1  0.50570439  0.74577903  0.93790310  1
  O2-  O144  1  0.07566298  0.18014694  0.08896704  1
  O2-  O145  1  0.07287893  0.17765576  0.43091260  1
  O2-  O146  1  0.06904517  0.18258171  0.76843842  1
  O2-  O147  1  0.06824680  0.68046609  0.09753870  1
  O2-  O148  1  0.07676654  0.68222890  0.43191862  1
  O2-  O149  1  0.06939598  0.67644969  0.76467976  1
  O2-  O150  1  0.57003920  0.18159308  0.09047271  1
  O2-  O151  1  0.56765820  0.17943756  0.42137179  1
  O2-  O152  1  0.56983465  0.18116519  0.76306176  1
  O2-  O153  1  0.56846774  0.67460030  0.08971190  1
  O2-  O154  1  0.56670706  0.67246075  0.42408598  1
  O2-  O155  1  0.57377019  0.67692858  0.75625009  1
  O2-  O156  1  0.18117280  0.42537828  0.24419272  1
  O2-  O157  1  0.17643431  0.43263329  0.57494004  1
  O2-  O158  1  0.18379864  0.42668914  0.90060036  1
  O2-  O159  1  0.18509980  0.92734521  0.23257242  1
  O2-  O160  1  0.18000442  0.92661553  0.56848939  1
  O2-  O161  1  0.18155694  0.92890877  0.90262821  1
  O2-  O162  1  0.67634172  0.43433807  0.23464039  1
  O2-  O163  1  0.67656168  0.43263438  0.57720827  1
  O2-  O164  1  0.67568937  0.42802260  0.90889737  1
  O2-  O165  1  0.66940545  0.92967394  0.24318754  1
  O2-  O166  1  0.68266947  0.92578281  0.56669215  1
  O2-  O167  1  0.67648348  0.93523405  0.90199361  1
  O2-  O168  1  0.42830798  0.32136720  0.09109133  1
  O2-  O169  1  0.43158439  0.32893414  0.41981067  1
  O2-  O170  1  0.43179563  0.32462549  0.76491040  1
  O2-  O171  1  0.43271040  0.81887154  0.09844457  1
  O2-  O172  1  0.43211183  0.81944236  0.42418015  1
  O2-  O173  1  0.42987113  0.81888640  0.75525030  1
  O2-  O174  1  0.92830670  0.31802925  0.09920633  1
  O2-  O175  1  0.92810071  0.31602397  0.43326391  1
  O2-  O176  1  0.92982209  0.32844662  0.75617793  1
  O2-  O177  1  0.92629242  0.82070600  0.09702239  1
  O2-  O178  1  0.92787998  0.81984879  0.43374997  1
  O2-  O179  1  0.92100925  0.81440439  0.75706610  1
  O2-  O180  1  0.33252710  0.07149501  0.24409995  1
  O2-  O181  1  0.31862724  0.06843537  0.56608666  1
  O2-  O182  1  0.32324049  0.07378932  0.91152670  1
  O2-  O183  1  0.32496499  0.56645194  0.24238496  1
  O2-  O184  1  0.32262621  0.57045207  0.56737995  1
  O2-  O185  1  0.32805151  0.56854316  0.91293571  1
  O2-  O186  1  0.81420866  0.07072307  0.23282336  1
  O2-  O187  1  0.82174311  0.07270296  0.57062523  1
  O2-  O188  1  0.81682351  0.07985204  0.91313088  1
  O2-  O189  1  0.82082752  0.57387080  0.24779416  1
  O2-  O190  1  0.81830571  0.56907318  0.57567467  1
  O2-  O191  1  0.81968699  0.56759694  0.90043764  1
  O2-  O192  1  0.04142239  0.07977738  0.26538382  1
  O2-  O193  1  0.03883562  0.07966866  0.60306122  1
  O2-  O194  1  0.05002966  0.08443254  0.93895752  1
  O2-  O195  1  0.05058564  0.57794121  0.27023785  1
  O2-  O196  1  0.03828488  0.58619664  0.59544740  1
  O2-  O197  1  0.04000244  0.58173566  0.93300660  1
  O2-  O198  1  0.54180876  0.08802081  0.26798783  1
  O2-  O199  1  0.54278782  0.07939304  0.59490958  1
  O2-  O200  1  0.54102923  0.08966413  0.93731399  1
  O2-  O201  1  0.53446298  0.58821476  0.26858629  1
  O2-  O202  1  0.54198556  0.58828119  0.60306681  1
  O2-  O203  1  0.54671862  0.58235079  0.93722811  1
  O2-  O204  1  0.17409852  0.20145814  0.26558903  1
  O2-  O205  1  0.16258982  0.20961232  0.59738467  1
  O2-  O206  1  0.16839374  0.20657696  0.93908694  1
  O2-  O207  1  0.17350034  0.70721070  0.26501735  1
  O2-  O208  1  0.17097838  0.70738561  0.60021944  1
  O2-  O209  1  0.17186701  0.70311429  0.93433018  1
  O2-  O210  1  0.66002533  0.21018398  0.26920015  1
  O2-  O211  1  0.66869316  0.20972826  0.59675782  1
  O2-  O212  1  0.66082508  0.20740463  0.93551303  1
  O2-  O213  1  0.66455158  0.69481423  0.27369173  1
  O2-  O214  1  0.66391266  0.70475029  0.60133825  1
  O2-  O215  1  0.66694480  0.69945143  0.94060972  1
  O2-  O216  1  0.08419158  0.45882994  0.06891986  1
  O2-  O217  1  0.08555295  0.44940579  0.39651715  1
  O2-  O218  1  0.08266131  0.45782763  0.72621639  1
  O2-  O219  1  0.08139002  0.95883328  0.06842223  1
  O2-  O220  1  0.08367854  0.95499137  0.39894672  1
  O2-  O221  1  0.07890411  0.95188805  0.73566023  1
  O2-  O222  1  0.58318501  0.45082054  0.06137812  1
  O2-  O223  1  0.58412854  0.46521391  0.40278109  1
  O2-  O224  1  0.58880288  0.46271815  0.73124182  1
  O2-  O225  1  0.58445755  0.96639235  0.06948800  1
  O2-  O226  1  0.58214888  0.95630638  0.39555375  1
  O2-  O227  1  0.57973206  0.95479479  0.73041929  1
  O2-  O228  1  0.21444649  0.33504185  0.07128002  1
  O2-  O229  1  0.21105540  0.33546996  0.39579190  1
  O2-  O230  1  0.20042290  0.33601493  0.72577414  1
  O2-  O231  1  0.21583383  0.83268928  0.06750216  1
  O2-  O232  1  0.21973734  0.83517295  0.39986015  1
  O2-  O233  1  0.21271534  0.83179537  0.73482121  1
  O2-  O234  1  0.70198919  0.33212632  0.05947746  1
  O2-  O235  1  0.70611212  0.33330251  0.40266448  1
  O2-  O236  1  0.69910785  0.33664373  0.72882829  1
  O2-  O237  1  0.70164251  0.83188722  0.06790153  1
  O2-  O238  1  0.69102982  0.82871598  0.39093865  1
  O2-  O239  1  0.70487788  0.82792207  0.73406282  1
  O2-  O240  1  0.46272828  0.41392325  0.26609511  1
  O2-  O241  1  0.46079619  0.42148627  0.59863181  1
  O2-  O242  1  0.45370901  0.41423685  0.93891212  1
  O2-  O243  1  0.45586377  0.91337012  0.27059808  1
  O2-  O244  1  0.45571218  0.91164105  0.60138387  1
  O2-  O245  1  0.46267673  0.91796713  0.93188779  1
  O2-  O246  1  0.95208211  0.41937817  0.26989778  1
  O2-  O247  1  0.95440078  0.41537024  0.60067523  1
  O2-  O248  1  0.96163899  0.41586290  0.93298458  1
  O2-  O249  1  0.95467582  0.91828946  0.26627684  1
  O2-  O250  1  0.94432121  0.91783616  0.61251257  1
  O2-  O251  1  0.94765933  0.92564558  0.93511179  1
  O2-  O252  1  0.33837984  0.29858447  0.26724122  1
  O2-  O253  1  0.32894277  0.30028029  0.59669494  1
  O2-  O254  1  0.33643959  0.29341183  0.93817411  1
  O2-  O255  1  0.34354237  0.78677788  0.27006079  1
  O2-  O256  1  0.33970937  0.78807030  0.60192947  1
  O2-  O257  1  0.33654477  0.78937462  0.92856470  1
  O2-  O258  1  0.82855094  0.28912135  0.26768125  1
  O2-  O259  1  0.83029161  0.30390522  0.60895681  1
  O2-  O260  1  0.83274173  0.29209203  0.93093715  1
  O2-  O261  1  0.82680559  0.79426184  0.26867562  1
  O2-  O262  1  0.83515102  0.78779288  0.60297433  1
  O2-  O263  1  0.82753298  0.79051245  0.93370712  1
  O2-  O264  1  0.41589821  0.04530844  0.06312017  1
  O2-  O265  1  0.41646928  0.04257562  0.39786033  1
  O2-  O266  1  0.41801769  0.04511975  0.73123742  1
  O2-  O267  1  0.41689232  0.54332543  0.06624898  1
  O2-  O268  1  0.41092069  0.53799681  0.39645823  1
  O2-  O269  1  0.41803082  0.54142395  0.73701739  1
  O2-  O270  1  0.91773861  0.05749840  0.06156032  1
  O2-  O271  1  0.91591376  0.03948814  0.40048766  1
  O2-  O272  1  0.91828747  0.04808642  0.74084073  1
  O2-  O273  1  0.91587416  0.53739492  0.06981734  1
  O2-  O274  1  0.91810668  0.54814560  0.39838221  1
  O2-  O275  1  0.91373384  0.54276385  0.72692275  1
  O2-  O276  1  0.30080066  0.16646191  0.06419712  1
  O2-  O277  1  0.30782364  0.17101597  0.39198786  1
  O2-  O278  1  0.29540391  0.17466325  0.72923721  1
  O2-  O279  1  0.30279594  0.66713555  0.06206747  1
  O2-  O280  1  0.29723006  0.66158126  0.39453276  1
  O2-  O281  1  0.29288832  0.66625104  0.73607780  1
  O2-  O282  1  0.78723981  0.16613843  0.06532918  1
  O2-  O283  1  0.78406633  0.16200776  0.40159657  1
  O2-  O284  1  0.79108881  0.17250473  0.73663657  1
  O2-  O285  1  0.78808350  0.66354010  0.07207393  1
  O2-  O286  1  0.79369082  0.66473789  0.40060706  1
  O2-  O287  1  0.78894404  0.65871386  0.72920860  1
