# generated using pymatgen
data_Ca2Al2SiO7
_symmetry_space_group_name_H-M   'P 1'
_cell_length_a   15.46674830
_cell_length_b   15.46759083
_cell_length_c   15.28987769
_cell_angle_alpha   90.00833554
_cell_angle_beta   89.99019182
_cell_angle_gamma   89.98760329
_symmetry_Int_Tables_number   1
_chemical_formula_structural   Ca2Al2SiO7
_chemical_formula_sum   'Ca48 Al48 Si24 O168'
_cell_volume   3657.84824306
_cell_formula_units_Z   24
loop_
 _symmetry_equiv_pos_site_id
 _symmetry_equiv_pos_as_xyz
  1  'x, y, z'
loop_
 _atom_type_symbol
 _atom_type_oxidation_number
  Ca2+  2.0
  Al0+  0.0
  Si0+  0.0
  O2-  -2.0
loop_
 _atom_site_type_symbol
 _atom_site_label
 _atom_site_symmetry_multiplicity
 _atom_site_fract_x
 _atom_site_fract_y
 _atom_site_fract_z
 _atom_site_occupancy
  Ca2+  Ca0  1  0.16642626  0.07316815  0.17039386  1
  Ca2+  Ca1  1  0.16588747  0.07469709  0.50526420  1
  Ca2+  Ca2  1  0.15566360  0.07740156  0.83601734  1
  Ca2+  Ca3  1  0.17275799  0.58373968  0.17401654  1
  Ca2+  Ca4  1  0.18026124  0.57925740  0.50866974  1
  Ca2+  Ca5  1  0.16689426  0.57602948  0.82884246  1
  Ca2+  Ca6  1  0.67435786  0.08246694  0.16832334  1
  Ca2+  Ca7  1  0.67387915  0.08557247  0.50940287  1
  Ca2+  Ca8  1  0.68065802  0.09423323  0.83351496  1
  Ca2+  Ca9  1  0.66727109  0.57754239  0.17545185  1
  Ca2+  Ca10  1  0.65894452  0.57517113  0.50650636  1
  Ca2+  Ca11  1  0.66351036  0.58009100  0.82980150  1
  Ca2+  Ca12  1  0.07139513  0.32705261  0.15564610  1
  Ca2+  Ca13  1  0.07470225  0.33865281  0.49680288  1
  Ca2+  Ca14  1  0.07669422  0.32138226  0.82091802  1
  Ca2+  Ca15  1  0.08553057  0.83709030  0.16082072  1
  Ca2+  Ca16  1  0.08308213  0.84199231  0.50242196  1
  Ca2+  Ca17  1  0.07605470  0.84427658  0.82949626  1
  Ca2+  Ca18  1  0.58314776  0.33562940  0.16793989  1
  Ca2+  Ca19  1  0.58485192  0.33413617  0.50334364  1
  Ca2+  Ca20  1  0.57989419  0.32995935  0.81992161  1
  Ca2+  Ca21  1  0.56794970  0.83249095  0.16343636  1
  Ca2+  Ca22  1  0.57759368  0.81736718  0.49127496  1
  Ca2+  Ca23  1  0.57512730  0.82915604  0.82537014  1
  Ca2+  Ca24  1  0.33007925  0.42449325  0.17540131  1
  Ca2+  Ca25  1  0.33477482  0.42616918  0.51195743  1
  Ca2+  Ca26  1  0.33465096  0.41779512  0.82806730  1
  Ca2+  Ca27  1  0.32623181  0.91621864  0.17649899  1
  Ca2+  Ca28  1  0.32460768  0.91493082  0.50252324  1
  Ca2+  Ca29  1  0.32169381  0.91429111  0.83942736  1
  Ca2+  Ca30  1  0.82972824  0.41048610  0.17481363  1
  Ca2+  Ca31  1  0.82570897  0.40853478  0.50575883  1
  Ca2+  Ca32  1  0.82895186  0.40388229  0.83370539  1
  Ca2+  Ca33  1  0.84098771  0.92384170  0.16616532  1
  Ca2+  Ca34  1  0.83405695  0.92369118  0.51317614  1
  Ca2+  Ca35  1  0.84112750  0.92784043  0.83755672  1
  Ca2+  Ca36  1  0.41616784  0.16175933  0.16568315  1
  Ca2+  Ca37  1  0.41704602  0.16914001  0.49833866  1
  Ca2+  Ca38  1  0.42687447  0.17179985  0.82077006  1
  Ca2+  Ca39  1  0.41440479  0.67475687  0.16857745  1
  Ca2+  Ca40  1  0.42143352  0.66229457  0.49429738  1
  Ca2+  Ca41  1  0.41780843  0.66996381  0.82673778  1
  Ca2+  Ca42  1  0.92079568  0.17348634  0.15830426  1
  Ca2+  Ca43  1  0.92194888  0.17309909  0.50520469  1
  Ca2+  Ca44  1  0.92309491  0.16780017  0.82789404  1
  Ca2+  Ca45  1  0.92070162  0.67444524  0.16004430  1
  Ca2+  Ca46  1  0.91692726  0.67348171  0.49976459  1
  Ca2+  Ca47  1  0.91488104  0.68204288  0.82777527  1
  Al0+  Al48  1  0.00007758  0.00086898  0.00461015  1
  Al0+  Al49  1  0.00026901  0.00221260  0.33700576  1
  Al0+  Al50  1  -0.00159532  0.00221350  0.66541199  1
  Al0+  Al51  1  -0.00222116  0.50097693  -0.00247018  1
  Al0+  Al52  1  -0.00307180  0.50234476  0.32719031  1
  Al0+  Al53  1  -0.00008453  0.50345378  0.66700907  1
  Al0+  Al54  1  0.50059018  -0.00114553  -0.00596016  1
  Al0+  Al55  1  0.50142616  0.00024543  0.33244443  1
  Al0+  Al56  1  0.49976108  -0.00145595  0.66179085  1
  Al0+  Al57  1  0.50078220  0.49986599  0.00291599  1
  Al0+  Al58  1  0.50160637  0.49779750  0.33524402  1
  Al0+  Al59  1  0.50145453  0.50068166  0.67046315  1
  Al0+  Al60  1  0.25044700  0.25071061  -0.00193898  1
  Al0+  Al61  1  0.24948143  0.24780440  0.33362296  1
  Al0+  Al62  1  0.25081377  0.24878686  0.66212216  1
  Al0+  Al63  1  0.25110353  0.74876828  -0.00049717  1
  Al0+  Al64  1  0.24867749  0.74919989  0.33879335  1
  Al0+  Al65  1  0.24821866  0.75054944  0.67672927  1
  Al0+  Al66  1  0.74836654  0.24911887  0.00493175  1
  Al0+  Al67  1  0.74988319  0.24988660  0.33279885  1
  Al0+  Al68  1  0.75120356  0.24986501  0.66826257  1
  Al0+  Al69  1  0.74882105  0.74790483  -0.00144807  1
  Al0+  Al70  1  0.75067541  0.74899037  0.32737388  1
  Al0+  Al71  1  0.74819147  0.75037524  0.65877754  1
  Al0+  Al72  1  0.42969296  0.32093342  0.65153746  1
  Al0+  Al73  1  0.81853808  0.06972002  0.68053746  1
  Al0+  Al74  1  0.68153084  0.42921710  0.34851411  1
  Al0+  Al75  1  0.07171079  0.17993072  0.98559737  1
  Al0+  Al76  1  0.93000787  0.82027317  0.98808110  1
  Al0+  Al77  1  0.31984861  0.56851051  0.34601691  1
  Al0+  Al78  1  0.92590630  0.32187610  0.98440725  1
  Al0+  Al79  1  0.81916649  0.06941494  0.01572545  1
  Al0+  Al80  1  0.93027198  0.32372511  0.65166173  1
  Al0+  Al81  1  0.07244386  0.17788499  0.64984293  1
  Al0+  Al82  1  0.57269602  0.17782828  0.65105799  1
  Al0+  Al83  1  0.17628618  0.42618017  0.68045594  1
  Al0+  Al84  1  0.57149675  0.67521972  0.31595486  1
  Al0+  Al85  1  0.93042094  0.82145171  0.65335197  1
  Al0+  Al86  1  0.42828682  0.82052378  0.98496396  1
  Al0+  Al87  1  0.32434075  0.07247478  0.34883266  1
  Al0+  Al88  1  0.92948282  0.31999353  0.31872367  1
  Al0+  Al89  1  0.18085130  0.93034563  0.01404216  1
  Al0+  Al90  1  0.56914386  0.68030798  0.65341923  1
  Al0+  Al91  1  0.42796783  0.82051141  0.31981745  1
  Al0+  Al92  1  0.18028930  0.93260520  0.68307208  1
  Al0+  Al93  1  0.32220471  0.57005453  0.68429396  1
  Al0+  Al94  1  0.17853292  0.92940099  0.35031895  1
  Al0+  Al95  1  0.68290571  0.43115829  0.68139765  1
  Si0+  Si96  1  0.07392814  0.67669098  0.98249751  1
  Si0+  Si97  1  0.07327568  0.67915390  0.64974370  1
  Si0+  Si98  1  0.67678828  0.92536460  0.68148329  1
  Si0+  Si99  1  0.17736040  0.42819082  0.01461212  1
  Si0+  Si100  1  0.57056382  0.67588508  0.98283247  1
  Si0+  Si101  1  0.68027476  0.43038964  0.01639871  1
  Si0+  Si102  1  0.32588631  0.07331632  0.01415311  1
  Si0+  Si103  1  0.81937659  0.06978480  0.34922385  1
  Si0+  Si104  1  0.17507746  0.42787915  0.34547398  1
  Si0+  Si105  1  0.32110970  0.56853270  0.01668720  1
  Si0+  Si106  1  0.67600702  0.92487234  0.01645416  1
  Si0+  Si107  1  0.06992733  0.68010782  0.31926463  1
  Si0+  Si108  1  0.57210998  0.17888250  0.31669903  1
  Si0+  Si109  1  0.82163673  0.57409243  0.01549365  1
  Si0+  Si110  1  0.92906645  0.82381797  0.31847642  1
  Si0+  Si111  1  0.82337058  0.57454667  0.34995776  1
  Si0+  Si112  1  0.32566607  0.07240398  0.68368423  1
  Si0+  Si113  1  0.56980324  0.17910729  0.98701361  1
  Si0+  Si114  1  0.07255583  0.17707389  0.31512872  1
  Si0+  Si115  1  0.82250009  0.57678448  0.68347171  1
  Si0+  Si116  1  0.67955599  0.92713263  0.34646258  1
  Si0+  Si117  1  0.42804658  0.32014330  0.31813251  1
  Si0+  Si118  1  0.42406571  0.82134175  0.65011082  1
  Si0+  Si119  1  0.42979951  0.32324068  0.98747211  1
  O2-  O120  1  0.25726313  0.00468498  0.05849763  1
  O2-  O121  1  0.25248308  0.00043650  0.39844574  1
  O2-  O122  1  0.25565380  0.00663277  0.73003313  1
  O2-  O123  1  0.24776500  0.49942539  0.05854028  1
  O2-  O124  1  0.24734836  0.49119550  0.39073587  1
  O2-  O125  1  0.25059077  0.49582241  0.73221316  1
  O2-  O126  1  0.74634137  -0.00835702  0.06210942  1
  O2-  O127  1  0.75249933  -0.00525238  0.39037765  1
  O2-  O128  1  0.74181062  -0.00369737  0.72728256  1
  O2-  O129  1  0.75435655  0.49883277  0.05741127  1
  O2-  O130  1  0.75421975  0.50666057  0.39336524  1
  O2-  O131  1  0.75980088  0.50324639  0.72927120  1
  O2-  O132  1  0.00742980  0.24947937  0.27149952  1
  O2-  O133  1  0.00791447  0.25792871  0.60127147  1
  O2-  O134  1  0.00163347  0.25394716  0.93623737  1
  O2-  O135  1  0.00090438  0.75336929  0.27704644  1
  O2-  O136  1  0.00432425  0.74719657  0.60472429  1
  O2-  O137  1  0.00542541  0.74669729  0.94057573  1
  O2-  O138  1  0.49677453  0.24650479  0.27491324  1
  O2-  O139  1  0.49866092  0.24678143  0.59999055  1
  O2-  O140  1  0.49517655  0.24681849  0.94715463  1
  O2-  O141  1  0.50006688  0.74871368  0.26772239  1
  O2-  O142  1  0.49347343  0.75346515  0.60671458  1
  O2-  O143  1  0.50483622  0.74716739  0.93932938  1
  O2-  O144  1  0.07129206  0.18190736  0.09971477  1
  O2-  O145  1  0.07038535  0.17518558  0.42006057  1
  O2-  O146  1  0.06653092  0.17511730  0.76330528  1
  O2-  O147  1  0.07343694  0.67528283  0.08880105  1
  O2-  O148  1  0.06749951  0.67630727  0.42363052  1
  O2-  O149  1  0.07200475  0.67930076  0.75543233  1
  O2-  O150  1  0.57052949  0.17955831  0.09260930  1
  O2-  O151  1  0.57607783  0.17994158  0.42088556  1
  O2-  O152  1  0.57238042  0.18114297  0.76546564  1
  O2-  O153  1  0.56832091  0.67275251  0.08818451  1
  O2-  O154  1  0.57120409  0.67620557  0.42914478  1
  O2-  O155  1  0.56962100  0.68316915  0.76707581  1
  O2-  O156  1  0.17672608  0.43140144  0.23905815  1
  O2-  O157  1  0.17548082  0.43294736  0.56651841  1
  O2-  O158  1  0.17907360  0.42855286  0.91034840  1
  O2-  O159  1  0.17658359  0.93001399  0.23636279  1
  O2-  O160  1  0.18113631  0.93156383  0.57021818  1
  O2-  O161  1  0.18038577  0.93138732  0.90144990  1
  O2-  O162  1  0.68289672  0.42817820  0.23440462  1
  O2-  O163  1  0.68283817  0.43185320  0.56855689  1
  O2-  O164  1  0.67708896  0.43074269  0.91191967  1
  O2-  O165  1  0.68037216  0.93033147  0.24106697  1
  O2-  O166  1  0.68104022  0.92472498  0.57557988  1
  O2-  O167  1  0.67472167  0.92497672  0.91133747  1
  O2-  O168  1  0.43201951  0.32648055  0.09299320  1
  O2-  O169  1  0.42910469  0.32176605  0.42225091  1
  O2-  O170  1  0.43378493  0.31988260  0.76625345  1
  O2-  O171  1  0.42772422  0.81939400  0.09798453  1
  O2-  O172  1  0.43015357  0.81876953  0.43289814  1
  O2-  O173  1  0.42628894  0.82088066  0.75618579  1
  O2-  O174  1  0.92620436  0.31987961  0.09863957  1
  O2-  O175  1  0.92890255  0.31962411  0.43103421  1
  O2-  O176  1  0.92852078  0.31938339  0.76498508  1
  O2-  O177  1  0.93152125  0.81778162  0.10180582  1
  O2-  O178  1  0.92718654  0.82336667  0.42319916  1
  O2-  O179  1  0.93074450  0.82105816  0.76651615  1
  O2-  O180  1  0.32284451  0.07155349  0.23449003  1
  O2-  O181  1  0.32780664  0.06792578  0.57840499  1
  O2-  O182  1  0.32964341  0.07326959  0.90921864  1
  O2-  O183  1  0.31695643  0.56798122  0.23191737  1
  O2-  O184  1  0.32132859  0.57048315  0.57059294  1
  O2-  O185  1  0.32457402  0.56635363  0.91239998  1
  O2-  O186  1  0.81861557  0.06923319  0.24373078  1
  O2-  O187  1  0.81783009  0.06763515  0.56682457  1
  O2-  O188  1  0.81679108  0.07077331  0.90333011  1
  O2-  O189  1  0.82467581  0.57439070  0.24390534  1
  O2-  O190  1  0.81948104  0.58000138  0.57801380  1
  O2-  O191  1  0.81944553  0.57943241  0.91123259  1
  O2-  O192  1  0.04040284  0.08504854  0.26853892  1
  O2-  O193  1  0.03241120  0.08470087  0.59432847  1
  O2-  O194  1  0.03950490  0.08195863  0.93601806  1
  O2-  O195  1  0.04073947  0.59088922  0.26596113  1
  O2-  O196  1  0.04878663  0.58653826  0.60192813  1
  O2-  O197  1  0.04696557  0.58398321  0.93593815  1
  O2-  O198  1  0.54863534  0.08652726  0.26773596  1
  O2-  O199  1  0.54951881  0.07764922  0.59875141  1
  O2-  O200  1  0.54863331  0.08716837  0.93772201  1
  O2-  O201  1  0.54241117  0.57652857  0.26350360  1
  O2-  O202  1  0.53914891  0.58351060  0.60145680  1
  O2-  O203  1  0.54092340  0.58317780  0.93654017  1
  O2-  O204  1  0.16802587  0.19681575  0.26992776  1
  O2-  O205  1  0.17409133  0.19334758  0.59999684  1
  O2-  O206  1  0.17178041  0.20409089  0.93356393  1
  O2-  O207  1  0.16187439  0.70636813  0.27140327  1
  O2-  O208  1  0.16695061  0.70753663  0.60594069  1
  O2-  O209  1  0.16776143  0.69956651  0.93750748  1
  O2-  O210  1  0.66116248  0.21211571  0.26626087  1
  O2-  O211  1  0.66961779  0.20977957  0.59863292  1
  O2-  O212  1  0.65969666  0.21248875  0.94065246  1
  O2-  O213  1  0.67108537  0.70212962  0.26300801  1
  O2-  O214  1  0.66373096  0.71009629  0.59529748  1
  O2-  O215  1  0.66547783  0.69706185  0.93847628  1
  O2-  O216  1  0.08457365  0.45606451  0.06130039  1
  O2-  O217  1  0.08227840  0.45861427  0.38929762  1
  O2-  O218  1  0.07944986  0.45968842  0.73544277  1
  O2-  O219  1  0.08524030  0.96080076  0.07033630  1
  O2-  O220  1  0.08015231  0.96016222  0.40324885  1
  O2-  O221  1  0.08285996  0.96527028  0.73382863  1
  O2-  O222  1  0.58953685  0.46126115  0.06596798  1
  O2-  O223  1  0.58402470  0.45595855  0.40111191  1
  O2-  O224  1  0.58799979  0.46399212  0.73767136  1
  O2-  O225  1  0.58341121  0.95582249  0.06283877  1
  O2-  O226  1  0.58897518  0.95576305  0.39405887  1
  O2-  O227  1  0.58088112  0.94644190  0.72474620  1
  O2-  O228  1  0.20612405  0.33699933  0.06352775  1
  O2-  O229  1  0.19368859  0.33187153  0.38730418  1
  O2-  O230  1  0.20289444  0.32626087  0.73121627  1
  O2-  O231  1  0.20956421  0.83122113  0.06582992  1
  O2-  O232  1  0.20271661  0.83033505  0.40297488  1
  O2-  O233  1  0.20688528  0.83585738  0.73904339  1
  O2-  O234  1  0.70433623  0.33829202  0.06560548  1
  O2-  O235  1  0.71379431  0.33256314  0.40097535  1
  O2-  O236  1  0.71124903  0.33421762  0.73620378  1
  O2-  O237  1  0.69840567  0.83008348  0.06198914  1
  O2-  O238  1  0.70525744  0.83349145  0.39099612  1
  O2-  O239  1  0.70436076  0.83257707  0.72770666  1
  O2-  O240  1  0.46013663  0.40976115  0.26840591  1
  O2-  O241  1  0.46276923  0.41861530  0.60133348  1
  O2-  O242  1  0.46416883  0.41227380  0.93920417  1
  O2-  O243  1  0.45863005  0.91881128  0.26592233  1
  O2-  O244  1  0.44733470  0.91494036  0.60412229  1
  O2-  O245  1  0.45780887  0.91668706  0.92945019  1
  O2-  O246  1  0.95398954  0.41884457  0.26418875  1
  O2-  O247  1  0.94992982  0.42574079  0.60134358  1
  O2-  O248  1  0.94549852  0.42376660  0.93604815  1
  O2-  O249  1  0.95707988  0.91626593  0.27214071  1
  O2-  O250  1  0.96179570  0.91627520  0.59782935  1
  O2-  O251  1  0.96009940  0.91737844  0.93682246  1
  O2-  O252  1  0.33505223  0.29624895  0.26940476  1
  O2-  O253  1  0.33051053  0.29937783  0.59837146  1
  O2-  O254  1  0.33635010  0.30287018  0.94137505  1
  O2-  O255  1  0.32881350  0.78980193  0.26840999  1
  O2-  O256  1  0.32986645  0.79416594  0.60782558  1
  O2-  O257  1  0.33312407  0.78656916  0.93081617  1
  O2-  O258  1  0.83392647  0.28437181  0.26466708  1
  O2-  O259  1  0.83403764  0.28769243  0.59958274  1
  O2-  O260  1  0.82686076  0.28982850  0.93594950  1
  O2-  O261  1  0.83835311  0.79658168  0.26845015  1
  O2-  O262  1  0.83477880  0.79109819  0.59718645  1
  O2-  O263  1  0.83259102  0.78979037  0.93540347  1
  O2-  O264  1  0.42002163  0.04758559  0.06044045  1
  O2-  O265  1  0.42495258  0.04859814  0.39921382  1
  O2-  O266  1  0.41979740  0.04569211  0.72998565  1
  O2-  O267  1  0.41176231  0.53753945  0.06565093  1
  O2-  O268  1  0.41652499  0.53813635  0.39815528  1
  O2-  O269  1  0.41927388  0.54094457  0.73942902  1
  O2-  O270  1  0.91441658  0.03880468  0.07249042  1
  O2-  O271  1  0.91179850  0.04571069  0.39591462  1
  O2-  O272  1  0.91312023  0.03529177  0.73464022  1
  O2-  O273  1  0.91550091  0.55151743  0.06259510  1
  O2-  O274  1  0.91734709  0.54957001  0.39522091  1
  O2-  O275  1  0.91850986  0.56040149  0.72728657  1
  O2-  O276  1  0.30256463  0.16840824  0.05999105  1
  O2-  O277  1  0.29841040  0.17235536  0.40040098  1
  O2-  O278  1  0.30589253  0.16840598  0.72643087  1
  O2-  O279  1  0.29349126  0.66056856  0.06345728  1
  O2-  O280  1  0.28773728  0.66289470  0.40145420  1
  O2-  O281  1  0.29092159  0.66650844  0.73969732  1
  O2-  O282  1  0.78308795  0.16398658  0.07259366  1
  O2-  O283  1  0.78558039  0.15953954  0.39514614  1
  O2-  O284  1  0.78781795  0.16509078  0.73619959  1
  O2-  O285  1  0.79070041  0.66350602  0.06721948  1
  O2-  O286  1  0.80021199  0.66970285  0.39414649  1
  O2-  O287  1  0.78865374  0.66815180  0.73049499  1
