# generated using pymatgen
data_Ca2Al2SiO7
_symmetry_space_group_name_H-M   'P 1'
_cell_length_a   15.46595860
_cell_length_b   15.46485633
_cell_length_c   15.28904973
_cell_angle_alpha   89.99028128
_cell_angle_beta   89.99392369
_cell_angle_gamma   90.01504200
_symmetry_Int_Tables_number   1
_chemical_formula_structural   Ca2Al2SiO7
_chemical_formula_sum   'Ca48 Al48 Si24 O168'
_cell_volume   3656.81679360
_cell_formula_units_Z   24
loop_
 _symmetry_equiv_pos_site_id
 _symmetry_equiv_pos_as_xyz
  1  'x, y, z'
loop_
 _atom_type_symbol
 _atom_type_oxidation_number
  Ca2+  2.0
  Al0+  0.0
  Si0+  0.0
  O2-  -2.0
loop_
 _atom_site_type_symbol
 _atom_site_label
 _atom_site_symmetry_multiplicity
 _atom_site_fract_x
 _atom_site_fract_y
 _atom_site_fract_z
 _atom_site_occupancy
  Ca2+  Ca0  1  0.17383459  0.08166725  0.17615133  1
  Ca2+  Ca1  1  0.17538435  0.08963634  0.50406096  1
  Ca2+  Ca2  1  0.17271715  0.08648565  0.83095515  1
  Ca2+  Ca3  1  0.17943314  0.58938544  0.17029916  1
  Ca2+  Ca4  1  0.18040779  0.58946562  0.50426904  1
  Ca2+  Ca5  1  0.18153759  0.58949985  0.83715615  1
  Ca2+  Ca6  1  0.66770362  0.07066628  0.17323649  1
  Ca2+  Ca7  1  0.67036365  0.06952945  0.50812963  1
  Ca2+  Ca8  1  0.65617730  0.07108149  0.83491750  1
  Ca2+  Ca9  1  0.66126890  0.57389728  0.17214628  1
  Ca2+  Ca10  1  0.66502816  0.58164968  0.50052642  1
  Ca2+  Ca11  1  0.65514257  0.57921573  0.83986492  1
  Ca2+  Ca12  1  0.08391020  0.32712134  0.16703269  1
  Ca2+  Ca13  1  0.08273412  0.32153711  0.49460813  1
  Ca2+  Ca14  1  0.07968164  0.32870187  0.82478529  1
  Ca2+  Ca15  1  0.06764177  0.83535974  0.16428040  1
  Ca2+  Ca16  1  0.07374641  0.83675764  0.49277940  1
  Ca2+  Ca17  1  0.07477091  0.83754286  0.83338816  1
  Ca2+  Ca18  1  0.59363026  0.32759428  0.16141190  1
  Ca2+  Ca19  1  0.58774239  0.32639893  0.49859849  1
  Ca2+  Ca20  1  0.59132523  0.32086787  0.83147577  1
  Ca2+  Ca21  1  0.57662094  0.83329921  0.15889307  1
  Ca2+  Ca22  1  0.57715735  0.83771688  0.49761253  1
  Ca2+  Ca23  1  0.57872328  0.82713102  0.82848765  1
  Ca2+  Ca24  1  0.33880833  0.43226756  0.17168136  1
  Ca2+  Ca25  1  0.33673641  0.42966510  0.50367482  1
  Ca2+  Ca26  1  0.34115906  0.43120763  0.83557287  1
  Ca2+  Ca27  1  0.33890408  0.91927214  0.17437971  1
  Ca2+  Ca28  1  0.33992953  0.92309230  0.50437327  1
  Ca2+  Ca29  1  0.34487410  0.91820526  0.83307152  1
  Ca2+  Ca30  1  0.82166288  0.42418705  0.17364505  1
  Ca2+  Ca31  1  0.83067152  0.42075561  0.49680637  1
  Ca2+  Ca32  1  0.82693692  0.42014657  0.83958275  1
  Ca2+  Ca33  1  0.82207085  0.91249487  0.17410838  1
  Ca2+  Ca34  1  0.82451671  0.92026322  0.50217257  1
  Ca2+  Ca35  1  0.82068297  0.91953137  0.83679279  1
  Ca2+  Ca36  1  0.42397080  0.16745490  0.16228478  1
  Ca2+  Ca37  1  0.42095199  0.15838364  0.49720642  1
  Ca2+  Ca38  1  0.42895071  0.16403574  0.82692989  1
  Ca2+  Ca39  1  0.41792249  0.67561588  0.15913924  1
  Ca2+  Ca40  1  0.41796034  0.67475650  0.49636245  1
  Ca2+  Ca41  1  0.42440742  0.67132750  0.82676210  1
  Ca2+  Ca42  1  0.92066683  0.15722356  0.16767392  1
  Ca2+  Ca43  1  0.92562887  0.15088144  0.49467822  1
  Ca2+  Ca44  1  0.92030308  0.16450349  0.82316739  1
  Ca2+  Ca45  1  0.90477336  0.67752918  0.16649362  1
  Ca2+  Ca46  1  0.91621626  0.67154843  0.48931691  1
  Ca2+  Ca47  1  0.91168993  0.67656870  0.83149281  1
  Al0+  Al48  1  0.00234508  -0.00001513  -0.00533620  1
  Al0+  Al49  1  0.00073597  -0.00254232  0.32472123  1
  Al0+  Al50  1  0.00034268  0.00078560  0.66604785  1
  Al0+  Al51  1  0.00181715  0.49856558  0.00006954  1
  Al0+  Al52  1  0.00107443  0.49738270  0.33408266  1
  Al0+  Al53  1  -0.00047651  0.50004401  0.66641923  1
  Al0+  Al54  1  0.50096726  0.00160226  -0.00133955  1
  Al0+  Al55  1  0.49954876  0.00016675  0.33538569  1
  Al0+  Al56  1  0.49945335  0.00048860  0.66745405  1
  Al0+  Al57  1  0.49886210  0.49942148  0.00764547  1
  Al0+  Al58  1  0.49848597  0.49824406  0.34271063  1
  Al0+  Al59  1  0.50086438  0.50033073  0.66731312  1
  Al0+  Al60  1  0.25039252  0.25083227  -0.00045910  1
  Al0+  Al61  1  0.25085274  0.25014165  0.33065852  1
  Al0+  Al62  1  0.24824218  0.25089444  0.66800373  1
  Al0+  Al63  1  0.24749359  0.75323890  0.00160936  1
  Al0+  Al64  1  0.24961167  0.75144629  0.33319202  1
  Al0+  Al65  1  0.24891871  0.75121947  0.66897999  1
  Al0+  Al66  1  0.75352177  0.25031585  -0.00080953  1
  Al0+  Al67  1  0.75325688  0.24994938  0.33943369  1
  Al0+  Al68  1  0.75157290  0.25215052  0.66371604  1
  Al0+  Al69  1  0.74937871  0.75134306  -0.00597147  1
  Al0+  Al70  1  0.74760909  0.74735411  0.33658107  1
  Al0+  Al71  1  0.74933110  0.74924899  0.66613280  1
  Al0+  Al72  1  0.82362638  0.06873113  0.34595626  1
  Al0+  Al73  1  0.56946214  0.67695665  0.98754568  1
  Al0+  Al74  1  0.42997776  0.82151819  0.31901588  1
  Al0+  Al75  1  0.67886333  0.92945291  0.01421947  1
  Al0+  Al76  1  0.57132102  0.17944552  0.65136707  1
  Al0+  Al77  1  0.82111799  0.57117172  0.34722562  1
  Al0+  Al78  1  0.67772615  0.42702560  0.35128902  1
  Al0+  Al79  1  0.42827059  0.82050811  0.65029632  1
  Al0+  Al80  1  0.57248482  0.18096583  0.98833582  1
  Al0+  Al81  1  0.57202681  0.67661401  0.64903131  1
  Al0+  Al82  1  0.06989889  0.17990136  0.65200241  1
  Al0+  Al83  1  0.92688141  0.81815084  0.32029769  1
  Al0+  Al84  1  0.31961889  0.57205509  0.01491466  1
  Al0+  Al85  1  0.67664953  0.92777607  0.34793922  1
  Al0+  Al86  1  0.67823719  0.92814956  0.68428889  1
  Al0+  Al87  1  0.82209533  0.07146566  0.68165910  1
  Al0+  Al88  1  0.42688490  0.82266954  0.98509947  1
  Al0+  Al89  1  0.68038188  0.42832015  0.01251345  1
  Al0+  Al90  1  0.31912715  0.57315279  0.34863525  1
  Al0+  Al91  1  0.07097888  0.17942619  0.31743059  1
  Al0+  Al92  1  0.32115381  0.57210066  0.68183000  1
  Al0+  Al93  1  0.32000599  0.07146104  0.34550726  1
  Al0+  Al94  1  0.92779485  0.82088265  0.98437100  1
  Al0+  Al95  1  0.32015361  0.07166495  0.68148886  1
  Si0+  Si96  1  0.17895143  0.42658681  0.34990357  1
  Si0+  Si97  1  0.17619627  0.93109220  0.01638093  1
  Si0+  Si98  1  0.82334666  0.57099120  0.68243287  1
  Si0+  Si99  1  0.42952263  0.32150266  0.31904291  1
  Si0+  Si100  1  0.92756388  0.32355842  0.31379886  1
  Si0+  Si101  1  0.42809734  0.32204602  0.65084881  1
  Si0+  Si102  1  0.17772839  0.92879936  0.34821208  1
  Si0+  Si103  1  0.56956140  0.67493517  0.31732413  1
  Si0+  Si104  1  0.92799627  0.32482139  0.64736611  1
  Si0+  Si105  1  0.92961637  0.82036132  0.65110741  1
  Si0+  Si106  1  0.07303152  0.17956966  0.98307312  1
  Si0+  Si107  1  0.17727765  0.42964279  0.68336580  1
  Si0+  Si108  1  0.32049739  0.07136726  0.01480713  1
  Si0+  Si109  1  0.07183180  0.67745435  0.98365816  1
  Si0+  Si110  1  0.17685491  0.42624002  0.01786008  1
  Si0+  Si111  1  0.82439344  0.57220524  0.01417268  1
  Si0+  Si112  1  0.82520346  0.07128009  0.01517510  1
  Si0+  Si113  1  0.07270095  0.67582939  0.31726468  1
  Si0+  Si114  1  0.67997006  0.42995132  0.68304303  1
  Si0+  Si115  1  0.93093943  0.32125577  0.98469778  1
  Si0+  Si116  1  0.07027795  0.67818599  0.65270653  1
  Si0+  Si117  1  0.42657131  0.32199191  0.98454513  1
  Si0+  Si118  1  0.57261312  0.18008280  0.31983781  1
  Si0+  Si119  1  0.17650105  0.92806778  0.68421781  1
  O2-  O120  1  0.25142421  -0.00154350  0.05717843  1
  O2-  O121  1  0.24627303  -0.00346089  0.39295915  1
  O2-  O122  1  0.24776836  -0.00558772  0.72845464  1
  O2-  O123  1  0.24426183  0.49635014  0.06100175  1
  O2-  O124  1  0.24239502  0.49948245  0.39449096  1
  O2-  O125  1  0.24616164  0.49699482  0.72878982  1
  O2-  O126  1  0.75579855  0.00360333  0.05871506  1
  O2-  O127  1  0.74974576  -0.00012038  0.39635110  1
  O2-  O128  1  0.74778729  0.00389190  0.73376179  1
  O2-  O129  1  0.75170590  0.50730331  0.05719966  1
  O2-  O130  1  0.74904443  0.50079306  0.39962492  1
  O2-  O131  1  0.74994313  0.50263386  0.72456498  1
  O2-  O132  1  -0.00599099  0.25188049  0.26981809  1
  O2-  O133  1  -0.00717815  0.25180658  0.60484377  1
  O2-  O134  1  0.00176034  0.25043456  0.94188123  1
  O2-  O135  1  -0.00108886  0.73932921  0.27383711  1
  O2-  O136  1  -0.00028764  0.74815922  0.60899192  1
  O2-  O137  1  0.00030885  0.74263014  0.93849515  1
  O2-  O138  1  0.50327017  0.25308521  0.27698485  1
  O2-  O139  1  0.49326873  0.25121533  0.60484510  1
  O2-  O140  1  0.49762650  0.25596343  0.94086093  1
  O2-  O141  1  0.50354756  0.74573141  0.27271621  1
  O2-  O142  1  0.50109919  0.74976405  0.59971315  1
  O2-  O143  1  0.49719873  0.74834428  0.93689163  1
  O2-  O144  1  0.07439950  0.17958980  0.08802434  1
  O2-  O145  1  0.07241849  0.18168614  0.43018319  1
  O2-  O146  1  0.06963295  0.18361879  0.76575448  1
  O2-  O147  1  0.07298987  0.67862320  0.08903474  1
  O2-  O148  1  0.07403703  0.67861767  0.42319223  1
  O2-  O149  1  0.06792007  0.67753892  0.75785570  1
  O2-  O150  1  0.57066786  0.18135401  0.10183138  1
  O2-  O151  1  0.56980395  0.18032002  0.42478937  1
  O2-  O152  1  0.57078607  0.18213032  0.76484245  1
  O2-  O153  1  0.56827438  0.67555093  0.10115437  1
  O2-  O154  1  0.56675640  0.67377869  0.42267244  1
  O2-  O155  1  0.56945157  0.67310885  0.76256721  1
  O2-  O156  1  0.18178081  0.42527156  0.24411885  1
  O2-  O157  1  0.17640009  0.43138282  0.57796422  1
  O2-  O158  1  0.17511742  0.42414767  0.91246746  1
  O2-  O159  1  0.17783054  0.93058427  0.24225928  1
  O2-  O160  1  0.17282427  0.92815585  0.57887060  1
  O2-  O161  1  0.17067636  0.93453640  0.91159914  1
  O2-  O162  1  0.67851385  0.42698558  0.23737853  1
  O2-  O163  1  0.68102107  0.42951845  0.57832044  1
  O2-  O164  1  0.68433016  0.42629396  0.89933097  1
  O2-  O165  1  0.67603223  0.92936263  0.23383758  1
  O2-  O166  1  0.68074114  0.92743482  0.57090521  1
  O2-  O167  1  0.67825414  0.93029933  0.90160837  1
  O2-  O168  1  0.42250300  0.31862097  0.09018729  1
  O2-  O169  1  0.42718778  0.32062223  0.42401648  1
  O2-  O170  1  0.43101235  0.32311509  0.75667646  1
  O2-  O171  1  0.42776856  0.82281187  0.09895568  1
  O2-  O172  1  0.42815952  0.82165903  0.43148649  1
  O2-  O173  1  0.42782092  0.81743250  0.76387186  1
  O2-  O174  1  0.93209947  0.32217094  0.08926561  1
  O2-  O175  1  0.93116286  0.32788768  0.41896905  1
  O2-  O176  1  0.93100366  0.32899093  0.75341842  1
  O2-  O177  1  0.92929408  0.82092892  0.09725902  1
  O2-  O178  1  0.93185970  0.81848117  0.43356986  1
  O2-  O179  1  0.93173090  0.81901199  0.75644091  1
  O2-  O180  1  0.31976989  0.07199414  0.23179482  1
  O2-  O181  1  0.31741504  0.07303120  0.56854814  1
  O2-  O182  1  0.31778197  0.07392560  0.90986314  1
  O2-  O183  1  0.31833513  0.57207837  0.23540845  1
  O2-  O184  1  0.31800909  0.57088888  0.56889330  1
  O2-  O185  1  0.31789187  0.56985983  0.90184452  1
  O2-  O186  1  0.82124616  0.06764812  0.23181254  1
  O2-  O187  1  0.82461560  0.06521029  0.56864047  1
  O2-  O188  1  0.82785254  0.07105774  0.90987410  1
  O2-  O189  1  0.81993054  0.56965678  0.23335383  1
  O2-  O190  1  0.82858468  0.56844499  0.57790384  1
  O2-  O191  1  0.82939518  0.56741770  0.90839770  1
  O2-  O192  1  0.04301599  0.08315056  0.26070095  1
  O2-  O193  1  0.04269008  0.08204208  0.59867544  1
  O2-  O194  1  0.04640858  0.08843357  0.93463353  1
  O2-  O195  1  0.05518103  0.57945667  0.27359522  1
  O2-  O196  1  0.04355136  0.58627801  0.60480452  1
  O2-  O197  1  0.05163833  0.58175097  0.93880432  1
  O2-  O198  1  0.54112686  0.08976416  0.27194899  1
  O2-  O199  1  0.54069163  0.08305970  0.59872254  1
  O2-  O200  1  0.53740291  0.08716104  0.93283947  1
  O2-  O201  1  0.54106625  0.58040769  0.27392035  1
  O2-  O202  1  0.54251603  0.57784087  0.59698648  1
  O2-  O203  1  0.54039277  0.57700222  0.93656361  1
  O2-  O204  1  0.16654046  0.21413848  0.26184114  1
  O2-  O205  1  0.16595786  0.21382000  0.59849689  1
  O2-  O206  1  0.16451298  0.20889605  0.93536736  1
  O2-  O207  1  0.16325430  0.70794544  0.26875017  1
  O2-  O208  1  0.16178184  0.70612723  0.60569376  1
  O2-  O209  1  0.16278900  0.70885732  0.93556718  1
  O2-  O210  1  0.66579313  0.20683189  0.27461813  1
  O2-  O211  1  0.66716462  0.21369961  0.59809174  1
  O2-  O212  1  0.66908143  0.21180071  0.93403978  1
  O2-  O213  1  0.66520735  0.69500591  0.27410492  1
  O2-  O214  1  0.67307225  0.70037251  0.59908242  1
  O2-  O215  1  0.66841283  0.70082141  0.93354216  1
  O2-  O216  1  0.08293127  0.44984361  0.06487459  1
  O2-  O217  1  0.08353007  0.44482807  0.39437486  1
  O2-  O218  1  0.08365522  0.45600034  0.73037132  1
  O2-  O219  1  0.08674385  0.96445008  0.06586711  1
  O2-  O220  1  0.08426539  0.95505172  0.39300902  1
  O2-  O221  1  0.08503167  0.95825263  0.73268611  1
  O2-  O222  1  0.58296961  0.45190870  0.06821068  1
  O2-  O223  1  0.57971284  0.45194703  0.40593659  1
  O2-  O224  1  0.58792422  0.45550703  0.73060276  1
  O2-  O225  1  0.58311309  0.96406418  0.06819398  1
  O2-  O226  1  0.58090921  0.96067953  0.40242075  1
  O2-  O227  1  0.57975697  0.95742288  0.73590791  1
  O2-  O228  1  0.20387726  0.33279673  0.06446109  1
  O2-  O229  1  0.21019768  0.33542368  0.39702838  1
  O2-  O230  1  0.20086871  0.33612700  0.73028026  1
  O2-  O231  1  0.19681351  0.83779877  0.06336254  1
  O2-  O232  1  0.19966315  0.83494509  0.39463405  1
  O2-  O233  1  0.19718900  0.83377903  0.73126451  1
  O2-  O234  1  0.71739093  0.33375307  0.06766653  1
  O2-  O235  1  0.70945591  0.33051027  0.40587070  1
  O2-  O236  1  0.71053129  0.33893758  0.73054265  1
  O2-  O237  1  0.70981853  0.83142926  0.06531560  1
  O2-  O238  1  0.70197003  0.82899897  0.39949261  1
  O2-  O239  1  0.71030619  0.82951819  0.73543528  1
  O2-  O240  1  0.45568731  0.41461955  0.27299133  1
  O2-  O241  1  0.45740061  0.41396964  0.60378837  1
  O2-  O242  1  0.45077519  0.41662174  0.94167631  1
  O2-  O243  1  0.46021262  0.91908152  0.26538935  1
  O2-  O244  1  0.45461224  0.92046048  0.60042210  1
  O2-  O245  1  0.45657268  0.92090301  0.93349127  1
  O2-  O246  1  0.95685916  0.41546475  0.26484640  1
  O2-  O247  1  0.95924268  0.41649551  0.59959588  1
  O2-  O248  1  0.95896758  0.41275781  0.93519940  1
  O2-  O249  1  0.96188365  0.91092416  0.26141326  1
  O2-  O250  1  0.96083548  0.91086262  0.60427007  1
  O2-  O251  1  0.96556276  0.91516916  0.92952712  1
  O2-  O252  1  0.33964975  0.29230954  0.26867105  1
  O2-  O253  1  0.33235640  0.30146266  0.60769908  1
  O2-  O254  1  0.33376599  0.29579798  0.93617518  1
  O2-  O255  1  0.33121621  0.79311948  0.26659494  1
  O2-  O256  1  0.32738305  0.79377882  0.60028912  1
  O2-  O257  1  0.32513133  0.80092556  0.93580507  1
  O2-  O258  1  0.83248201  0.30006186  0.26989258  1
  O2-  O259  1  0.83332053  0.30585292  0.60253236  1
  O2-  O260  1  0.84051706  0.29389470  0.93456871  1
  O2-  O261  1  0.82978246  0.78745061  0.26649814  1
  O2-  O262  1  0.83824320  0.79248276  0.60485446  1
  O2-  O263  1  0.83333426  0.79164786  0.92633727  1
  O2-  O264  1  0.41264889  0.04623639  0.06188501  1
  O2-  O265  1  0.41565989  0.04185279  0.39985970  1
  O2-  O266  1  0.41672087  0.04326015  0.73593153  1
  O2-  O267  1  0.41358775  0.53950822  0.07231637  1
  O2-  O268  1  0.41254389  0.53846985  0.40464905  1
  O2-  O269  1  0.41687056  0.53744349  0.73518520  1
  O2-  O270  1  0.91976032  0.04512887  0.05969396  1
  O2-  O271  1  0.92243352  0.03672273  0.39577089  1
  O2-  O272  1  0.92044210  0.04116507  0.73493229  1
  O2-  O273  1  0.91674760  0.54333585  0.06164440  1
  O2-  O274  1  0.92108835  0.54286722  0.39916920  1
  O2-  O275  1  0.91387375  0.54057990  0.73221788  1
  O2-  O276  1  0.29047691  0.16315092  0.06202354  1
  O2-  O277  1  0.28855771  0.16795485  0.39870504  1
  O2-  O278  1  0.28656688  0.16786244  0.73613460  1
  O2-  O279  1  0.28562487  0.66861206  0.06770012  1
  O2-  O280  1  0.28626633  0.66896553  0.40239707  1
  O2-  O281  1  0.28644824  0.66714158  0.73615987  1
  O2-  O282  1  0.80294790  0.16609877  0.05977754  1
  O2-  O283  1  0.80574772  0.16953024  0.39708991  1
  O2-  O284  1  0.80193034  0.17471745  0.72862955  1
  O2-  O285  1  0.80254681  0.66792222  0.05521428  1
  O2-  O286  1  0.79555617  0.66828489  0.40284685  1
  O2-  O287  1  0.79908343  0.66379363  0.72857099  1
