# generated using pymatgen
data_Ca2Al2SiO7
_symmetry_space_group_name_H-M   'P 1'
_cell_length_a   15.46355830
_cell_length_b   15.46196490
_cell_length_c   15.28723678
_cell_angle_alpha   90.00124324
_cell_angle_beta   90.01627459
_cell_angle_gamma   89.98523935
_symmetry_Int_Tables_number   1
_chemical_formula_structural   Ca2Al2SiO7
_chemical_formula_sum   'Ca48 Al48 Si24 O168'
_cell_volume   3655.13211659
_cell_formula_units_Z   24
loop_
 _symmetry_equiv_pos_site_id
 _symmetry_equiv_pos_as_xyz
  1  'x, y, z'
loop_
 _atom_type_symbol
 _atom_type_oxidation_number
  Ca2+  2.0
  Al0+  0.0
  Si0+  0.0
  O2-  -2.0
loop_
 _atom_site_type_symbol
 _atom_site_label
 _atom_site_symmetry_multiplicity
 _atom_site_fract_x
 _atom_site_fract_y
 _atom_site_fract_z
 _atom_site_occupancy
  Ca2+  Ca0  1  0.16874981  0.08276447  0.17467970  1
  Ca2+  Ca1  1  0.16704084  0.08739080  0.50352577  1
  Ca2+  Ca2  1  0.16699477  0.08427684  0.83723456  1
  Ca2+  Ca3  1  0.16319868  0.57088910  0.17046679  1
  Ca2+  Ca4  1  0.17621137  0.57710212  0.50589639  1
  Ca2+  Ca5  1  0.17333716  0.58379560  0.84190402  1
  Ca2+  Ca6  1  0.67601648  0.09351235  0.17039417  1
  Ca2+  Ca7  1  0.66789090  0.08431762  0.50618855  1
  Ca2+  Ca8  1  0.66338140  0.07796197  0.83937527  1
  Ca2+  Ca9  1  0.65904903  0.57822774  0.16816073  1
  Ca2+  Ca10  1  0.65291750  0.57098734  0.50079322  1
  Ca2+  Ca11  1  0.66705296  0.57317478  0.84302828  1
  Ca2+  Ca12  1  0.08844951  0.33142868  0.16266870  1
  Ca2+  Ca13  1  0.08583248  0.32366147  0.49237730  1
  Ca2+  Ca14  1  0.08228718  0.33140608  0.83025026  1
  Ca2+  Ca15  1  0.07592075  0.82324749  0.15688161  1
  Ca2+  Ca16  1  0.07520894  0.83357286  0.49887370  1
  Ca2+  Ca17  1  0.06952121  0.82899692  0.83289568  1
  Ca2+  Ca18  1  0.57957741  0.33384845  0.15927263  1
  Ca2+  Ca19  1  0.58492347  0.32838296  0.49122122  1
  Ca2+  Ca20  1  0.59417302  0.32572836  0.83180800  1
  Ca2+  Ca21  1  0.58448365  0.82140240  0.16385613  1
  Ca2+  Ca22  1  0.57409939  0.83177449  0.49381916  1
  Ca2+  Ca23  1  0.58495561  0.82643456  0.82616495  1
  Ca2+  Ca24  1  0.32705533  0.40496245  0.17074533  1
  Ca2+  Ca25  1  0.33503930  0.41818305  0.50105625  1
  Ca2+  Ca26  1  0.32895679  0.41800527  0.83917047  1
  Ca2+  Ca27  1  0.33305908  0.91547250  0.17255740  1
  Ca2+  Ca28  1  0.33738005  0.91403820  0.50715990  1
  Ca2+  Ca29  1  0.33619450  0.91689489  0.83485338  1
  Ca2+  Ca30  1  0.81973849  0.42190844  0.16831104  1
  Ca2+  Ca31  1  0.81971721  0.41741175  0.50264085  1
  Ca2+  Ca32  1  0.82273878  0.42060601  0.84167621  1
  Ca2+  Ca33  1  0.83701485  0.92671899  0.16855160  1
  Ca2+  Ca34  1  0.82489707  0.92074652  0.50566405  1
  Ca2+  Ca35  1  0.83439116  0.91954629  0.83735341  1
  Ca2+  Ca36  1  0.43110322  0.17755984  0.16415201  1
  Ca2+  Ca37  1  0.43261466  0.17226418  0.49267038  1
  Ca2+  Ca38  1  0.42836887  0.17536013  0.83242370  1
  Ca2+  Ca39  1  0.42751398  0.66659928  0.16636457  1
  Ca2+  Ca40  1  0.41775983  0.67394911  0.49578461  1
  Ca2+  Ca41  1  0.42094543  0.66679221  0.82945540  1
  Ca2+  Ca42  1  0.91662284  0.16319563  0.16507611  1
  Ca2+  Ca43  1  0.92586233  0.16270120  0.49480544  1
  Ca2+  Ca44  1  0.92001232  0.16458528  0.82978125  1
  Ca2+  Ca45  1  0.91873589  0.66897570  0.15169490  1
  Ca2+  Ca46  1  0.91050526  0.67460730  0.49826048  1
  Ca2+  Ca47  1  0.91432773  0.67040363  0.83369939  1
  Al0+  Al48  1  0.00054133  -0.00149762  0.00124631  1
  Al0+  Al49  1  0.00047726  0.00011146  0.33427279  1
  Al0+  Al50  1  0.00087610  -0.00197396  0.65895729  1
  Al0+  Al51  1  0.00172305  0.49849576  0.00213482  1
  Al0+  Al52  1  -0.00031517  0.49900871  0.34199321  1
  Al0+  Al53  1  0.00033290  0.49921041  0.66462240  1
  Al0+  Al54  1  0.49935258  0.00176921  0.00016631  1
  Al0+  Al55  1  0.49951446  0.00107731  0.32541094  1
  Al0+  Al56  1  0.50018428  0.00083821  0.66491837  1
  Al0+  Al57  1  0.49569017  0.50197069  -0.00461990  1
  Al0+  Al58  1  0.49709631  0.50165051  0.33120734  1
  Al0+  Al59  1  0.49800921  0.49892928  0.67717567  1
  Al0+  Al60  1  0.25239279  0.24883414  -0.00040849  1
  Al0+  Al61  1  0.24984362  0.24668011  0.33230143  1
  Al0+  Al62  1  0.25128119  0.24905650  0.66388034  1
  Al0+  Al63  1  0.24849667  0.75008356  -0.00150454  1
  Al0+  Al64  1  0.24688311  0.75014368  0.33123015  1
  Al0+  Al65  1  0.24940030  0.75003263  0.66915239  1
  Al0+  Al66  1  0.75189260  0.24905015  0.00353880  1
  Al0+  Al67  1  0.75545588  0.25128146  0.34057443  1
  Al0+  Al68  1  0.75340582  0.24974914  0.66647044  1
  Al0+  Al69  1  0.74851790  0.75225060  -0.00583575  1
  Al0+  Al70  1  0.74963667  0.75276920  0.32949366  1
  Al0+  Al71  1  0.74969981  0.74980297  0.66368083  1
  Al0+  Al72  1  0.67686390  0.43008594  0.01543639  1
  Al0+  Al73  1  0.57088317  0.67954306  0.31931473  1
  Al0+  Al74  1  0.57443299  0.18101155  0.98422144  1
  Al0+  Al75  1  0.31895690  0.57182147  0.68166082  1
  Al0+  Al76  1  0.42943542  0.82007171  0.65526590  1
  Al0+  Al77  1  0.82187755  0.06921043  0.01267158  1
  Al0+  Al78  1  0.42568249  0.82251909  0.31801253  1
  Al0+  Al79  1  0.67744679  0.92985661  0.67896796  1
  Al0+  Al80  1  0.57707432  0.18010568  0.31898068  1
  Al0+  Al81  1  0.07064896  0.67554305  0.98520861  1
  Al0+  Al82  1  0.42743275  0.32144878  0.98319465  1
  Al0+  Al83  1  0.42973921  0.32126700  0.32038014  1
  Al0+  Al84  1  0.92777696  0.81907416  0.65018309  1
  Al0+  Al85  1  0.18088165  0.42820250  0.01304211  1
  Al0+  Al86  1  0.57270064  0.18017424  0.65327125  1
  Al0+  Al87  1  0.56999270  0.67981163  0.98374781  1
  Al0+  Al88  1  0.82041507  0.57307026  0.01259047  1
  Al0+  Al89  1  0.06942155  0.17925100  0.31793256  1
  Al0+  Al90  1  0.17917104  0.42644609  0.34911202  1
  Al0+  Al91  1  0.68021543  0.42815575  0.68099032  1
  Al0+  Al92  1  0.67757315  0.43170687  0.34623676  1
  Al0+  Al93  1  0.82166065  0.07057329  0.34925900  1
  Al0+  Al94  1  0.92822547  0.82241355  0.98524254  1
  Al0+  Al95  1  0.07131331  0.18004722  0.65386749  1
  Si0+  Si96  1  0.42851039  0.32249961  0.65029011  1
  Si0+  Si97  1  0.92855438  0.32371153  0.64863052  1
  Si0+  Si98  1  0.17961234  0.92964952  0.01518378  1
  Si0+  Si99  1  0.57109869  0.67556926  0.65105550  1
  Si0+  Si100  1  0.32129781  0.07065551  0.01645544  1
  Si0+  Si101  1  0.67727987  0.92783620  0.34861095  1
  Si0+  Si102  1  0.17828568  0.42597650  0.68278600  1
  Si0+  Si103  1  0.92998047  0.32039274  0.98678026  1
  Si0+  Si104  1  0.32090098  0.07114594  0.68184685  1
  Si0+  Si105  1  0.92972350  0.82069636  0.31782283  1
  Si0+  Si106  1  0.67484062  0.92843645  0.01701951  1
  Si0+  Si107  1  0.42686730  0.82319676  0.98318242  1
  Si0+  Si108  1  0.92989651  0.32434734  0.31600659  1
  Si0+  Si109  1  0.82393640  0.06926170  0.68255977  1
  Si0+  Si110  1  0.06903417  0.67740500  0.32056722  1
  Si0+  Si111  1  0.32142578  0.06867817  0.34905156  1
  Si0+  Si112  1  0.32046856  0.57538124  0.01935339  1
  Si0+  Si113  1  0.17768619  0.92947802  0.68253119  1
  Si0+  Si114  1  0.82400045  0.57278206  0.68215290  1
  Si0+  Si115  1  0.07260529  0.67723545  0.64907546  1
  Si0+  Si116  1  0.31920957  0.57387664  0.34982870  1
  Si0+  Si117  1  0.82214817  0.57533944  0.34986113  1
  Si0+  Si118  1  0.07182613  0.17824331  0.98678365  1
  Si0+  Si119  1  0.17927326  0.92796714  0.34968093  1
  O2-  O120  1  0.25238347  -0.00257048  0.05904045  1
  O2-  O121  1  0.25395654  -0.00569275  0.39276763  1
  O2-  O122  1  0.24879863  0.00064093  0.72471565  1
  O2-  O123  1  0.25394821  0.50358479  0.06174683  1
  O2-  O124  1  0.25426802  0.50130514  0.39435709  1
  O2-  O125  1  0.24308592  0.49732885  0.72743473  1
  O2-  O126  1  0.74449958  -0.00278685  0.05978087  1
  O2-  O127  1  0.74153590  0.00057012  0.39361812  1
  O2-  O128  1  0.75222637  0.00444790  0.72690958  1
  O2-  O129  1  0.74534482  0.50612233  0.06497044  1
  O2-  O130  1  0.75001025  0.50978679  0.39326471  1
  O2-  O131  1  0.75499910  0.50427179  0.72514241  1
  O2-  O132  1  -0.00149225  0.25609907  0.27005932  1
  O2-  O133  1  -0.00071784  0.25607045  0.60588225  1
  O2-  O134  1  0.00096836  0.24850395  0.94442755  1
  O2-  O135  1  -0.00546383  0.74374990  0.27702843  1
  O2-  O136  1  0.00043415  0.74172269  0.60349976  1
  O2-  O137  1  -0.00439481  0.74510690  0.93630422  1
  O2-  O138  1  0.50863379  0.25649500  0.27079499  1
  O2-  O139  1  0.50177923  0.25855825  0.60709841  1
  O2-  O140  1  0.50621999  0.25657446  0.93356025  1
  O2-  O141  1  0.49957887  0.75273068  0.26925468  1
  O2-  O142  1  0.50419320  0.74652091  0.60749150  1
  O2-  O143  1  0.49601585  0.75623643  0.93824013  1
  O2-  O144  1  0.07222171  0.17748036  0.09167554  1
  O2-  O145  1  0.06891085  0.17820778  0.43111813  1
  O2-  O146  1  0.07066648  0.17949104  0.76751753  1
  O2-  O147  1  0.07130874  0.67849656  0.09949177  1
  O2-  O148  1  0.07013167  0.68124170  0.42577547  1
  O2-  O149  1  0.07289550  0.67878107  0.75425642  1
  O2-  O150  1  0.57324409  0.18066950  0.09742874  1
  O2-  O151  1  0.57277424  0.17888461  0.43303955  1
  O2-  O152  1  0.57047870  0.17876862  0.76601162  1
  O2-  O153  1  0.56850679  0.68119377  0.09677427  1
  O2-  O154  1  0.56892715  0.67995249  0.43323142  1
  O2-  O155  1  0.57024088  0.67724493  0.75647767  1
  O2-  O156  1  0.17850897  0.42835526  0.23610815  1
  O2-  O157  1  0.18064397  0.42517004  0.57723190  1
  O2-  O158  1  0.18153514  0.42609433  0.89975903  1
  O2-  O159  1  0.17777994  0.92896854  0.24444201  1
  O2-  O160  1  0.17766712  0.92924036  0.57719136  1
  O2-  O161  1  0.17867410  0.93251081  0.90994566  1
  O2-  O162  1  0.67891478  0.43221965  0.23373420  1
  O2-  O163  1  0.67929425  0.42984228  0.56755638  1
  O2-  O164  1  0.68307700  0.42839118  0.90175587  1
  O2-  O165  1  0.68209642  0.92326299  0.24338117  1
  O2-  O166  1  0.67775602  0.93126849  0.56570846  1
  O2-  O167  1  0.67286088  0.93031417  0.91117153  1
  O2-  O168  1  0.42384829  0.31485756  0.09630639  1
  O2-  O169  1  0.42981854  0.31871091  0.43451028  1
  O2-  O170  1  0.42321915  0.31857471  0.75530836  1
  O2-  O171  1  0.42552452  0.82245552  0.08858197  1
  O2-  O172  1  0.42479868  0.82049480  0.43185565  1
  O2-  O173  1  0.42937376  0.81967819  0.76813718  1
  O2-  O174  1  0.93080046  0.31988107  0.09165352  1
  O2-  O175  1  0.93224605  0.32338013  0.42178414  1
  O2-  O176  1  0.92934334  0.32378730  0.75450298  1
  O2-  O177  1  0.93491984  0.82537583  0.09916604  1
  O2-  O178  1  0.93144304  0.82059143  0.42311243  1
  O2-  O179  1  0.93141299  0.82173040  0.76256269  1
  O2-  O180  1  0.31705846  0.06782424  0.24392959  1
  O2-  O181  1  0.31941606  0.07044041  0.57677724  1
  O2-  O182  1  0.31894980  0.06987907  0.91093694  1
  O2-  O183  1  0.31490779  0.57849486  0.24481653  1
  O2-  O184  1  0.31767845  0.57208512  0.56829689  1
  O2-  O185  1  0.31669626  0.57831995  0.91357876  1
  O2-  O186  1  0.82579487  0.06601993  0.23622326  1
  O2-  O187  1  0.82491288  0.06680021  0.57694122  1
  O2-  O188  1  0.82704668  0.06731581  0.89969720  1
  O2-  O189  1  0.82670972  0.57429927  0.24483586  1
  O2-  O190  1  0.82541439  0.57151652  0.57626671  1
  O2-  O191  1  0.82070330  0.56827490  0.89877376  1
  O2-  O192  1  0.03840962  0.08194254  0.26491563  1
  O2-  O193  1  0.04178700  0.08416335  0.59778663  1
  O2-  O194  1  0.04422343  0.08659628  0.93926376  1
  O2-  O195  1  0.04527124  0.58315396  0.27705555  1
  O2-  O196  1  0.05266398  0.58157502  0.60414744  1
  O2-  O197  1  0.04715831  0.57632708  0.93210736  1
  O2-  O198  1  0.54612581  0.08340059  0.26469072  1
  O2-  O199  1  0.53679598  0.08582424  0.59852010  1
  O2-  O200  1  0.53988964  0.08276765  0.93322863  1
  O2-  O201  1  0.53940939  0.58331418  0.26467451  1
  O2-  O202  1  0.53978294  0.58227352  0.60771098  1
  O2-  O203  1  0.53785328  0.58462796  0.92845503  1
  O2-  O204  1  0.16685246  0.20609610  0.26476013  1
  O2-  O205  1  0.16847391  0.20819431  0.59866313  1
  O2-  O206  1  0.16302547  0.20544511  0.93848647  1
  O2-  O207  1  0.15815998  0.70867281  0.27094487  1
  O2-  O208  1  0.16383854  0.70912424  0.60214383  1
  O2-  O209  1  0.16717876  0.71012208  0.93159468  1
  O2-  O210  1  0.67877933  0.20362906  0.27243350  1
  O2-  O211  1  0.67175927  0.20568423  0.60187168  1
  O2-  O212  1  0.67469827  0.20459787  0.93230543  1
  O2-  O213  1  0.66942195  0.70748936  0.26528297  1
  O2-  O214  1  0.66551043  0.69642283  0.60549006  1
  O2-  O215  1  0.66588977  0.70923485  0.92809675  1
  O2-  O216  1  0.08437893  0.45586472  0.06874743  1
  O2-  O217  1  0.08354709  0.45715636  0.40606208  1
  O2-  O218  1  0.08212774  0.44712579  0.72567296  1
  O2-  O219  1  0.08993739  0.95987404  0.06506082  1
  O2-  O220  1  0.08942782  0.96022043  0.39844092  1
  O2-  O221  1  0.08634753  0.95999276  0.72912881  1
  O2-  O222  1  0.57542449  0.45609351  0.06232796  1
  O2-  O223  1  0.57973443  0.46101255  0.40015810  1
  O2-  O224  1  0.58383319  0.45513858  0.73641243  1
  O2-  O225  1  0.58117621  0.95275199  0.06385791  1
  O2-  O226  1  0.58051955  0.94930749  0.38996644  1
  O2-  O227  1  0.58148691  0.96066622  0.73445415  1
  O2-  O228  1  0.21212595  0.33081764  0.06672356  1
  O2-  O229  1  0.20983042  0.32877744  0.40139447  1
  O2-  O230  1  0.20618924  0.33269026  0.72884704  1
  O2-  O231  1  0.20502135  0.83699371  0.06245850  1
  O2-  O232  1  0.20191941  0.83477332  0.39740834  1
  O2-  O233  1  0.20491347  0.83846818  0.73092475  1
  O2-  O234  1  0.71041378  0.33304537  0.06762951  1
  O2-  O235  1  0.71331160  0.33756909  0.40270065  1
  O2-  O236  1  0.71537554  0.33219067  0.73447170  1
  O2-  O237  1  0.70077181  0.83451012  0.06115576  1
  O2-  O238  1  0.70729942  0.83606873  0.39731456  1
  O2-  O239  1  0.70780710  0.83167382  0.73043540  1
  O2-  O240  1  0.44577247  0.42230149  0.26926457  1
  O2-  O241  1  0.45007782  0.41875501  0.60875852  1
  O2-  O242  1  0.44255248  0.42322628  0.93398299  1
  O2-  O243  1  0.44914547  0.92107581  0.26404878  1
  O2-  O244  1  0.45788496  0.91679531  0.60047322  1
  O2-  O245  1  0.44949947  0.91827149  0.93897104  1
  O2-  O246  1  0.95466225  0.41916317  0.27261997  1
  O2-  O247  1  0.95101785  0.41763219  0.60132582  1
  O2-  O248  1  0.95964761  0.41023966  0.93724245  1
  O2-  O249  1  0.96572062  0.90965481  0.27108055  1
  O2-  O250  1  0.96365604  0.91282129  0.59351478  1
  O2-  O251  1  0.96668020  0.91744110  0.93047214  1
  O2-  O252  1  0.33415960  0.28412347  0.26752248  1
  O2-  O253  1  0.33682076  0.29288599  0.60204595  1
  O2-  O254  1  0.33240850  0.28293300  0.92765184  1
  O2-  O255  1  0.32654935  0.79409064  0.26550452  1
  O2-  O256  1  0.33129790  0.79130189  0.60233912  1
  O2-  O257  1  0.33276007  0.79842570  0.93746244  1
  O2-  O258  1  0.83690698  0.29712888  0.27116299  1
  O2-  O259  1  0.83679893  0.29533393  0.60083587  1
  O2-  O260  1  0.83963241  0.29128875  0.93782950  1
  O2-  O261  1  0.83648604  0.80120642  0.27094156  1
  O2-  O262  1  0.83147011  0.78985403  0.59375730  1
  O2-  O263  1  0.82889901  0.80298705  0.93200243  1
  O2-  O264  1  0.41308669  0.04478083  0.06458717  1
  O2-  O265  1  0.41510659  0.04437022  0.39488863  1
  O2-  O266  1  0.41102987  0.04131640  0.73050434  1
  O2-  O267  1  0.41518648  0.55244250  0.06263767  1
  O2-  O268  1  0.41346263  0.55187100  0.39555426  1
  O2-  O269  1  0.41349608  0.54207133  0.73939322  1
  O2-  O270  1  0.91795509  0.03634244  0.06878024  1
  O2-  O271  1  0.91699736  0.03330691  0.40350781  1
  O2-  O272  1  0.91721191  0.03894420  0.72718702  1
  O2-  O273  1  0.91823903  0.54207012  0.06557175  1
  O2-  O274  1  0.91342732  0.54773637  0.40081750  1
  O2-  O275  1  0.91875293  0.54838822  0.72732633  1
  O2-  O276  1  0.28867652  0.15985567  0.06468869  1
  O2-  O277  1  0.28870421  0.15780388  0.39815403  1
  O2-  O278  1  0.29155490  0.16249776  0.72976182  1
  O2-  O279  1  0.29292650  0.66849975  0.06584674  1
  O2-  O280  1  0.28735959  0.66568318  0.39805242  1
  O2-  O281  1  0.28704253  0.66769194  0.73724285  1
  O2-  O282  1  0.79584619  0.16604075  0.06853648  1
  O2-  O283  1  0.80138688  0.16860674  0.40502616  1
  O2-  O284  1  0.80538685  0.16538662  0.72563450  1
  O2-  O285  1  0.79887333  0.67518711  0.06083418  1
  O2-  O286  1  0.79934303  0.67101112  0.39371474  1
  O2-  O287  1  0.80009523  0.66720945  0.72621555  1
