# generated using pymatgen
data_Ca2Al2SiO7
_symmetry_space_group_name_H-M   'P 1'
_cell_length_a   15.45872448
_cell_length_b   15.45787234
_cell_length_c   15.28430557
_cell_angle_alpha   90.01145755
_cell_angle_beta   90.01010106
_cell_angle_gamma   90.00408525
_symmetry_Int_Tables_number   1
_chemical_formula_structural   Ca2Al2SiO7
_chemical_formula_sum   'Ca48 Al48 Si24 O168'
_cell_volume   3652.32207664
_cell_formula_units_Z   24
loop_
 _symmetry_equiv_pos_site_id
 _symmetry_equiv_pos_as_xyz
  1  'x, y, z'
loop_
 _atom_type_symbol
 _atom_type_oxidation_number
  Ca2+  2.0
  Al0+  0.0
  Si0+  0.0
  O2-  -2.0
loop_
 _atom_site_type_symbol
 _atom_site_label
 _atom_site_symmetry_multiplicity
 _atom_site_fract_x
 _atom_site_fract_y
 _atom_site_fract_z
 _atom_site_occupancy
  Ca2+  Ca0  1  0.16515271  0.07071893  0.17498645  1
  Ca2+  Ca1  1  0.16895174  0.08105661  0.50143393  1
  Ca2+  Ca2  1  0.17102937  0.07567680  0.83569828  1
  Ca2+  Ca3  1  0.16514163  0.58242743  0.17556524  1
  Ca2+  Ca4  1  0.15385675  0.57484914  0.50305742  1
  Ca2+  Ca5  1  0.15478934  0.57955198  0.83380633  1
  Ca2+  Ca6  1  0.67013945  0.07335991  0.17384630  1
  Ca2+  Ca7  1  0.67668821  0.07283052  0.50489541  1
  Ca2+  Ca8  1  0.67515682  0.07319988  0.83342903  1
  Ca2+  Ca9  1  0.66631047  0.58299296  0.17256393  1
  Ca2+  Ca10  1  0.67042154  0.58265553  0.51164417  1
  Ca2+  Ca11  1  0.67138356  0.58845137  0.82812808  1
  Ca2+  Ca12  1  0.08269574  0.32786832  0.17167616  1
  Ca2+  Ca13  1  0.07541769  0.33056183  0.49275989  1
  Ca2+  Ca14  1  0.07768502  0.33133331  0.82206342  1
  Ca2+  Ca15  1  0.09339822  0.82517941  0.16052671  1
  Ca2+  Ca16  1  0.08033070  0.82627142  0.49387159  1
  Ca2+  Ca17  1  0.08173329  0.82347795  0.82554954  1
  Ca2+  Ca18  1  0.57604237  0.32941804  0.15913560  1
  Ca2+  Ca19  1  0.58605444  0.33350497  0.49725858  1
  Ca2+  Ca20  1  0.57846338  0.33622430  0.82698755  1
  Ca2+  Ca21  1  0.57644895  0.84035935  0.16465848  1
  Ca2+  Ca22  1  0.58598427  0.82835576  0.49328337  1
  Ca2+  Ca23  1  0.58260477  0.83713241  0.82641830  1
  Ca2+  Ca24  1  0.32865564  0.41913557  0.17400786  1
  Ca2+  Ca25  1  0.31732774  0.41755121  0.50603804  1
  Ca2+  Ca26  1  0.32819583  0.41902296  0.83552231  1
  Ca2+  Ca27  1  0.32715995  0.90605367  0.17022788  1
  Ca2+  Ca28  1  0.32997546  0.91634281  0.49999354  1
  Ca2+  Ca29  1  0.33159891  0.91894157  0.83859614  1
  Ca2+  Ca30  1  0.83640955  0.41799334  0.17307461  1
  Ca2+  Ca31  1  0.83494253  0.42092301  0.51126033  1
  Ca2+  Ca32  1  0.83375963  0.42150286  0.82744353  1
  Ca2+  Ca33  1  0.82116025  0.91956096  0.17729898  1
  Ca2+  Ca34  1  0.82893440  0.92162858  0.50952249  1
  Ca2+  Ca35  1  0.82326569  0.90478861  0.83207345  1
  Ca2+  Ca36  1  0.41493826  0.17392240  0.16164237  1
  Ca2+  Ca37  1  0.41516783  0.16402890  0.49920507  1
  Ca2+  Ca38  1  0.41441768  0.16908928  0.82839721  1
  Ca2+  Ca39  1  0.42119123  0.67931693  0.16711526  1
  Ca2+  Ca40  1  0.43116516  0.67023766  0.49291152  1
  Ca2+  Ca41  1  0.42305746  0.67584431  0.82792172  1
  Ca2+  Ca42  1  0.91688032  0.16526127  0.17256661  1
  Ca2+  Ca43  1  0.90905228  0.17530759  0.49361499  1
  Ca2+  Ca44  1  0.91441385  0.17087807  0.82368441  1
  Ca2+  Ca45  1  0.92985011  0.66825782  0.16534713  1
  Ca2+  Ca46  1  0.92087159  0.66910413  0.50180117  1
  Ca2+  Ca47  1  0.92371127  0.67083924  0.82260536  1
  Al0+  Al48  1  -0.00005854  0.00037317  0.00320282  1
  Al0+  Al49  1  0.00038650  0.00187722  0.33772117  1
  Al0+  Al50  1  0.00220226  0.00025046  0.66739501  1
  Al0+  Al51  1  -0.00040326  0.49868165  -0.00163399  1
  Al0+  Al52  1  -0.00113176  0.49966800  0.32851778  1
  Al0+  Al53  1  -0.00155408  0.49766582  0.66902296  1
  Al0+  Al54  1  0.50135221  0.00235586  -0.00039585  1
  Al0+  Al55  1  0.49945887  0.00075391  0.33250182  1
  Al0+  Al56  1  0.49876984  0.00304341  0.67335682  1
  Al0+  Al57  1  0.49946763  0.49985543  -0.00334827  1
  Al0+  Al58  1  0.49940786  0.50145953  0.32935562  1
  Al0+  Al59  1  0.49665680  0.50045569  0.66579210  1
  Al0+  Al60  1  0.24864531  0.25090731  -0.00410191  1
  Al0+  Al61  1  0.24732429  0.25064786  0.33337869  1
  Al0+  Al62  1  0.24979548  0.25095792  0.67497500  1
  Al0+  Al63  1  0.25346536  0.74721632  -0.00701275  1
  Al0+  Al64  1  0.25327950  0.74943567  0.33293760  1
  Al0+  Al65  1  0.25167333  0.74821249  0.66117071  1
  Al0+  Al66  1  0.74984656  0.25092210  0.00044540  1
  Al0+  Al67  1  0.74822332  0.25114579  0.32929032  1
  Al0+  Al68  1  0.74737724  0.24891284  0.67078736  1
  Al0+  Al69  1  0.75167569  0.74833742  0.00847799  1
  Al0+  Al70  1  0.75137075  0.74673300  0.33183507  1
  Al0+  Al71  1  0.75055164  0.74905106  0.66722975  1
  Al0+  Al72  1  0.56958544  0.68007275  0.65450587  1
  Al0+  Al73  1  0.82106830  0.57070441  0.68182325  1
  Al0+  Al74  1  0.92755635  0.32093241  0.31762252  1
  Al0+  Al75  1  0.17960020  0.92620893  0.34687905  1
  Al0+  Al76  1  0.43124172  0.82268388  0.31879320  1
  Al0+  Al77  1  0.31953297  0.07033748  0.68072771  1
  Al0+  Al78  1  0.57473641  0.67778740  0.31690617  1
  Al0+  Al79  1  0.07186176  0.67784394  0.65022726  1
  Al0+  Al80  1  0.17841729  0.43158496  0.68151824  1
  Al0+  Al81  1  0.67797388  0.92730672  0.34914950  1
  Al0+  Al82  1  0.92918819  0.82302870  0.65201525  1
  Al0+  Al83  1  0.68033661  0.92804009  0.68139679  1
  Al0+  Al84  1  0.07011364  0.68077783  0.31977741  1
  Al0+  Al85  1  0.92787191  0.31691220  0.65443706  1
  Al0+  Al86  1  0.17897309  0.43035256  0.34618631  1
  Al0+  Al87  1  0.82053444  0.07251626  0.34852608  1
  Al0+  Al88  1  0.67961265  0.92905355  0.01591244  1
  Al0+  Al89  1  0.82412126  0.07163319  0.68201772  1
  Al0+  Al90  1  0.67545971  0.42820540  0.68094625  1
  Al0+  Al91  1  0.07141216  0.67909216  0.98569248  1
  Al0+  Al92  1  0.18148854  0.92780997  0.01154578  1
  Al0+  Al93  1  0.43156330  0.82170840  0.98432360  1
  Al0+  Al94  1  0.07256086  0.17718537  0.31848936  1
  Al0+  Al95  1  0.42791572  0.32151682  0.98483562  1
  Si0+  Si96  1  0.82257983  0.56866242  0.01766004  1
  Si0+  Si97  1  0.92737718  0.82223448  0.98669792  1
  Si0+  Si98  1  0.92842980  0.82377261  0.31708502  1
  Si0+  Si99  1  0.57445901  0.67803631  0.98311256  1
  Si0+  Si100  1  0.07030318  0.17733244  0.98407867  1
  Si0+  Si101  1  0.42888170  0.82615168  0.64956043  1
  Si0+  Si102  1  0.17781642  0.42886677  0.01637348  1
  Si0+  Si103  1  0.32099291  0.07386439  0.01711187  1
  Si0+  Si104  1  0.57248693  0.17996987  0.98118721  1
  Si0+  Si105  1  0.82215784  0.07562476  0.01882969  1
  Si0+  Si106  1  0.42696566  0.32112162  0.65042588  1
  Si0+  Si107  1  0.32261736  0.56923201  0.01544377  1
  Si0+  Si108  1  0.32263680  0.57250662  0.68380792  1
  Si0+  Si109  1  0.42736671  0.32115596  0.32035243  1
  Si0+  Si110  1  0.82140528  0.56855674  0.34720374  1
  Si0+  Si111  1  0.67612631  0.42971481  0.34518557  1
  Si0+  Si112  1  0.92881440  0.32027468  0.98342495  1
  Si0+  Si113  1  0.56886590  0.17953245  0.65162998  1
  Si0+  Si114  1  0.07503186  0.17822261  0.65153250  1
  Si0+  Si115  1  0.32131077  0.07404537  0.34784583  1
  Si0+  Si116  1  0.32335919  0.57160118  0.35074583  1
  Si0+  Si117  1  0.57010203  0.18020612  0.31845645  1
  Si0+  Si118  1  0.67825155  0.42931994  0.01562155  1
  Si0+  Si119  1  0.17893079  0.92448471  0.68246953  1
  O2-  O120  1  0.25575625  0.00253425  0.06128506  1
  O2-  O121  1  0.25336804  0.00405193  0.39048676  1
  O2-  O122  1  0.24753781  -0.00664483  0.72711962  1
  O2-  O123  1  0.24969935  0.49939311  0.05778999  1
  O2-  O124  1  0.25206349  0.50559903  0.39452414  1
  O2-  O125  1  0.24899619  0.50979627  0.72948026  1
  O2-  O126  1  0.75601865  0.00343508  0.06064438  1
  O2-  O127  1  0.75388802  -0.00441056  0.39804756  1
  O2-  O128  1  0.75714318  -0.00486722  0.73245509  1
  O2-  O129  1  0.74899277  0.49940462  0.05945475  1
  O2-  O130  1  0.74572503  0.50108476  0.38694551  1
  O2-  O131  1  0.74668537  0.50021111  0.73222124  1
  O2-  O132  1  -0.00182419  0.24711596  0.26778002  1
  O2-  O133  1  0.00011981  0.24005428  0.60801579  1
  O2-  O134  1  -0.00218217  0.24716719  0.94235362  1
  O2-  O135  1  0.00172765  0.76041320  0.27096579  1
  O2-  O136  1  0.00304878  0.75315501  0.60138815  1
  O2-  O137  1  -0.00063805  0.75731832  0.94201810  1
  O2-  O138  1  0.49787213  0.25065345  0.27666375  1
  O2-  O139  1  0.49969242  0.25240201  0.60762793  1
  O2-  O140  1  0.50203551  0.24713595  0.93701298  1
  O2-  O141  1  0.50701774  0.75429757  0.26821607  1
  O2-  O142  1  0.49866380  0.75798319  0.60719356  1
  O2-  O143  1  0.51116245  0.75144536  0.93889930  1
  O2-  O144  1  0.07218430  0.17826010  0.08873499  1
  O2-  O145  1  0.07918601  0.18248724  0.43133954  1
  O2-  O146  1  0.07684895  0.18199623  0.75788873  1
  O2-  O147  1  0.07065921  0.67718104  0.09900184  1
  O2-  O148  1  0.06544576  0.67766252  0.43194691  1
  O2-  O149  1  0.07030870  0.67949166  0.76432390  1
  O2-  O150  1  0.57240549  0.18314787  0.08732155  1
  O2-  O151  1  0.57010608  0.18212301  0.42351556  1
  O2-  O152  1  0.56608615  0.18018732  0.75666916  1
  O2-  O153  1  0.57141217  0.67470777  0.08836670  1
  O2-  O154  1  0.57158767  0.67233016  0.43003121  1
  O2-  O155  1  0.56615701  0.68015414  0.76799963  1
  O2-  O156  1  0.18301832  0.43066256  0.23235083  1
  O2-  O157  1  0.18000632  0.42879110  0.56859783  1
  O2-  O158  1  0.17708778  0.42933088  0.91137821  1
  O2-  O159  1  0.18304314  0.92520223  0.23326313  1
  O2-  O160  1  0.18061737  0.92481460  0.57699574  1
  O2-  O161  1  0.18264805  0.93103534  0.89857396  1
  O2-  O162  1  0.67493159  0.42979048  0.23948913  1
  O2-  O163  1  0.67560163  0.42904323  0.56689909  1
  O2-  O164  1  0.67837735  0.42839575  0.91120824  1
  O2-  O165  1  0.67717594  0.93218301  0.23502822  1
  O2-  O166  1  0.67749151  0.93054938  0.56836963  1
  O2-  O167  1  0.68094685  0.92875008  0.90317168  1
  O2-  O168  1  0.42953924  0.32035334  0.09870245  1
  O2-  O169  1  0.42859108  0.32090683  0.42536754  1
  O2-  O170  1  0.42690412  0.31965022  0.75556547  1
  O2-  O171  1  0.42979473  0.81848970  0.09695745  1
  O2-  O172  1  0.43126276  0.82124356  0.43229461  1
  O2-  O173  1  0.42860091  0.82510239  0.75559385  1
  O2-  O174  1  0.92898754  0.32223990  0.08819875  1
  O2-  O175  1  0.92654519  0.32215255  0.43072813  1
  O2-  O176  1  0.93106166  0.31686091  0.76843850  1
  O2-  O177  1  0.92656882  0.81925860  0.09231710  1
  O2-  O178  1  0.92741349  0.81972508  0.42220355  1
  O2-  O179  1  0.93092379  0.82018810  0.76642171  1
  O2-  O180  1  0.32116388  0.07852066  0.24232482  1
  O2-  O181  1  0.31909932  0.07189652  0.56757182  1
  O2-  O182  1  0.31814062  0.07525449  0.91159490  1
  O2-  O183  1  0.32459022  0.56820814  0.24456637  1
  O2-  O184  1  0.32670503  0.56716893  0.57861824  1
  O2-  O185  1  0.32475852  0.56679668  0.91058050  1
  O2-  O186  1  0.81518828  0.07244195  0.23426413  1
  O2-  O187  1  0.81781719  0.07489872  0.56909968  1
  O2-  O188  1  0.82066580  0.08104572  0.91378158  1
  O2-  O189  1  0.82249472  0.56573506  0.24139324  1
  O2-  O190  1  0.82115707  0.56817403  0.56809095  1
  O2-  O191  1  0.82359165  0.56813508  0.91313226  1
  O2-  O192  1  0.04630990  0.07792471  0.26511231  1
  O2-  O193  1  0.06013882  0.08147049  0.60947043  1
  O2-  O194  1  0.04463001  0.08493448  0.93643297  1
  O2-  O195  1  0.03494286  0.58641579  0.26318122  1
  O2-  O196  1  0.03881070  0.57953914  0.60098139  1
  O2-  O197  1  0.03617236  0.58268985  0.93327978  1
  O2-  O198  1  0.54202497  0.08954730  0.26947273  1
  O2-  O199  1  0.53650240  0.08931027  0.60396379  1
  O2-  O200  1  0.54818587  0.08656509  0.93541681  1
  O2-  O201  1  0.54036982  0.58093797  0.26105043  1
  O2-  O202  1  0.53540730  0.58407941  0.60011932  1
  O2-  O203  1  0.54467230  0.58591896  0.93635338  1
  O2-  O204  1  0.16908413  0.21051581  0.26187305  1
  O2-  O205  1  0.16649308  0.21180433  0.60629008  1
  O2-  O206  1  0.16104660  0.20717108  0.93542660  1
  O2-  O207  1  0.16977657  0.70493165  0.26857501  1
  O2-  O208  1  0.17250332  0.69931820  0.59822061  1
  O2-  O209  1  0.16861930  0.70369327  0.93088712  1
  O2-  O210  1  0.65867415  0.21062977  0.26654161  1
  O2-  O211  1  0.66025246  0.20662293  0.60408983  1
  O2-  O212  1  0.66554739  0.20878972  0.93583956  1
  O2-  O213  1  0.67509432  0.69743670  0.26407741  1
  O2-  O214  1  0.66769685  0.70431137  0.60215485  1
  O2-  O215  1  0.67152556  0.69857693  0.94245920  1
  O2-  O216  1  0.08576984  0.45682996  0.06315235  1
  O2-  O217  1  0.08135498  0.46104153  0.39708157  1
  O2-  O218  1  0.08237453  0.45866441  0.73793629  1
  O2-  O219  1  0.08393950  0.95661775  0.06553603  1
  O2-  O220  1  0.08299605  0.95466884  0.40088218  1
  O2-  O221  1  0.08601853  0.94959178  0.72966742  1
  O2-  O222  1  0.58558388  0.45673557  0.06252231  1
  O2-  O223  1  0.58339943  0.45452341  0.39234586  1
  O2-  O224  1  0.57605669  0.45580448  0.73308337  1
  O2-  O225  1  0.58305069  0.96369238  0.06846287  1
  O2-  O226  1  0.57994536  0.95971390  0.40006841  1
  O2-  O227  1  0.58392524  0.96280846  0.73543520  1
  O2-  O228  1  0.20621965  0.33609781  0.06172078  1
  O2-  O229  1  0.21193636  0.33492324  0.40055130  1
  O2-  O230  1  0.21412830  0.33794358  0.73884207  1
  O2-  O231  1  0.21443371  0.82976965  0.06205912  1
  O2-  O232  1  0.21386399  0.83138711  0.40209451  1
  O2-  O233  1  0.20578281  0.83053891  0.72761837  1
  O2-  O234  1  0.70573831  0.33723162  0.06378907  1
  O2-  O235  1  0.70194305  0.33731609  0.39114880  1
  O2-  O236  1  0.70196221  0.33060974  0.73597396  1
  O2-  O237  1  0.70800977  0.83187772  0.07087726  1
  O2-  O238  1  0.70232085  0.82545643  0.39572110  1
  O2-  O239  1  0.70503200  0.82926836  0.73540838  1
  O2-  O240  1  0.45490719  0.41205182  0.27072767  1
  O2-  O241  1  0.45135668  0.41303451  0.60250953  1
  O2-  O242  1  0.46006114  0.41720368  0.93004698  1
  O2-  O243  1  0.45332982  0.92277941  0.26472738  1
  O2-  O244  1  0.45229665  0.92126436  0.60648694  1
  O2-  O245  1  0.45661264  0.92147818  0.93350597  1
  O2-  O246  1  0.95992840  0.41661429  0.26073718  1
  O2-  O247  1  0.95987869  0.41323920  0.60230093  1
  O2-  O248  1  0.95941133  0.41086982  0.93560009  1
  O2-  O249  1  0.94646761  0.92002336  0.27456538  1
  O2-  O250  1  0.95490870  0.92287604  0.60015838  1
  O2-  O251  1  0.94643826  0.91825748  0.94335646  1
  O2-  O252  1  0.33677540  0.29308241  0.27104478  1
  O2-  O253  1  0.33576950  0.28865977  0.60463981  1
  O2-  O254  1  0.33097114  0.29236479  0.93027078  1
  O2-  O255  1  0.33541930  0.78755315  0.26380464  1
  O2-  O256  1  0.33584981  0.79991420  0.60315341  1
  O2-  O257  1  0.33858755  0.78542308  0.92688279  1
  O2-  O258  1  0.82860404  0.29468509  0.26206893  1
  O2-  O259  1  0.82886959  0.29076047  0.60278962  1
  O2-  O260  1  0.83521697  0.29548588  0.93806041  1
  O2-  O261  1  0.83731885  0.79168635  0.26882510  1
  O2-  O262  1  0.83125384  0.79313586  0.59985807  1
  O2-  O263  1  0.83500554  0.79015694  0.94130479  1
  O2-  O264  1  0.41722499  0.05492690  0.05995180  1
  O2-  O265  1  0.41505240  0.04992126  0.39424600  1
  O2-  O266  1  0.41526619  0.04399432  0.73889527  1
  O2-  O267  1  0.41354831  0.53874142  0.06401976  1
  O2-  O268  1  0.41591923  0.54117021  0.39677132  1
  O2-  O269  1  0.41220558  0.54040122  0.73416976  1
  O2-  O270  1  0.91725727  0.05349518  0.06310449  1
  O2-  O271  1  0.92177878  0.05575691  0.39860743  1
  O2-  O272  1  0.92591433  0.05272691  0.73265991  1
  O2-  O273  1  0.91282459  0.53526140  0.06589456  1
  O2-  O274  1  0.91084928  0.53606524  0.39480467  1
  O2-  O275  1  0.91637958  0.53741274  0.73822406  1
  O2-  O276  1  0.29233045  0.16767059  0.06240771  1
  O2-  O277  1  0.29526187  0.16665706  0.39620249  1
  O2-  O278  1  0.28814380  0.16519776  0.73863208  1
  O2-  O279  1  0.29516868  0.66128041  0.06159854  1
  O2-  O280  1  0.30263607  0.66565013  0.39575555  1
  O2-  O281  1  0.30369494  0.66902880  0.72670797  1
  O2-  O282  1  0.79278199  0.16824184  0.06652745  1
  O2-  O283  1  0.78508393  0.17061099  0.39841602  1
  O2-  O284  1  0.78774566  0.16652326  0.73802025  1
  O2-  O285  1  0.79831349  0.65991402  0.06780009  1
  O2-  O286  1  0.79870103  0.66133917  0.39393445  1
  O2-  O287  1  0.79318148  0.66801348  0.73699706  1
