# generated using pymatgen
data_Ca2Al2SiO7
_symmetry_space_group_name_H-M   'P 1'
_cell_length_a   15.46204184
_cell_length_b   15.46075736
_cell_length_c   15.28651005
_cell_angle_alpha   90.00018737
_cell_angle_beta   89.98287742
_cell_angle_gamma   90.00582396
_symmetry_Int_Tables_number   1
_chemical_formula_structural   Ca2Al2SiO7
_chemical_formula_sum   'Ca48 Al48 Si24 O168'
_cell_volume   3654.31460109
_cell_formula_units_Z   24
loop_
 _symmetry_equiv_pos_site_id
 _symmetry_equiv_pos_as_xyz
  1  'x, y, z'
loop_
 _atom_type_symbol
 _atom_type_oxidation_number
  Ca2+  2.0
  Al0+  0.0
  Si0+  0.0
  O2-  -2.0
loop_
 _atom_site_type_symbol
 _atom_site_label
 _atom_site_symmetry_multiplicity
 _atom_site_fract_x
 _atom_site_fract_y
 _atom_site_fract_z
 _atom_site_occupancy
  Ca2+  Ca0  1  0.16776914  0.07445237  0.16362047  1
  Ca2+  Ca1  1  0.17282898  0.08378097  0.51114443  1
  Ca2+  Ca2  1  0.17260262  0.08309629  0.83884465  1
  Ca2+  Ca3  1  0.16658469  0.58752900  0.17295178  1
  Ca2+  Ca4  1  0.16321175  0.58374484  0.50480577  1
  Ca2+  Ca5  1  0.15639694  0.58185793  0.83231957  1
  Ca2+  Ca6  1  0.67950917  0.07912235  0.17114569  1
  Ca2+  Ca7  1  0.67747460  0.07421291  0.50327013  1
  Ca2+  Ca8  1  0.67829873  0.07726239  0.83303839  1
  Ca2+  Ca9  1  0.67287265  0.57654251  0.17072825  1
  Ca2+  Ca10  1  0.68085692  0.58562415  0.50400414  1
  Ca2+  Ca11  1  0.67669771  0.57988295  0.83503863  1
  Ca2+  Ca12  1  0.07429789  0.32893464  0.15950369  1
  Ca2+  Ca13  1  0.08325445  0.32986539  0.50758375  1
  Ca2+  Ca14  1  0.07403482  0.32821099  0.82345497  1
  Ca2+  Ca15  1  0.08132648  0.82301049  0.15709125  1
  Ca2+  Ca16  1  0.07699325  0.82349148  0.49814583  1
  Ca2+  Ca17  1  0.07803478  0.82829712  0.83054858  1
  Ca2+  Ca18  1  0.57927626  0.33467939  0.15467581  1
  Ca2+  Ca19  1  0.58311701  0.33005078  0.49692371  1
  Ca2+  Ca20  1  0.57896140  0.33602866  0.83393323  1
  Ca2+  Ca21  1  0.58130389  0.83807418  0.16936495  1
  Ca2+  Ca22  1  0.57503637  0.84826872  0.49774464  1
  Ca2+  Ca23  1  0.57659165  0.84340602  0.82530801  1
  Ca2+  Ca24  1  0.33325098  0.42403860  0.17151614  1
  Ca2+  Ca25  1  0.32536380  0.42706993  0.50723874  1
  Ca2+  Ca26  1  0.32360205  0.41386329  0.83789099  1
  Ca2+  Ca27  1  0.32854363  0.91430855  0.16766228  1
  Ca2+  Ca28  1  0.33506755  0.91749039  0.50856548  1
  Ca2+  Ca29  1  0.32765447  0.92496546  0.83727407  1
  Ca2+  Ca30  1  0.83126128  0.41847928  0.16861970  1
  Ca2+  Ca31  1  0.84340351  0.42785093  0.50591401  1
  Ca2+  Ca32  1  0.83874327  0.41915470  0.83683220  1
  Ca2+  Ca33  1  0.83522042  0.92457385  0.17283365  1
  Ca2+  Ca34  1  0.82566584  0.91974748  0.51257402  1
  Ca2+  Ca35  1  0.84646827  0.92444078  0.83628372  1
  Ca2+  Ca36  1  0.41970996  0.17228332  0.15633853  1
  Ca2+  Ca37  1  0.41766293  0.16368708  0.49813046  1
  Ca2+  Ca38  1  0.41074043  0.16646788  0.82853039  1
  Ca2+  Ca39  1  0.41404038  0.67059269  0.16652538  1
  Ca2+  Ca40  1  0.41444895  0.67980589  0.49343630  1
  Ca2+  Ca41  1  0.42283617  0.67510434  0.82573119  1
  Ca2+  Ca42  1  0.90995509  0.16882685  0.15786002  1
  Ca2+  Ca43  1  0.91142996  0.16701231  0.50155811  1
  Ca2+  Ca44  1  0.91370593  0.17332136  0.82511245  1
  Ca2+  Ca45  1  0.92504422  0.66976970  0.15900087  1
  Ca2+  Ca46  1  0.92224371  0.66288477  0.49779957  1
  Ca2+  Ca47  1  0.92409103  0.67562234  0.82445958  1
  Al0+  Al48  1  0.00305508  -0.00099138  0.00766257  1
  Al0+  Al49  1  0.00274321  0.00104667  0.33687479  1
  Al0+  Al50  1  0.00142844  -0.00078869  0.66223859  1
  Al0+  Al51  1  0.00099688  0.49864632  -0.00440854  1
  Al0+  Al52  1  0.00029072  0.49677384  0.33145217  1
  Al0+  Al53  1  0.00041457  0.49861267  0.66870876  1
  Al0+  Al54  1  0.50207680  0.00176476  0.00373622  1
  Al0+  Al55  1  0.49977315  0.00239652  0.32804247  1
  Al0+  Al56  1  0.50002311  0.00277132  0.67022911  1
  Al0+  Al57  1  0.49998172  0.49928831  -0.00164637  1
  Al0+  Al58  1  0.49812223  0.50205987  0.33855895  1
  Al0+  Al59  1  0.49972205  0.50168259  0.66465432  1
  Al0+  Al60  1  0.25064563  0.25221315  0.00284164  1
  Al0+  Al61  1  0.24829373  0.25014556  0.33056727  1
  Al0+  Al62  1  0.24921155  0.25316647  0.66951314  1
  Al0+  Al63  1  0.25207866  0.74895960  -0.00197238  1
  Al0+  Al64  1  0.25024955  0.75011188  0.32925170  1
  Al0+  Al65  1  0.25243497  0.75040487  0.66010385  1
  Al0+  Al66  1  0.74722519  0.24971862  0.00263786  1
  Al0+  Al67  1  0.74866570  0.24844703  0.33562954  1
  Al0+  Al68  1  0.74701576  0.24972137  0.66376070  1
  Al0+  Al69  1  0.75014595  0.74979948  -0.00250804  1
  Al0+  Al70  1  0.74674890  0.74924964  0.33905490  1
  Al0+  Al71  1  0.74721002  0.74789047  0.67334974  1
  Al0+  Al72  1  0.82123771  0.06937342  0.01266959  1
  Al0+  Al73  1  0.67810702  0.92972287  0.34756234  1
  Al0+  Al74  1  0.06818030  0.67862765  0.31867730  1
  Al0+  Al75  1  0.82389518  0.07168841  0.35014920  1
  Al0+  Al76  1  0.32233846  0.07295907  0.01691838  1
  Al0+  Al77  1  0.92664801  0.31822504  0.98740433  1
  Al0+  Al78  1  0.31980299  0.57233348  0.34743479  1
  Al0+  Al79  1  0.18043857  0.43177272  0.68155715  1
  Al0+  Al80  1  0.31984944  0.07142457  0.67872437  1
  Al0+  Al81  1  0.43247050  0.82188803  0.65424174  1
  Al0+  Al82  1  0.82182490  0.56887810  0.34471747  1
  Al0+  Al83  1  0.18101838  0.92664330  0.01540988  1
  Al0+  Al84  1  0.67891269  0.92868322  0.68254165  1
  Al0+  Al85  1  0.07017504  0.67866209  0.65028680  1
  Al0+  Al86  1  0.92619931  0.82168417  0.65133595  1
  Al0+  Al87  1  0.07271169  0.17823508  0.65329228  1
  Al0+  Al88  1  0.92651910  0.31944806  0.65055583  1
  Al0+  Al89  1  0.07343454  0.67826671  0.98389593  1
  Al0+  Al90  1  0.82327105  0.07038087  0.68237348  1
  Al0+  Al91  1  0.67923545  0.43080810  0.01210860  1
  Al0+  Al92  1  0.82143021  0.56947612  0.68196365  1
  Al0+  Al93  1  0.43023421  0.82187280  0.31734928  1
  Al0+  Al94  1  0.42863736  0.32157896  0.98592742  1
  Al0+  Al95  1  0.92832241  0.82279447  0.98716301  1
  Si0+  Si96  1  0.42754440  0.32330605  0.65038449  1
  Si0+  Si97  1  0.17742567  0.42966003  0.01670167  1
  Si0+  Si98  1  0.57089883  0.17792858  0.98154132  1
  Si0+  Si99  1  0.57100944  0.67757786  0.98600692  1
  Si0+  Si100  1  0.17826007  0.42631128  0.35007734  1
  Si0+  Si101  1  0.07413330  0.17711903  0.31611902  1
  Si0+  Si102  1  0.67656197  0.42747830  0.34993124  1
  Si0+  Si103  1  0.31940064  0.07213868  0.34688952  1
  Si0+  Si104  1  0.92564940  0.82265467  0.31906811  1
  Si0+  Si105  1  0.43168169  0.82201697  0.98513671  1
  Si0+  Si106  1  0.67473718  0.42711669  0.68250196  1
  Si0+  Si107  1  0.18076635  0.92813175  0.34950987  1
  Si0+  Si108  1  0.67686439  0.92540681  0.01784735  1
  Si0+  Si109  1  0.56869375  0.18023680  0.65030057  1
  Si0+  Si110  1  0.57265231  0.67552443  0.31557634  1
  Si0+  Si111  1  0.07242110  0.17833613  0.98608707  1
  Si0+  Si112  1  0.56991018  0.18154259  0.31630022  1
  Si0+  Si113  1  0.92908177  0.31774938  0.31796014  1
  Si0+  Si114  1  0.42844095  0.32262052  0.31954406  1
  Si0+  Si115  1  0.32199139  0.56952702  0.01386613  1
  Si0+  Si116  1  0.82357117  0.57169610  0.01641870  1
  Si0+  Si117  1  0.32312497  0.57401009  0.68419505  1
  Si0+  Si118  1  0.57182734  0.67520277  0.64849610  1
  Si0+  Si119  1  0.17870408  0.92547679  0.68093714  1
  O2-  O120  1  0.25341159  -0.00146305  0.06716429  1
  O2-  O121  1  0.25034677  0.00123157  0.39114943  1
  O2-  O122  1  0.24290301  -0.00074731  0.72434761  1
  O2-  O123  1  0.24758727  0.50231250  0.05740424  1
  O2-  O124  1  0.24500009  0.49755140  0.39299325  1
  O2-  O125  1  0.25358445  0.50771137  0.72976375  1
  O2-  O126  1  0.75053320  -0.00994054  0.05920982  1
  O2-  O127  1  0.75728506  -0.00648015  0.39745225  1
  O2-  O128  1  0.75802070  -0.00773036  0.73310330  1
  O2-  O129  1  0.75514896  0.50260477  0.06102176  1
  O2-  O130  1  0.74590472  0.49514103  0.39280927  1
  O2-  O131  1  0.74669366  0.49234725  0.72568221  1
  O2-  O132  1  -0.00314325  0.24303369  0.27614150  1
  O2-  O133  1  -0.00408305  0.24426428  0.60073021  1
  O2-  O134  1  -0.00044994  0.24171232  0.94184721  1
  O2-  O135  1  -0.00808979  0.75226811  0.27313013  1
  O2-  O136  1  -0.00340039  0.74870282  0.59970761  1
  O2-  O137  1  -0.00080808  0.74943853  0.93760296  1
  O2-  O138  1  0.50128329  0.25544948  0.27488988  1
  O2-  O139  1  0.49882060  0.25321735  0.60737222  1
  O2-  O140  1  0.49804757  0.24289241  0.93760714  1
  O2-  O141  1  0.50523720  0.74610033  0.27155326  1
  O2-  O142  1  0.50686374  0.74788948  0.60555047  1
  O2-  O143  1  0.50652848  0.75476115  0.94386883  1
  O2-  O144  1  0.07272479  0.18246938  0.09246139  1
  O2-  O145  1  0.08252630  0.17994816  0.42020966  1
  O2-  O146  1  0.07687633  0.18268478  0.76663218  1
  O2-  O147  1  0.07241380  0.67773795  0.09819131  1
  O2-  O148  1  0.06856665  0.67866581  0.43113009  1
  O2-  O149  1  0.07074346  0.68091587  0.76351862  1
  O2-  O150  1  0.57060264  0.18090033  0.08757835  1
  O2-  O151  1  0.56753214  0.18205546  0.42153093  1
  O2-  O152  1  0.56795386  0.18107165  0.75512811  1
  O2-  O153  1  0.56843949  0.67518730  0.09112295  1
  O2-  O154  1  0.57055771  0.67029010  0.42043498  1
  O2-  O155  1  0.56655876  0.66916208  0.75423019  1
  O2-  O156  1  0.18004294  0.42366295  0.24422861  1
  O2-  O157  1  0.18488150  0.43024115  0.56812868  1
  O2-  O158  1  0.17866312  0.42768774  0.91204041  1
  O2-  O159  1  0.18169004  0.92885303  0.24453646  1
  O2-  O160  1  0.18379080  0.92449466  0.57484353  1
  O2-  O161  1  0.18386997  0.92649990  0.90200346  1
  O2-  O162  1  0.67530649  0.42697130  0.24418945  1
  O2-  O163  1  0.67010457  0.42945346  0.57685264  1
  O2-  O164  1  0.67636876  0.43444152  0.89955704  1
  O2-  O165  1  0.67783607  0.93400918  0.23366758  1
  O2-  O166  1  0.67482775  0.93553331  0.56932540  1
  O2-  O167  1  0.67023610  0.92847487  0.91306431  1
  O2-  O168  1  0.43178681  0.32363959  0.09971787  1
  O2-  O169  1  0.42829142  0.31968911  0.42471888  1
  O2-  O170  1  0.42884172  0.32424538  0.75534453  1
  O2-  O171  1  0.43115074  0.81992433  0.09037211  1
  O2-  O172  1  0.43068697  0.82377709  0.43019197  1
  O2-  O173  1  0.43266854  0.82064374  0.76781942  1
  O2-  O174  1  0.92891219  0.31871529  0.10146658  1
  O2-  O175  1  0.93020688  0.31991377  0.42244903  1
  O2-  O176  1  0.92762472  0.31895474  0.76421634  1
  O2-  O177  1  0.92733491  0.81988497  0.10151626  1
  O2-  O178  1  0.92880608  0.82195290  0.42422498  1
  O2-  O179  1  0.93082052  0.82112785  0.76475565  1
  O2-  O180  1  0.31751981  0.07413390  0.24222734  1
  O2-  O181  1  0.32153026  0.07033527  0.56477577  1
  O2-  O182  1  0.32054129  0.07237667  0.90348060  1
  O2-  O183  1  0.32072634  0.56879526  0.23371807  1
  O2-  O184  1  0.32452674  0.57113197  0.57857278  1
  O2-  O185  1  0.32518000  0.56761274  0.90915479  1
  O2-  O186  1  0.82009955  0.07515174  0.23625125  1
  O2-  O187  1  0.81740740  0.07248080  0.56901739  1
  O2-  O188  1  0.81942938  0.07222503  0.90031824  1
  O2-  O189  1  0.82077516  0.56473920  0.23144494  1
  O2-  O190  1  0.82045974  0.56719849  0.56832273  1
  O2-  O191  1  0.82179263  0.57054230  0.91118720  1
  O2-  O192  1  0.05232553  0.08302825  0.27034274  1
  O2-  O193  1  0.05501150  0.07815027  0.60001393  1
  O2-  O194  1  0.05505283  0.08178925  0.94543334  1
  O2-  O195  1  0.04137270  0.57965167  0.26565032  1
  O2-  O196  1  0.04308165  0.57907545  0.59965508  1
  O2-  O197  1  0.04638127  0.57929346  0.93261531  1
  O2-  O198  1  0.53881716  0.09273712  0.26585781  1
  O2-  O199  1  0.53569575  0.09108974  0.60155274  1
  O2-  O200  1  0.54941582  0.08268309  0.93735315  1
  O2-  O201  1  0.54341207  0.58218451  0.26863094  1
  O2-  O202  1  0.54323896  0.58365772  0.59858570  1
  O2-  O203  1  0.53574939  0.58995088  0.93581652  1
  O2-  O204  1  0.16257582  0.21107305  0.26427751  1
  O2-  O205  1  0.16910394  0.21536407  0.59798997  1
  O2-  O206  1  0.16465082  0.20903465  0.94091828  1
  O2-  O207  1  0.16470530  0.71090218  0.26510029  1
  O2-  O208  1  0.16961170  0.70589057  0.59781784  1
  O2-  O209  1  0.17278639  0.70472784  0.93161968  1
  O2-  O210  1  0.66243842  0.20812635  0.26919457  1
  O2-  O211  1  0.65870677  0.20773102  0.59924311  1
  O2-  O212  1  0.66172944  0.20944047  0.93472352  1
  O2-  O213  1  0.66662222  0.69952220  0.26876105  1
  O2-  O214  1  0.66730320  0.69588839  0.60631559  1
  O2-  O215  1  0.66472232  0.69757473  0.93927556  1
  O2-  O216  1  0.08552140  0.45623607  0.06509647  1
  O2-  O217  1  0.08436534  0.44988974  0.39488377  1
  O2-  O218  1  0.08421153  0.45899033  0.73660028  1
  O2-  O219  1  0.08515079  0.95532769  0.07405136  1
  O2-  O220  1  0.08899909  0.95415927  0.39717322  1
  O2-  O221  1  0.08364283  0.94542249  0.72431501  1
  O2-  O222  1  0.58337519  0.46430768  0.06779109  1
  O2-  O223  1  0.58303145  0.45181042  0.39687928  1
  O2-  O224  1  0.58191779  0.45629045  0.72964114  1
  O2-  O225  1  0.58566553  0.95553444  0.06717678  1
  O2-  O226  1  0.58119447  0.96864444  0.39823453  1
  O2-  O227  1  0.58455741  0.96849236  0.73749376  1
  O2-  O228  1  0.20678082  0.33944354  0.06668375  1
  O2-  O229  1  0.20802796  0.33390801  0.39671274  1
  O2-  O230  1  0.21502226  0.33771183  0.73778604  1
  O2-  O231  1  0.21341841  0.82865659  0.06892441  1
  O2-  O232  1  0.21133835  0.83739292  0.39586225  1
  O2-  O233  1  0.21167032  0.83445693  0.72749269  1
  O2-  O234  1  0.70551687  0.33409686  0.06825579  1
  O2-  O235  1  0.70061404  0.33359961  0.39554549  1
  O2-  O236  1  0.69469810  0.33185368  0.72624408  1
  O2-  O237  1  0.69618373  0.82913421  0.06165209  1
  O2-  O238  1  0.69084342  0.82754514  0.39780018  1
  O2-  O239  1  0.69006945  0.82609530  0.73205499  1
  O2-  O240  1  0.45349468  0.41618574  0.27414895  1
  O2-  O241  1  0.45551666  0.41515018  0.60207968  1
  O2-  O242  1  0.46321753  0.41598062  0.93009843  1
  O2-  O243  1  0.46037111  0.91845947  0.26171497  1
  O2-  O244  1  0.46283548  0.91950848  0.60109462  1
  O2-  O245  1  0.45708781  0.91578098  0.94036105  1
  O2-  O246  1  0.96044039  0.40727883  0.26783105  1
  O2-  O247  1  0.96237887  0.41582112  0.59848931  1
  O2-  O248  1  0.95922011  0.41383545  0.93403232  1
  O2-  O249  1  0.95425504  0.91706122  0.27499775  1
  O2-  O250  1  0.95330078  0.91964544  0.59688559  1
  O2-  O251  1  0.96055436  0.92140254  0.93715019  1
  O2-  O252  1  0.33725373  0.29334884  0.27130771  1
  O2-  O253  1  0.33694055  0.29493017  0.60238280  1
  O2-  O254  1  0.33027769  0.29491972  0.93373037  1
  O2-  O255  1  0.33513487  0.78819096  0.26195276  1
  O2-  O256  1  0.33772104  0.79122729  0.59666177  1
  O2-  O257  1  0.34211200  0.79039579  0.93699816  1
  O2-  O258  1  0.83481188  0.29342171  0.27261880  1
  O2-  O259  1  0.82603334  0.29757465  0.59759856  1
  O2-  O260  1  0.82875742  0.29135397  0.93522095  1
  O2-  O261  1  0.82965635  0.80082513  0.27636158  1
  O2-  O262  1  0.82452937  0.79466809  0.60465160  1
  O2-  O263  1  0.82834502  0.79925326  0.93457813  1
  O2-  O264  1  0.42222226  0.04732012  0.06881886  1
  O2-  O265  1  0.41267586  0.04635997  0.39150349  1
  O2-  O266  1  0.41447063  0.04045432  0.73506029  1
  O2-  O267  1  0.41139116  0.53733901  0.06368524  1
  O2-  O268  1  0.41532453  0.54187887  0.40392560  1
  O2-  O269  1  0.41665975  0.54607606  0.72970732  1
  O2-  O270  1  0.91855930  0.04552730  0.06897769  1
  O2-  O271  1  0.92619364  0.05446692  0.39866947  1
  O2-  O272  1  0.92528831  0.04950889  0.73108498  1
  O2-  O273  1  0.91720493  0.54424142  0.06133508  1
  O2-  O274  1  0.91704124  0.53374126  0.39892252  1
  O2-  O275  1  0.91674247  0.53819129  0.73645017  1
  O2-  O276  1  0.29346449  0.17171487  0.07016087  1
  O2-  O277  1  0.29171828  0.16461705  0.39392951  1
  O2-  O278  1  0.29297666  0.16903972  0.73185546  1
  O2-  O279  1  0.29809937  0.66235725  0.06093904  1
  O2-  O280  1  0.29004085  0.66947902  0.39964299  1
  O2-  O281  1  0.30088748  0.66912102  0.72784842  1
  O2-  O282  1  0.78394535  0.16377049  0.06834692  1
  O2-  O283  1  0.78758285  0.16812756  0.40310023  1
  O2-  O284  1  0.78624083  0.16838859  0.73208879  1
  O2-  O285  1  0.79639697  0.66528176  0.06191705  1
  O2-  O286  1  0.79248672  0.66488726  0.39987228  1
  O2-  O287  1  0.78806639  0.66337506  0.73927268  1
