# generated using pymatgen
data_Ca2Al2SiO7
_symmetry_space_group_name_H-M   'P 1'
_cell_length_a   15.46568881
_cell_length_b   15.46351661
_cell_length_c   15.28790851
_cell_angle_alpha   89.98807494
_cell_angle_beta   89.99219683
_cell_angle_gamma   89.99851800
_symmetry_Int_Tables_number   1
_chemical_formula_structural   Ca2Al2SiO7
_chemical_formula_sum   'Ca48 Al48 Si24 O168'
_cell_volume   3656.16337550
_cell_formula_units_Z   24
loop_
 _symmetry_equiv_pos_site_id
 _symmetry_equiv_pos_as_xyz
  1  'x, y, z'
loop_
 _atom_type_symbol
 _atom_type_oxidation_number
  Ca2+  2.0
  Al0+  0.0
  Si0+  0.0
  O2-  -2.0
loop_
 _atom_site_type_symbol
 _atom_site_label
 _atom_site_symmetry_multiplicity
 _atom_site_fract_x
 _atom_site_fract_y
 _atom_site_fract_z
 _atom_site_occupancy
  Ca2+  Ca0  1  0.17119056  0.08934458  0.17065980  1
  Ca2+  Ca1  1  0.17044134  0.07909259  0.50446463  1
  Ca2+  Ca2  1  0.17347129  0.07760497  0.83660570  1
  Ca2+  Ca3  1  0.16382799  0.57401131  0.17779461  1
  Ca2+  Ca4  1  0.16745299  0.58492155  0.50581008  1
  Ca2+  Ca5  1  0.16991674  0.58238859  0.83420626  1
  Ca2+  Ca6  1  0.68365584  0.08230152  0.17264667  1
  Ca2+  Ca7  1  0.67530590  0.08156742  0.50053540  1
  Ca2+  Ca8  1  0.67563397  0.07910427  0.84118442  1
  Ca2+  Ca9  1  0.67049156  0.58123364  0.16890556  1
  Ca2+  Ca10  1  0.67292734  0.58836735  0.50199450  1
  Ca2+  Ca11  1  0.66016594  0.58244891  0.83949684  1
  Ca2+  Ca12  1  0.08712020  0.32717992  0.16547581  1
  Ca2+  Ca13  1  0.08342959  0.32683123  0.48714409  1
  Ca2+  Ca14  1  0.09419769  0.32679702  0.83563849  1
  Ca2+  Ca15  1  0.07372328  0.83002643  0.16649011  1
  Ca2+  Ca16  1  0.08250277  0.82713002  0.49771681  1
  Ca2+  Ca17  1  0.07556939  0.83514167  0.82527119  1
  Ca2+  Ca18  1  0.58220745  0.33441096  0.16124842  1
  Ca2+  Ca19  1  0.57337980  0.33454430  0.49976691  1
  Ca2+  Ca20  1  0.57714641  0.33287637  0.82615336  1
  Ca2+  Ca21  1  0.58142566  0.82570414  0.16070756  1
  Ca2+  Ca22  1  0.57497438  0.83224733  0.50252833  1
  Ca2+  Ca23  1  0.57740064  0.82180024  0.82624506  1
  Ca2+  Ca24  1  0.31903513  0.42186142  0.17258887  1
  Ca2+  Ca25  1  0.32808332  0.42580523  0.50139060  1
  Ca2+  Ca26  1  0.33231341  0.42151591  0.83504285  1
  Ca2+  Ca27  1  0.33300048  0.92923279  0.17440210  1
  Ca2+  Ca28  1  0.32640565  0.92439433  0.51211262  1
  Ca2+  Ca29  1  0.33283495  0.92063942  0.83301683  1
  Ca2+  Ca30  1  0.82731262  0.41707986  0.17576615  1
  Ca2+  Ca31  1  0.84435726  0.42571753  0.49765070  1
  Ca2+  Ca32  1  0.82259216  0.42094113  0.84181061  1
  Ca2+  Ca33  1  0.84410966  0.92182602  0.16950911  1
  Ca2+  Ca34  1  0.84594539  0.91858209  0.50093024  1
  Ca2+  Ca35  1  0.83881962  0.91646554  0.83930078  1
  Ca2+  Ca36  1  0.41247760  0.16522967  0.16179497  1
  Ca2+  Ca37  1  0.40689951  0.16955851  0.49727838  1
  Ca2+  Ca38  1  0.40795847  0.17137995  0.82716904  1
  Ca2+  Ca39  1  0.42034814  0.66167617  0.16345729  1
  Ca2+  Ca40  1  0.41536300  0.66280857  0.49847840  1
  Ca2+  Ca41  1  0.42544118  0.66625167  0.82149338  1
  Ca2+  Ca42  1  0.92780494  0.16267869  0.16343939  1
  Ca2+  Ca43  1  0.92446946  0.17251953  0.48617299  1
  Ca2+  Ca44  1  0.92277413  0.16408234  0.83446988  1
  Ca2+  Ca45  1  0.91592514  0.67195720  0.16675426  1
  Ca2+  Ca46  1  0.92890067  0.67370735  0.49058039  1
  Ca2+  Ca47  1  0.92244754  0.67925364  0.82428550  1
  Al0+  Al48  1  0.00206220  0.00097062  -0.00507083  1
  Al0+  Al49  1  0.00139071  0.00068201  0.33077064  1
  Al0+  Al50  1  0.00198961  0.00286207  0.66783689  1
  Al0+  Al51  1  -0.00130905  0.49951122  0.00229884  1
  Al0+  Al52  1  -0.00340305  0.49867123  0.33348893  1
  Al0+  Al53  1  -0.00162480  0.50007678  0.66933230  1
  Al0+  Al54  1  0.50173868  0.00007922  0.00336399  1
  Al0+  Al55  1  0.50084484  0.00042679  0.33682603  1
  Al0+  Al56  1  0.50485570  0.00060448  0.66812611  1
  Al0+  Al57  1  0.49998933  0.49856852  0.00095676  1
  Al0+  Al58  1  0.49875378  0.49886148  0.33491019  1
  Al0+  Al59  1  0.49973055  0.49700679  0.66090315  1
  Al0+  Al60  1  0.24996914  0.25080012  0.00255166  1
  Al0+  Al61  1  0.25117468  0.25258518  0.33573430  1
  Al0+  Al62  1  0.25032617  0.25077052  0.66395878  1
  Al0+  Al63  1  0.24975687  0.75190015  0.00106560  1
  Al0+  Al64  1  0.25162411  0.75132891  0.32945996  1
  Al0+  Al65  1  0.24989578  0.75031032  0.67114521  1
  Al0+  Al66  1  0.75027314  0.24967978  0.00721632  1
  Al0+  Al67  1  0.74693593  0.24774344  0.33651525  1
  Al0+  Al68  1  0.74980154  0.25048567  0.66697010  1
  Al0+  Al69  1  0.74831715  0.74968006  -0.00879360  1
  Al0+  Al70  1  0.74671760  0.74907362  0.33363432  1
  Al0+  Al71  1  0.75016810  0.75198779  0.66043681  1
  Al0+  Al72  1  0.07323463  0.67807140  0.31777183  1
  Al0+  Al73  1  0.07148327  0.67664888  0.65351492  1
  Al0+  Al74  1  0.93037200  0.82400939  0.65071142  1
  Al0+  Al75  1  0.32167492  0.57017149  0.68037928  1
  Al0+  Al76  1  0.17881161  0.43031622  0.01321771  1
  Al0+  Al77  1  0.32175136  0.07113486  0.34783670  1
  Al0+  Al78  1  0.07278736  0.18058093  0.31781736  1
  Al0+  Al79  1  0.92532446  0.32135838  0.31824155  1
  Al0+  Al80  1  0.93146349  0.81928077  0.98548328  1
  Al0+  Al81  1  0.32099716  0.06937239  0.01386877  1
  Al0+  Al82  1  0.67789969  0.42925701  0.01298523  1
  Al0+  Al83  1  0.56702258  0.67857573  0.98734467  1
  Al0+  Al84  1  0.57019199  0.67705133  0.64869948  1
  Al0+  Al85  1  0.07193938  0.18171009  0.98384791  1
  Al0+  Al86  1  0.42831704  0.31853806  0.65203801  1
  Al0+  Al87  1  0.32099644  0.57274813  0.34754474  1
  Al0+  Al88  1  0.82265489  0.06906659  0.01351934  1
  Al0+  Al89  1  0.17835585  0.92868613  0.68259895  1
  Al0+  Al90  1  0.42844939  0.82283226  0.65268472  1
  Al0+  Al91  1  0.17686146  0.43070873  0.34876516  1
  Al0+  Al92  1  0.82238550  0.06874601  0.34766460  1
  Al0+  Al93  1  0.92730579  0.82036346  0.31750778  1
  Al0+  Al94  1  0.32285528  0.07226185  0.68186500  1
  Al0+  Al95  1  0.81876929  0.57105692  0.34671609  1
  Si0+  Si96  1  0.67709511  0.92727160  0.35119511  1
  Si0+  Si97  1  0.43121688  0.32075794  0.31597112  1
  Si0+  Si98  1  0.42722216  0.82535316  0.98463415  1
  Si0+  Si99  1  0.82035872  0.57270799  0.68218462  1
  Si0+  Si100  1  0.92533705  0.32270884  0.98303526  1
  Si0+  Si101  1  0.67612557  0.42651657  0.35241155  1
  Si0+  Si102  1  0.57582744  0.17842742  0.64988935  1
  Si0+  Si103  1  0.42957440  0.82365003  0.31810085  1
  Si0+  Si104  1  0.32203272  0.57290428  0.01472303  1
  Si0+  Si105  1  0.17715447  0.92747088  0.01856996  1
  Si0+  Si106  1  0.43057648  0.31804676  0.98599076  1
  Si0+  Si107  1  0.57378218  0.17824627  0.98648752  1
  Si0+  Si108  1  0.82076288  0.07216433  0.68195792  1
  Si0+  Si109  1  0.81981604  0.57367004  0.01443710  1
  Si0+  Si110  1  0.56992343  0.17660135  0.31726021  1
  Si0+  Si111  1  0.67908259  0.92625476  0.01611840  1
  Si0+  Si112  1  0.07372362  0.67439057  0.98349200  1
  Si0+  Si113  1  0.68007791  0.42939051  0.68042578  1
  Si0+  Si114  1  0.17878676  0.92799409  0.34864101  1
  Si0+  Si115  1  0.92546671  0.32031065  0.65412993  1
  Si0+  Si116  1  0.07029586  0.18234105  0.65222401  1
  Si0+  Si117  1  0.68024751  0.92795040  0.68338154  1
  Si0+  Si118  1  0.56872105  0.67787647  0.31705665  1
  Si0+  Si119  1  0.17584374  0.42805445  0.68366162  1
  O2-  O120  1  0.24943988  -0.00710380  0.06212736  1
  O2-  O121  1  0.24689129  -0.00270889  0.39299644  1
  O2-  O122  1  0.25423726  -0.00224987  0.73226749  1
  O2-  O123  1  0.24684873  0.51183790  0.05840575  1
  O2-  O124  1  0.24284209  0.50837062  0.39844056  1
  O2-  O125  1  0.24371308  0.49820279  0.72686932  1
  O2-  O126  1  0.74909179  -0.00700628  0.06043577  1
  O2-  O127  1  0.75129210  -0.00937112  0.39511119  1
  O2-  O128  1  0.75345942  -0.00218117  0.72435208  1
  O2-  O129  1  0.75427322  0.50189023  0.05892971  1
  O2-  O130  1  0.74802022  0.49216800  0.39527092  1
  O2-  O131  1  0.74724257  0.50316769  0.72421941  1
  O2-  O132  1  -0.00167120  0.25077613  0.26780996  1
  O2-  O133  1  0.00004178  0.25423782  0.61164732  1
  O2-  O134  1  -0.00338609  0.25731517  0.93729117  1
  O2-  O135  1  -0.00151766  0.74754959  0.26746980  1
  O2-  O136  1  0.00150968  0.75045558  0.60343595  1
  O2-  O137  1  0.00640682  0.74451912  0.93964414  1
  O2-  O138  1  0.50014914  0.24785942  0.27340850  1
  O2-  O139  1  0.50050348  0.23997975  0.60640431  1
  O2-  O140  1  0.50124499  0.24665954  0.94295376  1
  O2-  O141  1  0.49682057  0.74853810  0.27575686  1
  O2-  O142  1  0.49511448  0.74677130  0.59980225  1
  O2-  O143  1  0.49022721  0.75104670  0.94151873  1
  O2-  O144  1  0.07283405  0.18218780  0.09624441  1
  O2-  O145  1  0.07136941  0.18054958  0.43200717  1
  O2-  O146  1  0.07002372  0.18298926  0.75747273  1
  O2-  O147  1  0.07279615  0.67379276  0.08871130  1
  O2-  O148  1  0.07411550  0.68117727  0.43112198  1
  O2-  O149  1  0.06566714  0.67229326  0.76736533  1
  O2-  O150  1  0.57331176  0.17961803  0.09151171  1
  O2-  O151  1  0.57033791  0.17690932  0.42236624  1
  O2-  O152  1  0.58318169  0.18363675  0.75539849  1
  O2-  O153  1  0.56675098  0.67955395  0.10088850  1
  O2-  O154  1  0.56907881  0.67732774  0.42169190  1
  O2-  O155  1  0.57041719  0.67751121  0.76272579  1
  O2-  O156  1  0.18236994  0.42845937  0.23494793  1
  O2-  O157  1  0.17420304  0.42625007  0.57868204  1
  O2-  O158  1  0.18453123  0.42840306  0.89990041  1
  O2-  O159  1  0.18173097  0.92788356  0.24277947  1
  O2-  O160  1  0.17530040  0.93412614  0.56902073  1
  O2-  O161  1  0.17724069  0.92815178  0.91314182  1
  O2-  O162  1  0.67311529  0.42892550  0.24659028  1
  O2-  O163  1  0.68319083  0.42574556  0.57577544  1
  O2-  O164  1  0.67705465  0.42891451  0.89946127  1
  O2-  O165  1  0.67245261  0.93057496  0.24563529  1
  O2-  O166  1  0.67727440  0.93016352  0.57847822  1
  O2-  O167  1  0.67795893  0.92881737  0.91045925  1
  O2-  O168  1  0.43257682  0.31774323  0.09114439  1
  O2-  O169  1  0.43368437  0.32095958  0.42095293  1
  O2-  O170  1  0.43136896  0.31906281  0.76588278  1
  O2-  O171  1  0.43054038  0.82740061  0.09050291  1
  O2-  O172  1  0.43256733  0.82695439  0.42261681  1
  O2-  O173  1  0.43485465  0.82283659  0.76660034  1
  O2-  O174  1  0.92280967  0.32119369  0.08785420  1
  O2-  O175  1  0.92601786  0.31760398  0.43278263  1
  O2-  O176  1  0.92011790  0.31716379  0.75904952  1
  O2-  O177  1  0.93072742  0.81809164  0.09816619  1
  O2-  O178  1  0.92960309  0.81952928  0.43058370  1
  O2-  O179  1  0.92988241  0.82242446  0.76475195  1
  O2-  O180  1  0.32416266  0.06885729  0.23444804  1
  O2-  O181  1  0.31783480  0.07305442  0.56851218  1
  O2-  O182  1  0.32119954  0.06996221  0.90119862  1
  O2-  O183  1  0.32600288  0.56671930  0.23363686  1
  O2-  O184  1  0.32286561  0.56606100  0.56796385  1
  O2-  O185  1  0.32558406  0.56948932  0.90927026  1
  O2-  O186  1  0.82006035  0.06875874  0.23467719  1
  O2-  O187  1  0.81852036  0.07478123  0.57704150  1
  O2-  O188  1  0.81902651  0.07005353  0.89976726  1
  O2-  O189  1  0.81229651  0.57311111  0.23345431  1
  O2-  O190  1  0.82123723  0.56956497  0.57740714  1
  O2-  O191  1  0.81730649  0.57217482  0.90841528  1
  O2-  O192  1  0.04642204  0.08184634  0.26511152  1
  O2-  O193  1  0.04085234  0.09164333  0.60505512  1
  O2-  O194  1  0.04009660  0.08632960  0.92831985  1
  O2-  O195  1  0.04366290  0.57902877  0.26771364  1
  O2-  O196  1  0.04040712  0.57810888  0.60092615  1
  O2-  O197  1  0.04826661  0.58064444  0.93720791  1
  O2-  O198  1  0.54225941  0.08516468  0.26928567  1
  O2-  O199  1  0.55956707  0.08239515  0.60687702  1
  O2-  O200  1  0.54972981  0.08470815  0.94030236  1
  O2-  O201  1  0.54067566  0.58550610  0.27010623  1
  O2-  O202  1  0.54706362  0.57760206  0.59667097  1
  O2-  O203  1  0.53846817  0.58092689  0.93330659  1
  O2-  O204  1  0.17124261  0.21215810  0.26574372  1
  O2-  O205  1  0.16139331  0.20891581  0.60376045  1
  O2-  O206  1  0.16821290  0.21560903  0.93003277  1
  O2-  O207  1  0.17154306  0.70629912  0.26281094  1
  O2-  O208  1  0.17169090  0.70087955  0.60460552  1
  O2-  O209  1  0.16928304  0.69854057  0.93983555  1
  O2-  O210  1  0.66157848  0.20439322  0.26971390  1
  O2-  O211  1  0.66551811  0.21237408  0.59947189  1
  O2-  O212  1  0.66477022  0.20813912  0.93847422  1
  O2-  O213  1  0.65895340  0.70729277  0.26801034  1
  O2-  O214  1  0.66743182  0.70939541  0.59619679  1
  O2-  O215  1  0.66191154  0.70898520  0.92982888  1
  O2-  O216  1  0.07906496  0.45173449  0.06529614  1
  O2-  O217  1  0.07525457  0.44749896  0.39824792  1
  O2-  O218  1  0.08180095  0.45022706  0.73189136  1
  O2-  O219  1  0.08544914  0.95859358  0.06369297  1
  O2-  O220  1  0.08551268  0.95345273  0.39413449  1
  O2-  O221  1  0.08220021  0.96502109  0.73785442  1
  O2-  O222  1  0.58233565  0.46034230  0.06940260  1
  O2-  O223  1  0.58463017  0.45755285  0.39934513  1
  O2-  O224  1  0.58700093  0.45328789  0.72656577  1
  O2-  O225  1  0.58662260  0.95249712  0.06437561  1
  O2-  O226  1  0.58760170  0.96119417  0.40104331  1
  O2-  O227  1  0.59091902  0.95753295  0.73475675  1
  O2-  O228  1  0.21671128  0.33714114  0.06857098  1
  O2-  O229  1  0.21356845  0.33553726  0.40311133  1
  O2-  O230  1  0.20627372  0.33537770  0.72909928  1
  O2-  O231  1  0.19792853  0.83215717  0.06425589  1
  O2-  O232  1  0.20621149  0.83511206  0.39415246  1
  O2-  O233  1  0.20038608  0.82982107  0.73732066  1
  O2-  O234  1  0.70575945  0.33333979  0.06954857  1
  O2-  O235  1  0.69461019  0.33114206  0.39723972  1
  O2-  O236  1  0.71087484  0.33871488  0.73005963  1
  O2-  O237  1  0.70282937  0.83131888  0.05984932  1
  O2-  O238  1  0.69463139  0.83176286  0.39527321  1
  O2-  O239  1  0.70707502  0.83542158  0.73015635  1
  O2-  O240  1  0.46295469  0.41112192  0.26765389  1
  O2-  O241  1  0.46428805  0.41105133  0.59464398  1
  O2-  O242  1  0.45956387  0.40952653  0.93853538  1
  O2-  O243  1  0.46370595  0.91353927  0.26944032  1
  O2-  O244  1  0.46367354  0.92016100  0.59976741  1
  O2-  O245  1  0.45896479  0.91671745  0.93725764  1
  O2-  O246  1  0.94610551  0.42127958  0.26638698  1
  O2-  O247  1  0.94955310  0.41420621  0.61017616  1
  O2-  O248  1  0.94637118  0.41832625  0.93810895  1
  O2-  O249  1  0.95812935  0.91840124  0.26519226  1
  O2-  O250  1  0.95896334  0.92360810  0.60058784  1
  O2-  O251  1  0.96185878  0.91571052  0.93086294  1
  O2-  O252  1  0.33929444  0.29398214  0.26946069  1
  O2-  O253  1  0.33202354  0.29085138  0.59609025  1
  O2-  O254  1  0.33976453  0.28981658  0.93814557  1
  O2-  O255  1  0.33796991  0.80182205  0.26824725  1
  O2-  O256  1  0.32715357  0.80273468  0.60474153  1
  O2-  O257  1  0.33084329  0.80688547  0.94181100  1
  O2-  O258  1  0.82436217  0.29387184  0.26927152  1
  O2-  O259  1  0.83620285  0.28972404  0.60361272  1
  O2-  O260  1  0.83210598  0.29289391  0.93681493  1
  O2-  O261  1  0.82641488  0.79433053  0.26716643  1
  O2-  O262  1  0.83099507  0.80000586  0.59923773  1
  O2-  O263  1  0.83435352  0.79080910  0.93019749  1
  O2-  O264  1  0.41956250  0.04284267  0.06782842  1
  O2-  O265  1  0.41869713  0.04160220  0.40156086  1
  O2-  O266  1  0.42525511  0.05124812  0.73088800  1
  O2-  O267  1  0.41242719  0.53965269  0.06288644  1
  O2-  O268  1  0.41700619  0.53639089  0.40142861  1
  O2-  O269  1  0.41817229  0.53307655  0.73298782  1
  O2-  O270  1  0.92002426  0.03885216  0.06484791  1
  O2-  O271  1  0.92009568  0.04215830  0.40119887  1
  O2-  O272  1  0.91345785  0.04850838  0.72881673  1
  O2-  O273  1  0.91461162  0.55312100  0.05911059  1
  O2-  O274  1  0.91482256  0.54246577  0.40256731  1
  O2-  O275  1  0.91004259  0.54238337  0.73273028  1
  O2-  O276  1  0.28941630  0.16576082  0.06728958  1
  O2-  O277  1  0.29348072  0.16863749  0.39941423  1
  O2-  O278  1  0.29002377  0.17060241  0.73343496  1
  O2-  O279  1  0.30649843  0.67004464  0.05774837  1
  O2-  O280  1  0.30447170  0.67566301  0.39457362  1
  O2-  O281  1  0.29758887  0.66728960  0.73615182  1
  O2-  O282  1  0.78973638  0.16376364  0.06905668  1
  O2-  O283  1  0.78563751  0.16344779  0.40303042  1
  O2-  O284  1  0.78818627  0.16241112  0.73056728  1
  O2-  O285  1  0.78838766  0.66571370  0.05964196  1
  O2-  O286  1  0.78293337  0.66560120  0.40195274  1
  O2-  O287  1  0.79353211  0.66596383  0.72680884  1
