# generated using pymatgen
data_Ca2Al2SiO7
_symmetry_space_group_name_H-M   'P 1'
_cell_length_a   15.47477351
_cell_length_b   15.47139579
_cell_length_c   15.29521235
_cell_angle_alpha   90.02394920
_cell_angle_beta   90.01157174
_cell_angle_gamma   90.01614101
_symmetry_Int_Tables_number   1
_chemical_formula_structural   Ca2Al2SiO7
_chemical_formula_sum   'Ca48 Al48 Si24 O168'
_cell_volume   3661.92330642
_cell_formula_units_Z   24
loop_
 _symmetry_equiv_pos_site_id
 _symmetry_equiv_pos_as_xyz
  1  'x, y, z'
loop_
 _atom_type_symbol
 _atom_type_oxidation_number
  Ca2+  2.0
  Al0+  0.0
  Si0+  0.0
  O2-  -2.0
loop_
 _atom_site_type_symbol
 _atom_site_label
 _atom_site_symmetry_multiplicity
 _atom_site_fract_x
 _atom_site_fract_y
 _atom_site_fract_z
 _atom_site_occupancy
  Ca2+  Ca0  1  0.17780674  0.07783193  0.17373894  1
  Ca2+  Ca1  1  0.17307196  0.08362341  0.50583142  1
  Ca2+  Ca2  1  0.17102120  0.07343141  0.83468978  1
  Ca2+  Ca3  1  0.16592798  0.57378366  0.17127523  1
  Ca2+  Ca4  1  0.17489605  0.57364457  0.50145058  1
  Ca2+  Ca5  1  0.16621058  0.57794371  0.83631909  1
  Ca2+  Ca6  1  0.66922195  0.07959425  0.17369972  1
  Ca2+  Ca7  1  0.66878455  0.07106229  0.50224737  1
  Ca2+  Ca8  1  0.66833754  0.07774723  0.83340681  1
  Ca2+  Ca9  1  0.67093635  0.57640423  0.17440458  1
  Ca2+  Ca10  1  0.66665373  0.57846252  0.50074816  1
  Ca2+  Ca11  1  0.67061281  0.58544305  0.83476735  1
  Ca2+  Ca12  1  0.08545110  0.33182488  0.16167022  1
  Ca2+  Ca13  1  0.09064129  0.32482582  0.49339804  1
  Ca2+  Ca14  1  0.08763476  0.33119381  0.82812868  1
  Ca2+  Ca15  1  0.09761173  0.82683996  0.16142383  1
  Ca2+  Ca16  1  0.08271989  0.84302879  0.49609541  1
  Ca2+  Ca17  1  0.08699339  0.83352200  0.82693383  1
  Ca2+  Ca18  1  0.57549133  0.33430870  0.16096058  1
  Ca2+  Ca19  1  0.58185714  0.33165458  0.49230184  1
  Ca2+  Ca20  1  0.57258968  0.33056841  0.83205254  1
  Ca2+  Ca21  1  0.56943995  0.83843863  0.16617920  1
  Ca2+  Ca22  1  0.57073304  0.84113692  0.49560246  1
  Ca2+  Ca23  1  0.56939993  0.83846976  0.82638910  1
  Ca2+  Ca24  1  0.32357513  0.41991139  0.17358712  1
  Ca2+  Ca25  1  0.32360293  0.42501573  0.50674207  1
  Ca2+  Ca26  1  0.32150075  0.41906777  0.83779727  1
  Ca2+  Ca27  1  0.32870339  0.92089078  0.17248780  1
  Ca2+  Ca28  1  0.32471272  0.92308488  0.50490531  1
  Ca2+  Ca29  1  0.33141413  0.92344946  0.83951449  1
  Ca2+  Ca30  1  0.83241635  0.40954226  0.17358581  1
  Ca2+  Ca31  1  0.83050839  0.40810118  0.49652090  1
  Ca2+  Ca32  1  0.83521945  0.41511517  0.84080031  1
  Ca2+  Ca33  1  0.82308521  0.91597714  0.17487384  1
  Ca2+  Ca34  1  0.82232458  0.90838841  0.50838419  1
  Ca2+  Ca35  1  0.82737021  0.90600184  0.83163748  1
  Ca2+  Ca36  1  0.41146082  0.16761021  0.16212174  1
  Ca2+  Ca37  1  0.41292168  0.16059333  0.49683440  1
  Ca2+  Ca38  1  0.40081475  0.16976369  0.83333345  1
  Ca2+  Ca39  1  0.40355096  0.67968596  0.16680231  1
  Ca2+  Ca40  1  0.40221266  0.67700735  0.49689932  1
  Ca2+  Ca41  1  0.40965834  0.67929331  0.82746506  1
  Ca2+  Ca42  1  0.92631495  0.17610743  0.16682461  1
  Ca2+  Ca43  1  0.93622926  0.16831154  0.49215222  1
  Ca2+  Ca44  1  0.92721137  0.17168433  0.82640791  1
  Ca2+  Ca45  1  0.92659918  0.66787773  0.16048105  1
  Ca2+  Ca46  1  0.91919941  0.67280857  0.50022473  1
  Ca2+  Ca47  1  0.92868548  0.67099152  0.83019088  1
  Al0+  Al48  1  -0.00312212  -0.00050667  0.00464704  1
  Al0+  Al49  1  -0.00115394  0.00238743  0.32660001  1
  Al0+  Al50  1  -0.00099336  0.00299798  0.66085097  1
  Al0+  Al51  1  -0.00033645  0.50179651  -0.00425006  1
  Al0+  Al52  1  -0.00207283  0.50235440  0.33545076  1
  Al0+  Al53  1  -0.00371465  0.50080445  0.66745180  1
  Al0+  Al54  1  0.50239758  0.00003300  -0.00066060  1
  Al0+  Al55  1  0.50104650  -0.00018944  0.33462880  1
  Al0+  Al56  1  0.50179510  0.00078575  0.67064619  1
  Al0+  Al57  1  0.50138040  0.49914139  -0.00542884  1
  Al0+  Al58  1  0.50342508  0.50206265  0.34035566  1
  Al0+  Al59  1  0.50086135  0.49999316  0.67066919  1
  Al0+  Al60  1  0.24961412  0.24943205  0.00221617  1
  Al0+  Al61  1  0.25198086  0.24949470  0.33424639  1
  Al0+  Al62  1  0.24972988  0.25129608  0.66825185  1
  Al0+  Al63  1  0.25097845  0.74888225  -0.00864454  1
  Al0+  Al64  1  0.24839109  0.75149733  0.33533638  1
  Al0+  Al65  1  0.24874619  0.74792785  0.66593248  1
  Al0+  Al66  1  0.75019829  0.24945330  -0.00424581  1
  Al0+  Al67  1  0.74998404  0.24899113  0.33429096  1
  Al0+  Al68  1  0.74811755  0.24901867  0.66710088  1
  Al0+  Al69  1  0.75040990  0.74802849  0.00279228  1
  Al0+  Al70  1  0.74841430  0.74794844  0.33622638  1
  Al0+  Al71  1  0.74951516  0.74774888  0.66827011  1
  Al0+  Al72  1  0.07155244  0.18204819  0.65350849  1
  Al0+  Al73  1  0.42920511  0.82025777  0.32008459  1
  Al0+  Al74  1  0.17755201  0.43000759  0.68204890  1
  Al0+  Al75  1  0.17546268  0.92949625  0.67986654  1
  Al0+  Al76  1  0.42835474  0.82133534  0.65145521  1
  Al0+  Al77  1  0.68058017  0.92814048  0.68205369  1
  Al0+  Al78  1  0.68044579  0.42802498  0.34573730  1
  Al0+  Al79  1  0.17811226  0.92605572  0.01408148  1
  Al0+  Al80  1  0.32205322  0.07022433  0.68269905  1
  Al0+  Al81  1  0.07611390  0.17891018  0.31454630  1
  Al0+  Al82  1  0.32203429  0.06993720  0.01646104  1
  Al0+  Al83  1  0.43132966  0.82040857  0.98554846  1
  Al0+  Al84  1  0.17824688  0.43101544  0.01354944  1
  Al0+  Al85  1  0.93027733  0.82015752  0.65373246  1
  Al0+  Al86  1  0.92995368  0.31989504  0.98573357  1
  Al0+  Al87  1  0.92989618  0.32129699  0.31939888  1
  Al0+  Al88  1  0.32237528  0.57165678  0.68399584  1
  Al0+  Al89  1  0.68051158  0.92820594  0.34667426  1
  Al0+  Al90  1  0.17694897  0.92939862  0.34755400  1
  Al0+  Al91  1  0.17732014  0.42837092  0.34705234  1
  Al0+  Al92  1  0.07081137  0.68110161  0.98645400  1
  Al0+  Al93  1  0.42725210  0.32066927  0.98676047  1
  Al0+  Al94  1  0.32220893  0.07119672  0.34820942  1
  Al0+  Al95  1  0.32173620  0.57224241  0.34626898  1
  Si0+  Si96  1  0.67937003  0.42816137  0.01359533  1
  Si0+  Si97  1  0.92424155  0.82270157  0.98553016  1
  Si0+  Si98  1  0.92490834  0.32364383  0.64962937  1
  Si0+  Si99  1  0.07131201  0.67570052  0.64696308  1
  Si0+  Si100  1  0.32484857  0.57122562  0.01505675  1
  Si0+  Si101  1  0.57032426  0.17952795  0.31916517  1
  Si0+  Si102  1  0.06903699  0.68160130  0.31931602  1
  Si0+  Si103  1  0.82121728  0.07267707  0.68306462  1
  Si0+  Si104  1  0.67912467  0.42618769  0.68433244  1
  Si0+  Si105  1  0.43085916  0.32076011  0.65117156  1
  Si0+  Si106  1  0.43113607  0.32427609  0.32107590  1
  Si0+  Si107  1  0.92503499  0.82152967  0.31862078  1
  Si0+  Si108  1  0.82076021  0.56988091  0.01524728  1
  Si0+  Si109  1  0.82107297  0.07199333  0.34967009  1
  Si0+  Si110  1  0.57211698  0.67679025  0.64917142  1
  Si0+  Si111  1  0.57293250  0.17842809  0.98264865  1
  Si0+  Si112  1  0.81882769  0.57050259  0.68382529  1
  Si0+  Si113  1  0.07180669  0.17629896  0.98280947  1
  Si0+  Si114  1  0.57553237  0.67710751  0.98339603  1
  Si0+  Si115  1  0.57322467  0.17954608  0.65002695  1
  Si0+  Si116  1  0.82257864  0.57304880  0.35196919  1
  Si0+  Si117  1  0.68075345  0.92835982  0.01564793  1
  Si0+  Si118  1  0.82001054  0.07407146  0.01592849  1
  Si0+  Si119  1  0.57396713  0.67659833  0.31625879  1
  O2-  O120  1  0.24967981  -0.00215070  0.06489339  1
  O2-  O121  1  0.24588679  0.00389526  0.39711478  1
  O2-  O122  1  0.25274463  -0.00509007  0.73108800  1
  O2-  O123  1  0.25669740  0.50237383  0.05946437  1
  O2-  O124  1  0.25342110  0.49671490  0.39552286  1
  O2-  O125  1  0.24785800  0.50254420  0.73371917  1
  O2-  O126  1  0.75199235  -0.00075210  0.05744585  1
  O2-  O127  1  0.75987990  -0.00301775  0.39441273  1
  O2-  O128  1  0.75722362  0.00060986  0.72978331  1
  O2-  O129  1  0.75024146  0.49835429  0.05681418  1
  O2-  O130  1  0.75582459  0.50112245  0.39391140  1
  O2-  O131  1  0.75112106  0.49606668  0.72614116  1
  O2-  O132  1  0.00676417  0.25623273  0.26746160  1
  O2-  O133  1  -0.00238962  0.25933412  0.60789926  1
  O2-  O134  1  0.00502974  0.24724665  0.93807700  1
  O2-  O135  1  0.00026417  0.75556752  0.27649669  1
  O2-  O136  1  0.00858488  0.75113955  0.60402385  1
  O2-  O137  1  0.00010576  0.76191721  0.94287870  1
  O2-  O138  1  0.49921523  0.25037572  0.27781185  1
  O2-  O139  1  0.50036062  0.24846274  0.60808637  1
  O2-  O140  1  0.49909855  0.24213774  0.93961737  1
  O2-  O141  1  0.50293883  0.74301110  0.27308048  1
  O2-  O142  1  0.50145612  0.74291977  0.60551847  1
  O2-  O143  1  0.50611496  0.74443668  0.93986080  1
  O2-  O144  1  0.06944988  0.17737263  0.08805209  1
  O2-  O145  1  0.07343327  0.17792662  0.42816590  1
  O2-  O146  1  0.06791655  0.18217483  0.76687731  1
  O2-  O147  1  0.06686683  0.67867301  0.09999562  1
  O2-  O148  1  0.06596283  0.68028286  0.42409742  1
  O2-  O149  1  0.06584383  0.67191464  0.75249334  1
  O2-  O150  1  0.57802492  0.18128954  0.08826733  1
  O2-  O151  1  0.57233898  0.18040027  0.42429750  1
  O2-  O152  1  0.58022746  0.18347925  0.75474416  1
  O2-  O153  1  0.58161160  0.67676108  0.08847389  1
  O2-  O154  1  0.57938474  0.67704052  0.42124817  1
  O2-  O155  1  0.57518128  0.67769946  0.75499824  1
  O2-  O156  1  0.17696955  0.43161118  0.23315753  1
  O2-  O157  1  0.17983704  0.43016844  0.56868056  1
  O2-  O158  1  0.17737241  0.43307692  0.90082142  1
  O2-  O159  1  0.18176373  0.92607795  0.23412187  1
  O2-  O160  1  0.17446804  0.93479322  0.56674596  1
  O2-  O161  1  0.17729200  0.92787959  0.90081113  1
  O2-  O162  1  0.68020817  0.42930317  0.23231749  1
  O2-  O163  1  0.67925899  0.42512094  0.57938253  1
  O2-  O164  1  0.68091311  0.42916367  0.90833806  1
  O2-  O165  1  0.68092587  0.93137666  0.23295167  1
  O2-  O166  1  0.68116147  0.92957020  0.56919591  1
  O2-  O167  1  0.68222626  0.92763280  0.91068862  1
  O2-  O168  1  0.43281545  0.32452998  0.09994469  1
  O2-  O169  1  0.43523955  0.32491602  0.42621506  1
  O2-  O170  1  0.43374720  0.32027874  0.75635769  1
  O2-  O171  1  0.43332551  0.81989014  0.09881226  1
  O2-  O172  1  0.43126523  0.82072816  0.43269850  1
  O2-  O173  1  0.43292567  0.82171902  0.76475458  1
  O2-  O174  1  0.92582748  0.31793028  0.09812933  1
  O2-  O175  1  0.92660316  0.31601406  0.43276838  1
  O2-  O176  1  0.92121143  0.32157698  0.75537223  1
  O2-  O177  1  0.91466534  0.81709385  0.09062750  1
  O2-  O178  1  0.92155919  0.81761869  0.42351940  1
  O2-  O179  1  0.92764209  0.81469739  0.76687542  1
  O2-  O180  1  0.32557681  0.06911573  0.23481382  1
  O2-  O181  1  0.32272197  0.07067388  0.56954731  1
  O2-  O182  1  0.32106488  0.06881089  0.90325065  1
  O2-  O183  1  0.31909680  0.57147065  0.23216727  1
  O2-  O184  1  0.32345496  0.56768402  0.57052672  1
  O2-  O185  1  0.32487743  0.56930866  0.90975141  1
  O2-  O186  1  0.81579730  0.07245711  0.24358441  1
  O2-  O187  1  0.81580937  0.07456594  0.57796336  1
  O2-  O188  1  0.81803070  0.07619518  0.91101286  1
  O2-  O189  1  0.82104058  0.57711786  0.24633863  1
  O2-  O190  1  0.81702939  0.57224891  0.57904774  1
  O2-  O191  1  0.81810942  0.57148009  0.91014897  1
  O2-  O192  1  0.04127186  0.08281946  0.25885474  1
  O2-  O193  1  0.03759608  0.08832360  0.59593562  1
  O2-  O194  1  0.04075331  0.08307218  0.93842414  1
  O2-  O195  1  0.03730383  0.59121402  0.27072386  1
  O2-  O196  1  0.03465536  0.58567552  0.59951676  1
  O2-  O197  1  0.03138076  0.58895342  0.92929447  1
  O2-  O198  1  0.54413184  0.08830793  0.27000826  1
  O2-  O199  1  0.54788402  0.08675998  0.60452746  1
  O2-  O200  1  0.55457870  0.08290318  0.93825546  1
  O2-  O201  1  0.55241509  0.58127887  0.27122220  1
  O2-  O202  1  0.55124047  0.58043029  0.60581567  1
  O2-  O203  1  0.55381160  0.58306224  0.93615938  1
  O2-  O204  1  0.17575392  0.20436904  0.26275372  1
  O2-  O205  1  0.16771798  0.21348991  0.59905897  1
  O2-  O206  1  0.16579073  0.20043063  0.93856993  1
  O2-  O207  1  0.16044121  0.70769247  0.27097200  1
  O2-  O208  1  0.16704659  0.69211386  0.60374285  1
  O2-  O209  1  0.16668249  0.70449464  0.92881976  1
  O2-  O210  1  0.66131222  0.20825859  0.27032196  1
  O2-  O211  1  0.66317003  0.21041610  0.59970830  1
  O2-  O212  1  0.66290447  0.21008951  0.93221350  1
  O2-  O213  1  0.66697922  0.70374455  0.26812742  1
  O2-  O214  1  0.66554331  0.70294359  0.60323245  1
  O2-  O215  1  0.66877655  0.70453533  0.93586331  1
  O2-  O216  1  0.08179056  0.46565877  0.06572345  1
  O2-  O217  1  0.07980978  0.45966451  0.39966006  1
  O2-  O218  1  0.07623973  0.45510561  0.73137662  1
  O2-  O219  1  0.07586443  0.94671039  0.06450648  1
  O2-  O220  1  0.07371342  0.95143418  0.39284110  1
  O2-  O221  1  0.07712683  0.96127628  0.73212125  1
  O2-  O222  1  0.58763498  0.45638787  0.06049076  1
  O2-  O223  1  0.58717656  0.45954644  0.40527789  1
  O2-  O224  1  0.58867120  0.45524765  0.73309043  1
  O2-  O225  1  0.59018335  0.95749854  0.06350589  1
  O2-  O226  1  0.58737588  0.96516198  0.40120203  1
  O2-  O227  1  0.58747396  0.96407063  0.73817837  1
  O2-  O228  1  0.20616762  0.33336278  0.06556251  1
  O2-  O229  1  0.20516070  0.33005859  0.39805217  1
  O2-  O230  1  0.20961199  0.33347844  0.73564043  1
  O2-  O231  1  0.20918507  0.82625463  0.06306241  1
  O2-  O232  1  0.20477595  0.83196693  0.40145339  1
  O2-  O233  1  0.19411206  0.82643199  0.72547409  1
  O2-  O234  1  0.70670361  0.33580513  0.05957166  1
  O2-  O235  1  0.71005824  0.33183204  0.40176671  1
  O2-  O236  1  0.70597749  0.33452293  0.73246729  1
  O2-  O237  1  0.70878450  0.83652984  0.06319956  1
  O2-  O238  1  0.70730556  0.83081046  0.40019411  1
  O2-  O239  1  0.71161365  0.83131963  0.73587036  1
  O2-  O240  1  0.46384465  0.41480489  0.27398049  1
  O2-  O241  1  0.46303912  0.41198319  0.60520446  1
  O2-  O242  1  0.46378363  0.41438130  0.92938019  1
  O2-  O243  1  0.46656017  0.91515381  0.26599271  1
  O2-  O244  1  0.46583202  0.91774040  0.60117237  1
  O2-  O245  1  0.46671911  0.91611735  0.93218366  1
  O2-  O246  1  0.94616087  0.42474358  0.27148609  1
  O2-  O247  1  0.94255263  0.41981924  0.60618117  1
  O2-  O248  1  0.95568659  0.41781726  0.93229390  1
  O2-  O249  1  0.94268466  0.91551773  0.27185708  1
  O2-  O250  1  0.95024345  0.91888710  0.59969756  1
  O2-  O251  1  0.93857920  0.91995267  0.94362327  1
  O2-  O252  1  0.33905670  0.29979095  0.27387980  1
  O2-  O253  1  0.33879651  0.29496601  0.60499284  1
  O2-  O254  1  0.33058065  0.29154489  0.93202315  1
  O2-  O255  1  0.33244261  0.78844891  0.26613784  1
  O2-  O256  1  0.33057600  0.79194549  0.59887009  1
  O2-  O257  1  0.33656113  0.79043879  0.92895772  1
  O2-  O258  1  0.83187403  0.28704171  0.26637203  1
  O2-  O259  1  0.83154835  0.29429677  0.60439468  1
  O2-  O260  1  0.83317166  0.28894035  0.93033629  1
  O2-  O261  1  0.83493438  0.78785953  0.27003687  1
  O2-  O262  1  0.83456627  0.78176925  0.60055212  1
  O2-  O263  1  0.83420562  0.78793126  0.93604562  1
  O2-  O264  1  0.42373028  0.04523371  0.06564441  1
  O2-  O265  1  0.42021854  0.04146295  0.40095011  1
  O2-  O266  1  0.42245378  0.04886322  0.73498900  1
  O2-  O267  1  0.42006940  0.54761013  0.05898020  1
  O2-  O268  1  0.42178868  0.55160754  0.39845264  1
  O2-  O269  1  0.42135276  0.54314746  0.73656324  1
  O2-  O270  1  0.91152968  0.05035321  0.06512742  1
  O2-  O271  1  0.91726156  0.05317668  0.39059171  1
  O2-  O272  1  0.91563764  0.05150073  0.72713835  1
  O2-  O273  1  0.91168563  0.54243218  0.06278054  1
  O2-  O274  1  0.91504508  0.55077612  0.40053003  1
  O2-  O275  1  0.91062182  0.54556798  0.73221085  1
  O2-  O276  1  0.29540211  0.16930299  0.06794188  1
  O2-  O277  1  0.30137928  0.17175102  0.39951738  1
  O2-  O278  1  0.29053291  0.16848166  0.73370900  1
  O2-  O279  1  0.29725489  0.66525076  0.05754960  1
  O2-  O280  1  0.28664008  0.66729220  0.40042180  1
  O2-  O281  1  0.29495301  0.67056460  0.73501775  1
  O2-  O282  1  0.78593543  0.16353618  0.06425074  1
  O2-  O283  1  0.78758382  0.16128562  0.39820431  1
  O2-  O284  1  0.78976748  0.16432013  0.73146428  1
  O2-  O285  1  0.79222333  0.66063080  0.06521180  1
  O2-  O286  1  0.79209090  0.66382900  0.40107910  1
  O2-  O287  1  0.78673131  0.65913352  0.73471623  1
