# generated using pymatgen
data_Ca2Al2SiO7
_symmetry_space_group_name_H-M   'P 1'
_cell_length_a   15.46087059
_cell_length_b   15.46163806
_cell_length_c   15.28614457
_cell_angle_alpha   90.00013611
_cell_angle_beta   90.01120054
_cell_angle_gamma   89.98262502
_symmetry_Int_Tables_number   1
_chemical_formula_structural   Ca2Al2SiO7
_chemical_formula_sum   'Ca48 Al48 Si24 O168'
_cell_volume   3654.15850991
_cell_formula_units_Z   24
loop_
 _symmetry_equiv_pos_site_id
 _symmetry_equiv_pos_as_xyz
  1  'x, y, z'
loop_
 _atom_type_symbol
 _atom_type_oxidation_number
  Ca2+  2.0
  Al0+  0.0
  Si0+  0.0
  O2-  -2.0
loop_
 _atom_site_type_symbol
 _atom_site_label
 _atom_site_symmetry_multiplicity
 _atom_site_fract_x
 _atom_site_fract_y
 _atom_site_fract_z
 _atom_site_occupancy
  Ca2+  Ca0  1  0.16916829  0.07770832  0.17053033  1
  Ca2+  Ca1  1  0.16817680  0.08076887  0.50326053  1
  Ca2+  Ca2  1  0.17678334  0.08448991  0.84227448  1
  Ca2+  Ca3  1  0.16332253  0.57962867  0.16679385  1
  Ca2+  Ca4  1  0.16894222  0.58230188  0.50310353  1
  Ca2+  Ca5  1  0.16498712  0.57626641  0.84601418  1
  Ca2+  Ca6  1  0.67041223  0.08435694  0.17824482  1
  Ca2+  Ca7  1  0.66655542  0.08167784  0.49668361  1
  Ca2+  Ca8  1  0.66816481  0.08604489  0.83873236  1
  Ca2+  Ca9  1  0.66815953  0.57769909  0.18098904  1
  Ca2+  Ca10  1  0.66067414  0.57830634  0.50328221  1
  Ca2+  Ca11  1  0.66125931  0.57975377  0.83216754  1
  Ca2+  Ca12  1  0.08559180  0.32030627  0.15951641  1
  Ca2+  Ca13  1  0.07839499  0.32009699  0.49697010  1
  Ca2+  Ca14  1  0.08520065  0.32347694  0.82811367  1
  Ca2+  Ca15  1  0.08068737  0.83685270  0.16303082  1
  Ca2+  Ca16  1  0.07796582  0.83692925  0.48871301  1
  Ca2+  Ca17  1  0.09079372  0.83040889  0.83683338  1
  Ca2+  Ca18  1  0.58398868  0.32435416  0.16273598  1
  Ca2+  Ca19  1  0.58769461  0.33189659  0.49312043  1
  Ca2+  Ca20  1  0.58000110  0.33019871  0.83277230  1
  Ca2+  Ca21  1  0.57392033  0.83844887  0.16537887  1
  Ca2+  Ca22  1  0.57440889  0.83018960  0.48846555  1
  Ca2+  Ca23  1  0.56824816  0.83136220  0.82606201  1
  Ca2+  Ca24  1  0.32861888  0.40821977  0.16512693  1
  Ca2+  Ca25  1  0.33403327  0.41925659  0.50360673  1
  Ca2+  Ca26  1  0.32914680  0.41776792  0.84423954  1
  Ca2+  Ca27  1  0.32678682  0.91420363  0.16831607  1
  Ca2+  Ca28  1  0.33370846  0.91842805  0.50306187  1
  Ca2+  Ca29  1  0.33420234  0.92519293  0.84146118  1
  Ca2+  Ca30  1  0.82733039  0.42504321  0.17836906  1
  Ca2+  Ca31  1  0.82292493  0.41751332  0.50315955  1
  Ca2+  Ca32  1  0.83062721  0.41066952  0.83296425  1
  Ca2+  Ca33  1  0.82623628  0.92115160  0.18057102  1
  Ca2+  Ca34  1  0.83056067  0.91771407  0.49358481  1
  Ca2+  Ca35  1  0.82900536  0.91788375  0.83660560  1
  Ca2+  Ca36  1  0.42886779  0.16557402  0.15830856  1
  Ca2+  Ca37  1  0.42057149  0.16572850  0.49522609  1
  Ca2+  Ca38  1  0.41372709  0.16569975  0.83462766  1
  Ca2+  Ca39  1  0.41876211  0.67898740  0.16687455  1
  Ca2+  Ca40  1  0.42670843  0.67666170  0.49432179  1
  Ca2+  Ca41  1  0.41608156  0.68123451  0.82698913  1
  Ca2+  Ca42  1  0.92793257  0.15652132  0.16624420  1
  Ca2+  Ca43  1  0.92451943  0.16431586  0.49292738  1
  Ca2+  Ca44  1  0.93295257  0.17033555  0.82612090  1
  Ca2+  Ca45  1  0.91460447  0.67272109  0.16630177  1
  Ca2+  Ca46  1  0.91536810  0.67131108  0.49202214  1
  Ca2+  Ca47  1  0.92506096  0.66443844  0.83406767  1
  Al0+  Al48  1  -0.00082914  0.00018852  -0.00424043  1
  Al0+  Al49  1  0.00111303  -0.00180499  0.33278319  1
  Al0+  Al50  1  0.00038267  -0.00181270  0.66579634  1
  Al0+  Al51  1  -0.00072257  0.50114340  0.00196692  1
  Al0+  Al52  1  -0.00003395  0.49811111  0.33944437  1
  Al0+  Al53  1  -0.00214997  0.49929758  0.66295088  1
  Al0+  Al54  1  0.50153200  -0.00074294  -0.00554813  1
  Al0+  Al55  1  0.49855807  0.00266961  0.32872155  1
  Al0+  Al56  1  0.49888249  0.00099938  0.66758740  1
  Al0+  Al57  1  0.50059518  0.49967865  -0.00056825  1
  Al0+  Al58  1  0.49668859  0.50131055  0.33314912  1
  Al0+  Al59  1  0.49997397  0.49978181  0.67031420  1
  Al0+  Al60  1  0.25191213  0.25027713  0.00179472  1
  Al0+  Al61  1  0.24850217  0.24916741  0.33127240  1
  Al0+  Al62  1  0.25054002  0.24879124  0.66532496  1
  Al0+  Al63  1  0.24939776  0.74971687  -0.00441382  1
  Al0+  Al64  1  0.24968935  0.74886892  0.33506208  1
  Al0+  Al65  1  0.25005386  0.75025607  0.66303653  1
  Al0+  Al66  1  0.75051683  0.25048758  -0.00180714  1
  Al0+  Al67  1  0.75185666  0.25186450  0.33708089  1
  Al0+  Al68  1  0.75010632  0.25141702  0.66977892  1
  Al0+  Al69  1  0.75060949  0.74991900  -0.00136021  1
  Al0+  Al70  1  0.75068193  0.75016127  0.33316854  1
  Al0+  Al71  1  0.75168822  0.74726009  0.66767551  1
  Al0+  Al72  1  0.67687430  0.43026554  0.34807493  1
  Al0+  Al73  1  0.82258803  0.07122192  0.34812143  1
  Al0+  Al74  1  0.92970328  0.81956944  0.32018471  1
  Al0+  Al75  1  0.82214316  0.57265555  0.34957085  1
  Al0+  Al76  1  0.18065605  0.92846411  0.34666180  1
  Al0+  Al77  1  0.57067336  0.67825865  0.65229877  1
  Al0+  Al78  1  0.67553225  0.93005501  0.34702372  1
  Al0+  Al79  1  0.67851711  0.42874897  0.68421379  1
  Al0+  Al80  1  0.07126113  0.17803053  0.98620110  1
  Al0+  Al81  1  0.32361221  0.07153861  0.01702330  1
  Al0+  Al82  1  0.06912280  0.67929437  0.98853959  1
  Al0+  Al83  1  0.17875281  0.92843900  0.01485249  1
  Al0+  Al84  1  0.42989198  0.32136933  0.98505992  1
  Al0+  Al85  1  0.92745775  0.32085979  0.65011420  1
  Al0+  Al86  1  0.07264932  0.17786616  0.65017245  1
  Al0+  Al87  1  0.42896811  0.81987172  0.98516385  1
  Al0+  Al88  1  0.57196044  0.18198578  0.32216882  1
  Al0+  Al89  1  0.17847928  0.42889218  0.01360657  1
  Al0+  Al90  1  0.42866797  0.82382192  0.64936292  1
  Al0+  Al91  1  0.57324152  0.17869376  0.98343918  1
  Al0+  Al92  1  0.57128300  0.67845840  0.31804946  1
  Al0+  Al93  1  0.07038849  0.17820294  0.31777188  1
  Al0+  Al94  1  0.42718436  0.82297745  0.31665090  1
  Al0+  Al95  1  0.32085413  0.07050395  0.68044787  1
  Si0+  Si96  1  0.17881601  0.43063445  0.68031901  1
  Si0+  Si97  1  0.17617431  0.92630700  0.68375657  1
  Si0+  Si98  1  0.68045393  0.92781115  0.01263149  1
  Si0+  Si99  1  0.07259554  0.67504067  0.31814906  1
  Si0+  Si100  1  0.92917925  0.32242336  0.31627873  1
  Si0+  Si101  1  0.92866718  0.82053872  0.65196458  1
  Si0+  Si102  1  0.92908176  0.32350638  0.98506276  1
  Si0+  Si103  1  0.82176971  0.07070530  0.68261991  1
  Si0+  Si104  1  0.57170041  0.17964826  0.65209377  1
  Si0+  Si105  1  0.42888873  0.32129805  0.65260070  1
  Si0+  Si106  1  0.31995679  0.57120194  0.68210232  1
  Si0+  Si107  1  0.82029583  0.07131885  0.01276315  1
  Si0+  Si108  1  0.92642146  0.82228617  0.98161138  1
  Si0+  Si109  1  0.17903928  0.42630122  0.35042584  1
  Si0+  Si110  1  0.82339696  0.57233490  0.68721310  1
  Si0+  Si111  1  0.57444102  0.67776733  0.98356715  1
  Si0+  Si112  1  0.67991336  0.92835623  0.68117257  1
  Si0+  Si113  1  0.42599423  0.32348956  0.31786744  1
  Si0+  Si114  1  0.31888711  0.57099468  0.34962261  1
  Si0+  Si115  1  0.67933911  0.42943601  0.01552671  1
  Si0+  Si116  1  0.82101861  0.57182792  0.01516220  1
  Si0+  Si117  1  0.32261512  0.57259441  0.01693351  1
  Si0+  Si118  1  0.32115834  0.07347832  0.34941148  1
  Si0+  Si119  1  0.07092729  0.67814192  0.65196534  1
  O2-  O120  1  0.24996381  0.00045241  0.06591979  1
  O2-  O121  1  0.25553237  0.00219675  0.39401944  1
  O2-  O122  1  0.24527282  -0.00464607  0.72566985  1
  O2-  O123  1  0.25526841  0.50200524  0.06105434  1
  O2-  O124  1  0.24899084  0.49841601  0.39255588  1
  O2-  O125  1  0.24724719  0.50254308  0.72495788  1
  O2-  O126  1  0.74900000  0.00095405  0.05442003  1
  O2-  O127  1  0.74733841  0.00223006  0.39840656  1
  O2-  O128  1  0.75031864  -0.00019336  0.72530913  1
  O2-  O129  1  0.74823761  0.50268603  0.05667071  1
  O2-  O130  1  0.74641914  0.50432485  0.39919607  1
  O2-  O131  1  0.75385621  0.50391977  0.73089061  1
  O2-  O132  1  -0.00472231  0.25251344  0.27058632  1
  O2-  O133  1  -0.00288248  0.24656565  0.60067463  1
  O2-  O134  1  -0.00122317  0.25597374  0.94081597  1
  O2-  O135  1  0.00262532  0.74225864  0.27481315  1
  O2-  O136  1  0.00272905  0.75182711  0.61111142  1
  O2-  O137  1  -0.00258062  0.75533039  0.93831962  1
  O2-  O138  1  0.49826799  0.25788323  0.27613270  1
  O2-  O139  1  0.50057625  0.25115383  0.61059567  1
  O2-  O140  1  0.49953678  0.24853395  0.93253129  1
  O2-  O141  1  0.50371670  0.75446929  0.26792365  1
  O2-  O142  1  0.50332878  0.75362751  0.60167564  1
  O2-  O143  1  0.50420531  0.74453860  0.93960990  1
  O2-  O144  1  0.06746579  0.17694987  0.09910054  1
  O2-  O145  1  0.07213759  0.18098599  0.43078691  1
  O2-  O146  1  0.07324510  0.18050262  0.76397982  1
  O2-  O147  1  0.06464755  0.67635741  0.10092446  1
  O2-  O148  1  0.07338194  0.67592592  0.42444814  1
  O2-  O149  1  0.07045115  0.67593669  0.75702276  1
  O2-  O150  1  0.57816353  0.18222773  0.09664726  1
  O2-  O151  1  0.56857999  0.18225529  0.43591126  1
  O2-  O152  1  0.57214054  0.18010742  0.75696210  1
  O2-  O153  1  0.57735820  0.67916471  0.08858912  1
  O2-  O154  1  0.56599934  0.67635783  0.43142451  1
  O2-  O155  1  0.56715451  0.68013817  0.76651108  1
  O2-  O156  1  0.17916693  0.42605445  0.24552378  1
  O2-  O157  1  0.18175475  0.43271795  0.57495580  1
  O2-  O158  1  0.17759914  0.43212443  0.89985841  1
  O2-  O159  1  0.17998733  0.92849805  0.23401933  1
  O2-  O160  1  0.17440945  0.92523244  0.57824296  1
  O2-  O161  1  0.17977924  0.92877367  0.90085301  1
  O2-  O162  1  0.67962607  0.43009758  0.23389009  1
  O2-  O163  1  0.67689966  0.42929762  0.57182349  1
  O2-  O164  1  0.68059844  0.42940561  0.91039863  1
  O2-  O165  1  0.67714287  0.93276141  0.23288665  1
  O2-  O166  1  0.68089453  0.92928727  0.57674876  1
  O2-  O167  1  0.68446616  0.92585220  0.90687048  1
  O2-  O168  1  0.43478742  0.32393625  0.09848454  1
  O2-  O169  1  0.42291682  0.32240784  0.42410535  1
  O2-  O170  1  0.42761331  0.32222478  0.75712516  1
  O2-  O171  1  0.42970307  0.81853402  0.09775840  1
  O2-  O172  1  0.42601082  0.81985608  0.43013102  1
  O2-  O173  1  0.42831434  0.82189558  0.76325200  1
  O2-  O174  1  0.92825117  0.32389553  0.09041625  1
  O2-  O175  1  0.93236372  0.32284579  0.42164837  1
  O2-  O176  1  0.93085041  0.31964686  0.76438816  1
  O2-  O177  1  0.92223065  0.82116834  0.08646480  1
  O2-  O178  1  0.93360332  0.82004772  0.43390424  1
  O2-  O179  1  0.92729455  0.82019969  0.75734006  1
  O2-  O180  1  0.31947086  0.07684054  0.24445125  1
  O2-  O181  1  0.32107573  0.07191048  0.56732600  1
  O2-  O182  1  0.32147329  0.06975084  0.90293651  1
  O2-  O183  1  0.31717039  0.57171226  0.24479108  1
  O2-  O184  1  0.31834738  0.56903527  0.57687577  1
  O2-  O185  1  0.32016615  0.57151741  0.91075725  1
  O2-  O186  1  0.82223601  0.06876389  0.23394539  1
  O2-  O187  1  0.82217220  0.06993791  0.57819524  1
  O2-  O188  1  0.81988453  0.06973329  0.90707243  1
  O2-  O189  1  0.82478068  0.56804454  0.23525701  1
  O2-  O190  1  0.82599225  0.57403168  0.58257682  1
  O2-  O191  1  0.82179674  0.57220831  0.91004853  1
  O2-  O192  1  0.03879437  0.08235593  0.26448904  1
  O2-  O193  1  0.04544480  0.07761434  0.60071576  1
  O2-  O194  1  0.03712604  0.08388420  0.92892428  1
  O2-  O195  1  0.04925529  0.57959715  0.27494460  1
  O2-  O196  1  0.04226966  0.58759631  0.60276155  1
  O2-  O197  1  0.03490823  0.58413477  0.93164631  1
  O2-  O198  1  0.54145076  0.08723339  0.26539930  1
  O2-  O199  1  0.54367424  0.08803474  0.60543223  1
  O2-  O200  1  0.54979446  0.07963454  0.92991629  1
  O2-  O201  1  0.53681519  0.58153126  0.26419791  1
  O2-  O202  1  0.53772268  0.58030758  0.60149330  1
  O2-  O203  1  0.55069819  0.58323866  0.93898370  1
  O2-  O204  1  0.16602553  0.21221960  0.26401959  1
  O2-  O205  1  0.16930069  0.21103148  0.59642348  1
  O2-  O206  1  0.16829477  0.20904752  0.93491015  1
  O2-  O207  1  0.16562754  0.70030606  0.27238855  1
  O2-  O208  1  0.16343055  0.70178733  0.60392239  1
  O2-  O209  1  0.16520638  0.70545291  0.93105270  1
  O2-  O210  1  0.66978467  0.21072485  0.26920142  1
  O2-  O211  1  0.66378159  0.20703031  0.60641989  1
  O2-  O212  1  0.67098144  0.21049445  0.92883011  1
  O2-  O213  1  0.67217646  0.69890476  0.26847361  1
  O2-  O214  1  0.67286381  0.69898996  0.60506210  1
  O2-  O215  1  0.66746420  0.70417494  0.93543620  1
  O2-  O216  1  0.08283759  0.46215842  0.06848529  1
  O2-  O217  1  0.08825597  0.45318209  0.39999974  1
  O2-  O218  1  0.08593276  0.45748430  0.72574564  1
  O2-  O219  1  0.07726387  0.95478797  0.06313894  1
  O2-  O220  1  0.08522026  0.96072763  0.40141530  1
  O2-  O221  1  0.08168259  0.94893236  0.73025520  1
  O2-  O222  1  0.58688577  0.45474377  0.06225158  1
  O2-  O223  1  0.57597257  0.45450641  0.39899938  1
  O2-  O224  1  0.58185601  0.46031181  0.73938661  1
  O2-  O225  1  0.58753069  0.95219785  0.05703547  1
  O2-  O226  1  0.57728691  0.96020306  0.39982186  1
  O2-  O227  1  0.58841924  0.95705671  0.72889689  1
  O2-  O228  1  0.20913833  0.33367271  0.06940091  1
  O2-  O229  1  0.20976185  0.33577723  0.39903200  1
  O2-  O230  1  0.20847471  0.33895384  0.72604921  1
  O2-  O231  1  0.20515881  0.82805757  0.06484803  1
  O2-  O232  1  0.20719506  0.83058660  0.40152923  1
  O2-  O233  1  0.20143109  0.83113208  0.72804231  1
  O2-  O234  1  0.70971661  0.33792151  0.06206996  1
  O2-  O235  1  0.70820376  0.33368173  0.40280436  1
  O2-  O236  1  0.71001053  0.33238478  0.73986266  1
  O2-  O237  1  0.71007202  0.83679064  0.06068822  1
  O2-  O238  1  0.70527237  0.83206799  0.39913238  1
  O2-  O239  1  0.71019370  0.83722684  0.72953622  1
  O2-  O240  1  0.44511207  0.41817372  0.27261397  1
  O2-  O241  1  0.45557226  0.41352892  0.60561457  1
  O2-  O242  1  0.45826168  0.42047001  0.93116882  1
  O2-  O243  1  0.45077834  0.92230064  0.26444833  1
  O2-  O244  1  0.45686203  0.92272248  0.59831311  1
  O2-  O245  1  0.46221539  0.91444117  0.92903658  1
  O2-  O246  1  0.95774440  0.41594940  0.27109399  1
  O2-  O247  1  0.95619819  0.41903702  0.59706203  1
  O2-  O248  1  0.95229341  0.41732296  0.93851541  1
  O2-  O249  1  0.96272413  0.91409535  0.26447067  1
  O2-  O250  1  0.95344293  0.91269196  0.60457416  1
  O2-  O251  1  0.94982802  0.91534301  0.93351483  1
  O2-  O252  1  0.33387250  0.29490845  0.27076149  1
  O2-  O253  1  0.33800047  0.29402217  0.60290977  1
  O2-  O254  1  0.33024356  0.29738301  0.93293360  1
  O2-  O255  1  0.33053854  0.78568533  0.26510154  1
  O2-  O256  1  0.33009439  0.79329377  0.59786999  1
  O2-  O257  1  0.33377936  0.78814393  0.92917468  1
  O2-  O258  1  0.83445589  0.30092297  0.27175089  1
  O2-  O259  1  0.82749389  0.29466978  0.60046736  1
  O2-  O260  1  0.83648200  0.29599869  0.93780561  1
  O2-  O261  1  0.83324409  0.79260676  0.26436842  1
  O2-  O262  1  0.83816490  0.79016587  0.60453901  1
  O2-  O263  1  0.83464262  0.79237808  0.93241237  1
  O2-  O264  1  0.42411759  0.04237768  0.06527031  1
  O2-  O265  1  0.41555117  0.05061425  0.39448935  1
  O2-  O266  1  0.41809400  0.04200850  0.73572052  1
  O2-  O267  1  0.41736551  0.54941230  0.06167270  1
  O2-  O268  1  0.40937111  0.54253507  0.39910183  1
  O2-  O269  1  0.40996710  0.54191884  0.73116206  1
  O2-  O270  1  0.91181787  0.04246042  0.05904155  1
  O2-  O271  1  0.91852557  0.03691663  0.40214823  1
  O2-  O272  1  0.91333073  0.04050782  0.73069760  1
  O2-  O273  1  0.91122392  0.54334230  0.06424056  1
  O2-  O274  1  0.91999342  0.54231781  0.40467084  1
  O2-  O275  1  0.91728107  0.54377788  0.73328396  1
  O2-  O276  1  0.29954091  0.17117842  0.06816245  1
  O2-  O277  1  0.29255560  0.16627782  0.39712679  1
  O2-  O278  1  0.29048045  0.16819397  0.73401378  1
  O2-  O279  1  0.29303490  0.66461474  0.06246963  1
  O2-  O280  1  0.28860999  0.66019012  0.40068711  1
  O2-  O281  1  0.29275396  0.66418125  0.72787981  1
  O2-  O282  1  0.79453565  0.16365054  0.05985866  1
  O2-  O283  1  0.79867957  0.17038808  0.40089090  1
  O2-  O284  1  0.79361783  0.16177859  0.73108970  1
  O2-  O285  1  0.79532858  0.66508241  0.06118556  1
  O2-  O286  1  0.80088412  0.67290517  0.40041890  1
  O2-  O287  1  0.79947188  0.66592695  0.73577915  1
