# generated using pymatgen
data_Ca2Al2SiO7
_symmetry_space_group_name_H-M   'P 1'
_cell_length_a   15.45523158
_cell_length_b   15.45581064
_cell_length_c   15.28200416
_cell_angle_alpha   90.00317182
_cell_angle_beta   89.99943975
_cell_angle_gamma   90.00123042
_symmetry_Int_Tables_number   1
_chemical_formula_structural   Ca2Al2SiO7
_chemical_formula_sum   'Ca48 Al48 Si24 O168'
_cell_volume   3650.46020279
_cell_formula_units_Z   24
loop_
 _symmetry_equiv_pos_site_id
 _symmetry_equiv_pos_as_xyz
  1  'x, y, z'
loop_
 _atom_type_symbol
 _atom_type_oxidation_number
  Ca2+  2.0
  Al0+  0.0
  Si0+  0.0
  O2-  -2.0
loop_
 _atom_site_type_symbol
 _atom_site_label
 _atom_site_symmetry_multiplicity
 _atom_site_fract_x
 _atom_site_fract_y
 _atom_site_fract_z
 _atom_site_occupancy
  Ca2+  Ca0  1  0.17072696  0.07383237  0.17341687  1
  Ca2+  Ca1  1  0.16771924  0.08318491  0.50320448  1
  Ca2+  Ca2  1  0.17707356  0.08396053  0.83941540  1
  Ca2+  Ca3  1  0.16599429  0.56955099  0.17309776  1
  Ca2+  Ca4  1  0.17089977  0.57726663  0.50528283  1
  Ca2+  Ca5  1  0.16858483  0.58284030  0.83368920  1
  Ca2+  Ca6  1  0.67041405  0.08762593  0.16911718  1
  Ca2+  Ca7  1  0.66825401  0.08275277  0.50958332  1
  Ca2+  Ca8  1  0.67887626  0.08112784  0.83289219  1
  Ca2+  Ca9  1  0.66912587  0.58224462  0.17466790  1
  Ca2+  Ca10  1  0.66888445  0.58100259  0.50314342  1
  Ca2+  Ca11  1  0.66419462  0.56956384  0.83586866  1
  Ca2+  Ca12  1  0.08364542  0.33357435  0.16611701  1
  Ca2+  Ca13  1  0.07837598  0.32140105  0.49139584  1
  Ca2+  Ca14  1  0.07667142  0.32776220  0.82222132  1
  Ca2+  Ca15  1  0.08932263  0.83633660  0.16302895  1
  Ca2+  Ca16  1  0.08855275  0.82705712  0.49670221  1
  Ca2+  Ca17  1  0.08835800  0.83040254  0.82851352  1
  Ca2+  Ca18  1  0.58018881  0.33201773  0.16638325  1
  Ca2+  Ca19  1  0.57826086  0.32946431  0.49236678  1
  Ca2+  Ca20  1  0.58617268  0.33531251  0.82855254  1
  Ca2+  Ca21  1  0.57224740  0.82904531  0.16356978  1
  Ca2+  Ca22  1  0.57267586  0.83506537  0.49285036  1
  Ca2+  Ca23  1  0.57238845  0.83959970  0.82707960  1
  Ca2+  Ca24  1  0.32299622  0.40986923  0.17379494  1
  Ca2+  Ca25  1  0.33158717  0.41788859  0.50420123  1
  Ca2+  Ca26  1  0.32600495  0.42590053  0.83889073  1
  Ca2+  Ca27  1  0.32937526  0.91375403  0.16896593  1
  Ca2+  Ca28  1  0.33460824  0.91885657  0.50556011  1
  Ca2+  Ca29  1  0.33339627  0.92476583  0.83810229  1
  Ca2+  Ca30  1  0.82969987  0.42085283  0.17457753  1
  Ca2+  Ca31  1  0.83227533  0.41354910  0.50255144  1
  Ca2+  Ca32  1  0.82254212  0.40673859  0.83375801  1
  Ca2+  Ca33  1  0.83674900  0.92643153  0.17151404  1
  Ca2+  Ca34  1  0.82167086  0.92479775  0.50984618  1
  Ca2+  Ca35  1  0.83421341  0.92854242  0.83532254  1
  Ca2+  Ca36  1  0.41848433  0.16729375  0.16758452  1
  Ca2+  Ca37  1  0.42223637  0.16853953  0.49186285  1
  Ca2+  Ca38  1  0.41331218  0.16328246  0.82863179  1
  Ca2+  Ca39  1  0.41572131  0.67636009  0.16568912  1
  Ca2+  Ca40  1  0.41954216  0.67501436  0.49513654  1
  Ca2+  Ca41  1  0.40991100  0.67956522  0.82524766  1
  Ca2+  Ca42  1  0.92166421  0.16898291  0.16555747  1
  Ca2+  Ca43  1  0.92108393  0.17415460  0.49642200  1
  Ca2+  Ca44  1  0.92121410  0.16671524  0.82281051  1
  Ca2+  Ca45  1  0.91512942  0.66599789  0.16623937  1
  Ca2+  Ca46  1  0.92052690  0.66269336  0.49564842  1
  Ca2+  Ca47  1  0.92630040  0.66897811  0.82604096  1
  Al0+  Al48  1  0.00035537  0.00066273  0.00565211  1
  Al0+  Al49  1  0.00101779  -0.00037485  0.33678624  1
  Al0+  Al50  1  0.00001360  -0.00170788  0.66519400  1
  Al0+  Al51  1  -0.00115333  0.49990323  0.00037595  1
  Al0+  Al52  1  -0.00012036  0.49950817  0.33836669  1
  Al0+  Al53  1  -0.00121307  0.50051621  0.65904291  1
  Al0+  Al54  1  0.50215606  0.00114877  -0.00141871  1
  Al0+  Al55  1  0.49995518  -0.00006783  0.32369170  1
  Al0+  Al56  1  0.49817030  0.00048229  0.67022588  1
  Al0+  Al57  1  0.50026755  0.49944362  0.00402017  1
  Al0+  Al58  1  0.49994594  0.50037538  0.32558553  1
  Al0+  Al59  1  0.49890814  0.50235694  0.67571199  1
  Al0+  Al60  1  0.25088428  0.24981107  0.00564360  1
  Al0+  Al61  1  0.24936768  0.24708922  0.33128278  1
  Al0+  Al62  1  0.24913016  0.24993641  0.66702812  1
  Al0+  Al63  1  0.25098297  0.74989934  -0.00181175  1
  Al0+  Al64  1  0.24882438  0.74920993  0.33288857  1
  Al0+  Al65  1  0.25052868  0.74950075  0.66079090  1
  Al0+  Al66  1  0.74951978  0.25055203  0.00833076  1
  Al0+  Al67  1  0.75150756  0.25152353  0.32666253  1
  Al0+  Al68  1  0.74949723  0.25004161  0.66999021  1
  Al0+  Al69  1  0.75051974  0.74960013  -0.00488480  1
  Al0+  Al70  1  0.75099018  0.75032850  0.33429921  1
  Al0+  Al71  1  0.74825640  0.74791486  0.67328724  1
  Al0+  Al72  1  0.82187832  0.07068650  0.67973424  1
  Al0+  Al73  1  0.31952358  0.07239639  0.67818412  1
  Al0+  Al74  1  0.81988802  0.57197780  0.34790344  1
  Al0+  Al75  1  0.18003161  0.42641020  0.34947107  1
  Al0+  Al76  1  0.07068538  0.17617112  0.31559970  1
  Al0+  Al77  1  0.42678707  0.82060485  0.31690721  1
  Al0+  Al78  1  0.17922284  0.92778569  0.35004659  1
  Al0+  Al79  1  0.17801476  0.43020717  0.01193097  1
  Al0+  Al80  1  0.32447312  0.07195338  0.01765683  1
  Al0+  Al81  1  0.92623473  0.31961676  0.65185083  1
  Al0+  Al82  1  0.67846197  0.42971824  0.01706814  1
  Al0+  Al83  1  0.57266769  0.17856524  0.31827914  1
  Al0+  Al84  1  0.57371708  0.67951164  0.31934931  1
  Al0+  Al85  1  0.18075300  0.92863015  0.01365077  1
  Al0+  Al86  1  0.93094385  0.32286093  0.31548668  1
  Al0+  Al87  1  0.07048099  0.68060104  0.65151753  1
  Al0+  Al88  1  0.67619719  0.92711977  0.68124918  1
  Al0+  Al89  1  0.67958150  0.43026864  0.67808565  1
  Al0+  Al90  1  0.07364854  0.17671842  0.65243039  1
  Al0+  Al91  1  0.31963237  0.57166045  0.67941306  1
  Al0+  Al92  1  0.43117232  0.82209845  0.65242636  1
  Al0+  Al93  1  0.43000519  0.82024965  0.98275431  1
  Al0+  Al94  1  0.42772963  0.32181270  0.31936525  1
  Al0+  Al95  1  0.82104156  0.06998476  0.01597372  1
  Si0+  Si96  1  0.07024669  0.67874361  0.31750962  1
  Si0+  Si97  1  0.92888446  0.82350351  0.98507956  1
  Si0+  Si98  1  0.67722068  0.42792494  0.34950521  1
  Si0+  Si99  1  0.32361215  0.06950880  0.35022711  1
  Si0+  Si100  1  0.32099171  0.57257113  0.01746786  1
  Si0+  Si101  1  0.67925098  0.92666890  0.01728471  1
  Si0+  Si102  1  0.06947916  0.67820176  0.98639364  1
  Si0+  Si103  1  0.67899892  0.93035362  0.34546279  1
  Si0+  Si104  1  0.42772555  0.32121436  0.98316833  1
  Si0+  Si105  1  0.82491520  0.57234250  0.68476072  1
  Si0+  Si106  1  0.92935733  0.82068188  0.31972638  1
  Si0+  Si107  1  0.57264541  0.18142760  0.98219683  1
  Si0+  Si108  1  0.17882381  0.92676116  0.68101233  1
  Si0+  Si109  1  0.32252858  0.57133609  0.34895663  1
  Si0+  Si110  1  0.07093884  0.17878228  0.98575368  1
  Si0+  Si111  1  0.56886200  0.18091007  0.65579242  1
  Si0+  Si112  1  0.17686441  0.42847766  0.68165809  1
  Si0+  Si113  1  0.82063806  0.07257446  0.34891961  1
  Si0+  Si114  1  0.57334100  0.67627744  0.98047020  1
  Si0+  Si115  1  0.92464909  0.82169544  0.65025329  1
  Si0+  Si116  1  0.42860273  0.32434919  0.65635761  1
  Si0+  Si117  1  0.57187590  0.67549418  0.65247700  1
  Si0+  Si118  1  0.82182077  0.57296518  0.01515476  1
  Si0+  Si119  1  0.92888616  0.32084817  0.98520780  1
  O2-  O120  1  0.25334711  -0.00174052  0.06572748  1
  O2-  O121  1  0.25553074  0.00090461  0.39547562  1
  O2-  O122  1  0.24194963  0.00037263  0.72484346  1
  O2-  O123  1  0.25426948  0.50206541  0.06102157  1
  O2-  O124  1  0.25837983  0.49872419  0.39406789  1
  O2-  O125  1  0.24445105  0.49762266  0.72705981  1
  O2-  O126  1  0.74876419  -0.00692592  0.06353263  1
  O2-  O127  1  0.74532065  0.00510349  0.38917611  1
  O2-  O128  1  0.75308211  -0.00485512  0.72992678  1
  O2-  O129  1  0.75045665  0.50827863  0.06012877  1
  O2-  O130  1  0.74443025  0.49776057  0.39394104  1
  O2-  O131  1  0.75630308  0.50268985  0.72719850  1
  O2-  O132  1  0.00232902  0.25108288  0.26393012  1
  O2-  O133  1  0.00029036  0.24857491  0.60404628  1
  O2-  O134  1  0.00054384  0.25056099  0.94302363  1
  O2-  O135  1  0.00079456  0.75114974  0.27501317  1
  O2-  O136  1  -0.00696590  0.75325599  0.60503675  1
  O2-  O137  1  0.00079797  0.75227167  0.94449685  1
  O2-  O138  1  0.50109990  0.25130021  0.26834775  1
  O2-  O139  1  0.49782601  0.25187121  0.61404787  1
  O2-  O140  1  0.49919255  0.25065993  0.93977660  1
  O2-  O141  1  0.49934892  0.74809387  0.26810569  1
  O2-  O142  1  0.50948255  0.74955285  0.60823347  1
  O2-  O143  1  0.50529679  0.74517032  0.93591254  1
  O2-  O144  1  0.06861364  0.17859493  0.09038012  1
  O2-  O145  1  0.06743427  0.17527917  0.42908243  1
  O2-  O146  1  0.07485230  0.17990726  0.76704673  1
  O2-  O147  1  0.06657504  0.67598167  0.09138310  1
  O2-  O148  1  0.06988999  0.67998520  0.42251382  1
  O2-  O149  1  0.07007409  0.68194108  0.76557462  1
  O2-  O150  1  0.57371629  0.18345706  0.08697133  1
  O2-  O151  1  0.57225886  0.17792396  0.43272613  1
  O2-  O152  1  0.56946126  0.18245465  0.76120434  1
  O2-  O153  1  0.57516533  0.67840632  0.08579479  1
  O2-  O154  1  0.57437031  0.68216406  0.43319377  1
  O2-  O155  1  0.56804528  0.67252677  0.75803696  1
  O2-  O156  1  0.17915399  0.43120025  0.23582868  1
  O2-  O157  1  0.18033005  0.42852924  0.57643326  1
  O2-  O158  1  0.17745903  0.43324746  0.89860232  1
  O2-  O159  1  0.17884679  0.92759099  0.23709738  1
  O2-  O160  1  0.18197292  0.92511464  0.57558154  1
  O2-  O161  1  0.17890246  0.92925279  0.89988469  1
  O2-  O162  1  0.67962761  0.42905570  0.24385096  1
  O2-  O163  1  0.67644875  0.43123030  0.56546748  1
  O2-  O164  1  0.68037708  0.42816880  0.90353091  1
  O2-  O165  1  0.68375804  0.92920012  0.24027806  1
  O2-  O166  1  0.67557247  0.93105309  0.56699710  1
  O2-  O167  1  0.68131935  0.92877862  0.91176001  1
  O2-  O168  1  0.42839389  0.32114952  0.08777478  1
  O2-  O169  1  0.43045728  0.32180513  0.43391687  1
  O2-  O170  1  0.42955314  0.32423781  0.76180652  1
  O2-  O171  1  0.42979240  0.81654820  0.09549770  1
  O2-  O172  1  0.42891930  0.82171968  0.43059685  1
  O2-  O173  1  0.42980663  0.82130366  0.76572119  1
  O2-  O174  1  0.93068214  0.32274020  0.08981102  1
  O2-  O175  1  0.92904649  0.31974815  0.42877727  1
  O2-  O176  1  0.92703061  0.31821531  0.76659003  1
  O2-  O177  1  0.92647225  0.82237663  0.09023970  1
  O2-  O178  1  0.92807130  0.81916481  0.42457899  1
  O2-  O179  1  0.92704928  0.82089284  0.75637793  1
  O2-  O180  1  0.32353391  0.06789675  0.24476453  1
  O2-  O181  1  0.32397498  0.07217492  0.56562443  1
  O2-  O182  1  0.32092462  0.07309827  0.90358404  1
  O2-  O183  1  0.31735868  0.57334247  0.24319207  1
  O2-  O184  1  0.32132058  0.56865293  0.56654872  1
  O2-  O185  1  0.31854735  0.57279693  0.91150645  1
  O2-  O186  1  0.82168808  0.06910185  0.24347582  1
  O2-  O187  1  0.81684132  0.07158486  0.56602118  1
  O2-  O188  1  0.82158492  0.06977161  0.90307306  1
  O2-  O189  1  0.81902136  0.57289146  0.23429464  1
  O2-  O190  1  0.82335332  0.57482157  0.57946242  1
  O2-  O191  1  0.82455882  0.57194830  0.90973876  1
  O2-  O192  1  0.03750934  0.07809517  0.26373896  1
  O2-  O193  1  0.04868914  0.07680814  0.60115531  1
  O2-  O194  1  0.04160084  0.08676253  0.93941608  1
  O2-  O195  1  0.03942683  0.58792992  0.27066896  1
  O2-  O196  1  0.04228887  0.58430661  0.59598451  1
  O2-  O197  1  0.03767733  0.58863079  0.93586660  1
  O2-  O198  1  0.54576142  0.08191601  0.26090911  1
  O2-  O199  1  0.54078283  0.08974655  0.60825929  1
  O2-  O200  1  0.54901520  0.08822974  0.93567164  1
  O2-  O201  1  0.54983235  0.58106051  0.26465435  1
  O2-  O202  1  0.53997574  0.58417643  0.60517323  1
  O2-  O203  1  0.54696353  0.58112043  0.93732329  1
  O2-  O204  1  0.17046013  0.19967925  0.26485031  1
  O2-  O205  1  0.17127235  0.20698322  0.59790506  1
  O2-  O206  1  0.16409762  0.20646677  0.94075945  1
  O2-  O207  1  0.16169110  0.70465771  0.26909613  1
  O2-  O208  1  0.16490649  0.71236158  0.59466474  1
  O2-  O209  1  0.16182337  0.70325326  0.93888057  1
  O2-  O210  1  0.66993077  0.20646203  0.26299401  1
  O2-  O211  1  0.66008060  0.20848239  0.60800900  1
  O2-  O212  1  0.66444639  0.21350104  0.93636398  1
  O2-  O213  1  0.67099203  0.71123627  0.26459154  1
  O2-  O214  1  0.66915430  0.69295976  0.61097288  1
  O2-  O215  1  0.66814327  0.69880329  0.93373794  1
  O2-  O216  1  0.08237465  0.46353306  0.06675284  1
  O2-  O217  1  0.08556330  0.46202903  0.40350473  1
  O2-  O218  1  0.08225050  0.45482770  0.72515016  1
  O2-  O219  1  0.08231416  0.95520339  0.06767121  1
  O2-  O220  1  0.08201203  0.95719763  0.40432432  1
  O2-  O221  1  0.08220703  0.94333287  0.72437386  1
  O2-  O222  1  0.58077700  0.45689229  0.07051166  1
  O2-  O223  1  0.58177011  0.45142320  0.39256794  1
  O2-  O224  1  0.58549602  0.46216601  0.73779571  1
  O2-  O225  1  0.58662594  0.95463534  0.06269145  1
  O2-  O226  1  0.58492807  0.95474504  0.38938573  1
  O2-  O227  1  0.58180060  0.96240989  0.73712168  1
  O2-  O228  1  0.20732063  0.33440643  0.06682658  1
  O2-  O229  1  0.20760247  0.32801934  0.40101927  1
  O2-  O230  1  0.20291203  0.33584757  0.72916305  1
  O2-  O231  1  0.20617689  0.82839532  0.06540974  1
  O2-  O232  1  0.20736463  0.82922547  0.40188014  1
  O2-  O233  1  0.20926462  0.83493315  0.72768730  1
  O2-  O234  1  0.71156669  0.33560753  0.07258789  1
  O2-  O235  1  0.70465969  0.33384691  0.39388002  1
  O2-  O236  1  0.70900876  0.33457957  0.73558796  1
  O2-  O237  1  0.70322964  0.83106250  0.05994596  1
  O2-  O238  1  0.71081064  0.84097039  0.39473294  1
  O2-  O239  1  0.69765887  0.82715604  0.73491135  1
  O2-  O240  1  0.45173160  0.41972746  0.26294597  1
  O2-  O241  1  0.45871309  0.41551005  0.60963598  1
  O2-  O242  1  0.45531260  0.41472968  0.93774131  1
  O2-  O243  1  0.45615935  0.91689843  0.26135636  1
  O2-  O244  1  0.46126687  0.91928072  0.59905817  1
  O2-  O245  1  0.46198173  0.91824683  0.93126992  1
  O2-  O246  1  0.95942328  0.42255346  0.26473061  1
  O2-  O247  1  0.94904559  0.41934853  0.60012743  1
  O2-  O248  1  0.95501142  0.41325515  0.93730296  1
  O2-  O249  1  0.95699413  0.91240875  0.27241822  1
  O2-  O250  1  0.94755230  0.91534745  0.60362329  1
  O2-  O251  1  0.95789236  0.91501922  0.93774126  1
  O2-  O252  1  0.33086873  0.29107515  0.26533655  1
  O2-  O253  1  0.33637130  0.29957449  0.60935239  1
  O2-  O254  1  0.33519483  0.29392218  0.93617412  1
  O2-  O255  1  0.32893372  0.78903847  0.26391971  1
  O2-  O256  1  0.33665873  0.78815428  0.59755605  1
  O2-  O257  1  0.33285552  0.78828355  0.92913495  1
  O2-  O258  1  0.83267519  0.29562566  0.26190217  1
  O2-  O259  1  0.82792664  0.28992979  0.59884858  1
  O2-  O260  1  0.83605322  0.29077337  0.94111866  1
  O2-  O261  1  0.83898355  0.79239443  0.26962289  1
  O2-  O262  1  0.82955051  0.79612503  0.60684276  1
  O2-  O263  1  0.83790763  0.79595730  0.93499644  1
  O2-  O264  1  0.42488866  0.04655941  0.06692051  1
  O2-  O265  1  0.41895607  0.04412240  0.39375786  1
  O2-  O266  1  0.41398525  0.04048355  0.73553730  1
  O2-  O267  1  0.41550371  0.54984588  0.06178494  1
  O2-  O268  1  0.41888890  0.55081871  0.39123486  1
  O2-  O269  1  0.41325472  0.54155917  0.73931472  1
  O2-  O270  1  0.91613013  0.03843885  0.07202880  1
  O2-  O271  1  0.91002888  0.03987186  0.39691747  1
  O2-  O272  1  0.92099346  0.04317680  0.73327003  1
  O2-  O273  1  0.91382223  0.54478318  0.06310382  1
  O2-  O274  1  0.91587571  0.54200474  0.40272184  1
  O2-  O275  1  0.91945366  0.54772165  0.72977732  1
  O2-  O276  1  0.29608713  0.16983695  0.07038830  1
  O2-  O277  1  0.29881186  0.16347261  0.39522862  1
  O2-  O278  1  0.29242586  0.16970582  0.73474234  1
  O2-  O279  1  0.29246709  0.66464865  0.06378329  1
  O2-  O280  1  0.29191249  0.66291216  0.39606547  1
  O2-  O281  1  0.28515750  0.66747746  0.73311200  1
  O2-  O282  1  0.78813060  0.16460577  0.07136425  1
  O2-  O283  1  0.79527163  0.16622071  0.39277128  1
  O2-  O284  1  0.78912839  0.16621501  0.73584301  1
  O2-  O285  1  0.80046744  0.66888590  0.05934952  1
  O2-  O286  1  0.79140768  0.66914609  0.40310962  1
  O2-  O287  1  0.80104377  0.66526434  0.73373076  1
