# generated using pymatgen
data_Ca2Al2SiO7
_symmetry_space_group_name_H-M   'P 1'
_cell_length_a   15.46166523
_cell_length_b   15.46050112
_cell_length_c   15.28497220
_cell_angle_alpha   89.98871762
_cell_angle_beta   89.98897722
_cell_angle_gamma   90.00297605
_symmetry_Int_Tables_number   1
_chemical_formula_structural   Ca2Al2SiO7
_chemical_formula_sum   'Ca48 Al48 Si24 O168'
_cell_volume   3653.79745295
_cell_formula_units_Z   24
loop_
 _symmetry_equiv_pos_site_id
 _symmetry_equiv_pos_as_xyz
  1  'x, y, z'
loop_
 _atom_type_symbol
 _atom_type_oxidation_number
  Ca2+  2.0
  Al0+  0.0
  Si0+  0.0
  O2-  -2.0
loop_
 _atom_site_type_symbol
 _atom_site_label
 _atom_site_symmetry_multiplicity
 _atom_site_fract_x
 _atom_site_fract_y
 _atom_site_fract_z
 _atom_site_occupancy
  Ca2+  Ca0  1  0.17701650  0.08811911  0.17476878  1
  Ca2+  Ca1  1  0.16999696  0.08939691  0.49568730  1
  Ca2+  Ca2  1  0.17506267  0.08199866  0.84226101  1
  Ca2+  Ca3  1  0.17697673  0.57939024  0.16732910  1
  Ca2+  Ca4  1  0.17179194  0.59062820  0.50188562  1
  Ca2+  Ca5  1  0.16902084  0.58013225  0.84413448  1
  Ca2+  Ca6  1  0.67305869  0.08103719  0.16542476  1
  Ca2+  Ca7  1  0.67150213  0.07801468  0.50645222  1
  Ca2+  Ca8  1  0.66296674  0.07628981  0.84148465  1
  Ca2+  Ca9  1  0.67154213  0.58969637  0.17111988  1
  Ca2+  Ca10  1  0.67143759  0.57974339  0.50145506  1
  Ca2+  Ca11  1  0.67022573  0.57594552  0.84192840  1
  Ca2+  Ca12  1  0.07507138  0.33288112  0.16379546  1
  Ca2+  Ca13  1  0.07060882  0.32858106  0.49173998  1
  Ca2+  Ca14  1  0.07206508  0.34038478  0.83268071  1
  Ca2+  Ca15  1  0.07529018  0.83581804  0.16759905  1
  Ca2+  Ca16  1  0.07655702  0.82804239  0.49432282  1
  Ca2+  Ca17  1  0.08158851  0.82522528  0.82844807  1
  Ca2+  Ca18  1  0.58179834  0.32540011  0.15980320  1
  Ca2+  Ca19  1  0.59035309  0.32821582  0.50026546  1
  Ca2+  Ca20  1  0.59075022  0.32018176  0.82841479  1
  Ca2+  Ca21  1  0.57686881  0.82474704  0.15956009  1
  Ca2+  Ca22  1  0.58243889  0.82865751  0.49128804  1
  Ca2+  Ca23  1  0.58387996  0.83474984  0.83674159  1
  Ca2+  Ca24  1  0.33196120  0.42585602  0.17140668  1
  Ca2+  Ca25  1  0.33403969  0.42486813  0.50108783  1
  Ca2+  Ca26  1  0.32212066  0.42302721  0.84677674  1
  Ca2+  Ca27  1  0.34222080  0.92204084  0.16948991  1
  Ca2+  Ca28  1  0.33869953  0.91967831  0.49701362  1
  Ca2+  Ca29  1  0.33451102  0.91935927  0.84310425  1
  Ca2+  Ca30  1  0.83886423  0.42539785  0.16952294  1
  Ca2+  Ca31  1  0.83412660  0.41610770  0.50171290  1
  Ca2+  Ca32  1  0.83358908  0.41717418  0.83838970  1
  Ca2+  Ca33  1  0.82964593  0.92469229  0.17377389  1
  Ca2+  Ca34  1  0.83232669  0.92014788  0.50193786  1
  Ca2+  Ca35  1  0.81913944  0.92388117  0.84441269  1
  Ca2+  Ca36  1  0.42005373  0.15961839  0.15808371  1
  Ca2+  Ca37  1  0.42413664  0.16378717  0.49499081  1
  Ca2+  Ca38  1  0.42805592  0.15934313  0.83398345  1
  Ca2+  Ca39  1  0.42318406  0.66954328  0.15916924  1
  Ca2+  Ca40  1  0.42510592  0.67291827  0.48498494  1
  Ca2+  Ca41  1  0.41869564  0.66764230  0.83603611  1
  Ca2+  Ca42  1  0.91087690  0.17521683  0.16162020  1
  Ca2+  Ca43  1  0.91686075  0.17629677  0.48782012  1
  Ca2+  Ca44  1  0.90623925  0.17883305  0.83268915  1
  Ca2+  Ca45  1  0.90637933  0.67034708  0.16325824  1
  Ca2+  Ca46  1  0.92048799  0.66849391  0.49109512  1
  Ca2+  Ca47  1  0.92084455  0.66230180  0.83137251  1
  Al0+  Al48  1  -0.00058913  0.00154057  -0.00005228  1
  Al0+  Al49  1  0.00208824  -0.00033816  0.33142670  1
  Al0+  Al50  1  0.00274315  0.00095391  0.66870061  1
  Al0+  Al51  1  -0.00116527  0.49953448  0.00431537  1
  Al0+  Al52  1  0.00028897  0.49921231  0.33435189  1
  Al0+  Al53  1  0.00269968  0.50050445  0.65626651  1
  Al0+  Al54  1  0.49911961  -0.00221175  0.00001518  1
  Al0+  Al55  1  0.50001220  -0.00087461  0.33524168  1
  Al0+  Al56  1  0.50119708  0.00062780  0.66495556  1
  Al0+  Al57  1  0.49954447  0.49965994  -0.00191984  1
  Al0+  Al58  1  0.50050802  0.49802274  0.33527871  1
  Al0+  Al59  1  0.50107551  0.50040706  0.67191772  1
  Al0+  Al60  1  0.24709830  0.24899418  0.00663693  1
  Al0+  Al61  1  0.25040611  0.25010164  0.33740338  1
  Al0+  Al62  1  0.25090985  0.25257970  0.66813566  1
  Al0+  Al63  1  0.24902174  0.75024507  0.00053425  1
  Al0+  Al64  1  0.24975548  0.75173457  0.33425356  1
  Al0+  Al65  1  0.25058105  0.75222779  0.66285588  1
  Al0+  Al66  1  0.74912560  0.25008506  -0.00535252  1
  Al0+  Al67  1  0.75008444  0.24921259  0.33238042  1
  Al0+  Al68  1  0.74975704  0.25113105  0.66009508  1
  Al0+  Al69  1  0.74757600  0.74949849  0.00033620  1
  Al0+  Al70  1  0.75076188  0.74851175  0.33208511  1
  Al0+  Al71  1  0.74979068  0.75148842  0.67123597  1
  Al0+  Al72  1  0.68024220  0.42897929  0.68075940  1
  Al0+  Al73  1  0.92926818  0.82003910  0.32033695  1
  Al0+  Al74  1  0.57124352  0.67640076  0.31932254  1
  Al0+  Al75  1  0.81919226  0.56947714  0.01172519  1
  Al0+  Al76  1  0.32123306  0.57166156  0.34788277  1
  Al0+  Al77  1  0.93087417  0.32109032  0.98528633  1
  Al0+  Al78  1  0.82097144  0.57121899  0.34785444  1
  Al0+  Al79  1  0.07259724  0.17908621  0.31775147  1
  Al0+  Al80  1  0.31927181  0.06830301  0.01230850  1
  Al0+  Al81  1  0.82076269  0.07308275  0.01422483  1
  Al0+  Al82  1  0.67893929  0.92910807  0.68091507  1
  Al0+  Al83  1  0.56865977  0.18011381  0.98729544  1
  Al0+  Al84  1  0.82216619  0.07140689  0.34731188  1
  Al0+  Al85  1  0.67763196  0.92856935  0.01753087  1
  Al0+  Al86  1  0.42873714  0.82192086  0.31818016  1
  Al0+  Al87  1  0.57294595  0.67664499  0.98168570  1
  Al0+  Al88  1  0.07130012  0.68046789  0.65324490  1
  Al0+  Al89  1  0.32217632  0.07094266  0.34914701  1
  Al0+  Al90  1  0.32207887  0.57178011  0.01493713  1
  Al0+  Al91  1  0.17638254  0.42841922  0.01626848  1
  Al0+  Al92  1  0.42836873  0.81936334  0.98348142  1
  Al0+  Al93  1  0.56863104  0.17935195  0.65089733  1
  Al0+  Al94  1  0.93014322  0.31928655  0.65114055  1
  Al0+  Al95  1  0.92723634  0.32095494  0.31494208  1
  Si0+  Si96  1  0.43021077  0.82063747  0.65065067  1
  Si0+  Si97  1  0.57034899  0.17843838  0.31855298  1
  Si0+  Si98  1  0.32064242  0.07126372  0.68117688  1
  Si0+  Si99  1  0.07293819  0.67736243  0.31487013  1
  Si0+  Si100  1  0.07625692  0.17683469  0.65095616  1
  Si0+  Si101  1  0.82433352  0.57128515  0.68150511  1
  Si0+  Si102  1  0.92690297  0.82371955  0.98444931  1
  Si0+  Si103  1  0.67712573  0.42628150  0.01518948  1
  Si0+  Si104  1  0.42638074  0.32411585  0.65067217  1
  Si0+  Si105  1  0.57180113  0.67707607  0.65229087  1
  Si0+  Si106  1  0.67992577  0.92896456  0.35003961  1
  Si0+  Si107  1  0.67743420  0.42617984  0.34944353  1
  Si0+  Si108  1  0.42450436  0.32234435  0.98478047  1
  Si0+  Si109  1  0.17517902  0.92634582  0.01666886  1
  Si0+  Si110  1  0.32084102  0.57367912  0.68162486  1
  Si0+  Si111  1  0.06819019  0.68084654  0.98769496  1
  Si0+  Si112  1  0.92738686  0.82332328  0.65275318  1
  Si0+  Si113  1  0.42895470  0.32055022  0.32019728  1
  Si0+  Si114  1  0.17957261  0.43074742  0.68050845  1
  Si0+  Si115  1  0.17904713  0.42880193  0.35350783  1
  Si0+  Si116  1  0.17963647  0.92812207  0.68179184  1
  Si0+  Si117  1  0.17710222  0.92775171  0.35219837  1
  Si0+  Si118  1  0.82360717  0.07248597  0.68165970  1
  Si0+  Si119  1  0.07349638  0.17675979  0.98224708  1
  O2-  O120  1  0.24286576  -0.00401533  0.05960990  1
  O2-  O121  1  0.24712883  -0.00375825  0.39595774  1
  O2-  O122  1  0.24731160  0.00247756  0.72317227  1
  O2-  O123  1  0.25411649  0.49553133  0.06404475  1
  O2-  O124  1  0.24521725  0.50010401  0.39857989  1
  O2-  O125  1  0.25045458  0.50170387  0.72331582  1
  O2-  O126  1  0.75298045  -0.00192786  0.06535917  1
  O2-  O127  1  0.74897544  -0.00360031  0.39612229  1
  O2-  O128  1  0.75656116  0.00220683  0.72549577  1
  O2-  O129  1  0.74136279  0.49843775  0.05925656  1
  O2-  O130  1  0.74664864  0.49531271  0.39275144  1
  O2-  O131  1  0.75538107  0.50367047  0.72652312  1
  O2-  O132  1  -0.00208248  0.24684436  0.26649108  1
  O2-  O133  1  0.00311985  0.24077032  0.60806513  1
  O2-  O134  1  0.00383573  0.24424711  0.93756332  1
  O2-  O135  1  0.00116650  0.74304626  0.27153239  1
  O2-  O136  1  -0.00584115  0.75314996  0.60791333  1
  O2-  O137  1  -0.00165333  0.75223473  0.94298864  1
  O2-  O138  1  0.49788716  0.24832462  0.27732939  1
  O2-  O139  1  0.49474791  0.25584578  0.60492421  1
  O2-  O140  1  0.49346684  0.25476254  0.93934747  1
  O2-  O141  1  0.49660425  0.74582470  0.27017483  1
  O2-  O142  1  0.50155175  0.74914815  0.61003257  1
  O2-  O143  1  0.49934454  0.74747067  0.93129046  1
  O2-  O144  1  0.07512089  0.17611808  0.08711505  1
  O2-  O145  1  0.07225108  0.18326296  0.43229007  1
  O2-  O146  1  0.08113134  0.17733311  0.75615412  1
  O2-  O147  1  0.06784056  0.68274384  0.09238068  1
  O2-  O148  1  0.07311654  0.68059551  0.42107651  1
  O2-  O149  1  0.07211087  0.68101723  0.76676057  1
  O2-  O150  1  0.56780695  0.18190965  0.10067195  1
  O2-  O151  1  0.56963639  0.17918160  0.42402033  1
  O2-  O152  1  0.56609494  0.17784167  0.76372824  1
  O2-  O153  1  0.57286808  0.67721010  0.09477195  1
  O2-  O154  1  0.57096507  0.67802995  0.43425648  1
  O2-  O155  1  0.56988893  0.67540569  0.75674602  1
  O2-  O156  1  0.18176355  0.42868912  0.24828857  1
  O2-  O157  1  0.18232286  0.43021224  0.57576804  1
  O2-  O158  1  0.17554334  0.43311332  0.90136389  1
  O2-  O159  1  0.17562632  0.92663675  0.24696786  1
  O2-  O160  1  0.17960576  0.92564986  0.57730974  1
  O2-  O161  1  0.17510134  0.92629947  0.91018028  1
  O2-  O162  1  0.67472116  0.42389397  0.24424498  1
  O2-  O163  1  0.67930799  0.43138727  0.56768556  1
  O2-  O164  1  0.68071211  0.42537201  0.90925276  1
  O2-  O165  1  0.67965541  0.93141940  0.24506539  1
  O2-  O166  1  0.67883970  0.92915873  0.56766003  1
  O2-  O167  1  0.67902724  0.93173068  0.90322493  1
  O2-  O168  1  0.42673103  0.32162964  0.09061213  1
  O2-  O169  1  0.43053702  0.32090553  0.42566304  1
  O2-  O170  1  0.42261377  0.32220253  0.75577835  1
  O2-  O171  1  0.42826103  0.81892628  0.09630032  1
  O2-  O172  1  0.43294357  0.82183074  0.43302966  1
  O2-  O173  1  0.42652248  0.82056411  0.75523328  1
  O2-  O174  1  0.93146864  0.32218563  0.09743672  1
  O2-  O175  1  0.92824281  0.32004215  0.42906192  1
  O2-  O176  1  0.93198804  0.32162348  0.76438061  1
  O2-  O177  1  0.92851162  0.82415395  0.08935474  1
  O2-  O178  1  0.93137793  0.81873262  0.43418613  1
  O2-  O179  1  0.93021055  0.82346900  0.75835975  1
  O2-  O180  1  0.32285143  0.07074353  0.23665045  1
  O2-  O181  1  0.32052331  0.07028846  0.57619577  1
  O2-  O182  1  0.31790093  0.06711908  0.89821103  1
  O2-  O183  1  0.32080987  0.56819735  0.23559081  1
  O2-  O184  1  0.32057941  0.57351990  0.57648202  1
  O2-  O185  1  0.31671139  0.57197550  0.90026791  1
  O2-  O186  1  0.81793265  0.07231260  0.23486361  1
  O2-  O187  1  0.82378067  0.06996522  0.57593272  1
  O2-  O188  1  0.81932058  0.07214463  0.89991127  1
  O2-  O189  1  0.81934529  0.57102906  0.23505581  1
  O2-  O190  1  0.82278088  0.57222905  0.57600856  1
  O2-  O191  1  0.82315596  0.56653874  0.89803478  1
  O2-  O192  1  0.05379275  0.07802245  0.26851158  1
  O2-  O193  1  0.05673528  0.08056273  0.60681364  1
  O2-  O194  1  0.05097932  0.08200745  0.93527706  1
  O2-  O195  1  0.05199109  0.58197461  0.27269096  1
  O2-  O196  1  0.04553769  0.58546500  0.59447997  1
  O2-  O197  1  0.03852783  0.58977090  0.93984634  1
  O2-  O198  1  0.54230771  0.08675003  0.27287046  1
  O2-  O199  1  0.53527478  0.08405591  0.59514055  1
  O2-  O200  1  0.53552962  0.08442509  0.93309918  1
  O2-  O201  1  0.54581859  0.57639490  0.26888708  1
  O2-  O202  1  0.54302219  0.58540579  0.60499757  1
  O2-  O203  1  0.54556579  0.57684307  0.92892086  1
  O2-  O204  1  0.17156625  0.21050989  0.26743890  1
  O2-  O205  1  0.16834646  0.20721748  0.60331572  1
  O2-  O206  1  0.16718025  0.20340533  0.93551363  1
  O2-  O207  1  0.16527650  0.70678449  0.26930728  1
  O2-  O208  1  0.16637720  0.71518555  0.59723212  1
  O2-  O209  1  0.15939779  0.70786776  0.93802012  1
  O2-  O210  1  0.66082203  0.20771111  0.27087487  1
  O2-  O211  1  0.66468364  0.20950336  0.59581327  1
  O2-  O212  1  0.66344991  0.21110867  0.92958682  1
  O2-  O213  1  0.66862798  0.70615603  0.26739418  1
  O2-  O214  1  0.66512782  0.70446779  0.60732327  1
  O2-  O215  1  0.67115506  0.70610201  0.92750668  1
  O2-  O216  1  0.08261856  0.46406660  0.07169232  1
  O2-  O217  1  0.08478279  0.45291160  0.39871087  1
  O2-  O218  1  0.08737904  0.46043158  0.72573746  1
  O2-  O219  1  0.08120671  0.95046415  0.06194609  1
  O2-  O220  1  0.08495322  0.95425243  0.40123423  1
  O2-  O221  1  0.08697208  0.95153156  0.73096223  1
  O2-  O222  1  0.58109898  0.44519546  0.05848205  1
  O2-  O223  1  0.58454507  0.45028230  0.39863325  1
  O2-  O224  1  0.58324512  0.45710421  0.73617767  1
  O2-  O225  1  0.58054730  0.95924671  0.06931160  1
  O2-  O226  1  0.58716012  0.95644812  0.39745299  1
  O2-  O227  1  0.58256120  0.96294677  0.73375486  1
  O2-  O228  1  0.19789504  0.32890343  0.06831358  1
  O2-  O229  1  0.20828789  0.33705450  0.40162297  1
  O2-  O230  1  0.20604393  0.33898305  0.72974043  1
  O2-  O231  1  0.19960417  0.83332544  0.06305430  1
  O2-  O232  1  0.20232570  0.83457874  0.40038848  1
  O2-  O233  1  0.21124681  0.83776643  0.73069878  1
  O2-  O234  1  0.70528316  0.33407510  0.06148461  1
  O2-  O235  1  0.70459082  0.33339450  0.39711397  1
  O2-  O236  1  0.71087305  0.33099751  0.73215667  1
  O2-  O237  1  0.70391748  0.82930232  0.06733906  1
  O2-  O238  1  0.70557293  0.83503062  0.39548054  1
  O2-  O239  1  0.70626447  0.83220986  0.73692150  1
  O2-  O240  1  0.45803175  0.41091832  0.27132393  1
  O2-  O241  1  0.45255850  0.41867436  0.60615227  1
  O2-  O242  1  0.44659179  0.41618258  0.93774164  1
  O2-  O243  1  0.45993742  0.91982498  0.26663921  1
  O2-  O244  1  0.45828612  0.91234899  0.60355744  1
  O2-  O245  1  0.45807798  0.91719223  0.92928773  1
  O2-  O246  1  0.95854624  0.42006762  0.26557436  1
  O2-  O247  1  0.96384138  0.41393474  0.59499889  1
  O2-  O248  1  0.96495209  0.41745668  0.93116118  1
  O2-  O249  1  0.96259110  0.91491621  0.26528314  1
  O2-  O250  1  0.95593277  0.91672993  0.60672309  1
  O2-  O251  1  0.95527736  0.91491635  0.93531409  1
  O2-  O252  1  0.33647020  0.29538554  0.27467919  1
  O2-  O253  1  0.33293120  0.29896008  0.60282918  1
  O2-  O254  1  0.32981994  0.29648756  0.94046173  1
  O2-  O255  1  0.32732565  0.80113570  0.26994825  1
  O2-  O256  1  0.33869391  0.79373382  0.60185519  1
  O2-  O257  1  0.32792709  0.79282919  0.93056841  1
  O2-  O258  1  0.82780417  0.29406529  0.26391370  1
  O2-  O259  1  0.83395352  0.29170625  0.59551368  1
  O2-  O260  1  0.83427091  0.29119949  0.92989349  1
  O2-  O261  1  0.83328215  0.79107038  0.26577755  1
  O2-  O262  1  0.83276733  0.80054668  0.60777083  1
  O2-  O263  1  0.83609376  0.79471213  0.93686866  1
  O2-  O264  1  0.41437653  0.03644399  0.06666029  1
  O2-  O265  1  0.41805179  0.03838234  0.40530024  1
  O2-  O266  1  0.41132583  0.03989430  0.72764764  1
  O2-  O267  1  0.42183616  0.54614848  0.06546382  1
  O2-  O268  1  0.41668110  0.53697531  0.40343945  1
  O2-  O269  1  0.41254317  0.54757786  0.72921478  1
  O2-  O270  1  0.92135564  0.04926808  0.06423948  1
  O2-  O271  1  0.91990594  0.04172593  0.39974526  1
  O2-  O272  1  0.91906581  0.05165715  0.72728077  1
  O2-  O273  1  0.91351935  0.53805970  0.06823509  1
  O2-  O274  1  0.91901431  0.54269542  0.40146972  1
  O2-  O275  1  0.91944625  0.54428222  0.72398096  1
  O2-  O276  1  0.29301432  0.16529010  0.06717633  1
  O2-  O277  1  0.29212843  0.16745326  0.40532403  1
  O2-  O278  1  0.29585883  0.16450045  0.72776844  1
  O2-  O279  1  0.28813428  0.66828721  0.06733953  1
  O2-  O280  1  0.29157480  0.66911904  0.40190764  1
  O2-  O281  1  0.29098199  0.66565198  0.72733185  1
  O2-  O282  1  0.78769233  0.17054339  0.06546196  1
  O2-  O283  1  0.78867806  0.16732902  0.40166665  1
  O2-  O284  1  0.79508124  0.16622125  0.72431313  1
  O2-  O285  1  0.79261787  0.66723765  0.06426967  1
  O2-  O286  1  0.79063018  0.66761105  0.40366846  1
  O2-  O287  1  0.80184262  0.66581017  0.72727751  1
