# generated using pymatgen
data_Ca2Al2SiO7
_symmetry_space_group_name_H-M   'P 1'
_cell_length_a   15.45500951
_cell_length_b   15.45598066
_cell_length_c   15.28072625
_cell_angle_alpha   90.02412788
_cell_angle_beta   89.99442023
_cell_angle_gamma   89.99661304
_symmetry_Int_Tables_number   1
_chemical_formula_structural   Ca2Al2SiO7
_chemical_formula_sum   'Ca48 Al48 Si24 O168'
_cell_volume   3650.14230432
_cell_formula_units_Z   24
loop_
 _symmetry_equiv_pos_site_id
 _symmetry_equiv_pos_as_xyz
  1  'x, y, z'
loop_
 _atom_type_symbol
 _atom_type_oxidation_number
  Ca2+  2.0
  Al0+  0.0
  Si0+  0.0
  O2-  -2.0
loop_
 _atom_site_type_symbol
 _atom_site_label
 _atom_site_symmetry_multiplicity
 _atom_site_fract_x
 _atom_site_fract_y
 _atom_site_fract_z
 _atom_site_occupancy
  Ca2+  Ca0  1  0.17562257  0.08348904  0.17599995  1
  Ca2+  Ca1  1  0.16775944  0.08428807  0.49442939  1
  Ca2+  Ca2  1  0.17518171  0.08201133  0.83714291  1
  Ca2+  Ca3  1  0.16896746  0.57517236  0.17405156  1
  Ca2+  Ca4  1  0.17312874  0.57151488  0.50967973  1
  Ca2+  Ca5  1  0.17152321  0.58045040  0.83087357  1
  Ca2+  Ca6  1  0.66768247  0.06958132  0.17093141  1
  Ca2+  Ca7  1  0.66365964  0.06912312  0.50424546  1
  Ca2+  Ca8  1  0.66366926  0.07022639  0.83788337  1
  Ca2+  Ca9  1  0.66390318  0.58041979  0.16861082  1
  Ca2+  Ca10  1  0.66218460  0.58324916  0.50673671  1
  Ca2+  Ca11  1  0.65865584  0.57408949  0.83128467  1
  Ca2+  Ca12  1  0.08521152  0.32726953  0.16414940  1
  Ca2+  Ca13  1  0.08556567  0.33335715  0.49474983  1
  Ca2+  Ca14  1  0.07320814  0.33644658  0.82709379  1
  Ca2+  Ca15  1  0.07309752  0.84505579  0.16525073  1
  Ca2+  Ca16  1  0.07265031  0.84035964  0.49268173  1
  Ca2+  Ca17  1  0.07108040  0.83562272  0.82686173  1
  Ca2+  Ca18  1  0.57097234  0.33240297  0.15872050  1
  Ca2+  Ca19  1  0.57042374  0.34130321  0.49779275  1
  Ca2+  Ca20  1  0.57737424  0.33825340  0.82656281  1
  Ca2+  Ca21  1  0.58559349  0.83074158  0.16218815  1
  Ca2+  Ca22  1  0.58678791  0.82400352  0.49711331  1
  Ca2+  Ca23  1  0.57679935  0.83350290  0.82475090  1
  Ca2+  Ca24  1  0.33169999  0.41269971  0.17459617  1
  Ca2+  Ca25  1  0.32678264  0.41526651  0.50840695  1
  Ca2+  Ca26  1  0.33828160  0.42027560  0.83257936  1
  Ca2+  Ca27  1  0.33382250  0.92919290  0.17401342  1
  Ca2+  Ca28  1  0.33370027  0.92112820  0.50504102  1
  Ca2+  Ca29  1  0.34099933  0.92074007  0.84346373  1
  Ca2+  Ca30  1  0.82886153  0.41307597  0.16647851  1
  Ca2+  Ca31  1  0.82810836  0.41987865  0.51212147  1
  Ca2+  Ca32  1  0.82381102  0.41021394  0.83968185  1
  Ca2+  Ca33  1  0.82600970  0.90617941  0.17129993  1
  Ca2+  Ca34  1  0.82635814  0.91000376  0.50444612  1
  Ca2+  Ca35  1  0.82317474  0.90676903  0.83618724  1
  Ca2+  Ca36  1  0.40687812  0.17352324  0.16408040  1
  Ca2+  Ca37  1  0.41015632  0.17744463  0.49590668  1
  Ca2+  Ca38  1  0.41496974  0.17495220  0.83242804  1
  Ca2+  Ca39  1  0.42273927  0.67458789  0.16276552  1
  Ca2+  Ca40  1  0.42671479  0.66267456  0.50063250  1
  Ca2+  Ca41  1  0.42029030  0.67668884  0.82298945  1
  Ca2+  Ca42  1  0.92630326  0.16767912  0.16263303  1
  Ca2+  Ca43  1  0.92268421  0.17327027  0.49572707  1
  Ca2+  Ca44  1  0.91376034  0.17716890  0.82896041  1
  Ca2+  Ca45  1  0.91973570  0.67631072  0.16444946  1
  Ca2+  Ca46  1  0.91350959  0.67799183  0.49695778  1
  Ca2+  Ca47  1  0.91529726  0.67478158  0.83071008  1
  Al0+  Al48  1  -0.00007327  0.00014822  -0.00779256  1
  Al0+  Al49  1  -0.00050470  0.00372676  0.32702436  1
  Al0+  Al50  1  0.00052881  0.00212153  0.66384448  1
  Al0+  Al51  1  0.00007495  0.49980666  -0.00242029  1
  Al0+  Al52  1  -0.00204172  0.50267027  0.33743919  1
  Al0+  Al53  1  -0.00030772  0.50050254  0.66744640  1
  Al0+  Al54  1  0.50050751  0.00084602  0.00760574  1
  Al0+  Al55  1  0.50117763  0.00146599  0.34372599  1
  Al0+  Al56  1  0.49973355  0.00063735  0.66808348  1
  Al0+  Al57  1  0.49948055  0.49986187  0.00215309  1
  Al0+  Al58  1  0.50049777  0.50098402  0.32291612  1
  Al0+  Al59  1  0.49925018  0.50098145  0.66697930  1
  Al0+  Al60  1  0.25063076  0.24989984  -0.00261279  1
  Al0+  Al61  1  0.24806650  0.25095049  0.33335865  1
  Al0+  Al62  1  0.24882905  0.24870150  0.66915594  1
  Al0+  Al63  1  0.25008160  0.74865904  -0.00129275  1
  Al0+  Al64  1  0.25022109  0.74972218  0.33710715  1
  Al0+  Al65  1  0.24893353  0.75049424  0.66728781  1
  Al0+  Al66  1  0.74956250  0.24767765  0.00352963  1
  Al0+  Al67  1  0.74731002  0.24945527  0.33389827  1
  Al0+  Al68  1  0.75100200  0.24850307  0.66462094  1
  Al0+  Al69  1  0.75179034  0.74601441  -0.00009507  1
  Al0+  Al70  1  0.74974066  0.74786048  0.32823097  1
  Al0+  Al71  1  0.74989223  0.74940241  0.66507439  1
  Al0+  Al72  1  0.92859325  0.31984207  0.98789292  1
  Al0+  Al73  1  0.32160463  0.57151834  0.68241668  1
  Al0+  Al74  1  0.68153331  0.92719373  0.34835868  1
  Al0+  Al75  1  0.67803255  0.42781783  0.01515582  1
  Al0+  Al76  1  0.43084220  0.82200070  0.99003748  1
  Al0+  Al77  1  0.43018352  0.31843117  0.31956917  1
  Al0+  Al78  1  0.68050713  0.92858902  0.68089395  1
  Al0+  Al79  1  0.06892767  0.18283880  0.31872316  1
  Al0+  Al80  1  0.92952316  0.82012499  0.98472338  1
  Al0+  Al81  1  0.68124141  0.92737966  0.01403556  1
  Al0+  Al82  1  0.56996814  0.68072416  0.31657362  1
  Al0+  Al83  1  0.17685533  0.92883126  0.34747533  1
  Al0+  Al84  1  0.31972451  0.07081588  0.01406086  1
  Al0+  Al85  1  0.43041712  0.31945803  0.65394588  1
  Al0+  Al86  1  0.92795530  0.32212777  0.65262509  1
  Al0+  Al87  1  0.17816568  0.42653767  0.68463291  1
  Al0+  Al88  1  0.56927838  0.68013544  0.65264221  1
  Al0+  Al89  1  0.32083285  0.07192653  0.35128442  1
  Al0+  Al90  1  0.93112855  0.82045920  0.31902741  1
  Al0+  Al91  1  0.93033073  0.82041813  0.65205795  1
  Al0+  Al92  1  0.42634269  0.82475869  0.65108853  1
  Al0+  Al93  1  0.67975837  0.42829429  0.67816238  1
  Al0+  Al94  1  0.17903395  0.43091876  0.34572575  1
  Al0+  Al95  1  0.42915282  0.32096969  0.98455660  1
  Si0+  Si96  1  0.57364706  0.17536499  0.31654097  1
  Si0+  Si97  1  0.17862165  0.43051443  0.01469304  1
  Si0+  Si98  1  0.82405709  0.56971349  0.01849202  1
  Si0+  Si99  1  0.32067078  0.07010357  0.68350516  1
  Si0+  Si100  1  0.81931345  0.57019028  0.34846795  1
  Si0+  Si101  1  0.07340606  0.67585635  0.98243909  1
  Si0+  Si102  1  0.57224958  0.17746711  0.98489328  1
  Si0+  Si103  1  0.82422078  0.07137069  0.68324788  1
  Si0+  Si104  1  0.07228140  0.17911063  0.64885863  1
  Si0+  Si105  1  0.57335550  0.17650646  0.65001481  1
  Si0+  Si106  1  0.32135578  0.57217966  0.01678365  1
  Si0+  Si107  1  0.57204893  0.67761092  0.98232775  1
  Si0+  Si108  1  0.42679822  0.82494414  0.31853384  1
  Si0+  Si109  1  0.07308140  0.17860978  0.98073318  1
  Si0+  Si110  1  0.82230803  0.57246567  0.68395628  1
  Si0+  Si111  1  0.07351346  0.67644208  0.31854581  1
  Si0+  Si112  1  0.82402791  0.07172752  0.01675408  1
  Si0+  Si113  1  0.17640566  0.92658133  0.01399803  1
  Si0+  Si114  1  0.82235570  0.07411735  0.34971392  1
  Si0+  Si115  1  0.07295087  0.67774474  0.64893653  1
  Si0+  Si116  1  0.92452014  0.32566015  0.31762780  1
  Si0+  Si117  1  0.17666979  0.92923370  0.68167443  1
  Si0+  Si118  1  0.67761031  0.42903742  0.34684172  1
  Si0+  Si119  1  0.32490224  0.57221974  0.34849459  1
  O2-  O120  1  0.24617284  -0.00645817  0.05831024  1
  O2-  O121  1  0.25258912  -0.00477492  0.40039276  1
  O2-  O122  1  0.25332571  -0.00578958  0.72439074  1
  O2-  O123  1  0.25089625  0.49975772  0.05804637  1
  O2-  O124  1  0.25297821  0.50647190  0.39159714  1
  O2-  O125  1  0.25066107  0.49849011  0.73416547  1
  O2-  O126  1  0.75993031  -0.00130570  0.06083001  1
  O2-  O127  1  0.75528703  0.00402916  0.39403572  1
  O2-  O128  1  0.75596084  0.00269686  0.72810209  1
  O2-  O129  1  0.75471970  0.50098217  0.06218375  1
  O2-  O130  1  0.75220466  0.49530295  0.38977434  1
  O2-  O131  1  0.75730714  0.49951731  0.72678926  1
  O2-  O132  1  -0.00621396  0.25815547  0.27295184  1
  O2-  O133  1  0.00528809  0.25055619  0.60625562  1
  O2-  O134  1  0.00173388  0.24527867  0.93829712  1
  O2-  O135  1  0.01181009  0.75092145  0.27294469  1
  O2-  O136  1  0.00598604  0.74764195  0.60411888  1
  O2-  O137  1  0.00777094  0.74830915  0.93942043  1
  O2-  O138  1  0.50381173  0.24271910  0.27215808  1
  O2-  O139  1  0.50685167  0.24734793  0.60580446  1
  O2-  O140  1  0.50727917  0.24906750  0.93940030  1
  O2-  O141  1  0.49580006  0.75732326  0.27248371  1
  O2-  O142  1  0.49811623  0.75251822  0.60146235  1
  O2-  O143  1  0.50594151  0.74944315  0.94038310  1
  O2-  O144  1  0.07387098  0.17949210  0.08633626  1
  O2-  O145  1  0.06726671  0.18434842  0.43176174  1
  O2-  O146  1  0.07117517  0.17659354  0.75461160  1
  O2-  O147  1  0.07242380  0.67199905  0.08806643  1
  O2-  O148  1  0.06795201  0.67235915  0.42347880  1
  O2-  O149  1  0.07174186  0.67973322  0.75498223  1
  O2-  O150  1  0.57127520  0.17834691  0.09053815  1
  O2-  O151  1  0.57696984  0.17833189  0.42194100  1
  O2-  O152  1  0.57171513  0.17494558  0.75586221  1
  O2-  O153  1  0.57061913  0.67778784  0.08834049  1
  O2-  O154  1  0.57087826  0.67777734  0.42908146  1
  O2-  O155  1  0.56916516  0.68087995  0.76638544  1
  O2-  O156  1  0.17946198  0.43168296  0.23173223  1
  O2-  O157  1  0.17940884  0.42704745  0.57082143  1
  O2-  O158  1  0.17695821  0.43252851  0.91015863  1
  O2-  O159  1  0.17666710  0.93253025  0.23351524  1
  O2-  O160  1  0.17303158  0.93297686  0.57705840  1
  O2-  O161  1  0.17604939  0.92823979  0.90801939  1
  O2-  O162  1  0.67902902  0.43017226  0.24161758  1
  O2-  O163  1  0.68038021  0.43117480  0.56456020  1
  O2-  O164  1  0.67822032  0.42964236  0.90212476  1
  O2-  O165  1  0.68339376  0.92708387  0.23486437  1
  O2-  O166  1  0.68301840  0.92825555  0.56786619  1
  O2-  O167  1  0.68071492  0.92883002  0.90099194  1
  O2-  O168  1  0.42684879  0.31972223  0.09777575  1
  O2-  O169  1  0.43139541  0.32058690  0.43266542  1
  O2-  O170  1  0.43145416  0.31724473  0.76715610  1
  O2-  O171  1  0.43087939  0.81999867  0.10317807  1
  O2-  O172  1  0.42738357  0.82257175  0.42369699  1
  O2-  O173  1  0.42954679  0.82601489  0.76534785  1
  O2-  O174  1  0.93229150  0.31904384  0.10121963  1
  O2-  O175  1  0.92356661  0.32482374  0.42309063  1
  O2-  O176  1  0.92669351  0.31866339  0.76593249  1
  O2-  O177  1  0.93037719  0.81856063  0.09791798  1
  O2-  O178  1  0.92922373  0.81769427  0.43199954  1
  O2-  O179  1  0.93094813  0.81861959  0.76533283  1
  O2-  O180  1  0.31848966  0.07264185  0.23742947  1
  O2-  O181  1  0.31875980  0.07291992  0.57889118  1
  O2-  O182  1  0.31834275  0.07077441  0.90053740  1
  O2-  O183  1  0.32364629  0.57108076  0.24220451  1
  O2-  O184  1  0.32064834  0.56834759  0.56856793  1
  O2-  O185  1  0.32102725  0.57341328  0.91222286  1
  O2-  O186  1  0.82061511  0.07589660  0.24402081  1
  O2-  O187  1  0.82515932  0.07066193  0.57765997  1
  O2-  O188  1  0.82205067  0.07412431  0.91126587  1
  O2-  O189  1  0.82058352  0.57002762  0.24328990  1
  O2-  O190  1  0.82177711  0.57290453  0.57794246  1
  O2-  O191  1  0.82617754  0.57039205  0.91326514  1
  O2-  O192  1  0.03831574  0.08835838  0.26018008  1
  O2-  O193  1  0.04378132  0.08737209  0.60051664  1
  O2-  O194  1  0.05054464  0.08476517  0.93337542  1
  O2-  O195  1  0.03989274  0.58589199  0.26880734  1
  O2-  O196  1  0.04643194  0.58423952  0.60363957  1
  O2-  O197  1  0.04339721  0.58483206  0.93352237  1
  O2-  O198  1  0.54975206  0.08011806  0.27320469  1
  O2-  O199  1  0.54412865  0.08461414  0.60299320  1
  O2-  O200  1  0.54207940  0.08521038  0.93880646  1
  O2-  O201  1  0.53857394  0.58615728  0.25807834  1
  O2-  O202  1  0.53981952  0.58249000  0.59818639  1
  O2-  O203  1  0.54190367  0.58505154  0.93770956  1
  O2-  O204  1  0.16396568  0.21539318  0.26294536  1
  O2-  O205  1  0.16595265  0.20320079  0.60313324  1
  O2-  O206  1  0.16452855  0.20772911  0.93296296  1
  O2-  O207  1  0.17028636  0.69277072  0.27496488  1
  O2-  O208  1  0.16689436  0.70037920  0.60351849  1
  O2-  O209  1  0.16768944  0.69802863  0.93644085  1
  O2-  O210  1  0.66681971  0.20140156  0.26843506  1
  O2-  O211  1  0.66790272  0.19700434  0.60416440  1
  O2-  O212  1  0.66733363  0.19774353  0.93990498  1
  O2-  O213  1  0.66599896  0.71001180  0.26046782  1
  O2-  O214  1  0.66811548  0.70673493  0.59932637  1
  O2-  O215  1  0.66780406  0.69659728  0.93913866  1
  O2-  O216  1  0.08732528  0.45950252  0.06311195  1
  O2-  O217  1  0.08144433  0.45970334  0.39974895  1
  O2-  O218  1  0.07916736  0.45763262  0.73612964  1
  O2-  O219  1  0.08227760  0.95477236  0.05811350  1
  O2-  O220  1  0.07892325  0.96382100  0.39848830  1
  O2-  O221  1  0.08730922  0.96386263  0.73137022  1
  O2-  O222  1  0.58231876  0.46123986  0.07038507  1
  O2-  O223  1  0.58646154  0.46244361  0.39148128  1
  O2-  O224  1  0.58481596  0.46170070  0.73326019  1
  O2-  O225  1  0.58729926  0.96167405  0.07089981  1
  O2-  O226  1  0.58579515  0.95624065  0.40437741  1
  O2-  O227  1  0.58388051  0.96174557  0.73448243  1
  O2-  O228  1  0.20592752  0.33748343  0.05956867  1
  O2-  O229  1  0.20987633  0.33559625  0.40004567  1
  O2-  O230  1  0.20404338  0.32743105  0.73719004  1
  O2-  O231  1  0.19668118  0.83118132  0.05857204  1
  O2-  O232  1  0.19526708  0.82696042  0.39820151  1
  O2-  O233  1  0.19532211  0.83503728  0.72767236  1
  O2-  O234  1  0.70741419  0.33067590  0.06958984  1
  O2-  O235  1  0.69863305  0.33524710  0.39323283  1
  O2-  O236  1  0.70753385  0.32996977  0.73095813  1
  O2-  O237  1  0.71084789  0.82898799  0.06587463  1
  O2-  O238  1  0.71557083  0.83022824  0.39929771  1
  O2-  O239  1  0.71215659  0.83211111  0.73445867  1
  O2-  O240  1  0.46195921  0.41332514  0.26227563  1
  O2-  O241  1  0.45964584  0.41604521  0.60039892  1
  O2-  O242  1  0.45859528  0.41925677  0.93380074  1
  O2-  O243  1  0.45247148  0.92042864  0.27670454  1
  O2-  O244  1  0.45375753  0.92389368  0.59982859  1
  O2-  O245  1  0.46048490  0.91978843  0.93801232  1
  O2-  O246  1  0.94828174  0.42052599  0.27340230  1
  O2-  O247  1  0.95426148  0.42065356  0.60038189  1
  O2-  O248  1  0.95869048  0.41640037  0.93388159  1
  O2-  O249  1  0.95577879  0.91832205  0.26448152  1
  O2-  O250  1  0.96006284  0.91812049  0.59986397  1
  O2-  O251  1  0.95586869  0.91727699  0.92904010  1
  O2-  O252  1  0.33325752  0.28840195  0.26613668  1
  O2-  O253  1  0.33319770  0.28596636  0.60253714  1
  O2-  O254  1  0.33348989  0.28822311  0.93016159  1
  O2-  O255  1  0.33235726  0.79991855  0.27266526  1
  O2-  O256  1  0.32573069  0.80025100  0.60149862  1
  O2-  O257  1  0.33311522  0.79284942  0.93644361  1
  O2-  O258  1  0.83044162  0.29901124  0.27226070  1
  O2-  O259  1  0.83282196  0.28928636  0.59637954  1
  O2-  O260  1  0.83111125  0.28880679  0.93550395  1
  O2-  O261  1  0.83810551  0.78126230  0.26381785  1
  O2-  O262  1  0.83505680  0.78683394  0.59828929  1
  O2-  O263  1  0.83438326  0.78375892  0.93119712  1
  O2-  O264  1  0.41555307  0.04325836  0.07068703  1
  O2-  O265  1  0.42040000  0.05145032  0.40514838  1
  O2-  O266  1  0.41352772  0.04714392  0.73111059  1
  O2-  O267  1  0.41270988  0.54494936  0.06510016  1
  O2-  O268  1  0.41809585  0.54182882  0.39189222  1
  O2-  O269  1  0.41894835  0.54273695  0.73689680  1
  O2-  O270  1  0.92053663  0.04950640  0.05894301  1
  O2-  O271  1  0.91678946  0.05081667  0.39374129  1
  O2-  O272  1  0.91826693  0.04782420  0.72993545  1
  O2-  O273  1  0.91752544  0.54353296  0.06578242  1
  O2-  O274  1  0.91117668  0.54780132  0.39874610  1
  O2-  O275  1  0.91711638  0.55214108  0.72941659  1
  O2-  O276  1  0.28530408  0.16724052  0.06713708  1
  O2-  O277  1  0.28428518  0.16812335  0.40351274  1
  O2-  O278  1  0.28748517  0.15925903  0.73321855  1
  O2-  O279  1  0.29212778  0.66328084  0.06599870  1
  O2-  O280  1  0.30532580  0.66684603  0.39437291  1
  O2-  O281  1  0.29154763  0.67045167  0.73593311  1
  O2-  O282  1  0.79660298  0.16287215  0.06696162  1
  O2-  O283  1  0.79624226  0.16766817  0.39730546  1
  O2-  O284  1  0.79764340  0.16486974  0.72928782  1
  O2-  O285  1  0.79712481  0.66240883  0.06620657  1
  O2-  O286  1  0.78669672  0.66004261  0.39602848  1
  O2-  O287  1  0.79231454  0.66389485  0.73176400  1
