# generated using pymatgen
data_Ca2Al2SiO7
_symmetry_space_group_name_H-M   'P 1'
_cell_length_a   15.46177133
_cell_length_b   15.46322194
_cell_length_c   15.28584353
_cell_angle_alpha   89.98869397
_cell_angle_beta   90.00128155
_cell_angle_gamma   89.99910104
_symmetry_Int_Tables_number   1
_chemical_formula_structural   Ca2Al2SiO7
_chemical_formula_sum   'Ca48 Al48 Si24 O168'
_cell_volume   3654.67393974
_cell_formula_units_Z   24
loop_
 _symmetry_equiv_pos_site_id
 _symmetry_equiv_pos_as_xyz
  1  'x, y, z'
loop_
 _atom_type_symbol
 _atom_type_oxidation_number
  Ca2+  2.0
  Al0+  0.0
  Si0+  0.0
  O2-  -2.0
loop_
 _atom_site_type_symbol
 _atom_site_label
 _atom_site_symmetry_multiplicity
 _atom_site_fract_x
 _atom_site_fract_y
 _atom_site_fract_z
 _atom_site_occupancy
  Ca2+  Ca0  1  0.16865246  0.08935035  0.16356478  1
  Ca2+  Ca1  1  0.17181163  0.07591064  0.51228702  1
  Ca2+  Ca2  1  0.17598972  0.08566188  0.83970586  1
  Ca2+  Ca3  1  0.17145133  0.58505999  0.17454514  1
  Ca2+  Ca4  1  0.17512290  0.57975347  0.50026910  1
  Ca2+  Ca5  1  0.17903877  0.58687601  0.83994991  1
  Ca2+  Ca6  1  0.67018112  0.09394886  0.16702283  1
  Ca2+  Ca7  1  0.66222915  0.07911359  0.50407047  1
  Ca2+  Ca8  1  0.66693702  0.07765070  0.84385255  1
  Ca2+  Ca9  1  0.66476569  0.57644909  0.16422540  1
  Ca2+  Ca10  1  0.67363334  0.57736709  0.51521408  1
  Ca2+  Ca11  1  0.66075157  0.57314552  0.83757410  1
  Ca2+  Ca12  1  0.07301892  0.33752705  0.16030330  1
  Ca2+  Ca13  1  0.07659469  0.33985171  0.49137877  1
  Ca2+  Ca14  1  0.08103508  0.32954187  0.83421366  1
  Ca2+  Ca15  1  0.08158552  0.82164247  0.15753923  1
  Ca2+  Ca16  1  0.08838060  0.82737578  0.49666236  1
  Ca2+  Ca17  1  0.08136208  0.83399440  0.83396762  1
  Ca2+  Ca18  1  0.57865293  0.32726243  0.16155265  1
  Ca2+  Ca19  1  0.57125976  0.33560049  0.49740094  1
  Ca2+  Ca20  1  0.58312831  0.33170746  0.82941830  1
  Ca2+  Ca21  1  0.57963407  0.82265023  0.15854959  1
  Ca2+  Ca22  1  0.58625247  0.82808633  0.50258480  1
  Ca2+  Ca23  1  0.58878539  0.82070404  0.82792000  1
  Ca2+  Ca24  1  0.32691434  0.42687451  0.17422575  1
  Ca2+  Ca25  1  0.33721999  0.42148949  0.50301235  1
  Ca2+  Ca26  1  0.34060150  0.42503929  0.83658950  1
  Ca2+  Ca27  1  0.33659757  0.92460635  0.16609806  1
  Ca2+  Ca28  1  0.32840629  0.92576295  0.51059515  1
  Ca2+  Ca29  1  0.33058411  0.92758414  0.83613974  1
  Ca2+  Ca30  1  0.82874535  0.40344752  0.16656637  1
  Ca2+  Ca31  1  0.82807213  0.42110467  0.50681853  1
  Ca2+  Ca32  1  0.82228149  0.41766675  0.83812346  1
  Ca2+  Ca33  1  0.83978752  0.92061123  0.16227242  1
  Ca2+  Ca34  1  0.82566785  0.91995812  0.50877847  1
  Ca2+  Ca35  1  0.82995606  0.91872301  0.84012308  1
  Ca2+  Ca36  1  0.42438754  0.17110093  0.15974456  1
  Ca2+  Ca37  1  0.41754785  0.17818405  0.49505556  1
  Ca2+  Ca38  1  0.41612729  0.16969514  0.82735021  1
  Ca2+  Ca39  1  0.41514677  0.66336988  0.15866963  1
  Ca2+  Ca40  1  0.41955239  0.65769124  0.50052433  1
  Ca2+  Ca41  1  0.42513361  0.65718278  0.82865020  1
  Ca2+  Ca42  1  0.92162131  0.17569992  0.15477957  1
  Ca2+  Ca43  1  0.91843418  0.17473629  0.49315401  1
  Ca2+  Ca44  1  0.91561941  0.16761466  0.83868680  1
  Ca2+  Ca45  1  0.93125726  0.66935351  0.15694720  1
  Ca2+  Ca46  1  0.92270377  0.66372614  0.49480441  1
  Ca2+  Ca47  1  0.91877362  0.66691703  0.83100093  1
  Al0+  Al48  1  -0.00046010  -0.00000684  -0.00212009  1
  Al0+  Al49  1  -0.00167200  0.00065018  0.33613747  1
  Al0+  Al50  1  -0.00045816  -0.00148956  0.66735786  1
  Al0+  Al51  1  -0.00130297  0.50091480  -0.01096207  1
  Al0+  Al52  1  -0.00015683  0.50143440  0.32747869  1
  Al0+  Al53  1  0.00075701  0.50053304  0.66890290  1
  Al0+  Al54  1  0.49942731  -0.00081769  0.00230924  1
  Al0+  Al55  1  0.50164085  -0.00248840  0.33100944  1
  Al0+  Al56  1  0.50062480  -0.00216767  0.67431624  1
  Al0+  Al57  1  0.50000279  0.49936930  0.00737059  1
  Al0+  Al58  1  0.50124473  0.49928511  0.33260989  1
  Al0+  Al59  1  0.50101049  0.49809173  0.66417708  1
  Al0+  Al60  1  0.24940304  0.25218189  0.00245387  1
  Al0+  Al61  1  0.24935541  0.25110954  0.33366570  1
  Al0+  Al62  1  0.24956065  0.25001434  0.66377076  1
  Al0+  Al63  1  0.25055924  0.75245953  0.00001229  1
  Al0+  Al64  1  0.25199854  0.75128599  0.33381524  1
  Al0+  Al65  1  0.25011575  0.75031944  0.67338183  1
  Al0+  Al66  1  0.74821135  0.24837973  -0.00021975  1
  Al0+  Al67  1  0.75090825  0.24908277  0.33131374  1
  Al0+  Al68  1  0.75108986  0.25006580  0.66698223  1
  Al0+  Al69  1  0.74913307  0.74798008  -0.00502719  1
  Al0+  Al70  1  0.74954368  0.75171496  0.33282443  1
  Al0+  Al71  1  0.75262766  0.75138975  0.66758150  1
  Al0+  Al72  1  0.68039124  0.42849944  0.01604963  1
  Al0+  Al73  1  0.42663926  0.32353958  0.31577043  1
  Al0+  Al74  1  0.17632985  0.42921305  0.34702699  1
  Al0+  Al75  1  0.17739797  0.92786508  0.68315707  1
  Al0+  Al76  1  0.32050981  0.56820511  0.68023348  1
  Al0+  Al77  1  0.56937889  0.17851256  0.98548610  1
  Al0+  Al78  1  0.07256370  0.18024703  0.98474438  1
  Al0+  Al79  1  0.67930199  0.92951218  0.68091507  1
  Al0+  Al80  1  0.67899558  0.42875412  0.68083312  1
  Al0+  Al81  1  0.92597852  0.32145507  0.98162053  1
  Al0+  Al82  1  0.92923363  0.82044618  0.98386208  1
  Al0+  Al83  1  0.32190045  0.07322890  0.01605396  1
  Al0+  Al84  1  0.56776641  0.67750816  0.98690387  1
  Al0+  Al85  1  0.42900791  0.31980355  0.65352743  1
  Al0+  Al86  1  0.32052066  0.07324043  0.68082260  1
  Al0+  Al87  1  0.32243987  0.57211686  0.35003962  1
  Al0+  Al88  1  0.07413703  0.67843666  0.98172151  1
  Al0+  Al89  1  0.31944929  0.57130399  0.01382805  1
  Al0+  Al90  1  0.57114028  0.67953919  0.65254023  1
  Al0+  Al91  1  0.81972348  0.06895535  0.01449951  1
  Al0+  Al92  1  0.07117784  0.68195279  0.32145672  1
  Al0+  Al93  1  0.93059891  0.32093935  0.32067307  1
  Al0+  Al94  1  0.56888460  0.17745494  0.31907112  1
  Al0+  Al95  1  0.82380790  0.57183966  0.68145723  1
  Si0+  Si96  1  0.17824789  0.93015363  0.01880116  1
  Si0+  Si97  1  0.68071044  0.42797556  0.34858389  1
  Si0+  Si98  1  0.42758456  0.82200057  0.65083857  1
  Si0+  Si99  1  0.42764762  0.82347246  0.98227752  1
  Si0+  Si100  1  0.42858517  0.32156879  0.98467249  1
  Si0+  Si101  1  0.07309989  0.67907868  0.65034847  1
  Si0+  Si102  1  0.82259632  0.57256929  0.01706142  1
  Si0+  Si103  1  0.57319855  0.67895328  0.31938440  1
  Si0+  Si104  1  0.92596052  0.82383754  0.31767883  1
  Si0+  Si105  1  0.17530286  0.42933806  0.01494639  1
  Si0+  Si106  1  0.06990820  0.17850824  0.65096351  1
  Si0+  Si107  1  0.92925930  0.32144908  0.65042912  1
  Si0+  Si108  1  0.17628728  0.42689152  0.68357978  1
  Si0+  Si109  1  0.17885610  0.93060535  0.34690061  1
  Si0+  Si110  1  0.32314097  0.07024455  0.34713273  1
  Si0+  Si111  1  0.67791256  0.92495257  0.01895317  1
  Si0+  Si112  1  0.82019904  0.07098622  0.34920111  1
  Si0+  Si113  1  0.43009745  0.82061752  0.31923484  1
  Si0+  Si114  1  0.07193669  0.17456568  0.31896590  1
  Si0+  Si115  1  0.67868600  0.92698469  0.34880098  1
  Si0+  Si116  1  0.93016837  0.82179158  0.64911938  1
  Si0+  Si117  1  0.82229296  0.07258232  0.68266979  1
  Si0+  Si118  1  0.81957497  0.57346908  0.34541712  1
  Si0+  Si119  1  0.57338624  0.17506873  0.65204912  1
  O2-  O120  1  0.24627690  -0.00065077  0.06393524  1
  O2-  O121  1  0.24636238  0.00494127  0.38920679  1
  O2-  O122  1  0.24793747  0.00189163  0.73091090  1
  O2-  O123  1  0.23945450  0.50215106  0.05925275  1
  O2-  O124  1  0.25231745  0.49678793  0.39829383  1
  O2-  O125  1  0.24633645  0.49369928  0.72759105  1
  O2-  O126  1  0.74512529  -0.00531565  0.06411184  1
  O2-  O127  1  0.74894686  -0.00042516  0.39033031  1
  O2-  O128  1  0.74980906  0.00812225  0.72600152  1
  O2-  O129  1  0.75824225  0.50079447  0.06351642  1
  O2-  O130  1  0.74917341  0.50251878  0.38919703  1
  O2-  O131  1  0.74938177  0.50242526  0.73058004  1
  O2-  O132  1  0.00820137  0.24816510  0.27640679  1
  O2-  O133  1  0.00023429  0.25035423  0.60747215  1
  O2-  O134  1  0.00065514  0.25122151  0.93279851  1
  O2-  O135  1  -0.00382390  0.75676476  0.27527476  1
  O2-  O136  1  0.00101040  0.74989585  0.60777015  1
  O2-  O137  1  -0.00026573  0.74827482  0.93196177  1
  O2-  O138  1  0.49703442  0.24869875  0.26799043  1
  O2-  O139  1  0.50377558  0.24297955  0.60839489  1
  O2-  O140  1  0.49290278  0.25001096  0.93856715  1
  O2-  O141  1  0.49709152  0.74507008  0.27826483  1
  O2-  O142  1  0.49526755  0.75315651  0.60420480  1
  O2-  O143  1  0.49409405  0.75250572  0.93926856  1
  O2-  O144  1  0.07134065  0.18192062  0.09890794  1
  O2-  O145  1  0.06672735  0.16871824  0.42477543  1
  O2-  O146  1  0.06954605  0.17880287  0.75537206  1
  O2-  O147  1  0.07409750  0.68107610  0.09598239  1
  O2-  O148  1  0.06973777  0.68385399  0.43505253  1
  O2-  O149  1  0.07267826  0.67946491  0.75472811  1
  O2-  O150  1  0.56874747  0.18080417  0.09863555  1
  O2-  O151  1  0.56734839  0.17453881  0.43301085  1
  O2-  O152  1  0.57458330  0.17572904  0.75728472  1
  O2-  O153  1  0.56690680  0.67959555  0.10100181  1
  O2-  O154  1  0.57735740  0.68223518  0.42430502  1
  O2-  O155  1  0.56920563  0.67930389  0.76513629  1
  O2-  O156  1  0.17336248  0.43386474  0.23384047  1
  O2-  O157  1  0.17273679  0.42938930  0.57795984  1
  O2-  O158  1  0.17937296  0.42685720  0.90927685  1
  O2-  O159  1  0.17862789  0.93019183  0.24227083  1
  O2-  O160  1  0.17829020  0.92961961  0.56815967  1
  O2-  O161  1  0.18018687  0.93029443  0.91356909  1
  O2-  O162  1  0.68167698  0.42786968  0.24361618  1
  O2-  O163  1  0.68189764  0.42912777  0.56628493  1
  O2-  O164  1  0.67826285  0.43028337  0.90335837  1
  O2-  O165  1  0.67894717  0.92206217  0.24449119  1
  O2-  O166  1  0.68154507  0.93013717  0.56667152  1
  O2-  O167  1  0.67882053  0.92567917  0.91347039  1
  O2-  O168  1  0.43038254  0.32058026  0.09022600  1
  O2-  O169  1  0.43016488  0.32271547  0.42973915  1
  O2-  O170  1  0.42933540  0.31961937  0.76641117  1
  O2-  O171  1  0.42940147  0.82368976  0.08885870  1
  O2-  O172  1  0.43169261  0.82579926  0.42398577  1
  O2-  O173  1  0.42874972  0.82213818  0.75590236  1
  O2-  O174  1  0.92805561  0.31867882  0.09566685  1
  O2-  O175  1  0.92881458  0.31853125  0.43446344  1
  O2-  O176  1  0.92889386  0.32026080  0.75467054  1
  O2-  O177  1  0.93193818  0.81891650  0.09841963  1
  O2-  O178  1  0.92411223  0.82416713  0.42341003  1
  O2-  O179  1  0.93007006  0.82445272  0.75336966  1
  O2-  O180  1  0.32429601  0.06607278  0.24224593  1
  O2-  O181  1  0.31832448  0.07151104  0.56614409  1
  O2-  O182  1  0.32130378  0.07148568  0.90344027  1
  O2-  O183  1  0.31981365  0.57513231  0.23666330  1
  O2-  O184  1  0.31873697  0.56832634  0.56718255  1
  O2-  O185  1  0.32223297  0.56743604  0.90076114  1
  O2-  O186  1  0.82271268  0.07005541  0.24476650  1
  O2-  O187  1  0.82375032  0.07100338  0.57621279  1
  O2-  O188  1  0.81690305  0.06712094  0.90133993  1
  O2-  O189  1  0.81653962  0.57748729  0.24089857  1
  O2-  O190  1  0.82518891  0.56855806  0.56643687  1
  O2-  O191  1  0.81884719  0.57347370  0.91183913  1
  O2-  O192  1  0.04136230  0.08309228  0.27065583  1
  O2-  O193  1  0.04032386  0.08659229  0.60313280  1
  O2-  O194  1  0.04488981  0.08168970  0.93325305  1
  O2-  O195  1  0.03919657  0.58781948  0.26499481  1
  O2-  O196  1  0.04488793  0.58662536  0.60354144  1
  O2-  O197  1  0.04993678  0.58042867  0.92743995  1
  O2-  O198  1  0.54447491  0.07783759  0.26582548  1
  O2-  O199  1  0.54896874  0.07990772  0.60795906  1
  O2-  O200  1  0.54227889  0.07939853  0.93513287  1
  O2-  O201  1  0.55162611  0.58551233  0.27370057  1
  O2-  O202  1  0.54140599  0.58334397  0.59713887  1
  O2-  O203  1  0.53516302  0.58079815  0.93520154  1
  O2-  O204  1  0.16811640  0.19251278  0.27672649  1
  O2-  O205  1  0.16168913  0.20349462  0.60201019  1
  O2-  O206  1  0.17090380  0.21012291  0.93182712  1
  O2-  O207  1  0.16739691  0.71469142  0.26800689  1
  O2-  O208  1  0.16458080  0.70965357  0.60338879  1
  O2-  O209  1  0.17193039  0.71106358  0.93027350  1
  O2-  O210  1  0.66813592  0.20637423  0.26878111  1
  O2-  O211  1  0.66771518  0.19964089  0.60526940  1
  O2-  O212  1  0.66512817  0.20849406  0.93169905  1
  O2-  O213  1  0.66222247  0.71276987  0.26958275  1
  O2-  O214  1  0.66830263  0.71292782  0.59903091  1
  O2-  O215  1  0.66403466  0.70665740  0.93278258  1
  O2-  O216  1  0.07854378  0.45106744  0.05600301  1
  O2-  O217  1  0.07829947  0.46237115  0.40070049  1
  O2-  O218  1  0.08392015  0.45289886  0.73101810  1
  O2-  O219  1  0.08444894  0.95438204  0.06459699  1
  O2-  O220  1  0.08558022  0.95429042  0.39534889  1
  O2-  O221  1  0.07815196  0.95478524  0.73353197  1
  O2-  O222  1  0.58650068  0.46339791  0.07337009  1
  O2-  O223  1  0.58822946  0.45416901  0.39475170  1
  O2-  O224  1  0.58119740  0.45646752  0.73324949  1
  O2-  O225  1  0.58342968  0.94823733  0.06410730  1
  O2-  O226  1  0.58690399  0.95432479  0.39697617  1
  O2-  O227  1  0.58271126  0.95220639  0.73733744  1
  O2-  O228  1  0.20277506  0.33784360  0.06412919  1
  O2-  O229  1  0.19597326  0.32721745  0.39861419  1
  O2-  O230  1  0.19943840  0.33203919  0.72660415  1
  O2-  O231  1  0.20650746  0.83736802  0.06582506  1
  O2-  O232  1  0.21057066  0.84089321  0.39593931  1
  O2-  O233  1  0.20531441  0.83123322  0.73763875  1
  O2-  O234  1  0.71020373  0.33175456  0.07003659  1
  O2-  O235  1  0.71174120  0.33724098  0.39608566  1
  O2-  O236  1  0.70808860  0.33003233  0.73240357  1
  O2-  O237  1  0.70547888  0.83129524  0.06468274  1
  O2-  O238  1  0.70894599  0.83675520  0.39942435  1
  O2-  O239  1  0.71452556  0.83508398  0.73450961  1
  O2-  O240  1  0.45814890  0.42139024  0.26342267  1
  O2-  O241  1  0.46314514  0.41384826  0.59617292  1
  O2-  O242  1  0.45996363  0.41387258  0.94040743  1
  O2-  O243  1  0.46267125  0.90899505  0.26755495  1
  O2-  O244  1  0.45532270  0.91575348  0.60444407  1
  O2-  O245  1  0.45483350  0.91614218  0.93645459  1
  O2-  O246  1  0.95578440  0.41745910  0.26462744  1
  O2-  O247  1  0.95805831  0.41363762  0.60338293  1
  O2-  O248  1  0.94898945  0.42013710  0.92793758  1
  O2-  O249  1  0.95109813  0.91829158  0.27319142  1
  O2-  O250  1  0.95780736  0.91351362  0.59923726  1
  O2-  O251  1  0.95739791  0.91838977  0.93090662  1
  O2-  O252  1  0.32601463  0.29902766  0.26589154  1
  O2-  O253  1  0.33193115  0.29119831  0.59727150  1
  O2-  O254  1  0.33347978  0.30118381  0.94061855  1
  O2-  O255  1  0.33785984  0.79743986  0.27073272  1
  O2-  O256  1  0.33271387  0.79772723  0.60585149  1
  O2-  O257  1  0.33308990  0.80272253  0.93808938  1
  O2-  O258  1  0.83588196  0.28590659  0.26666577  1
  O2-  O259  1  0.83759020  0.29326851  0.60160741  1
  O2-  O260  1  0.82962380  0.28715268  0.92953411  1
  O2-  O261  1  0.83288798  0.79835613  0.27073179  1
  O2-  O262  1  0.83886581  0.79479585  0.59965702  1
  O2-  O263  1  0.83020372  0.79424201  0.93173248  1
  O2-  O264  1  0.41705516  0.03797588  0.07155552  1
  O2-  O265  1  0.41247079  0.03491105  0.39480107  1
  O2-  O266  1  0.41812089  0.04514767  0.73409985  1
  O2-  O267  1  0.41326934  0.53733452  0.07089042  1
  O2-  O268  1  0.42319212  0.54546670  0.40022910  1
  O2-  O269  1  0.41717035  0.53633150  0.73194643  1
  O2-  O270  1  0.91686942  0.03825801  0.06877720  1
  O2-  O271  1  0.91134713  0.04310573  0.39968261  1
  O2-  O272  1  0.91394877  0.04249281  0.72860235  1
  O2-  O273  1  0.91942087  0.55111721  0.05821691  1
  O2-  O274  1  0.91169819  0.54558396  0.39137307  1
  O2-  O275  1  0.92114714  0.54269023  0.73501915  1
  O2-  O276  1  0.29099610  0.16975363  0.07051048  1
  O2-  O277  1  0.30199804  0.16444895  0.39194447  1
  O2-  O278  1  0.29076729  0.17111326  0.73313460  1
  O2-  O279  1  0.29505580  0.67110578  0.06535094  1
  O2-  O280  1  0.29362637  0.67147226  0.40243484  1
  O2-  O281  1  0.29225457  0.66490221  0.73409837  1
  O2-  O282  1  0.78801757  0.16478288  0.06917027  1
  O2-  O283  1  0.79195897  0.16200749  0.39844637  1
  O2-  O284  1  0.80269126  0.16757769  0.72675524  1
  O2-  O285  1  0.79320124  0.66516852  0.06374940  1
  O2-  O286  1  0.79253887  0.66535348  0.39494327  1
  O2-  O287  1  0.80138972  0.67207463  0.73045697  1
