# generated using pymatgen
data_Ca2Al2SiO7
_symmetry_space_group_name_H-M   'P 1'
_cell_length_a   15.45544411
_cell_length_b   15.45518101
_cell_length_c   15.28202772
_cell_angle_alpha   89.99183161
_cell_angle_beta   90.00203911
_cell_angle_gamma   90.00105202
_symmetry_Int_Tables_number   1
_chemical_formula_structural   Ca2Al2SiO7
_chemical_formula_sum   'Ca48 Al48 Si24 O168'
_cell_volume   3650.36727995
_cell_formula_units_Z   24
loop_
 _symmetry_equiv_pos_site_id
 _symmetry_equiv_pos_as_xyz
  1  'x, y, z'
loop_
 _atom_type_symbol
 _atom_type_oxidation_number
  Ca2+  2.0
  Al0+  0.0
  Si0+  0.0
  O2-  -2.0
loop_
 _atom_site_type_symbol
 _atom_site_label
 _atom_site_symmetry_multiplicity
 _atom_site_fract_x
 _atom_site_fract_y
 _atom_site_fract_z
 _atom_site_occupancy
  Ca2+  Ca0  1  0.17260233  0.08477753  0.17009690  1
  Ca2+  Ca1  1  0.16613900  0.08550396  0.50232683  1
  Ca2+  Ca2  1  0.17518535  0.08076655  0.84175831  1
  Ca2+  Ca3  1  0.17985888  0.58896352  0.17256237  1
  Ca2+  Ca4  1  0.16964996  0.58372350  0.50455546  1
  Ca2+  Ca5  1  0.17231280  0.57847333  0.83525644  1
  Ca2+  Ca6  1  0.67066003  0.08269690  0.17232045  1
  Ca2+  Ca7  1  0.66482051  0.08347990  0.50401012  1
  Ca2+  Ca8  1  0.66014906  0.07203023  0.83747959  1
  Ca2+  Ca9  1  0.66638379  0.57913545  0.16949004  1
  Ca2+  Ca10  1  0.66886725  0.57074623  0.51043100  1
  Ca2+  Ca11  1  0.67101064  0.58878056  0.83775283  1
  Ca2+  Ca12  1  0.07687017  0.33059514  0.16797421  1
  Ca2+  Ca13  1  0.07635737  0.33282015  0.49299422  1
  Ca2+  Ca14  1  0.08316939  0.33617561  0.82693097  1
  Ca2+  Ca15  1  0.08178377  0.82846013  0.16686730  1
  Ca2+  Ca16  1  0.08185560  0.82021215  0.49417705  1
  Ca2+  Ca17  1  0.07871110  0.82479005  0.82677256  1
  Ca2+  Ca18  1  0.58421809  0.33013204  0.16462633  1
  Ca2+  Ca19  1  0.59154522  0.32756646  0.49659028  1
  Ca2+  Ca20  1  0.57064044  0.33215969  0.82384626  1
  Ca2+  Ca21  1  0.57494393  0.82918066  0.15769285  1
  Ca2+  Ca22  1  0.58293162  0.82834813  0.49953916  1
  Ca2+  Ca23  1  0.58820504  0.82740340  0.83089060  1
  Ca2+  Ca24  1  0.34346908  0.43024600  0.16865011  1
  Ca2+  Ca25  1  0.32735029  0.41881723  0.50536594  1
  Ca2+  Ca26  1  0.33225200  0.41431581  0.83862659  1
  Ca2+  Ca27  1  0.34237512  0.91796564  0.16966262  1
  Ca2+  Ca28  1  0.33748756  0.91588561  0.49917992  1
  Ca2+  Ca29  1  0.33705900  0.92254882  0.84178847  1
  Ca2+  Ca30  1  0.82784879  0.41813799  0.17304721  1
  Ca2+  Ca31  1  0.82353186  0.41414800  0.50340676  1
  Ca2+  Ca32  1  0.82536057  0.42785620  0.83341253  1
  Ca2+  Ca33  1  0.82555290  0.92530410  0.16813719  1
  Ca2+  Ca34  1  0.82888578  0.92566107  0.50572535  1
  Ca2+  Ca35  1  0.81822294  0.91933435  0.84138903  1
  Ca2+  Ca36  1  0.42201866  0.17203407  0.15906432  1
  Ca2+  Ca37  1  0.42974947  0.17463053  0.49896754  1
  Ca2+  Ca38  1  0.41780466  0.17456085  0.82754716  1
  Ca2+  Ca39  1  0.41727442  0.67328813  0.15753803  1
  Ca2+  Ca40  1  0.42160976  0.66845672  0.49407877  1
  Ca2+  Ca41  1  0.43008333  0.66451892  0.83438814  1
  Ca2+  Ca42  1  0.91267171  0.16635174  0.16782214  1
  Ca2+  Ca43  1  0.91893357  0.17316407  0.48513199  1
  Ca2+  Ca44  1  0.91480626  0.16477996  0.83279065  1
  Ca2+  Ca45  1  0.92327163  0.65909518  0.16151526  1
  Ca2+  Ca46  1  0.92738124  0.65439138  0.49970661  1
  Ca2+  Ca47  1  0.91765953  0.65984068  0.82464685  1
  Al0+  Al48  1  0.00000564  -0.00096978  0.00179636  1
  Al0+  Al49  1  0.00105138  -0.00106591  0.33413793  1
  Al0+  Al50  1  0.00136182  -0.00126016  0.66759706  1
  Al0+  Al51  1  -0.00118765  0.49701253  0.00240238  1
  Al0+  Al52  1  0.00193468  0.49938961  0.32246286  1
  Al0+  Al53  1  0.00228638  0.49858988  0.66969996  1
  Al0+  Al54  1  0.49833778  -0.00010893  0.00575907  1
  Al0+  Al55  1  0.49995159  0.00060181  0.32769873  1
  Al0+  Al56  1  0.50001153  0.00219870  0.66670678  1
  Al0+  Al57  1  0.49864339  0.49941240  -0.00437784  1
  Al0+  Al58  1  0.50091081  0.50049567  0.34417386  1
  Al0+  Al59  1  0.49752532  0.50171345  0.66119564  1
  Al0+  Al60  1  0.24779857  0.24789607  0.00200112  1
  Al0+  Al61  1  0.25035334  0.25102179  0.33080863  1
  Al0+  Al62  1  0.24982056  0.25090110  0.66610903  1
  Al0+  Al63  1  0.24865974  0.74890764  -0.00258279  1
  Al0+  Al64  1  0.25045452  0.75154843  0.33068922  1
  Al0+  Al65  1  0.24820284  0.75081331  0.66392130  1
  Al0+  Al66  1  0.75158211  0.25040793  -0.00122480  1
  Al0+  Al67  1  0.75032535  0.24986202  0.33199861  1
  Al0+  Al68  1  0.75053226  0.25129705  0.66956146  1
  Al0+  Al69  1  0.75204822  0.75018119  0.00808778  1
  Al0+  Al70  1  0.75079558  0.75036665  0.33502935  1
  Al0+  Al71  1  0.75015891  0.75349528  0.66698609  1
  Al0+  Al72  1  0.57279666  0.67980335  0.98656404  1
  Al0+  Al73  1  0.06970200  0.67831648  0.65367189  1
  Al0+  Al74  1  0.82165921  0.07211032  0.01545622  1
  Al0+  Al75  1  0.42731862  0.82262139  0.98370653  1
  Al0+  Al76  1  0.82011441  0.06921039  0.34778522  1
  Al0+  Al77  1  0.92827221  0.32012582  0.31711659  1
  Al0+  Al78  1  0.57042418  0.18062285  0.31846420  1
  Al0+  Al79  1  0.67711920  0.92831221  0.01799859  1
  Al0+  Al80  1  0.32016726  0.57322539  0.34821382  1
  Al0+  Al81  1  0.81999668  0.56982674  0.67901291  1
  Al0+  Al82  1  0.06988140  0.67949335  0.31779919  1
  Al0+  Al83  1  0.42617327  0.32305729  0.64986598  1
  Al0+  Al84  1  0.32003826  0.07080056  0.01441340  1
  Al0+  Al85  1  0.07314012  0.17640400  0.31753161  1
  Al0+  Al86  1  0.43117775  0.81880530  0.32012022  1
  Al0+  Al87  1  0.18117717  0.42942447  0.67906407  1
  Al0+  Al88  1  0.82156736  0.57045748  0.01487945  1
  Al0+  Al89  1  0.42855405  0.32007442  0.98766973  1
  Al0+  Al90  1  0.68061199  0.43000475  0.34674377  1
  Al0+  Al91  1  0.32003747  0.56909882  0.01157646  1
  Al0+  Al92  1  0.67520564  0.42731446  0.68360386  1
  Al0+  Al93  1  0.67864290  0.93145629  0.67929210  1
  Al0+  Al94  1  0.57143607  0.17972351  0.65274076  1
  Al0+  Al95  1  0.57309882  0.68002114  0.65189593  1
  Si0+  Si96  1  0.82511806  0.07305161  0.68277708  1
  Si0+  Si97  1  0.67562349  0.92800225  0.35147162  1
  Si0+  Si98  1  0.57346242  0.17834873  0.98407304  1
  Si0+  Si99  1  0.67697274  0.42886079  0.01488947  1
  Si0+  Si100  1  0.31872497  0.06970964  0.67971823  1
  Si0+  Si101  1  0.57353183  0.67560840  0.31879270  1
  Si0+  Si102  1  0.93079247  0.31975780  0.65408165  1
  Si0+  Si103  1  0.93071854  0.82104213  0.98582001  1
  Si0+  Si104  1  0.92824111  0.82384154  0.64959237  1
  Si0+  Si105  1  0.42767288  0.82323407  0.65072859  1
  Si0+  Si106  1  0.18004580  0.92976047  0.34938263  1
  Si0+  Si107  1  0.82521882  0.57316032  0.34880539  1
  Si0+  Si108  1  0.32161702  0.57588205  0.68343771  1
  Si0+  Si109  1  0.17748955  0.92685998  0.01684871  1
  Si0+  Si110  1  0.92683835  0.82291519  0.31646334  1
  Si0+  Si111  1  0.17668483  0.42616760  0.01908647  1
  Si0+  Si112  1  0.07104631  0.17700146  0.65386152  1
  Si0+  Si113  1  0.07005153  0.67671419  0.98348858  1
  Si0+  Si114  1  0.17763348  0.92756432  0.68147679  1
  Si0+  Si115  1  0.92863289  0.32172026  0.98129354  1
  Si0+  Si116  1  0.06959084  0.17823355  0.98380804  1
  Si0+  Si117  1  0.32226144  0.07286326  0.34934194  1
  Si0+  Si118  1  0.42782628  0.32408977  0.31741303  1
  Si0+  Si119  1  0.17788262  0.42845268  0.34819680  1
  O2-  O120  1  0.24979278  -0.00856198  0.06117134  1
  O2-  O121  1  0.24870876  0.00372133  0.39187038  1
  O2-  O122  1  0.24893696  -0.00224179  0.72317741  1
  O2-  O123  1  0.24649420  0.49437642  0.06156264  1
  O2-  O124  1  0.24576800  0.49713570  0.39321988  1
  O2-  O125  1  0.25763578  0.50176283  0.72636271  1
  O2-  O126  1  0.74598294  0.00481442  0.06583940  1
  O2-  O127  1  0.74615852  -0.00517039  0.39597182  1
  O2-  O128  1  0.75358206  0.00686287  0.72534940  1
  O2-  O129  1  0.74459678  0.49812007  0.06027317  1
  O2-  O130  1  0.75456866  0.50677393  0.39225109  1
  O2-  O131  1  0.74280836  0.50490076  0.73188257  1
  O2-  O132  1  -0.00023206  0.24652839  0.26733248  1
  O2-  O133  1  -0.00377250  0.24313948  0.61232442  1
  O2-  O134  1  -0.00115983  0.24870073  0.94000607  1
  O2-  O135  1  -0.00973899  0.74937448  0.27138163  1
  O2-  O136  1  -0.00633230  0.75150830  0.60610873  1
  O2-  O137  1  -0.00288705  0.74604553  0.94178829  1
  O2-  O138  1  0.49545776  0.25521214  0.27233170  1
  O2-  O139  1  0.50544896  0.25747022  0.60191976  1
  O2-  O140  1  0.50330393  0.24566502  0.94030856  1
  O2-  O141  1  0.50625176  0.74489325  0.27403549  1
  O2-  O142  1  0.49480718  0.75297003  0.60711340  1
  O2-  O143  1  0.50257184  0.75366347  0.93498417  1
  O2-  O144  1  0.07036960  0.17857298  0.08832688  1
  O2-  O145  1  0.07254198  0.17805896  0.43194883  1
  O2-  O146  1  0.07185818  0.17589969  0.75920000  1
  O2-  O147  1  0.07073210  0.67896985  0.08860433  1
  O2-  O148  1  0.06983538  0.68004226  0.43112372  1
  O2-  O149  1  0.06973521  0.68074965  0.76700387  1
  O2-  O150  1  0.57394252  0.18182610  0.08986789  1
  O2-  O151  1  0.56917803  0.17930078  0.43148639  1
  O2-  O152  1  0.56515639  0.17470099  0.76615876  1
  O2-  O153  1  0.57009490  0.67777609  0.10040210  1
  O2-  O154  1  0.57280842  0.67788916  0.42448516  1
  O2-  O155  1  0.57430552  0.68254878  0.76477979  1
  O2-  O156  1  0.17872791  0.42834056  0.24267775  1
  O2-  O157  1  0.17867955  0.42941137  0.56612866  1
  O2-  O158  1  0.17497830  0.42716804  0.91308786  1
  O2-  O159  1  0.18066897  0.92845502  0.24439531  1
  O2-  O160  1  0.17555053  0.92845058  0.57648770  1
  O2-  O161  1  0.17452615  0.93028559  0.91075033  1
  O2-  O162  1  0.67941549  0.43184478  0.23319960  1
  O2-  O163  1  0.68274586  0.42480812  0.57012189  1
  O2-  O164  1  0.67908796  0.42855180  0.90960097  1
  O2-  O165  1  0.67617251  0.92849609  0.24630788  1
  O2-  O166  1  0.67986981  0.93277076  0.56605560  1
  O2-  O167  1  0.67967644  0.92845375  0.90390529  1
  O2-  O168  1  0.43081321  0.32028197  0.10094392  1
  O2-  O169  1  0.42558676  0.32101312  0.42269524  1
  O2-  O170  1  0.42179170  0.31583961  0.76358496  1
  O2-  O171  1  0.42623865  0.81841313  0.09728095  1
  O2-  O172  1  0.43126753  0.81920680  0.43369918  1
  O2-  O173  1  0.42597006  0.82498883  0.75582011  1
  O2-  O174  1  0.92950267  0.32338436  0.08584202  1
  O2-  O175  1  0.93072071  0.32027866  0.43142663  1
  O2-  O176  1  0.93363551  0.31950292  0.75950349  1
  O2-  O177  1  0.93535188  0.82222836  0.09081480  1
  O2-  O178  1  0.93029024  0.82528834  0.42207933  1
  O2-  O179  1  0.93273874  0.82786048  0.75527252  1
  O2-  O180  1  0.32128820  0.07165562  0.24446073  1
  O2-  O181  1  0.31664943  0.06840712  0.57439602  1
  O2-  O182  1  0.31520692  0.07256899  0.90063921  1
  O2-  O183  1  0.32022301  0.57281460  0.23479795  1
  O2-  O184  1  0.31631013  0.57979090  0.57779460  1
  O2-  O185  1  0.31734503  0.56812535  0.89864902  1
  O2-  O186  1  0.81875002  0.06695290  0.23514273  1
  O2-  O187  1  0.83001338  0.07059699  0.57729452  1
  O2-  O188  1  0.82474485  0.06806463  0.90158104  1
  O2-  O189  1  0.82391501  0.57212786  0.24304821  1
  O2-  O190  1  0.82395137  0.56412287  0.56552201  1
  O2-  O191  1  0.82595757  0.56836603  0.90206935  1
  O2-  O192  1  0.04816303  0.07654524  0.26643851  1
  O2-  O193  1  0.04891208  0.08334348  0.60664079  1
  O2-  O194  1  0.04277983  0.08564483  0.93615537  1
  O2-  O195  1  0.04589722  0.58356037  0.25987223  1
  O2-  O196  1  0.03989554  0.58130595  0.59986443  1
  O2-  O197  1  0.04291113  0.58328933  0.93902973  1
  O2-  O198  1  0.53871074  0.08526453  0.26338431  1
  O2-  O199  1  0.53630985  0.08388652  0.59701338  1
  O2-  O200  1  0.54702694  0.08355641  0.94226392  1
  O2-  O201  1  0.54681272  0.58145307  0.27539727  1
  O2-  O202  1  0.54419511  0.58366460  0.59688453  1
  O2-  O203  1  0.54193547  0.58277185  0.93179483  1
  O2-  O204  1  0.17131821  0.20611402  0.26402150  1
  O2-  O205  1  0.16096071  0.20744878  0.60513997  1
  O2-  O206  1  0.16080983  0.20651399  0.93510644  1
  O2-  O207  1  0.16368799  0.71809302  0.26368175  1
  O2-  O208  1  0.16442655  0.71296011  0.59769836  1
  O2-  O209  1  0.16025237  0.70591080  0.93432212  1
  O2-  O210  1  0.66594735  0.21186863  0.26421348  1
  O2-  O211  1  0.67330015  0.20198101  0.60304208  1
  O2-  O212  1  0.66732006  0.20197947  0.93747232  1
  O2-  O213  1  0.66894531  0.69817894  0.27462608  1
  O2-  O214  1  0.66865917  0.71378253  0.59701618  1
  O2-  O215  1  0.67390338  0.70693542  0.93764006  1
  O2-  O216  1  0.08371056  0.45295234  0.06511423  1
  O2-  O217  1  0.08319635  0.45463917  0.39178205  1
  O2-  O218  1  0.08698765  0.46162868  0.73731342  1
  O2-  O219  1  0.08645621  0.95703537  0.06513356  1
  O2-  O220  1  0.08814090  0.95412000  0.39841975  1
  O2-  O221  1  0.08694693  0.95593906  0.73179760  1
  O2-  O222  1  0.58323558  0.45284360  0.06063396  1
  O2-  O223  1  0.58554167  0.45730317  0.40537388  1
  O2-  O224  1  0.57272519  0.45027215  0.72918811  1
  O2-  O225  1  0.57811104  0.95264507  0.07032799  1
  O2-  O226  1  0.58240267  0.95691061  0.39647186  1
  O2-  O227  1  0.58208524  0.96218479  0.73412779  1
  O2-  O228  1  0.19904539  0.33180620  0.06360378  1
  O2-  O229  1  0.20252202  0.33422838  0.39469413  1
  O2-  O230  1  0.20823835  0.33162554  0.73475585  1
  O2-  O231  1  0.19748259  0.83132319  0.06057437  1
  O2-  O232  1  0.21205586  0.83993602  0.39832425  1
  O2-  O233  1  0.20375096  0.83571121  0.72953540  1
  O2-  O234  1  0.70551527  0.33559044  0.06026187  1
  O2-  O235  1  0.71453248  0.33444569  0.40052675  1
  O2-  O236  1  0.70769252  0.33050284  0.73829613  1
  O2-  O237  1  0.71093525  0.83311938  0.07382178  1
  O2-  O238  1  0.70000177  0.83305212  0.39649815  1
  O2-  O239  1  0.71123403  0.83664113  0.73515353  1
  O2-  O240  1  0.45648804  0.41860495  0.27513461  1
  O2-  O241  1  0.44162345  0.42461629  0.59998006  1
  O2-  O242  1  0.45695310  0.41533064  0.93054138  1
  O2-  O243  1  0.45944134  0.91558711  0.26545933  1
  O2-  O244  1  0.45451255  0.91623606  0.60370607  1
  O2-  O245  1  0.45085167  0.92432710  0.93515162  1
  O2-  O246  1  0.95807779  0.41625248  0.25993111  1
  O2-  O247  1  0.96565698  0.40821645  0.60581180  1
  O2-  O248  1  0.96065728  0.41213104  0.93294081  1
  O2-  O249  1  0.95975249  0.91317784  0.26836772  1
  O2-  O250  1  0.96009319  0.91551321  0.60134187  1
  O2-  O251  1  0.96292714  0.91070177  0.93609456  1
  O2-  O252  1  0.33427193  0.30057866  0.27066277  1
  O2-  O253  1  0.33028248  0.28597292  0.59521841  1
  O2-  O254  1  0.33030484  0.28860457  0.93610815  1
  O2-  O255  1  0.33443471  0.79090406  0.26562982  1
  O2-  O256  1  0.33294418  0.80010170  0.60446994  1
  O2-  O257  1  0.32759424  0.79538358  0.93130559  1
  O2-  O258  1  0.83156200  0.29080226  0.26253463  1
  O2-  O259  1  0.83765272  0.29716906  0.60760586  1
  O2-  O260  1  0.83692682  0.29525561  0.93282922  1
  O2-  O261  1  0.83097853  0.80357165  0.27251586  1
  O2-  O262  1  0.83398289  0.80456645  0.60402968  1
  O2-  O263  1  0.83714245  0.79691436  0.94140226  1
  O2-  O264  1  0.41651855  0.04643301  0.07046213  1
  O2-  O265  1  0.41287092  0.04044646  0.39632986  1
  O2-  O266  1  0.40974711  0.04272364  0.72795959  1
  O2-  O267  1  0.41662201  0.53845145  0.06595166  1
  O2-  O268  1  0.41557029  0.54438923  0.40479463  1
  O2-  O269  1  0.41738019  0.55595270  0.72556387  1
  O2-  O270  1  0.91943569  0.03996523  0.06808200  1
  O2-  O271  1  0.91816675  0.03925270  0.40109069  1
  O2-  O272  1  0.91831279  0.04479909  0.73018403  1
  O2-  O273  1  0.91700940  0.53521142  0.06969333  1
  O2-  O274  1  0.92017294  0.54496961  0.39048447  1
  O2-  O275  1  0.91643365  0.53572837  0.73388937  1
  O2-  O276  1  0.28336955  0.16456100  0.07059972  1
  O2-  O277  1  0.29563180  0.16536075  0.39616132  1
  O2-  O278  1  0.28765524  0.16000653  0.72776744  1
  O2-  O279  1  0.28651496  0.66574068  0.06489503  1
  O2-  O280  1  0.28589146  0.66917188  0.40140788  1
  O2-  O281  1  0.28956490  0.66743016  0.73051043  1
  O2-  O282  1  0.79913548  0.17330724  0.06528965  1
  O2-  O283  1  0.79083022  0.16635922  0.40042955  1
  O2-  O284  1  0.80456254  0.16759912  0.72789104  1
  O2-  O285  1  0.79901897  0.66743752  0.07100274  1
  O2-  O286  1  0.80563715  0.66864337  0.39401789  1
  O2-  O287  1  0.80044740  0.67199851  0.72808223  1
