# generated using pymatgen
data_Ca2Al2SiO7
_symmetry_space_group_name_H-M   'P 1'
_cell_length_a   15.45761623
_cell_length_b   15.45693769
_cell_length_c   15.28364443
_cell_angle_alpha   89.99729571
_cell_angle_beta   89.99874133
_cell_angle_gamma   90.00839785
_symmetry_Int_Tables_number   1
_chemical_formula_structural   Ca2Al2SiO7
_chemical_formula_sum   'Ca48 Al48 Si24 O168'
_cell_volume   3651.68154761
_cell_formula_units_Z   24
loop_
 _symmetry_equiv_pos_site_id
 _symmetry_equiv_pos_as_xyz
  1  'x, y, z'
loop_
 _atom_type_symbol
 _atom_type_oxidation_number
  Ca2+  2.0
  Al0+  0.0
  Si0+  0.0
  O2-  -2.0
loop_
 _atom_site_type_symbol
 _atom_site_label
 _atom_site_symmetry_multiplicity
 _atom_site_fract_x
 _atom_site_fract_y
 _atom_site_fract_z
 _atom_site_occupancy
  Ca2+  Ca0  1  0.17336322  0.07898555  0.17126428  1
  Ca2+  Ca1  1  0.16635302  0.09079108  0.50190198  1
  Ca2+  Ca2  1  0.16904291  0.07803109  0.84156458  1
  Ca2+  Ca3  1  0.16228465  0.57902878  0.16383539  1
  Ca2+  Ca4  1  0.17246006  0.57675741  0.51477584  1
  Ca2+  Ca5  1  0.15499251  0.57689804  0.83646222  1
  Ca2+  Ca6  1  0.66744730  0.07893428  0.16620708  1
  Ca2+  Ca7  1  0.68119022  0.08408265  0.50528816  1
  Ca2+  Ca8  1  0.67354765  0.08124246  0.84052104  1
  Ca2+  Ca9  1  0.67109957  0.58758828  0.16754388  1
  Ca2+  Ca10  1  0.66964507  0.57825218  0.51078069  1
  Ca2+  Ca11  1  0.67907202  0.57200353  0.83797808  1
  Ca2+  Ca12  1  0.08627275  0.32712481  0.16209807  1
  Ca2+  Ca13  1  0.08135816  0.32747847  0.50154546  1
  Ca2+  Ca14  1  0.08202016  0.33125484  0.82408762  1
  Ca2+  Ca15  1  0.07825342  0.82866397  0.15268842  1
  Ca2+  Ca16  1  0.07759119  0.82896948  0.50405664  1
  Ca2+  Ca17  1  0.07611064  0.82583208  0.82922027  1
  Ca2+  Ca18  1  0.57808428  0.32683332  0.15821860  1
  Ca2+  Ca19  1  0.57664595  0.33888550  0.49438140  1
  Ca2+  Ca20  1  0.59155953  0.33221691  0.83232771  1
  Ca2+  Ca21  1  0.58202296  0.83251432  0.15673546  1
  Ca2+  Ca22  1  0.58332397  0.82330828  0.49558373  1
  Ca2+  Ca23  1  0.57739044  0.84090546  0.83455663  1
  Ca2+  Ca24  1  0.32844000  0.41099168  0.16811614  1
  Ca2+  Ca25  1  0.32963042  0.41999580  0.50878741  1
  Ca2+  Ca26  1  0.32042931  0.42442933  0.83427453  1
  Ca2+  Ca27  1  0.33449622  0.92498616  0.16405479  1
  Ca2+  Ca28  1  0.33189651  0.92467535  0.50262560  1
  Ca2+  Ca29  1  0.32581368  0.91987446  0.84654984  1
  Ca2+  Ca30  1  0.82841813  0.42211409  0.16325137  1
  Ca2+  Ca31  1  0.82630432  0.41950622  0.51459980  1
  Ca2+  Ca32  1  0.83559500  0.42447689  0.83780278  1
  Ca2+  Ca33  1  0.83167030  0.91812620  0.16788064  1
  Ca2+  Ca34  1  0.84063337  0.92603977  0.50490726  1
  Ca2+  Ca35  1  0.83681041  0.91856592  0.83807376  1
  Ca2+  Ca36  1  0.41482418  0.16661988  0.15951919  1
  Ca2+  Ca37  1  0.41575254  0.17595602  0.49129280  1
  Ca2+  Ca38  1  0.42285216  0.16214386  0.83507233  1
  Ca2+  Ca39  1  0.42476222  0.67407496  0.15947695  1
  Ca2+  Ca40  1  0.42314880  0.66046747  0.49435692  1
  Ca2+  Ca41  1  0.41153403  0.67085483  0.83018694  1
  Ca2+  Ca42  1  0.92061363  0.16270351  0.16588785  1
  Ca2+  Ca43  1  0.92324337  0.16617807  0.49954118  1
  Ca2+  Ca44  1  0.92176482  0.17293007  0.81981209  1
  Ca2+  Ca45  1  0.92053799  0.67269006  0.15235109  1
  Ca2+  Ca46  1  0.91669684  0.66524609  0.50324230  1
  Ca2+  Ca47  1  0.91868949  0.67124276  0.82898787  1
  Al0+  Al48  1  0.00186202  -0.00033116  0.00066600  1
  Al0+  Al49  1  0.00013580  -0.00080487  0.33288142  1
  Al0+  Al50  1  0.00159514  -0.00050799  0.66303753  1
  Al0+  Al51  1  -0.00029761  0.49849603  0.00783844  1
  Al0+  Al52  1  -0.00126042  0.49902825  0.33438012  1
  Al0+  Al53  1  -0.00060510  0.49953847  0.66429468  1
  Al0+  Al54  1  0.50239419  0.00109423  -0.00091659  1
  Al0+  Al55  1  0.49944710  -0.00041990  0.34068968  1
  Al0+  Al56  1  0.50044227  0.00098084  0.66226260  1
  Al0+  Al57  1  0.49869614  0.49839001  0.00161213  1
  Al0+  Al58  1  0.49912951  0.50005734  0.32203252  1
  Al0+  Al59  1  0.49894064  0.50035667  0.67600507  1
  Al0+  Al60  1  0.25151831  0.25216996  0.00435188  1
  Al0+  Al61  1  0.24857878  0.24921207  0.32988360  1
  Al0+  Al62  1  0.25343360  0.25113963  0.66760045  1
  Al0+  Al63  1  0.25020867  0.74890391  -0.00272157  1
  Al0+  Al64  1  0.24972725  0.74973991  0.33371396  1
  Al0+  Al65  1  0.25036048  0.75344281  0.66321009  1
  Al0+  Al66  1  0.74971637  0.25080942  0.00105271  1
  Al0+  Al67  1  0.74961798  0.25097115  0.33681133  1
  Al0+  Al68  1  0.75035447  0.24657548  0.66879138  1
  Al0+  Al69  1  0.75015549  0.75106437  0.00242245  1
  Al0+  Al70  1  0.75032060  0.74899190  0.33083425  1
  Al0+  Al71  1  0.74649366  0.75109724  0.66536807  1
  Al0+  Al72  1  0.68039344  0.93044781  0.01186271  1
  Al0+  Al73  1  0.43119383  0.82055743  0.98669538  1
  Al0+  Al74  1  0.07130715  0.67807926  0.65056445  1
  Al0+  Al75  1  0.67778340  0.42699454  0.01758129  1
  Al0+  Al76  1  0.42878945  0.31968582  0.31910322  1
  Al0+  Al77  1  0.67769041  0.42693689  0.68098621  1
  Al0+  Al78  1  0.82004053  0.57104723  0.01613376  1
  Al0+  Al79  1  0.82124721  0.07043500  0.34725181  1
  Al0+  Al80  1  0.17893652  0.43014665  0.01530724  1
  Al0+  Al81  1  0.06869117  0.17956919  0.31774656  1
  Al0+  Al82  1  0.32143574  0.07004576  0.01373278  1
  Al0+  Al83  1  0.17871164  0.42896117  0.68008673  1
  Al0+  Al84  1  0.57078689  0.18031597  0.98645960  1
  Al0+  Al85  1  0.92716885  0.32133662  0.65270538  1
  Al0+  Al86  1  0.82315324  0.06827363  0.68064476  1
  Al0+  Al87  1  0.07415691  0.17895282  0.65306025  1
  Al0+  Al88  1  0.92743316  0.82316116  0.98498596  1
  Al0+  Al89  1  0.57088467  0.68013344  0.31921687  1
  Al0+  Al90  1  0.82164693  0.57293902  0.68063544  1
  Al0+  Al91  1  0.17784781  0.92682036  0.01447154  1
  Al0+  Al92  1  0.32114917  0.57434163  0.68074356  1
  Al0+  Al93  1  0.07049597  0.67660385  0.98566510  1
  Al0+  Al94  1  0.32026295  0.07156356  0.34878823  1
  Al0+  Al95  1  0.92575972  0.82049585  0.65027138  1
  Si0+  Si96  1  0.57336062  0.17744438  0.31859982  1
  Si0+  Si97  1  0.17856969  0.42893391  0.34904801  1
  Si0+  Si98  1  0.56684015  0.67894891  0.65393695  1
  Si0+  Si99  1  0.42791420  0.82410243  0.64948731  1
  Si0+  Si100  1  0.67606380  0.92923443  0.68238311  1
  Si0+  Si101  1  0.42718582  0.82349570  0.31710676  1
  Si0+  Si102  1  0.32302644  0.07189112  0.68117794  1
  Si0+  Si103  1  0.07170065  0.67683182  0.31868239  1
  Si0+  Si104  1  0.92574229  0.32351169  0.31548190  1
  Si0+  Si105  1  0.92997609  0.31862251  0.98750765  1
  Si0+  Si106  1  0.82050112  0.57161633  0.34936032  1
  Si0+  Si107  1  0.42604314  0.32279641  0.97990964  1
  Si0+  Si108  1  0.17778756  0.92673984  0.35192947  1
  Si0+  Si109  1  0.32273798  0.57323207  0.01873023  1
  Si0+  Si110  1  0.32093796  0.57035778  0.34555321  1
  Si0+  Si111  1  0.82389625  0.07322240  0.01584392  1
  Si0+  Si112  1  0.93059900  0.81950051  0.31776105  1
  Si0+  Si113  1  0.67748624  0.43123490  0.34686025  1
  Si0+  Si114  1  0.07310718  0.17942159  0.98662145  1
  Si0+  Si115  1  0.57272173  0.67626823  0.98097447  1
  Si0+  Si116  1  0.57162102  0.17699352  0.64976484  1
  Si0+  Si117  1  0.43247859  0.32104667  0.65352597  1
  Si0+  Si118  1  0.67820340  0.92564819  0.35119409  1
  Si0+  Si119  1  0.18035053  0.93048650  0.68083184  1
  O2-  O120  1  0.24854374  -0.00026658  0.06506528  1
  O2-  O121  1  0.24657351  -0.00412223  0.39634432  1
  O2-  O122  1  0.25041066  0.00300836  0.72227698  1
  O2-  O123  1  0.25413006  0.50430204  0.06309577  1
  O2-  O124  1  0.24840929  0.50208789  0.38963413  1
  O2-  O125  1  0.24307458  0.50853460  0.72951394  1
  O2-  O126  1  0.75782258  0.00164397  0.05957040  1
  O2-  O127  1  0.74494711  -0.00342587  0.39428594  1
  O2-  O128  1  0.74912035  -0.00721492  0.72620748  1
  O2-  O129  1  0.74436600  0.50341244  0.06835484  1
  O2-  O130  1  0.74933353  0.50040127  0.39057675  1
  O2-  O131  1  0.75526028  0.49430809  0.72838112  1
  O2-  O132  1  -0.00693627  0.25353316  0.27075459  1
  O2-  O133  1  0.00110544  0.25049500  0.60313160  1
  O2-  O134  1  -0.00084930  0.24645804  0.94466788  1
  O2-  O135  1  0.00113499  0.74786952  0.27639424  1
  O2-  O136  1  -0.00474711  0.74586921  0.59922441  1
  O2-  O137  1  -0.00028951  0.75043935  0.93725509  1
  O2-  O138  1  0.50127551  0.24192837  0.27400642  1
  O2-  O139  1  0.50474634  0.25243654  0.60873552  1
  O2-  O140  1  0.49816668  0.25656080  0.93744991  1
  O2-  O141  1  0.49865273  0.75766161  0.27362951  1
  O2-  O142  1  0.49544242  0.74896989  0.60900258  1
  O2-  O143  1  0.50310800  0.74426769  0.93682342  1
  O2-  O144  1  0.07202776  0.18038428  0.09190746  1
  O2-  O145  1  0.06944334  0.18269752  0.43048476  1
  O2-  O146  1  0.07478859  0.17901433  0.76699827  1
  O2-  O147  1  0.06820716  0.67773620  0.10053123  1
  O2-  O148  1  0.07168609  0.67625822  0.42332083  1
  O2-  O149  1  0.07405888  0.68262144  0.76316421  1
  O2-  O150  1  0.56958073  0.18036011  0.09993813  1
  O2-  O151  1  0.57403053  0.18164324  0.42451830  1
  O2-  O152  1  0.56799331  0.17209312  0.75449098  1
  O2-  O153  1  0.57060788  0.67896381  0.08717736  1
  O2-  O154  1  0.56847079  0.67849508  0.43299919  1
  O2-  O155  1  0.56546496  0.68081996  0.75845067  1
  O2-  O156  1  0.17842436  0.43039733  0.24397339  1
  O2-  O157  1  0.18547280  0.42618819  0.56582654  1
  O2-  O158  1  0.17916667  0.42828909  0.90277329  1
  O2-  O159  1  0.17816464  0.92526610  0.24684543  1
  O2-  O160  1  0.18332446  0.92946279  0.57530451  1
  O2-  O161  1  0.17867908  0.93007650  0.90053867  1
  O2-  O162  1  0.67890821  0.43159846  0.24232535  1
  O2-  O163  1  0.67231062  0.43204869  0.56639928  1
  O2-  O164  1  0.68365324  0.42605917  0.90451739  1
  O2-  O165  1  0.67806168  0.92457928  0.24582466  1
  O2-  O166  1  0.67167398  0.93216541  0.57650030  1
  O2-  O167  1  0.67826744  0.93452537  0.89896600  1
  O2-  O168  1  0.42488308  0.32017996  0.08580226  1
  O2-  O169  1  0.43133869  0.32252156  0.43295255  1
  O2-  O170  1  0.43104364  0.31839489  0.75806721  1
  O2-  O171  1  0.43403862  0.81986296  0.10020067  1
  O2-  O172  1  0.42649203  0.82110124  0.42315643  1
  O2-  O173  1  0.42995704  0.82891553  0.75411338  1
  O2-  O174  1  0.93080348  0.31670344  0.09310935  1
  O2-  O175  1  0.92624917  0.32612972  0.42049581  1
  O2-  O176  1  0.92748664  0.31836365  0.76668684  1
  O2-  O177  1  0.92881258  0.82261012  0.09964773  1
  O2-  O178  1  0.93009987  0.81867101  0.42271545  1
  O2-  O179  1  0.92820508  0.82258882  0.76297728  1
  O2-  O180  1  0.32042523  0.06986151  0.23636555  1
  O2-  O181  1  0.32439056  0.07064056  0.57590810  1
  O2-  O182  1  0.31979741  0.06914159  0.89953544  1
  O2-  O183  1  0.31938925  0.57125974  0.24092607  1
  O2-  O184  1  0.32553672  0.56881385  0.56614060  1
  O2-  O185  1  0.32442325  0.57214202  0.91352103  1
  O2-  O186  1  0.82053796  0.06782455  0.23412379  1
  O2-  O187  1  0.82028019  0.06766548  0.56708877  1
  O2-  O188  1  0.82295927  0.07493872  0.91047673  1
  O2-  O189  1  0.82072139  0.57230929  0.24470803  1
  O2-  O190  1  0.81468698  0.57321043  0.56588595  1
  O2-  O191  1  0.82179361  0.56873210  0.90309979  1
  O2-  O192  1  0.03901633  0.08175356  0.26485879  1
  O2-  O193  1  0.04669561  0.08135104  0.59813776  1
  O2-  O194  1  0.04986117  0.08623326  0.94065519  1
  O2-  O195  1  0.04366217  0.58444886  0.27214456  1
  O2-  O196  1  0.04903132  0.57840148  0.59716832  1
  O2-  O197  1  0.03918761  0.57733392  0.93686899  1
  O2-  O198  1  0.55160875  0.08047820  0.27807776  1
  O2-  O199  1  0.53894292  0.08820853  0.59820769  1
  O2-  O200  1  0.53845385  0.08581831  0.92982343  1
  O2-  O201  1  0.53814375  0.58695371  0.26084888  1
  O2-  O202  1  0.53797218  0.58673592  0.60670373  1
  O2-  O203  1  0.54752147  0.58126670  0.93820159  1
  O2-  O204  1  0.16421740  0.21161592  0.26309183  1
  O2-  O205  1  0.17338312  0.20833617  0.60001906  1
  O2-  O206  1  0.16431334  0.21036056  0.94041147  1
  O2-  O207  1  0.16454517  0.70317578  0.27234660  1
  O2-  O208  1  0.16894431  0.71239164  0.59549913  1
  O2-  O209  1  0.17028275  0.69941858  0.93454243  1
  O2-  O210  1  0.66571527  0.20600100  0.27172195  1
  O2-  O211  1  0.66479321  0.19951960  0.60367945  1
  O2-  O212  1  0.66828354  0.20989145  0.93257816  1
  O2-  O213  1  0.66793750  0.70915703  0.26492265  1
  O2-  O214  1  0.65700863  0.70743654  0.60315668  1
  O2-  O215  1  0.66632175  0.70272289  0.93747596  1
  O2-  O216  1  0.08439495  0.45881457  0.07451860  1
  O2-  O217  1  0.08576113  0.45533275  0.39548342  1
  O2-  O218  1  0.07791600  0.44892773  0.72986971  1
  O2-  O219  1  0.08023533  0.95587544  0.06947196  1
  O2-  O220  1  0.08441318  0.95297425  0.39762108  1
  O2-  O221  1  0.08861412  0.95687669  0.72720516  1
  O2-  O222  1  0.57590427  0.44835510  0.06648764  1
  O2-  O223  1  0.58465191  0.46138500  0.39147472  1
  O2-  O224  1  0.58300401  0.45941064  0.73811968  1
  O2-  O225  1  0.58662151  0.96521169  0.06897669  1
  O2-  O226  1  0.58379959  0.94642289  0.39824230  1
  O2-  O227  1  0.58393232  0.96142702  0.72861932  1
  O2-  O228  1  0.21214176  0.33502720  0.07173882  1
  O2-  O229  1  0.20840413  0.33770806  0.39484938  1
  O2-  O230  1  0.21564158  0.33356204  0.73462681  1
  O2-  O231  1  0.20678839  0.82835825  0.06670333  1
  O2-  O232  1  0.20494547  0.83312157  0.39882373  1
  O2-  O233  1  0.21064982  0.84011219  0.72822642  1
  O2-  O234  1  0.71085886  0.33037279  0.07240395  1
  O2-  O235  1  0.70181124  0.33886358  0.39510663  1
  O2-  O236  1  0.69807655  0.32559387  0.72951582  1
  O2-  O237  1  0.70511986  0.83343402  0.06792641  1
  O2-  O238  1  0.70708705  0.83247874  0.39751402  1
  O2-  O239  1  0.69324870  0.83364358  0.72587917  1
  O2-  O240  1  0.45944044  0.41375629  0.26080099  1
  O2-  O241  1  0.45905172  0.41415564  0.60713803  1
  O2-  O242  1  0.44772360  0.41819974  0.93632523  1
  O2-  O243  1  0.45091226  0.91891844  0.27458941  1
  O2-  O244  1  0.46097961  0.91344840  0.59847931  1
  O2-  O245  1  0.46462665  0.91564233  0.93137569  1
  O2-  O246  1  0.95393023  0.41670480  0.26866390  1
  O2-  O247  1  0.95086899  0.41986896  0.59792214  1
  O2-  O248  1  0.96021299  0.41031176  0.94299657  1
  O2-  O249  1  0.95811600  0.91098071  0.27054189  1
  O2-  O250  1  0.96205554  0.91624383  0.59538337  1
  O2-  O251  1  0.95586981  0.92229168  0.93312952  1
  O2-  O252  1  0.33242062  0.29034587  0.26488055  1
  O2-  O253  1  0.34242741  0.29098194  0.60343261  1
  O2-  O254  1  0.33351557  0.29345422  0.93358568  1
  O2-  O255  1  0.33424723  0.79517432  0.27119000  1
  O2-  O256  1  0.33610814  0.80205166  0.60008894  1
  O2-  O257  1  0.33436751  0.79186362  0.93219616  1
  O2-  O258  1  0.83104197  0.29895233  0.27086068  1
  O2-  O259  1  0.82876475  0.29035656  0.59907710  1
  O2-  O260  1  0.83810555  0.29343276  0.94019209  1
  O2-  O261  1  0.83824469  0.79241948  0.27112473  1
  O2-  O262  1  0.82508237  0.79763322  0.59721875  1
  O2-  O263  1  0.82789810  0.79705199  0.93401135  1
  O2-  O264  1  0.41879625  0.03947930  0.06667561  1
  O2-  O265  1  0.41729858  0.04352577  0.40562292  1
  O2-  O266  1  0.41454213  0.04042600  0.72695214  1
  O2-  O267  1  0.41626782  0.54736585  0.06537429  1
  O2-  O268  1  0.41331426  0.53978431  0.39083002  1
  O2-  O269  1  0.41478599  0.54105637  0.73884968  1
  O2-  O270  1  0.91794492  0.04976529  0.06199693  1
  O2-  O271  1  0.91717841  0.03686431  0.40100760  1
  O2-  O272  1  0.92084544  0.04018585  0.73291727  1
  O2-  O273  1  0.91488402  0.53695678  0.07357196  1
  O2-  O274  1  0.91292396  0.54415017  0.39605003  1
  O2-  O275  1  0.92214149  0.55129452  0.72982825  1
  O2-  O276  1  0.29492504  0.16872713  0.06613569  1
  O2-  O277  1  0.28784352  0.16869248  0.40169488  1
  O2-  O278  1  0.30031550  0.16429800  0.72842626  1
  O2-  O279  1  0.29787008  0.66650591  0.06544060  1
  O2-  O280  1  0.29738432  0.66339997  0.39359495  1
  O2-  O281  1  0.30209038  0.67699326  0.72753608  1
  O2-  O282  1  0.79509714  0.16477737  0.06385249  1
  O2-  O283  1  0.79181637  0.16792440  0.40123212  1
  O2-  O284  1  0.79091183  0.16341568  0.73537189  1
  O2-  O285  1  0.79365561  0.66995248  0.06970103  1
  O2-  O286  1  0.79245380  0.66371511  0.39610735  1
  O2-  O287  1  0.78674309  0.66982380  0.73226568  1
