# generated using pymatgen
data_Ca2Al2SiO7
_symmetry_space_group_name_H-M   'P 1'
_cell_length_a   15.46130760
_cell_length_b   15.46052799
_cell_length_c   15.28651986
_cell_angle_alpha   90.00996380
_cell_angle_beta   90.00841056
_cell_angle_gamma   90.00565323
_symmetry_Int_Tables_number   1
_chemical_formula_structural   Ca2Al2SiO7
_chemical_formula_sum   'Ca48 Al48 Si24 O168'
_cell_volume   3654.08927307
_cell_formula_units_Z   24
loop_
 _symmetry_equiv_pos_site_id
 _symmetry_equiv_pos_as_xyz
  1  'x, y, z'
loop_
 _atom_type_symbol
 _atom_type_oxidation_number
  Ca2+  2.0
  Al0+  0.0
  Si0+  0.0
  O2-  -2.0
loop_
 _atom_site_type_symbol
 _atom_site_label
 _atom_site_symmetry_multiplicity
 _atom_site_fract_x
 _atom_site_fract_y
 _atom_site_fract_z
 _atom_site_occupancy
  Ca2+  Ca0  1  0.17272888  0.07445028  0.17622546  1
  Ca2+  Ca1  1  0.17132753  0.08432638  0.50026714  1
  Ca2+  Ca2  1  0.17888476  0.07593973  0.84244082  1
  Ca2+  Ca3  1  0.15812029  0.58309697  0.17529024  1
  Ca2+  Ca4  1  0.15524651  0.57162767  0.49855955  1
  Ca2+  Ca5  1  0.15868799  0.57919691  0.83786409  1
  Ca2+  Ca6  1  0.66769518  0.07642936  0.17686866  1
  Ca2+  Ca7  1  0.66967384  0.07381476  0.50189071  1
  Ca2+  Ca8  1  0.67285730  0.07949035  0.83109311  1
  Ca2+  Ca9  1  0.67539278  0.57857196  0.18208171  1
  Ca2+  Ca10  1  0.66897710  0.58037470  0.50170753  1
  Ca2+  Ca11  1  0.66153137  0.58029464  0.83221931  1
  Ca2+  Ca12  1  0.07621806  0.33288454  0.16899040  1
  Ca2+  Ca13  1  0.08207067  0.32863464  0.48681215  1
  Ca2+  Ca14  1  0.07762567  0.33465262  0.82925263  1
  Ca2+  Ca15  1  0.07948354  0.83165053  0.15998697  1
  Ca2+  Ca16  1  0.07509507  0.83018902  0.48527354  1
  Ca2+  Ca17  1  0.08475103  0.83417641  0.83529173  1
  Ca2+  Ca18  1  0.58945193  0.32566894  0.16885550  1
  Ca2+  Ca19  1  0.58743904  0.32875727  0.49060755  1
  Ca2+  Ca20  1  0.58079880  0.33275140  0.82567050  1
  Ca2+  Ca21  1  0.58069693  0.83066899  0.16666655  1
  Ca2+  Ca22  1  0.59064265  0.82791779  0.49280626  1
  Ca2+  Ca23  1  0.57844974  0.83310118  0.82604880  1
  Ca2+  Ca24  1  0.32496759  0.42171947  0.17558082  1
  Ca2+  Ca25  1  0.32072500  0.41562739  0.50100438  1
  Ca2+  Ca26  1  0.32568484  0.41932172  0.83402122  1
  Ca2+  Ca27  1  0.32479373  0.91909019  0.17095276  1
  Ca2+  Ca28  1  0.32952460  0.92773542  0.49908261  1
  Ca2+  Ca29  1  0.33385111  0.92451399  0.84464432  1
  Ca2+  Ca30  1  0.83681125  0.42154508  0.17766148  1
  Ca2+  Ca31  1  0.82701238  0.41901137  0.49774637  1
  Ca2+  Ca32  1  0.82834599  0.41515071  0.83743437  1
  Ca2+  Ca33  1  0.83049372  0.90853437  0.17535355  1
  Ca2+  Ca34  1  0.82498219  0.91596801  0.50296066  1
  Ca2+  Ca35  1  0.83035872  0.91580671  0.83406175  1
  Ca2+  Ca36  1  0.41865335  0.15667653  0.16973569  1
  Ca2+  Ca37  1  0.41899439  0.16266078  0.49151057  1
  Ca2+  Ca38  1  0.41229065  0.16335284  0.82919666  1
  Ca2+  Ca39  1  0.42256351  0.67247044  0.16276083  1
  Ca2+  Ca40  1  0.43173407  0.66483941  0.49445185  1
  Ca2+  Ca41  1  0.41972189  0.67709442  0.82717586  1
  Ca2+  Ca42  1  0.92083372  0.17704862  0.16627481  1
  Ca2+  Ca43  1  0.91769050  0.17298599  0.48903785  1
  Ca2+  Ca44  1  0.91536122  0.16902279  0.82867048  1
  Ca2+  Ca45  1  0.92288002  0.67567194  0.16948677  1
  Ca2+  Ca46  1  0.91758506  0.67134795  0.48775956  1
  Ca2+  Ca47  1  0.92052616  0.67298701  0.83680962  1
  Al0+  Al48  1  -0.00041147  0.00155886  -0.00157414  1
  Al0+  Al49  1  0.00007752  0.00157872  0.32885187  1
  Al0+  Al50  1  0.00131260  0.00136996  0.66932089  1
  Al0+  Al51  1  -0.00297828  0.49917777  -0.00745629  1
  Al0+  Al52  1  -0.00128462  0.50147850  0.33570471  1
  Al0+  Al53  1  -0.00262655  0.49980923  0.67112996  1
  Al0+  Al54  1  0.50321480  -0.00068879  -0.00122648  1
  Al0+  Al55  1  0.50095631  0.00013041  0.33668290  1
  Al0+  Al56  1  0.49967529  0.00112241  0.67240077  1
  Al0+  Al57  1  0.49888147  0.49573980  0.00056199  1
  Al0+  Al58  1  0.49968040  0.49890763  0.33148080  1
  Al0+  Al59  1  0.49819389  0.50067782  0.66637704  1
  Al0+  Al60  1  0.25189661  0.25131826  0.00397140  1
  Al0+  Al61  1  0.25153295  0.25118063  0.33492595  1
  Al0+  Al62  1  0.24819592  0.25137985  0.67575812  1
  Al0+  Al63  1  0.25270180  0.74903177  -0.00616115  1
  Al0+  Al64  1  0.25223173  0.75071517  0.33704491  1
  Al0+  Al65  1  0.25007890  0.74966410  0.66189689  1
  Al0+  Al66  1  0.74906990  0.24843333  -0.00466875  1
  Al0+  Al67  1  0.74834346  0.24966448  0.32715383  1
  Al0+  Al68  1  0.74863632  0.25131918  0.67281250  1
  Al0+  Al69  1  0.75246509  0.74666630  -0.00329919  1
  Al0+  Al70  1  0.75033179  0.74802535  0.33285619  1
  Al0+  Al71  1  0.75026353  0.74930458  0.66858492  1
  Al0+  Al72  1  0.31931872  0.07022339  0.68128967  1
  Al0+  Al73  1  0.07325121  0.67979361  0.32158551  1
  Al0+  Al74  1  0.17934574  0.43179856  0.34475119  1
  Al0+  Al75  1  0.57007353  0.17826192  0.32125302  1
  Al0+  Al76  1  0.43224195  0.82000955  0.98689383  1
  Al0+  Al77  1  0.92859259  0.32109841  0.32025309  1
  Al0+  Al78  1  0.67751592  0.43031526  0.68092756  1
  Al0+  Al79  1  0.57032017  0.67982786  0.65213370  1
  Al0+  Al80  1  0.32429806  0.07199713  0.01798192  1
  Al0+  Al81  1  0.92924795  0.31929574  0.98392166  1
  Al0+  Al82  1  0.68052708  0.92848166  0.34453007  1
  Al0+  Al83  1  0.67757171  0.42679035  0.34668775  1
  Al0+  Al84  1  0.67999017  0.92730110  0.68270251  1
  Al0+  Al85  1  0.17915690  0.92744867  0.01483305  1
  Al0+  Al86  1  0.92768821  0.82391125  0.98294144  1
  Al0+  Al87  1  0.57142380  0.67732874  0.31937057  1
  Al0+  Al88  1  0.32025756  0.07031011  0.34920536  1
  Al0+  Al89  1  0.17758816  0.43104747  0.68186829  1
  Al0+  Al90  1  0.82252058  0.07181627  0.68027622  1
  Al0+  Al91  1  0.07488671  0.17826176  0.31838430  1
  Al0+  Al92  1  0.92852481  0.82275449  0.32069374  1
  Al0+  Al93  1  0.82081297  0.57060092  0.34844926  1
  Al0+  Al94  1  0.07173950  0.67996895  0.98454935  1
  Al0+  Al95  1  0.17576178  0.92725384  0.34846805  1
  Si0+  Si96  1  0.93082150  0.82200928  0.65188682  1
  Si0+  Si97  1  0.68238074  0.92750382  0.01442995  1
  Si0+  Si98  1  0.82139416  0.57226046  0.68720803  1
  Si0+  Si99  1  0.81999194  0.56842474  0.01541279  1
  Si0+  Si100  1  0.42766214  0.82518862  0.64762439  1
  Si0+  Si101  1  0.32464953  0.57404508  0.35019154  1
  Si0+  Si102  1  0.07407480  0.17948079  0.98234232  1
  Si0+  Si103  1  0.17707531  0.43172685  0.01539973  1
  Si0+  Si104  1  0.42729999  0.32213266  0.31626019  1
  Si0+  Si105  1  0.82214701  0.07355521  0.34580238  1
  Si0+  Si106  1  0.57044595  0.18031305  0.65199274  1
  Si0+  Si107  1  0.57015379  0.17910452  0.98243836  1
  Si0+  Si108  1  0.07114904  0.18130139  0.65379535  1
  Si0+  Si109  1  0.92678721  0.32080368  0.65104439  1
  Si0+  Si110  1  0.43003578  0.82228670  0.31799517  1
  Si0+  Si111  1  0.42650337  0.32072211  0.65234777  1
  Si0+  Si112  1  0.82052991  0.07297852  0.01542321  1
  Si0+  Si113  1  0.57222948  0.67463186  0.98379780  1
  Si0+  Si114  1  0.17789073  0.92611917  0.68310411  1
  Si0+  Si115  1  0.32162574  0.57217267  0.68313376  1
  Si0+  Si116  1  0.67745591  0.42710523  0.01534749  1
  Si0+  Si117  1  0.32244270  0.57023241  0.01376885  1
  Si0+  Si118  1  0.07056806  0.67741636  0.65064723  1
  Si0+  Si119  1  0.42811632  0.32201495  0.98334545  1
  O2-  O120  1  0.24944573  0.00153853  0.06435381  1
  O2-  O121  1  0.24478846  0.00214020  0.39916273  1
  O2-  O122  1  0.24963834  -0.00882752  0.72779052  1
  O2-  O123  1  0.24669748  0.50461913  0.05659151  1
  O2-  O124  1  0.25204549  0.50829890  0.39277279  1
  O2-  O125  1  0.24881242  0.50893065  0.72953166  1
  O2-  O126  1  0.75697222  -0.00518365  0.05646773  1
  O2-  O127  1  0.75804582  0.00077297  0.39002927  1
  O2-  O128  1  0.75293723  -0.00146489  0.73284315  1
  O2-  O129  1  0.74582818  0.49998981  0.05656674  1
  O2-  O130  1  0.74750008  0.49934346  0.39784382  1
  O2-  O131  1  0.75089547  0.50454621  0.73082921  1
  O2-  O132  1  0.00110498  0.24964109  0.26995351  1
  O2-  O133  1  -0.00277106  0.24887606  0.61035181  1
  O2-  O134  1  0.00450667  0.24614891  0.93544957  1
  O2-  O135  1  0.00773849  0.75761167  0.27202399  1
  O2-  O136  1  0.00322813  0.75216372  0.61019981  1
  O2-  O137  1  0.00440902  0.75613031  0.93313901  1
  O2-  O138  1  0.49720865  0.25415072  0.27269915  1
  O2-  O139  1  0.49778088  0.25011454  0.61027753  1
  O2-  O140  1  0.49650003  0.24830987  0.94116594  1
  O2-  O141  1  0.49549633  0.75040325  0.27313141  1
  O2-  O142  1  0.49772141  0.75686751  0.60507894  1
  O2-  O143  1  0.50622034  0.74486060  0.93863405  1
  O2-  O144  1  0.07365908  0.18247696  0.08740735  1
  O2-  O145  1  0.07370984  0.18161557  0.43294652  1
  O2-  O146  1  0.07070129  0.18435372  0.75904770  1
  O2-  O147  1  0.06862848  0.67617418  0.09717820  1
  O2-  O148  1  0.06818324  0.67828100  0.43572407  1
  O2-  O149  1  0.06985695  0.67691090  0.75577027  1
  O2-  O150  1  0.57261219  0.18015939  0.08729261  1
  O2-  O151  1  0.56930730  0.17859675  0.43458010  1
  O2-  O152  1  0.56995132  0.18244484  0.75768362  1
  O2-  O153  1  0.57085738  0.67357025  0.08911537  1
  O2-  O154  1  0.57026681  0.67817223  0.43256949  1
  O2-  O155  1  0.56541946  0.67919690  0.76586131  1
  O2-  O156  1  0.18103186  0.43297643  0.23125008  1
  O2-  O157  1  0.17842429  0.42977130  0.56923898  1
  O2-  O158  1  0.17925080  0.43181543  0.90988413  1
  O2-  O159  1  0.17946607  0.92516364  0.23517315  1
  O2-  O160  1  0.17585427  0.92821774  0.57801236  1
  O2-  O161  1  0.18281954  0.92952143  0.90041525  1
  O2-  O162  1  0.67939747  0.42793912  0.23250878  1
  O2-  O163  1  0.67907356  0.42771791  0.56891014  1
  O2-  O164  1  0.67633991  0.42832704  0.90987476  1
  O2-  O165  1  0.67943083  0.93010552  0.23081737  1
  O2-  O166  1  0.68117577  0.92778645  0.56936779  1
  O2-  O167  1  0.68113913  0.92971647  0.90940343  1
  O2-  O168  1  0.42976370  0.32860148  0.08752839  1
  O2-  O169  1  0.42605854  0.32231334  0.42204862  1
  O2-  O170  1  0.42783817  0.32018688  0.75808267  1
  O2-  O171  1  0.43491570  0.81792964  0.09970986  1
  O2-  O172  1  0.43227272  0.82227276  0.42369951  1
  O2-  O173  1  0.42724727  0.82331552  0.75362164  1
  O2-  O174  1  0.92932171  0.31989781  0.09627638  1
  O2-  O175  1  0.92809664  0.31927428  0.43437073  1
  O2-  O176  1  0.92792868  0.32020362  0.75656540  1
  O2-  O177  1  0.92238365  0.81903965  0.09543304  1
  O2-  O178  1  0.92639857  0.82001582  0.43494939  1
  O2-  O179  1  0.93180583  0.82132249  0.75698279  1
  O2-  O180  1  0.32238936  0.06608987  0.23607301  1
  O2-  O181  1  0.31815618  0.07285573  0.56894085  1
  O2-  O182  1  0.32310984  0.07122097  0.90379725  1
  O2-  O183  1  0.32736431  0.57143923  0.24421156  1
  O2-  O184  1  0.32383246  0.56848262  0.57805990  1
  O2-  O185  1  0.32596628  0.56529993  0.90872996  1
  O2-  O186  1  0.81756965  0.07555084  0.23993227  1
  O2-  O187  1  0.82136501  0.07275744  0.56700924  1
  O2-  O188  1  0.81565535  0.07644424  0.91038427  1
  O2-  O189  1  0.82030698  0.56999616  0.23435716  1
  O2-  O190  1  0.82373468  0.57160770  0.58214306  1
  O2-  O191  1  0.81866435  0.56748924  0.90992884  1
  O2-  O192  1  0.04822796  0.08099093  0.26363720  1
  O2-  O193  1  0.04913725  0.08722201  0.60838691  1
  O2-  O194  1  0.04986628  0.08579415  0.93594210  1
  O2-  O195  1  0.03933353  0.58366686  0.26809261  1
  O2-  O196  1  0.03804908  0.58563822  0.60573160  1
  O2-  O197  1  0.03580075  0.58413899  0.92858048  1
  O2-  O198  1  0.53789875  0.08254405  0.26544354  1
  O2-  O199  1  0.54406298  0.08703984  0.60744305  1
  O2-  O200  1  0.54570347  0.08698677  0.93436604  1
  O2-  O201  1  0.54117640  0.58079894  0.26439849  1
  O2-  O202  1  0.53631427  0.58343150  0.59896212  1
  O2-  O203  1  0.54339411  0.58084346  0.93850293  1
  O2-  O204  1  0.17208879  0.21000643  0.26543863  1
  O2-  O205  1  0.16205768  0.21415881  0.60808396  1
  O2-  O206  1  0.16814574  0.20802585  0.93745009  1
  O2-  O207  1  0.17600444  0.69728016  0.27306250  1
  O2-  O208  1  0.16482577  0.69782203  0.60470262  1
  O2-  O209  1  0.17193025  0.69962769  0.93021204  1
  O2-  O210  1  0.66416010  0.20810678  0.26144968  1
  O2-  O211  1  0.66229971  0.21033961  0.60670810  1
  O2-  O212  1  0.65964985  0.21070467  0.93227014  1
  O2-  O213  1  0.66622400  0.70937613  0.26404942  1
  O2-  O214  1  0.66941698  0.70650692  0.60156599  1
  O2-  O215  1  0.66651192  0.69691922  0.93835626  1
  O2-  O216  1  0.08363124  0.45825869  0.05889050  1
  O2-  O217  1  0.08388347  0.46051895  0.40137463  1
  O2-  O218  1  0.08076797  0.46025602  0.73706817  1
  O2-  O219  1  0.07808201  0.95323212  0.06324078  1
  O2-  O220  1  0.07584453  0.95413524  0.39965750  1
  O2-  O221  1  0.08598379  0.95447164  0.73111583  1
  O2-  O222  1  0.58425947  0.45049659  0.06185761  1
  O2-  O223  1  0.57770604  0.45179965  0.39786854  1
  O2-  O224  1  0.57998288  0.46039663  0.73530475  1
  O2-  O225  1  0.59234800  0.95982785  0.06177434  1
  O2-  O226  1  0.58669134  0.96195754  0.40123427  1
  O2-  O227  1  0.58239932  0.95777120  0.73629110  1
  O2-  O228  1  0.20751537  0.34079661  0.06184725  1
  O2-  O229  1  0.21318579  0.33702330  0.40037135  1
  O2-  O230  1  0.21177939  0.33789236  0.74052349  1
  O2-  O231  1  0.20960314  0.82764329  0.06310406  1
  O2-  O232  1  0.20672728  0.83011060  0.40399109  1
  O2-  O233  1  0.19989854  0.82990624  0.72589944  1
  O2-  O234  1  0.70671313  0.33437321  0.05926901  1
  O2-  O235  1  0.70645579  0.32785416  0.39823439  1
  O2-  O236  1  0.70814252  0.33519773  0.73842036  1
  O2-  O237  1  0.70569733  0.83288087  0.05859130  1
  O2-  O238  1  0.70976591  0.83238969  0.39879518  1
  O2-  O239  1  0.70772622  0.82920819  0.73700945  1
  O2-  O240  1  0.45096803  0.41541263  0.26843338  1
  O2-  O241  1  0.45190240  0.41297286  0.60586450  1
  O2-  O242  1  0.45913303  0.41169469  0.93175350  1
  O2-  O243  1  0.46100753  0.91337507  0.27104274  1
  O2-  O244  1  0.45293656  0.91994044  0.60464463  1
  O2-  O245  1  0.46568666  0.91568675  0.93142106  1
  O2-  O246  1  0.95892675  0.41879370  0.26786853  1
  O2-  O247  1  0.95459664  0.41398805  0.60729852  1
  O2-  O248  1  0.95898130  0.41445432  0.92648018  1
  O2-  O249  1  0.94600766  0.92306035  0.26806095  1
  O2-  O250  1  0.95680866  0.91503361  0.60605914  1
  O2-  O251  1  0.94908671  0.92491838  0.93114149  1
  O2-  O252  1  0.33552476  0.29555538  0.26755933  1
  O2-  O253  1  0.33371982  0.29205492  0.60784778  1
  O2-  O254  1  0.33510118  0.29722499  0.93588004  1
  O2-  O255  1  0.33578939  0.79856452  0.27292797  1
  O2-  O256  1  0.33388543  0.79928401  0.60151475  1
  O2-  O257  1  0.33784282  0.78946503  0.92847559  1
  O2-  O258  1  0.83193472  0.29250122  0.26396059  1
  O2-  O259  1  0.83404183  0.29325633  0.60614971  1
  O2-  O260  1  0.83240837  0.28720792  0.92941786  1
  O2-  O261  1  0.83363972  0.78641752  0.26543697  1
  O2-  O262  1  0.83852299  0.79279852  0.60707475  1
  O2-  O263  1  0.83173756  0.78719978  0.92703717  1
  O2-  O264  1  0.42406299  0.04189784  0.06674610  1
  O2-  O265  1  0.41718053  0.03808325  0.40347193  1
  O2-  O266  1  0.41702876  0.04501638  0.73599883  1
  O2-  O267  1  0.41184066  0.53639868  0.06342241  1
  O2-  O268  1  0.41559557  0.54199482  0.39807580  1
  O2-  O269  1  0.41217301  0.54178395  0.73279572  1
  O2-  O270  1  0.91577495  0.05564678  0.05871341  1
  O2-  O271  1  0.91761027  0.05591903  0.38987057  1
  O2-  O272  1  0.92147348  0.04658974  0.73494787  1
  O2-  O273  1  0.91078155  0.53561816  0.06055360  1
  O2-  O274  1  0.91700821  0.54139369  0.40463644  1
  O2-  O275  1  0.91307853  0.54338228  0.73570423  1
  O2-  O276  1  0.30146220  0.17339397  0.06749668  1
  O2-  O277  1  0.29750998  0.17074293  0.40032353  1
  O2-  O278  1  0.28635275  0.16506753  0.73832265  1
  O2-  O279  1  0.30211792  0.66416191  0.05835670  1
  O2-  O280  1  0.30684621  0.66816519  0.39733080  1
  O2-  O281  1  0.30030722  0.66853280  0.72592765  1
  O2-  O282  1  0.78405848  0.16202380  0.06306877  1
  O2-  O283  1  0.79065765  0.16464892  0.39316132  1
  O2-  O284  1  0.79027419  0.16799393  0.73686944  1
  O2-  O285  1  0.79481558  0.66118921  0.06176779  1
  O2-  O286  1  0.79008578  0.66718179  0.40287927  1
  O2-  O287  1  0.79643057  0.66550091  0.73391390  1
