# generated using pymatgen
data_Ca2Al2SiO7
_symmetry_space_group_name_H-M   'P 1'
_cell_length_a   15.45908420
_cell_length_b   15.45978025
_cell_length_c   15.28521333
_cell_angle_alpha   89.99092430
_cell_angle_beta   90.00039373
_cell_angle_gamma   89.99663977
_symmetry_Int_Tables_number   1
_chemical_formula_structural   Ca2Al2SiO7
_chemical_formula_sum   'Ca48 Al48 Si24 O168'
_cell_volume   3653.07490426
_cell_formula_units_Z   24
loop_
 _symmetry_equiv_pos_site_id
 _symmetry_equiv_pos_as_xyz
  1  'x, y, z'
loop_
 _atom_type_symbol
 _atom_type_oxidation_number
  Ca2+  2.0
  Al0+  0.0
  Si0+  0.0
  O2-  -2.0
loop_
 _atom_site_type_symbol
 _atom_site_label
 _atom_site_symmetry_multiplicity
 _atom_site_fract_x
 _atom_site_fract_y
 _atom_site_fract_z
 _atom_site_occupancy
  Ca2+  Ca0  1  0.16980816  0.08964738  0.17096445  1
  Ca2+  Ca1  1  0.16425185  0.08136507  0.51161379  1
  Ca2+  Ca2  1  0.17013083  0.08614215  0.83521571  1
  Ca2+  Ca3  1  0.17463765  0.59116252  0.16996413  1
  Ca2+  Ca4  1  0.16862219  0.58559950  0.51054544  1
  Ca2+  Ca5  1  0.17063578  0.58226440  0.83416862  1
  Ca2+  Ca6  1  0.66709678  0.07556931  0.16787188  1
  Ca2+  Ca7  1  0.66823615  0.07858106  0.51102661  1
  Ca2+  Ca8  1  0.65846063  0.07376799  0.83518362  1
  Ca2+  Ca9  1  0.67198940  0.57726516  0.17656203  1
  Ca2+  Ca10  1  0.68188683  0.57489940  0.50126639  1
  Ca2+  Ca11  1  0.67513897  0.58686128  0.83688121  1
  Ca2+  Ca12  1  0.07092517  0.33766543  0.16401007  1
  Ca2+  Ca13  1  0.07919709  0.32984216  0.50033775  1
  Ca2+  Ca14  1  0.07541661  0.33447880  0.82273773  1
  Ca2+  Ca15  1  0.07699102  0.82238962  0.16650470  1
  Ca2+  Ca16  1  0.08281400  0.82514742  0.49405974  1
  Ca2+  Ca17  1  0.09285626  0.82338483  0.82829607  1
  Ca2+  Ca18  1  0.57776032  0.33902152  0.15924690  1
  Ca2+  Ca19  1  0.58441211  0.33178856  0.49786619  1
  Ca2+  Ca20  1  0.57143033  0.32827686  0.82704134  1
  Ca2+  Ca21  1  0.58289371  0.82387222  0.15744349  1
  Ca2+  Ca22  1  0.58209174  0.83337612  0.50004546  1
  Ca2+  Ca23  1  0.58534010  0.83302455  0.83051364  1
  Ca2+  Ca24  1  0.33635779  0.42715964  0.17136461  1
  Ca2+  Ca25  1  0.32229592  0.42953812  0.50759497  1
  Ca2+  Ca26  1  0.32674091  0.42035664  0.83698865  1
  Ca2+  Ca27  1  0.33226198  0.92327515  0.16656190  1
  Ca2+  Ca28  1  0.32197731  0.92229668  0.51137924  1
  Ca2+  Ca29  1  0.32746697  0.92838331  0.83166298  1
  Ca2+  Ca30  1  0.83018404  0.41694428  0.17557272  1
  Ca2+  Ca31  1  0.84466905  0.42282829  0.50177072  1
  Ca2+  Ca32  1  0.84168807  0.41957547  0.83324345  1
  Ca2+  Ca33  1  0.83003796  0.91022306  0.17123847  1
  Ca2+  Ca34  1  0.83112298  0.91367651  0.50589590  1
  Ca2+  Ca35  1  0.82114021  0.91536676  0.83750391  1
  Ca2+  Ca36  1  0.41643530  0.17524653  0.15723819  1
  Ca2+  Ca37  1  0.42013623  0.16185512  0.50221084  1
  Ca2+  Ca38  1  0.41417806  0.16564832  0.82751712  1
  Ca2+  Ca39  1  0.42158824  0.66025369  0.15701484  1
  Ca2+  Ca40  1  0.41191586  0.66415777  0.49637406  1
  Ca2+  Ca41  1  0.42081921  0.65857923  0.83037095  1
  Ca2+  Ca42  1  0.92134547  0.17697016  0.16427785  1
  Ca2+  Ca43  1  0.92817929  0.17507208  0.49363612  1
  Ca2+  Ca44  1  0.91971983  0.18032888  0.82314607  1
  Ca2+  Ca45  1  0.92723431  0.65969611  0.16533461  1
  Ca2+  Ca46  1  0.92541973  0.66514254  0.49552998  1
  Ca2+  Ca47  1  0.92928788  0.66391336  0.82532840  1
  Al0+  Al48  1  -0.00152236  -0.00059701  0.00148342  1
  Al0+  Al49  1  -0.00011404  -0.00147991  0.32449417  1
  Al0+  Al50  1  -0.00309238  -0.00066248  0.67089250  1
  Al0+  Al51  1  0.00106735  0.50049527  -0.00740223  1
  Al0+  Al52  1  0.00235325  0.49861053  0.32800995  1
  Al0+  Al53  1  0.00108085  0.50281708  0.66659193  1
  Al0+  Al54  1  0.49946287  -0.00157887  0.01103126  1
  Al0+  Al55  1  0.49959835  -0.00044028  0.33229257  1
  Al0+  Al56  1  0.49922708  -0.00119624  0.66854106  1
  Al0+  Al57  1  0.50050081  0.49914944  -0.00757590  1
  Al0+  Al58  1  0.50029623  0.49962870  0.34285833  1
  Al0+  Al59  1  0.50273996  0.49983554  0.66561126  1
  Al0+  Al60  1  0.24864938  0.25132630  0.00230372  1
  Al0+  Al61  1  0.25496749  0.25137154  0.33184945  1
  Al0+  Al62  1  0.24992262  0.25301897  0.66838418  1
  Al0+  Al63  1  0.25138169  0.75167392  0.00073150  1
  Al0+  Al64  1  0.25116960  0.75505112  0.33220118  1
  Al0+  Al65  1  0.25316796  0.75267757  0.67087759  1
  Al0+  Al66  1  0.74973228  0.24897775  -0.00429773  1
  Al0+  Al67  1  0.74874821  0.24505810  0.33292547  1
  Al0+  Al68  1  0.74737884  0.25124792  0.65852350  1
  Al0+  Al69  1  0.75001250  0.74896141  0.00204293  1
  Al0+  Al70  1  0.74749486  0.74846783  0.33588145  1
  Al0+  Al71  1  0.74933287  0.74829263  0.67347053  1
  Al0+  Al72  1  0.67861722  0.42483376  0.34786539  1
  Al0+  Al73  1  0.31946829  0.07201432  0.67949574  1
  Al0+  Al74  1  0.82361916  0.56986486  0.34698775  1
  Al0+  Al75  1  0.31951405  0.57402886  0.34674915  1
  Al0+  Al76  1  0.07413428  0.17844893  0.31771142  1
  Al0+  Al77  1  0.31847182  0.07201961  0.01599493  1
  Al0+  Al78  1  0.07235371  0.68133005  0.98389275  1
  Al0+  Al79  1  0.92762642  0.32021308  0.98440576  1
  Al0+  Al80  1  0.32192946  0.56958213  0.01317631  1
  Al0+  Al81  1  0.07197877  0.17711494  0.65383149  1
  Al0+  Al82  1  0.68010593  0.92812768  0.01688628  1
  Al0+  Al83  1  0.82043124  0.56899742  0.68136492  1
  Al0+  Al84  1  0.42755302  0.32134748  0.98645373  1
  Al0+  Al85  1  0.32330958  0.57313215  0.68270675  1
  Al0+  Al86  1  0.56727149  0.17790628  0.65349384  1
  Al0+  Al87  1  0.92864416  0.32313999  0.64959531  1
  Al0+  Al88  1  0.92603711  0.81959962  0.31949077  1
  Al0+  Al89  1  0.07305203  0.68343010  0.65393681  1
  Al0+  Al90  1  0.17451788  0.92940735  0.68100080  1
  Al0+  Al91  1  0.07375297  0.67794425  0.31850304  1
  Al0+  Al92  1  0.92825276  0.32052969  0.31702842  1
  Al0+  Al93  1  0.67943746  0.93011665  0.68002591  1
  Al0+  Al94  1  0.57134415  0.67844986  0.98643194  1
  Al0+  Al95  1  0.17822963  0.43085089  0.68143107  1
  Si0+  Si96  1  0.17863437  0.93254459  0.34694571  1
  Si0+  Si97  1  0.67981722  0.42837223  0.01128237  1
  Si0+  Si98  1  0.56982666  0.17652231  0.98512615  1
  Si0+  Si99  1  0.43198137  0.82011268  0.65184303  1
  Si0+  Si100  1  0.57067764  0.17508434  0.31680498  1
  Si0+  Si101  1  0.17661103  0.42965066  0.01803675  1
  Si0+  Si102  1  0.82148964  0.07313183  0.01741487  1
  Si0+  Si103  1  0.57368678  0.67778042  0.64964014  1
  Si0+  Si104  1  0.43370186  0.32125759  0.31935884  1
  Si0+  Si105  1  0.42949979  0.82361111  0.98298583  1
  Si0+  Si106  1  0.82060145  0.07459933  0.68256732  1
  Si0+  Si107  1  0.92443005  0.82104837  0.65336123  1
  Si0+  Si108  1  0.42726524  0.32433540  0.64709708  1
  Si0+  Si109  1  0.82187190  0.06791884  0.34773654  1
  Si0+  Si110  1  0.67779249  0.92853779  0.34946595  1
  Si0+  Si111  1  0.92692870  0.82238712  0.98253251  1
  Si0+  Si112  1  0.82234088  0.56942345  0.01472728  1
  Si0+  Si113  1  0.56737147  0.67876437  0.32082961  1
  Si0+  Si114  1  0.32222443  0.07224647  0.34868789  1
  Si0+  Si115  1  0.17996218  0.42712534  0.34820550  1
  Si0+  Si116  1  0.42949354  0.82316723  0.31750341  1
  Si0+  Si117  1  0.17625436  0.92758651  0.01982511  1
  Si0+  Si118  1  0.67793396  0.42554901  0.68512860  1
  Si0+  Si119  1  0.07146160  0.17726767  0.98383468  1
  O2-  O120  1  0.24126396  0.00034252  0.06427927  1
  O2-  O121  1  0.24553218  0.00755181  0.38931838  1
  O2-  O122  1  0.24024299  0.00823393  0.72963737  1
  O2-  O123  1  0.24695392  0.49687492  0.06269972  1
  O2-  O124  1  0.23982376  0.50440749  0.39168283  1
  O2-  O125  1  0.25218079  0.50082724  0.73221121  1
  O2-  O126  1  0.75596098  0.00172152  0.06345428  1
  O2-  O127  1  0.75152777  -0.00377179  0.39112109  1
  O2-  O128  1  0.75273655  0.00526499  0.72783421  1
  O2-  O129  1  0.75130927  0.49763355  0.05551552  1
  O2-  O130  1  0.75702320  0.49131164  0.39588498  1
  O2-  O131  1  0.74788765  0.49241882  0.72972622  1
  O2-  O132  1  0.00341886  0.25134746  0.26681875  1
  O2-  O133  1  -0.00079997  0.24772294  0.60297052  1
  O2-  O134  1  0.00178854  0.24428886  0.93986717  1
  O2-  O135  1  -0.00524354  0.74405957  0.26966839  1
  O2-  O136  1  -0.00059226  0.76002382  0.60873938  1
  O2-  O137  1  -0.00142320  0.75788091  0.93799317  1
  O2-  O138  1  0.50539641  0.25136072  0.27532183  1
  O2-  O139  1  0.49415228  0.25271182  0.60386405  1
  O2-  O140  1  0.49910442  0.24267178  0.94118635  1
  O2-  O141  1  0.49571622  0.74769616  0.27590822  1
  O2-  O142  1  0.49908217  0.74558108  0.60811413  1
  O2-  O143  1  0.49615208  0.75270336  0.93907289  1
  O2-  O144  1  0.07073364  0.17905967  0.08955542  1
  O2-  O145  1  0.07289742  0.17626680  0.43080540  1
  O2-  O146  1  0.06918249  0.17804351  0.76751957  1
  O2-  O147  1  0.07114272  0.68118779  0.09713266  1
  O2-  O148  1  0.07710874  0.68338339  0.43177345  1
  O2-  O149  1  0.07147318  0.68386723  0.76707662  1
  O2-  O150  1  0.57093965  0.17880838  0.09123176  1
  O2-  O151  1  0.56656629  0.16873139  0.42143318  1
  O2-  O152  1  0.56464460  0.17722954  0.76674056  1
  O2-  O153  1  0.57056029  0.67842164  0.10034549  1
  O2-  O154  1  0.56693397  0.68205235  0.42586452  1
  O2-  O155  1  0.57466916  0.67974268  0.75475065  1
  O2-  O156  1  0.18578531  0.42347268  0.24258943  1
  O2-  O157  1  0.17930517  0.43204705  0.56728164  1
  O2-  O158  1  0.17644623  0.43010933  0.91282127  1
  O2-  O159  1  0.18258877  0.93118619  0.24191203  1
  O2-  O160  1  0.17928058  0.92680432  0.56678475  1
  O2-  O161  1  0.17793786  0.92810034  0.91449710  1
  O2-  O162  1  0.67357577  0.43037906  0.23354702  1
  O2-  O163  1  0.67546959  0.42814566  0.57974395  1
  O2-  O164  1  0.68025848  0.42871686  0.90647007  1
  O2-  O165  1  0.67525982  0.93005177  0.24456559  1
  O2-  O166  1  0.67985437  0.93025087  0.56639579  1
  O2-  O167  1  0.67910059  0.92997667  0.90387897  1
  O2-  O168  1  0.43272911  0.32251775  0.10036220  1
  O2-  O169  1  0.43366474  0.31893444  0.42399710  1
  O2-  O170  1  0.43024616  0.32553803  0.75271643  1
  O2-  O171  1  0.43147718  0.82337187  0.08936111  1
  O2-  O172  1  0.43194664  0.82714473  0.42248979  1
  O2-  O173  1  0.43484417  0.82303242  0.75655630  1
  O2-  O174  1  0.92626034  0.31972939  0.09743092  1
  O2-  O175  1  0.92915506  0.31761641  0.42982049  1
  O2-  O176  1  0.92920833  0.32082772  0.76350655  1
  O2-  O177  1  0.92587431  0.81982672  0.08812227  1
  O2-  O178  1  0.92797049  0.82272742  0.43303845  1
  O2-  O179  1  0.91969107  0.81695387  0.75876209  1
  O2-  O180  1  0.32519866  0.06987793  0.24362550  1
  O2-  O181  1  0.32308513  0.06573123  0.56547275  1
  O2-  O182  1  0.32023368  0.06991897  0.90345175  1
  O2-  O183  1  0.32473799  0.57047103  0.23352905  1
  O2-  O184  1  0.32115803  0.57299882  0.56864512  1
  O2-  O185  1  0.32275117  0.56663661  0.90105068  1
  O2-  O186  1  0.81789336  0.06783739  0.24258884  1
  O2-  O187  1  0.81901188  0.07149489  0.57669087  1
  O2-  O188  1  0.81916290  0.07310111  0.91202505  1
  O2-  O189  1  0.81778570  0.57172100  0.23279700  1
  O2-  O190  1  0.81893668  0.57079062  0.56851926  1
  O2-  O191  1  0.82089554  0.57012543  0.90961756  1
  O2-  O192  1  0.04451802  0.08157911  0.26188037  1
  O2-  O193  1  0.04435153  0.07661527  0.60288139  1
  O2-  O194  1  0.04893506  0.08155402  0.94068456  1
  O2-  O195  1  0.05374140  0.57818833  0.26476524  1
  O2-  O196  1  0.04026954  0.58801173  0.60041231  1
  O2-  O197  1  0.03967613  0.58610810  0.92952611  1
  O2-  O198  1  0.53698211  0.08588062  0.26635454  1
  O2-  O199  1  0.53580411  0.08145718  0.59789733  1
  O2-  O200  1  0.54398554  0.08112290  0.94387176  1
  O2-  O201  1  0.54051698  0.58579909  0.27524779  1
  O2-  O202  1  0.55013524  0.58498006  0.60235895  1
  O2-  O203  1  0.54262240  0.58370190  0.92878863  1
  O2-  O204  1  0.17518744  0.20458078  0.26777321  1
  O2-  O205  1  0.17134689  0.20469477  0.60173943  1
  O2-  O206  1  0.16553046  0.20253133  0.93991636  1
  O2-  O207  1  0.16979936  0.71579296  0.26439239  1
  O2-  O208  1  0.17107959  0.71327246  0.60217739  1
  O2-  O209  1  0.16995980  0.71233116  0.93227487  1
  O2-  O210  1  0.66420455  0.19455384  0.27001108  1
  O2-  O211  1  0.66306684  0.20609693  0.59634082  1
  O2-  O212  1  0.66247804  0.20164927  0.93793927  1
  O2-  O213  1  0.65837788  0.70793434  0.27296163  1
  O2-  O214  1  0.66346483  0.71180400  0.60235706  1
  O2-  O215  1  0.66803648  0.71065077  0.93324646  1
  O2-  O216  1  0.08323101  0.45915210  0.06300692  1
  O2-  O217  1  0.08301464  0.44253705  0.38912608  1
  O2-  O218  1  0.08189273  0.46185269  0.73589929  1
  O2-  O219  1  0.08029649  0.94800705  0.06389949  1
  O2-  O220  1  0.08461403  0.95512049  0.39154312  1
  O2-  O221  1  0.07393409  0.94603106  0.73456261  1
  O2-  O222  1  0.58824595  0.45782167  0.05821107  1
  O2-  O223  1  0.58466282  0.45979544  0.40607002  1
  O2-  O224  1  0.58492709  0.45351422  0.73105756  1
  O2-  O225  1  0.58540229  0.95913354  0.07511676  1
  O2-  O226  1  0.58668578  0.96106021  0.39640207  1
  O2-  O227  1  0.58406550  0.96169288  0.73510086  1
  O2-  O228  1  0.19886573  0.33536030  0.06384778  1
  O2-  O229  1  0.21574190  0.33732329  0.39668139  1
  O2-  O230  1  0.20481357  0.33256558  0.73549620  1
  O2-  O231  1  0.20802890  0.83656992  0.06759420  1
  O2-  O232  1  0.21213940  0.84338839  0.39602728  1
  O2-  O233  1  0.21547200  0.83694520  0.73722045  1
  O2-  O234  1  0.70460007  0.33530052  0.05873460  1
  O2-  O235  1  0.69575136  0.32196588  0.39607760  1
  O2-  O236  1  0.69902139  0.33008039  0.72889645  1
  O2-  O237  1  0.71056665  0.83092721  0.07122311  1
  O2-  O238  1  0.69998007  0.83580306  0.39728135  1
  O2-  O239  1  0.70902020  0.83440042  0.73578018  1
  O2-  O240  1  0.46183161  0.41403657  0.27336059  1
  O2-  O241  1  0.45812106  0.41634318  0.59967382  1
  O2-  O242  1  0.46293319  0.41327450  0.92791164  1
  O2-  O243  1  0.46277499  0.91250043  0.26737804  1
  O2-  O244  1  0.46441693  0.90908709  0.60114296  1
  O2-  O245  1  0.46058224  0.91657341  0.93926492  1
  O2-  O246  1  0.95339639  0.41922480  0.26233097  1
  O2-  O247  1  0.96132201  0.42049085  0.59834588  1
  O2-  O248  1  0.95942811  0.41582713  0.93024142  1
  O2-  O249  1  0.95674799  0.91508391  0.26106134  1
  O2-  O250  1  0.94019262  0.91813911  0.61133285  1
  O2-  O251  1  0.94629658  0.91878302  0.93914841  1
  O2-  O252  1  0.34334176  0.29301847  0.26956406  1
  O2-  O253  1  0.33323925  0.30179388  0.60175130  1
  O2-  O254  1  0.32958745  0.29341982  0.93486259  1
  O2-  O255  1  0.33701111  0.80197818  0.26931924  1
  O2-  O256  1  0.33985422  0.79535044  0.60353316  1
  O2-  O257  1  0.33475099  0.80278289  0.93915579  1
  O2-  O258  1  0.82906568  0.28806769  0.26567584  1
  O2-  O259  1  0.82887869  0.29921186  0.59774186  1
  O2-  O260  1  0.83105947  0.29019389  0.92939827  1
  O2-  O261  1  0.82444866  0.79667734  0.26904993  1
  O2-  O262  1  0.83317452  0.78880491  0.60531795  1
  O2-  O263  1  0.83372137  0.79436687  0.93741286  1
  O2-  O264  1  0.41325636  0.03865007  0.07364973  1
  O2-  O265  1  0.41214304  0.03705019  0.39589141  1
  O2-  O266  1  0.41386840  0.03371566  0.73416034  1
  O2-  O267  1  0.42003621  0.53681472  0.06506709  1
  O2-  O268  1  0.41344029  0.53938151  0.40335015  1
  O2-  O269  1  0.42406477  0.54541817  0.73094024  1
  O2-  O270  1  0.91620862  0.05096418  0.06322708  1
  O2-  O271  1  0.91449855  0.03994739  0.39279309  1
  O2-  O272  1  0.91321731  0.05177207  0.73115839  1
  O2-  O273  1  0.91457554  0.54045892  0.06000618  1
  O2-  O274  1  0.92510336  0.54728209  0.39631850  1
  O2-  O275  1  0.91692059  0.54090788  0.73578593  1
  O2-  O276  1  0.29069737  0.16970327  0.07108625  1
  O2-  O277  1  0.30368391  0.16660981  0.39432294  1
  O2-  O278  1  0.30264549  0.17322740  0.72969361  1
  O2-  O279  1  0.29519195  0.66872166  0.06552312  1
  O2-  O280  1  0.29712364  0.67453996  0.39711226  1
  O2-  O281  1  0.29941718  0.67195628  0.73529109  1
  O2-  O282  1  0.79117800  0.16551472  0.06440343  1
  O2-  O283  1  0.79251466  0.15825319  0.39646672  1
  O2-  O284  1  0.79238944  0.16848078  0.72602236  1
  O2-  O285  1  0.79469640  0.66087349  0.06217292  1
  O2-  O286  1  0.78770192  0.66591980  0.40139610  1
  O2-  O287  1  0.78508455  0.66269853  0.73849887  1
