# generated using pymatgen
data_Ca2Al2SiO7
_symmetry_space_group_name_H-M   'P 1'
_cell_length_a   15.45620180
_cell_length_b   15.45518394
_cell_length_c   15.28107213
_cell_angle_alpha   90.01196285
_cell_angle_beta   89.98168453
_cell_angle_gamma   90.00388595
_symmetry_Int_Tables_number   1
_chemical_formula_structural   Ca2Al2SiO7
_chemical_formula_sum   'Ca48 Al48 Si24 O168'
_cell_volume   3650.31842455
_cell_formula_units_Z   24
loop_
 _symmetry_equiv_pos_site_id
 _symmetry_equiv_pos_as_xyz
  1  'x, y, z'
loop_
 _atom_type_symbol
 _atom_type_oxidation_number
  Ca2+  2.0
  Al0+  0.0
  Si0+  0.0
  O2-  -2.0
loop_
 _atom_site_type_symbol
 _atom_site_label
 _atom_site_symmetry_multiplicity
 _atom_site_fract_x
 _atom_site_fract_y
 _atom_site_fract_z
 _atom_site_occupancy
  Ca2+  Ca0  1  0.17473446  0.07524305  0.16872391  1
  Ca2+  Ca1  1  0.18031400  0.08403108  0.50447835  1
  Ca2+  Ca2  1  0.17925386  0.07785818  0.83987621  1
  Ca2+  Ca3  1  0.16313983  0.57812421  0.17532519  1
  Ca2+  Ca4  1  0.16998301  0.58088225  0.50014000  1
  Ca2+  Ca5  1  0.17372489  0.58576209  0.83150114  1
  Ca2+  Ca6  1  0.67900035  0.07861474  0.17302442  1
  Ca2+  Ca7  1  0.66721028  0.07674347  0.49555168  1
  Ca2+  Ca8  1  0.67271595  0.08127874  0.83900474  1
  Ca2+  Ca9  1  0.67427781  0.57384529  0.17382686  1
  Ca2+  Ca10  1  0.66048748  0.57525743  0.50459710  1
  Ca2+  Ca11  1  0.65677983  0.57190345  0.83354871  1
  Ca2+  Ca12  1  0.07663156  0.33241528  0.16203260  1
  Ca2+  Ca13  1  0.07973273  0.33687801  0.49417002  1
  Ca2+  Ca14  1  0.06890361  0.33155538  0.82824925  1
  Ca2+  Ca15  1  0.08178467  0.82878780  0.16045349  1
  Ca2+  Ca16  1  0.07878769  0.82618184  0.49505792  1
  Ca2+  Ca17  1  0.07421739  0.84517402  0.83333398  1
  Ca2+  Ca18  1  0.58348528  0.33765219  0.16618571  1
  Ca2+  Ca19  1  0.57335921  0.34090324  0.49686341  1
  Ca2+  Ca20  1  0.58336779  0.33236423  0.82535987  1
  Ca2+  Ca21  1  0.57519156  0.84456099  0.16598998  1
  Ca2+  Ca22  1  0.57558724  0.83138640  0.49512081  1
  Ca2+  Ca23  1  0.57226552  0.82753256  0.82327294  1
  Ca2+  Ca24  1  0.32574210  0.41724824  0.17748972  1
  Ca2+  Ca25  1  0.33064888  0.41542067  0.50799172  1
  Ca2+  Ca26  1  0.34366940  0.42561550  0.83150604  1
  Ca2+  Ca27  1  0.33910576  0.92417294  0.17090070  1
  Ca2+  Ca28  1  0.34335342  0.92466926  0.50458324  1
  Ca2+  Ca29  1  0.33496626  0.92266176  0.84204693  1
  Ca2+  Ca30  1  0.82367148  0.41637911  0.17466245  1
  Ca2+  Ca31  1  0.82408713  0.42257360  0.50439216  1
  Ca2+  Ca32  1  0.82302346  0.40928040  0.83883864  1
  Ca2+  Ca33  1  0.83408069  0.92482886  0.17406194  1
  Ca2+  Ca34  1  0.83172557  0.91691449  0.50258380  1
  Ca2+  Ca35  1  0.83702691  0.91904752  0.84232055  1
  Ca2+  Ca36  1  0.41201018  0.16868286  0.16712574  1
  Ca2+  Ca37  1  0.41090550  0.17411801  0.49324159  1
  Ca2+  Ca38  1  0.41449685  0.16892042  0.82710882  1
  Ca2+  Ca39  1  0.41795749  0.68136808  0.16233519  1
  Ca2+  Ca40  1  0.41734342  0.67278671  0.49800484  1
  Ca2+  Ca41  1  0.41847840  0.67624735  0.82332587  1
  Ca2+  Ca42  1  0.91042991  0.16889425  0.15831545  1
  Ca2+  Ca43  1  0.91409463  0.17236750  0.49726646  1
  Ca2+  Ca44  1  0.91123560  0.17486766  0.83021190  1
  Ca2+  Ca45  1  0.92017089  0.66550811  0.16501883  1
  Ca2+  Ca46  1  0.91939838  0.66650280  0.49340522  1
  Ca2+  Ca47  1  0.91774067  0.67988295  0.82763365  1
  Al0+  Al48  1  0.00404732  0.00039118  0.00453358  1
  Al0+  Al49  1  0.00252140  0.00089032  0.33796884  1
  Al0+  Al50  1  0.00096727  0.00137246  0.66145425  1
  Al0+  Al51  1  -0.00023370  0.50011421  -0.00807195  1
  Al0+  Al52  1  0.00007458  0.49940716  0.33626639  1
  Al0+  Al53  1  -0.00193705  0.50063391  0.66493767  1
  Al0+  Al54  1  0.50141816  0.00289321  -0.00169453  1
  Al0+  Al55  1  0.50185736  0.00318218  0.33631933  1
  Al0+  Al56  1  0.50288203  0.00070151  0.66965948  1
  Al0+  Al57  1  0.49958141  0.49990068  0.00705605  1
  Al0+  Al58  1  0.49825840  0.50238881  0.32895283  1
  Al0+  Al59  1  0.49905645  0.49872052  0.66835381  1
  Al0+  Al60  1  0.24987240  0.25136287  0.00097089  1
  Al0+  Al61  1  0.24796947  0.24998244  0.33555189  1
  Al0+  Al62  1  0.24808189  0.24837845  0.67075027  1
  Al0+  Al63  1  0.25077279  0.74928369  -0.00161022  1
  Al0+  Al64  1  0.24866537  0.74975225  0.32267352  1
  Al0+  Al65  1  0.24763559  0.75056459  0.66778483  1
  Al0+  Al66  1  0.74729297  0.24910539  0.00443325  1
  Al0+  Al67  1  0.74793710  0.24986492  0.34144579  1
  Al0+  Al68  1  0.75032480  0.24985731  0.66408832  1
  Al0+  Al69  1  0.74959785  0.74623586  -0.00427935  1
  Al0+  Al70  1  0.75004098  0.75035780  0.33853304  1
  Al0+  Al71  1  0.75011141  0.74896943  0.65947112  1
  Al0+  Al72  1  0.92709029  0.31890573  0.98811008  1
  Al0+  Al73  1  0.18040062  0.92732515  0.01608498  1
  Al0+  Al74  1  0.06876379  0.67845177  0.31921513  1
  Al0+  Al75  1  0.56916963  0.67739658  0.65120548  1
  Al0+  Al76  1  0.17993375  0.42902954  0.34604994  1
  Al0+  Al77  1  0.82213669  0.57054143  0.34803840  1
  Al0+  Al78  1  0.31936726  0.06926408  0.34753854  1
  Al0+  Al79  1  0.82471945  0.07129376  0.35078753  1
  Al0+  Al80  1  0.43105730  0.82239237  0.98535299  1
  Al0+  Al81  1  0.31939689  0.57033150  0.67884707  1
  Al0+  Al82  1  0.32288403  0.07048595  0.68147308  1
  Al0+  Al83  1  0.92748759  0.32143997  0.65082099  1
  Al0+  Al84  1  0.32378133  0.07261521  0.01688856  1
  Al0+  Al85  1  0.67903266  0.92890429  0.34842902  1
  Al0+  Al86  1  0.92956789  0.82267206  0.65172501  1
  Al0+  Al87  1  0.93011635  0.82125882  0.98962125  1
  Al0+  Al88  1  0.67958897  0.42900059  0.01488982  1
  Al0+  Al89  1  0.82109848  0.06882990  0.01065036  1
  Al0+  Al90  1  0.42937448  0.31806528  0.65570762  1
  Al0+  Al91  1  0.42756615  0.32177940  0.31945729  1
  Al0+  Al92  1  0.68053095  0.43015462  0.68141733  1
  Al0+  Al93  1  0.42709242  0.82308052  0.65181489  1
  Al0+  Al94  1  0.43144956  0.82255479  0.31876245  1
  Al0+  Al95  1  0.67562773  0.43019842  0.35049684  1
  Si0+  Si96  1  0.82191394  0.06923761  0.68182192  1
  Si0+  Si97  1  0.32076397  0.57037185  0.01653200  1
  Si0+  Si98  1  0.42724168  0.32231570  0.98586204  1
  Si0+  Si99  1  0.17688831  0.92877681  0.68216012  1
  Si0+  Si100  1  0.82408909  0.57276679  0.01439182  1
  Si0+  Si101  1  0.07396582  0.17858702  0.98329231  1
  Si0+  Si102  1  0.17912407  0.92461478  0.35085947  1
  Si0+  Si103  1  0.92880335  0.31843737  0.31954019  1
  Si0+  Si104  1  0.57050241  0.18139104  0.98577929  1
  Si0+  Si105  1  0.57218135  0.17996844  0.31524101  1
  Si0+  Si106  1  0.07190316  0.17820717  0.31786406  1
  Si0+  Si107  1  0.32049686  0.57423249  0.34704923  1
  Si0+  Si108  1  0.67902373  0.92480273  0.01246188  1
  Si0+  Si109  1  0.17507050  0.42683041  0.68565683  1
  Si0+  Si110  1  0.82356094  0.57349962  0.68579839  1
  Si0+  Si111  1  0.92755553  0.82368138  0.31704382  1
  Si0+  Si112  1  0.07306586  0.67610027  0.98018221  1
  Si0+  Si113  1  0.57054306  0.67490485  0.98374155  1
  Si0+  Si114  1  0.57434860  0.67785755  0.31420781  1
  Si0+  Si115  1  0.68090149  0.92688770  0.68299936  1
  Si0+  Si116  1  0.57422661  0.17679953  0.64929217  1
  Si0+  Si117  1  0.07195456  0.67730484  0.64937126  1
  Si0+  Si118  1  0.07100056  0.17965716  0.64886140  1
  Si0+  Si119  1  0.17711337  0.43064710  0.01279962  1
  O2-  O120  1  0.25547026  -0.00348752  0.06584289  1
  O2-  O121  1  0.24948066  -0.00914368  0.39587462  1
  O2-  O122  1  0.25188522  -0.00894617  0.72591602  1
  O2-  O123  1  0.24751208  0.50088957  0.05710753  1
  O2-  O124  1  0.25729860  0.50095160  0.39201418  1
  O2-  O125  1  0.24575359  0.49450446  0.72860153  1
  O2-  O126  1  0.75396107  -0.01307641  0.05612205  1
  O2-  O127  1  0.75591611  -0.00434800  0.39946527  1
  O2-  O128  1  0.75345031  -0.00335748  0.72554186  1
  O2-  O129  1  0.75717717  0.50214560  0.05805643  1
  O2-  O130  1  0.74595372  0.50404878  0.39962275  1
  O2-  O131  1  0.75553213  0.50405541  0.73034691  1
  O2-  O132  1  -0.00459430  0.24382950  0.27570780  1
  O2-  O133  1  0.00525245  0.25053535  0.60357027  1
  O2-  O134  1  0.00111885  0.24373986  0.93979562  1
  O2-  O135  1  -0.00574304  0.75340960  0.27233112  1
  O2-  O136  1  0.00231842  0.74564096  0.60656389  1
  O2-  O137  1  0.00525009  0.74778609  0.93951279  1
  O2-  O138  1  0.50496905  0.25060300  0.27084804  1
  O2-  O139  1  0.50115300  0.24193503  0.60714823  1
  O2-  O140  1  0.49683632  0.25007214  0.94422187  1
  O2-  O141  1  0.50797105  0.74957571  0.27056850  1
  O2-  O142  1  0.49780910  0.75026015  0.60151198  1
  O2-  O143  1  0.50675720  0.74825982  0.93988273  1
  O2-  O144  1  0.07587153  0.18220095  0.08895692  1
  O2-  O145  1  0.07373127  0.18118651  0.42292406  1
  O2-  O146  1  0.06866112  0.17889412  0.75461128  1
  O2-  O147  1  0.07124156  0.67116180  0.08555104  1
  O2-  O148  1  0.06978099  0.68009730  0.43226086  1
  O2-  O149  1  0.07138977  0.67653378  0.75512560  1
  O2-  O150  1  0.57323132  0.18193428  0.09043545  1
  O2-  O151  1  0.57049658  0.17837787  0.42077939  1
  O2-  O152  1  0.57714346  0.17813820  0.75554664  1
  O2-  O153  1  0.56828177  0.67232480  0.08908135  1
  O2-  O154  1  0.57049688  0.67565092  0.41945400  1
  O2-  O155  1  0.56733929  0.67921661  0.76555107  1
  O2-  O156  1  0.17830476  0.42978310  0.23214787  1
  O2-  O157  1  0.17511600  0.42705861  0.58009858  1
  O2-  O158  1  0.17732755  0.43142152  0.90784511  1
  O2-  O159  1  0.17796101  0.92694144  0.24543391  1
  O2-  O160  1  0.17373831  0.93165861  0.57672874  1
  O2-  O161  1  0.17949746  0.93135754  0.90216256  1
  O2-  O162  1  0.67955469  0.42966603  0.23638643  1
  O2-  O163  1  0.68002831  0.43095540  0.56909884  1
  O2-  O164  1  0.67768077  0.42841050  0.90169882  1
  O2-  O165  1  0.67969489  0.93321328  0.23410541  1
  O2-  O166  1  0.68016102  0.92923391  0.57833943  1
  O2-  O167  1  0.67887901  0.92819340  0.90658396  1
  O2-  O168  1  0.42597432  0.32301762  0.09081992  1
  O2-  O169  1  0.42554455  0.31924274  0.43251804  1
  O2-  O170  1  0.43271620  0.31829988  0.76957496  1
  O2-  O171  1  0.43334375  0.82217667  0.09862618  1
  O2-  O172  1  0.43062743  0.82109202  0.43148883  1
  O2-  O173  1  0.42943180  0.82249419  0.76579538  1
  O2-  O174  1  0.92892147  0.31871068  0.10144330  1
  O2-  O175  1  0.93212187  0.31835654  0.42458839  1
  O2-  O176  1  0.92653872  0.31704177  0.76446531  1
  O2-  O177  1  0.93022227  0.81896059  0.10231032  1
  O2-  O178  1  0.93147057  0.82396815  0.42270996  1
  O2-  O179  1  0.93148900  0.82485965  0.76542461  1
  O2-  O180  1  0.31704318  0.06995762  0.23461936  1
  O2-  O181  1  0.31979947  0.07311566  0.56846760  1
  O2-  O182  1  0.32183056  0.07409328  0.90317445  1
  O2-  O183  1  0.31683108  0.57288572  0.24089748  1
  O2-  O184  1  0.31700017  0.56937465  0.56594967  1
  O2-  O185  1  0.32229147  0.56875362  0.91123133  1
  O2-  O186  1  0.82377196  0.07185156  0.23666186  1
  O2-  O187  1  0.82135595  0.06845892  0.57713858  1
  O2-  O188  1  0.81725325  0.07095095  0.89714693  1
  O2-  O189  1  0.82333858  0.56602214  0.23366596  1
  O2-  O190  1  0.82523462  0.57117199  0.58054511  1
  O2-  O191  1  0.82402127  0.57452475  0.90903960  1
  O2-  O192  1  0.04994073  0.08380406  0.27236679  1
  O2-  O193  1  0.04368935  0.08810017  0.59998718  1
  O2-  O194  1  0.05272674  0.08368169  0.93918141  1
  O2-  O195  1  0.03695947  0.58142757  0.26471761  1
  O2-  O196  1  0.04743171  0.58356552  0.60331565  1
  O2-  O197  1  0.04649264  0.58465645  0.92947169  1
  O2-  O198  1  0.54483839  0.08763819  0.26784274  1
  O2-  O199  1  0.55231707  0.08199900  0.60525189  1
  O2-  O200  1  0.54642785  0.08974420  0.93541360  1
  O2-  O201  1  0.54611465  0.58611591  0.26497840  1
  O2-  O202  1  0.53795475  0.58000275  0.59914617  1
  O2-  O203  1  0.53728006  0.58303776  0.93747639  1
  O2-  O204  1  0.16018900  0.21190215  0.26769873  1
  O2-  O205  1  0.16525218  0.20410445  0.60383068  1
  O2-  O206  1  0.16527346  0.20992837  0.93462461  1
  O2-  O207  1  0.16360963  0.70709199  0.25987705  1
  O2-  O208  1  0.16468699  0.70343448  0.60245406  1
  O2-  O209  1  0.16755065  0.69973388  0.93522934  1
  O2-  O210  1  0.66720501  0.20520128  0.27064439  1
  O2-  O211  1  0.66568264  0.20462754  0.60126062  1
  O2-  O212  1  0.66025162  0.21219161  0.93551878  1
  O2-  O213  1  0.67006723  0.70028679  0.27053723  1
  O2-  O214  1  0.66792154  0.70250257  0.59836192  1
  O2-  O215  1  0.66602049  0.69217747  0.93803932  1
  O2-  O216  1  0.08455248  0.45831122  0.05935746  1
  O2-  O217  1  0.08563549  0.46189898  0.40198869  1
  O2-  O218  1  0.08184044  0.45596190  0.73155302  1
  O2-  O219  1  0.08435429  0.95824972  0.07281158  1
  O2-  O220  1  0.08662536  0.95165026  0.39827026  1
  O2-  O221  1  0.08568976  0.96330592  0.72964648  1
  O2-  O222  1  0.58388379  0.46064433  0.07052664  1
  O2-  O223  1  0.57513269  0.45852707  0.39932878  1
  O2-  O224  1  0.58395817  0.46033504  0.73655768  1
  O2-  O225  1  0.58894415  0.95947658  0.05955975  1
  O2-  O226  1  0.58445175  0.96491611  0.40446060  1
  O2-  O227  1  0.59070161  0.95703509  0.73293856  1
  O2-  O228  1  0.20406511  0.33896836  0.06065328  1
  O2-  O229  1  0.20767827  0.33325951  0.40216411  1
  O2-  O230  1  0.19730171  0.33274233  0.73180746  1
  O2-  O231  1  0.20275239  0.82594245  0.06553803  1
  O2-  O232  1  0.20244882  0.82922559  0.39316330  1
  O2-  O233  1  0.19263526  0.83302459  0.72725560  1
  O2-  O234  1  0.70951351  0.33341950  0.07055943  1
  O2-  O235  1  0.70229147  0.33207555  0.40311061  1
  O2-  O236  1  0.71212488  0.33183490  0.73358713  1
  O2-  O237  1  0.69541464  0.82829566  0.05557921  1
  O2-  O238  1  0.69920556  0.82919719  0.40128914  1
  O2-  O239  1  0.70713531  0.83381945  0.72832287  1
  O2-  O240  1  0.45301601  0.41982984  0.26435316  1
  O2-  O241  1  0.46001474  0.41392762  0.60199739  1
  O2-  O242  1  0.45804483  0.41449194  0.94061933  1
  O2-  O243  1  0.46406923  0.92014824  0.26664967  1
  O2-  O244  1  0.45987694  0.92155611  0.60177179  1
  O2-  O245  1  0.46073823  0.91997400  0.93237708  1
  O2-  O246  1  0.96096056  0.40874009  0.27236617  1
  O2-  O247  1  0.95562983  0.41933299  0.59903180  1
  O2-  O248  1  0.95766939  0.41443468  0.93128248  1
  O2-  O249  1  0.95587073  0.91795778  0.27294873  1
  O2-  O250  1  0.96184163  0.91799252  0.59618459  1
  O2-  O251  1  0.96178838  0.91868692  0.93573616  1
  O2-  O252  1  0.33104022  0.28759098  0.26579116  1
  O2-  O253  1  0.32983714  0.29159704  0.60538140  1
  O2-  O254  1  0.33494039  0.29780641  0.93756297  1
  O2-  O255  1  0.33591693  0.79103492  0.26241824  1
  O2-  O256  1  0.32658300  0.79812934  0.60234660  1
  O2-  O257  1  0.33412164  0.79000493  0.93308476  1
  O2-  O258  1  0.83454544  0.29329513  0.27557485  1
  O2-  O259  1  0.83325607  0.28664774  0.59575345  1
  O2-  O260  1  0.83058679  0.28562822  0.93502752  1
  O2-  O261  1  0.83189068  0.80231418  0.27386890  1
  O2-  O262  1  0.83336616  0.79430324  0.59717168  1
  O2-  O263  1  0.83304211  0.79215567  0.93352788  1
  O2-  O264  1  0.42416156  0.04797476  0.06763240  1
  O2-  O265  1  0.41732893  0.04475833  0.40031745  1
  O2-  O266  1  0.42165138  0.04598870  0.73492668  1
  O2-  O267  1  0.41022018  0.54080545  0.06696902  1
  O2-  O268  1  0.41615652  0.55528597  0.38946740  1
  O2-  O269  1  0.41381764  0.53744161  0.73641182  1
  O2-  O270  1  0.91958780  0.04770457  0.06414043  1
  O2-  O271  1  0.92440721  0.04801710  0.40398006  1
  O2-  O272  1  0.91532596  0.04421040  0.72748963  1
  O2-  O273  1  0.91929996  0.54833436  0.05779490  1
  O2-  O274  1  0.91762760  0.53745032  0.40359519  1
  O2-  O275  1  0.91796610  0.54954835  0.73171641  1
  O2-  O276  1  0.29214388  0.17147887  0.06794525  1
  O2-  O277  1  0.28306378  0.16393419  0.40145387  1
  O2-  O278  1  0.28715645  0.16519550  0.73765580  1
  O2-  O279  1  0.29454479  0.66274524  0.06265930  1
  O2-  O280  1  0.28879460  0.66620093  0.39212540  1
  O2-  O281  1  0.28712360  0.66644878  0.73529952  1
  O2-  O282  1  0.78301411  0.16136678  0.06747668  1
  O2-  O283  1  0.79197024  0.16744888  0.40512697  1
  O2-  O284  1  0.79104105  0.16077496  0.72822410  1
  O2-  O285  1  0.79685499  0.66510801  0.06289643  1
  O2-  O286  1  0.80340090  0.67161277  0.39845369  1
  O2-  O287  1  0.79763275  0.66857830  0.72896914  1
