# generated using pymatgen
data_Ca2Al2SiO7
_symmetry_space_group_name_H-M   'P 1'
_cell_length_a   15.47549905
_cell_length_b   15.46934150
_cell_length_c   15.29492904
_cell_angle_alpha   89.99228457
_cell_angle_beta   89.98086852
_cell_angle_gamma   89.99059526
_symmetry_Int_Tables_number   1
_chemical_formula_structural   Ca2Al2SiO7
_chemical_formula_sum   'Ca48 Al48 Si24 O168'
_cell_volume   3661.54117645
_cell_formula_units_Z   24
loop_
 _symmetry_equiv_pos_site_id
 _symmetry_equiv_pos_as_xyz
  1  'x, y, z'
loop_
 _atom_type_symbol
 _atom_type_oxidation_number
  Ca2+  2.0
  Al0+  0.0
  Si0+  0.0
  O2-  -2.0
loop_
 _atom_site_type_symbol
 _atom_site_label
 _atom_site_symmetry_multiplicity
 _atom_site_fract_x
 _atom_site_fract_y
 _atom_site_fract_z
 _atom_site_occupancy
  Ca2+  Ca0  1  0.17479970  0.09040803  0.16852525  1
  Ca2+  Ca1  1  0.16647673  0.08496246  0.50090859  1
  Ca2+  Ca2  1  0.17820344  0.08039158  0.84256003  1
  Ca2+  Ca3  1  0.18022232  0.58268944  0.17157892  1
  Ca2+  Ca4  1  0.17463416  0.58782865  0.49929991  1
  Ca2+  Ca5  1  0.17626325  0.58109690  0.84217459  1
  Ca2+  Ca6  1  0.67110526  0.08526559  0.17330911  1
  Ca2+  Ca7  1  0.65991022  0.07483843  0.49934138  1
  Ca2+  Ca8  1  0.66101930  0.08001183  0.83824977  1
  Ca2+  Ca9  1  0.66197593  0.57453199  0.16992723  1
  Ca2+  Ca10  1  0.67821094  0.58075491  0.51097952  1
  Ca2+  Ca11  1  0.65561612  0.57466050  0.83647562  1
  Ca2+  Ca12  1  0.07024904  0.33146951  0.16680186  1
  Ca2+  Ca13  1  0.07524660  0.32662055  0.48865973  1
  Ca2+  Ca14  1  0.07549084  0.33488053  0.83350688  1
  Ca2+  Ca15  1  0.07464262  0.83584273  0.16764502  1
  Ca2+  Ca16  1  0.07084374  0.83190447  0.49179931  1
  Ca2+  Ca17  1  0.07997191  0.83335724  0.83202971  1
  Ca2+  Ca18  1  0.58651047  0.32365986  0.15765717  1
  Ca2+  Ca19  1  0.59684788  0.32191064  0.50034816  1
  Ca2+  Ca20  1  0.59171504  0.32477819  0.83458335  1
  Ca2+  Ca21  1  0.57800465  0.82749245  0.16216104  1
  Ca2+  Ca22  1  0.57834202  0.83735852  0.49559927  1
  Ca2+  Ca23  1  0.57640154  0.82535294  0.82577347  1
  Ca2+  Ca24  1  0.34716399  0.42906204  0.16806833  1
  Ca2+  Ca25  1  0.33417132  0.42279116  0.50096202  1
  Ca2+  Ca26  1  0.33770285  0.42067032  0.84575998  1
  Ca2+  Ca27  1  0.34138020  0.91881563  0.16936071  1
  Ca2+  Ca28  1  0.33823777  0.91291400  0.50196826  1
  Ca2+  Ca29  1  0.33917849  0.91649876  0.83992037  1
  Ca2+  Ca30  1  0.83185965  0.41709650  0.16949053  1
  Ca2+  Ca31  1  0.83221613  0.42334831  0.50356922  1
  Ca2+  Ca32  1  0.82143440  0.41992894  0.83751377  1
  Ca2+  Ca33  1  0.82519933  0.92729147  0.17766972  1
  Ca2+  Ca34  1  0.81833525  0.91526502  0.49994735  1
  Ca2+  Ca35  1  0.82093175  0.92278998  0.83760665  1
  Ca2+  Ca36  1  0.42998823  0.16932242  0.15735549  1
  Ca2+  Ca37  1  0.43062974  0.16809208  0.49511703  1
  Ca2+  Ca38  1  0.42758179  0.16544598  0.83244371  1
  Ca2+  Ca39  1  0.41631677  0.67380795  0.15796875  1
  Ca2+  Ca40  1  0.42463856  0.67480951  0.49488568  1
  Ca2+  Ca41  1  0.42675754  0.67051949  0.83274903  1
  Ca2+  Ca42  1  0.90919236  0.17362371  0.16153815  1
  Ca2+  Ca43  1  0.91956042  0.17155585  0.48459511  1
  Ca2+  Ca44  1  0.90417592  0.17323311  0.83643222  1
  Ca2+  Ca45  1  0.90715421  0.67309351  0.16806937  1
  Ca2+  Ca46  1  0.91129779  0.66645321  0.49015730  1
  Ca2+  Ca47  1  0.91841685  0.66194904  0.82832978  1
  Al0+  Al48  1  -0.00019493  0.00002572  0.00204850  1
  Al0+  Al49  1  0.00302354  -0.00075177  0.32819813  1
  Al0+  Al50  1  0.00237086  -0.00021701  0.66839980  1
  Al0+  Al51  1  -0.00006068  0.49962555  -0.00355977  1
  Al0+  Al52  1  0.00255199  0.49872600  0.33274166  1
  Al0+  Al53  1  0.00268566  0.49938539  0.66858081  1
  Al0+  Al54  1  0.49854210  -0.00120037  -0.00099929  1
  Al0+  Al55  1  0.49891720  0.00082680  0.32903787  1
  Al0+  Al56  1  0.49975706  0.00178744  0.66348867  1
  Al0+  Al57  1  0.50013115  0.50000626  0.00414222  1
  Al0+  Al58  1  0.50064747  0.50014029  0.34439985  1
  Al0+  Al59  1  0.49953949  0.50062587  0.66609060  1
  Al0+  Al60  1  0.24673943  0.24906231  0.00267725  1
  Al0+  Al61  1  0.24983702  0.25184073  0.33102626  1
  Al0+  Al62  1  0.24994594  0.24986748  0.66698207  1
  Al0+  Al63  1  0.24672620  0.74913941  0.00094857  1
  Al0+  Al64  1  0.25077069  0.75112942  0.33547171  1
  Al0+  Al65  1  0.24744497  0.75072320  0.66443572  1
  Al0+  Al66  1  0.75054632  0.25180888  -0.00183657  1
  Al0+  Al67  1  0.75150511  0.24996616  0.32914981  1
  Al0+  Al68  1  0.75191653  0.25237566  0.66337812  1
  Al0+  Al69  1  0.75082491  0.74980760  -0.00599647  1
  Al0+  Al70  1  0.74845671  0.74953942  0.33514527  1
  Al0+  Al71  1  0.75180882  0.75234949  0.67333279  1
  Al0+  Al72  1  0.57271111  0.67801371  0.98624670  1
  Al0+  Al73  1  0.57165074  0.17934812  0.98461912  1
  Al0+  Al74  1  0.32004285  0.56915330  0.01317869  1
  Al0+  Al75  1  0.42727592  0.32131587  0.98809879  1
  Al0+  Al76  1  0.42893865  0.82030515  0.65059954  1
  Al0+  Al77  1  0.67696376  0.93038862  0.34683390  1
  Al0+  Al78  1  0.32174919  0.07025787  0.01433471  1
  Al0+  Al79  1  0.81851754  0.06995294  0.01263498  1
  Al0+  Al80  1  0.32217083  0.57314886  0.34991011  1
  Al0+  Al81  1  0.92643603  0.81945815  0.32038926  1
  Al0+  Al82  1  0.67704885  0.93117657  0.68157465  1
  Al0+  Al83  1  0.92950187  0.32127626  0.98309009  1
  Al0+  Al84  1  0.56999372  0.18073887  0.31919881  1
  Al0+  Al85  1  0.67885921  0.42853537  0.68292816  1
  Al0+  Al86  1  0.82063348  0.56979241  0.34393191  1
  Al0+  Al87  1  0.42688483  0.82021878  0.98566451  1
  Al0+  Al88  1  0.82292818  0.07246193  0.34723569  1
  Al0+  Al89  1  0.57350072  0.67743552  0.64996696  1
  Al0+  Al90  1  0.92906025  0.32126946  0.31748465  1
  Al0+  Al91  1  0.07366570  0.17676014  0.31664939  1
  Al0+  Al92  1  0.67988767  0.43131452  0.01469046  1
  Al0+  Al93  1  0.42903148  0.81918196  0.31829825  1
  Al0+  Al94  1  0.82348347  0.57222808  0.68248352  1
  Al0+  Al95  1  0.57155946  0.18097103  0.65170736  1
  Si0+  Si96  1  0.17700337  0.92723415  0.01870153  1
  Si0+  Si97  1  0.42765090  0.32422042  0.31910500  1
  Si0+  Si98  1  0.92894641  0.82297847  0.98367835  1
  Si0+  Si99  1  0.57208676  0.67597942  0.31866038  1
  Si0+  Si100  1  0.82498701  0.57282577  0.01638284  1
  Si0+  Si101  1  0.07276397  0.67845758  0.31683717  1
  Si0+  Si102  1  0.07077657  0.17601132  0.98093111  1
  Si0+  Si103  1  0.93057767  0.82283645  0.65338037  1
  Si0+  Si104  1  0.17948113  0.92835847  0.34938203  1
  Si0+  Si105  1  0.31974178  0.07081822  0.67984849  1
  Si0+  Si106  1  0.42397038  0.32214256  0.64990117  1
  Si0+  Si107  1  0.32011389  0.07227449  0.34865207  1
  Si0+  Si108  1  0.06927085  0.67983275  0.98528771  1
  Si0+  Si109  1  0.67720689  0.92560735  0.01608052  1
  Si0+  Si110  1  0.18077460  0.42744016  0.68231894  1
  Si0+  Si111  1  0.31878874  0.57209303  0.68226414  1
  Si0+  Si112  1  0.17456519  0.42738092  0.01806630  1
  Si0+  Si113  1  0.17752111  0.92882893  0.68187965  1
  Si0+  Si114  1  0.67809221  0.42641420  0.35094792  1
  Si0+  Si115  1  0.93205032  0.32053818  0.65109681  1
  Si0+  Si116  1  0.06975733  0.67823222  0.65133303  1
  Si0+  Si117  1  0.82517445  0.07125436  0.68093379  1
  Si0+  Si118  1  0.07305968  0.17862173  0.65307458  1
  Si0+  Si119  1  0.17930205  0.42896456  0.35107622  1
  O2-  O120  1  0.24817949  -0.00637564  0.06144826  1
  O2-  O121  1  0.24824285  0.00186598  0.39161806  1
  O2-  O122  1  0.25159859  -0.00333624  0.72235885  1
  O2-  O123  1  0.24945584  0.48995320  0.06062648  1
  O2-  O124  1  0.24815948  0.49699710  0.39650824  1
  O2-  O125  1  0.25324655  0.49599704  0.72517463  1
  O2-  O126  1  0.74339252  -0.00333065  0.05968878  1
  O2-  O127  1  0.75030465  0.00160628  0.39778644  1
  O2-  O128  1  0.75247608  0.00721577  0.72542168  1
  O2-  O129  1  0.75340034  0.50807173  0.06023743  1
  O2-  O130  1  0.74700009  0.49610226  0.39294967  1
  O2-  O131  1  0.74657663  0.50570887  0.73233565  1
  O2-  O132  1  -0.00379307  0.24354067  0.26841239  1
  O2-  O133  1  -0.00035369  0.24571323  0.61015620  1
  O2-  O134  1  0.00233300  0.24414849  0.93539422  1
  O2-  O135  1  -0.00023133  0.74256256  0.27294951  1
  O2-  O136  1  -0.00580768  0.74466049  0.61069052  1
  O2-  O137  1  -0.00279352  0.74891403  0.94162083  1
  O2-  O138  1  0.49745105  0.25805086  0.27483250  1
  O2-  O139  1  0.49810176  0.25891149  0.60676605  1
  O2-  O140  1  0.49682134  0.24929798  0.93476761  1
  O2-  O141  1  0.50147707  0.74212605  0.27381442  1
  O2-  O142  1  0.50316919  0.75131817  0.59961484  1
  O2-  O143  1  0.50181309  0.75159642  0.93656633  1
  O2-  O144  1  0.07023418  0.17550813  0.08586356  1
  O2-  O145  1  0.07580456  0.18064412  0.43136318  1
  O2-  O146  1  0.07635934  0.17978350  0.75769329  1
  O2-  O147  1  0.07009252  0.68066610  0.08988209  1
  O2-  O148  1  0.07368534  0.68152851  0.42299625  1
  O2-  O149  1  0.07259992  0.67982971  0.75659060  1
  O2-  O150  1  0.57204322  0.18033908  0.09797504  1
  O2-  O151  1  0.56745337  0.18070094  0.43272378  1
  O2-  O152  1  0.56894735  0.17881084  0.76421586  1
  O2-  O153  1  0.57274292  0.67896025  0.10008464  1
  O2-  O154  1  0.57141728  0.67684581  0.42408537  1
  O2-  O155  1  0.56727084  0.67681962  0.76316207  1
  O2-  O156  1  0.17785774  0.43069872  0.24606727  1
  O2-  O157  1  0.18026357  0.42710462  0.57746970  1
  O2-  O158  1  0.17200268  0.43191744  0.91178187  1
  O2-  O159  1  0.18065920  0.92424573  0.24479597  1
  O2-  O160  1  0.17229738  0.93033345  0.57723311  1
  O2-  O161  1  0.17451850  0.92814091  0.91249863  1
  O2-  O162  1  0.67491199  0.42785257  0.24558381  1
  O2-  O163  1  0.68620668  0.42499509  0.56940674  1
  O2-  O164  1  0.68132310  0.43050029  0.90182841  1
  O2-  O165  1  0.67788279  0.92929191  0.23346679  1
  O2-  O166  1  0.67741301  0.93163126  0.56872057  1
  O2-  O167  1  0.68024946  0.92549854  0.91017225  1
  O2-  O168  1  0.43151347  0.32082324  0.10169381  1
  O2-  O169  1  0.42448285  0.32109310  0.42502402  1
  O2-  O170  1  0.41450841  0.31728980  0.75448537  1
  O2-  O171  1  0.42613343  0.81756839  0.09915725  1
  O2-  O172  1  0.42807275  0.81891097  0.43128778  1
  O2-  O173  1  0.42516633  0.81835512  0.76365551  1
  O2-  O174  1  0.93218100  0.32337242  0.09537241  1
  O2-  O175  1  0.93372608  0.32294837  0.43177065  1
  O2-  O176  1  0.93396495  0.32067126  0.75617669  1
  O2-  O177  1  0.92988867  0.82260844  0.08847802  1
  O2-  O178  1  0.92932996  0.81802090  0.43397544  1
  O2-  O179  1  0.93762878  0.82653863  0.75848794  1
  O2-  O180  1  0.31943260  0.07131801  0.24393219  1
  O2-  O181  1  0.31544949  0.07316875  0.57469395  1
  O2-  O182  1  0.31823155  0.06982730  0.90054441  1
  O2-  O183  1  0.32009875  0.57288506  0.23710273  1
  O2-  O184  1  0.31367430  0.57251113  0.57721599  1
  O2-  O185  1  0.31504742  0.56984249  0.89966685  1
  O2-  O186  1  0.81976740  0.07102524  0.23370777  1
  O2-  O187  1  0.83197243  0.06702573  0.57617008  1
  O2-  O188  1  0.81905569  0.06654640  0.89879811  1
  O2-  O189  1  0.81877103  0.56992180  0.23101278  1
  O2-  O190  1  0.82855602  0.56715062  0.56886079  1
  O2-  O191  1  0.82986838  0.56971769  0.91114206  1
  O2-  O192  1  0.05812426  0.07567771  0.26574528  1
  O2-  O193  1  0.04911195  0.08488966  0.60720878  1
  O2-  O194  1  0.04692030  0.08143429  0.93514247  1
  O2-  O195  1  0.05457743  0.58314476  0.27309842  1
  O2-  O196  1  0.04871078  0.58444294  0.60463280  1
  O2-  O197  1  0.04367560  0.58848896  0.93539021  1
  O2-  O198  1  0.53567798  0.08646309  0.26445974  1
  O2-  O199  1  0.53564487  0.08696425  0.59631002  1
  O2-  O200  1  0.54352640  0.08000467  0.93370127  1
  O2-  O201  1  0.54719595  0.58019097  0.27697620  1
  O2-  O202  1  0.54441316  0.57859724  0.59723490  1
  O2-  O203  1  0.53915210  0.58113151  0.93450036  1
  O2-  O204  1  0.16993533  0.21202879  0.26280112  1
  O2-  O205  1  0.16319573  0.20871287  0.60323867  1
  O2-  O206  1  0.16410376  0.20275610  0.93459887  1
  O2-  O207  1  0.16376986  0.71087754  0.27048931  1
  O2-  O208  1  0.15853789  0.71127480  0.60127232  1
  O2-  O209  1  0.15889296  0.70976502  0.93430548  1
  O2-  O210  1  0.66691170  0.20843369  0.26612568  1
  O2-  O211  1  0.66913772  0.21010465  0.59795185  1
  O2-  O212  1  0.66829086  0.21057960  0.93038031  1
  O2-  O213  1  0.66429234  0.70220280  0.27156230  1
  O2-  O214  1  0.67603635  0.70306607  0.60457405  1
  O2-  O215  1  0.67176713  0.70163857  0.93126011  1
  O2-  O216  1  0.08448461  0.46243812  0.06506066  1
  O2-  O217  1  0.08712543  0.45557686  0.40004376  1
  O2-  O218  1  0.09066719  0.45811316  0.73131908  1
  O2-  O219  1  0.08456422  0.95538992  0.06558751  1
  O2-  O220  1  0.08728232  0.95390357  0.39760719  1
  O2-  O221  1  0.08873359  0.95979583  0.73433606  1
  O2-  O222  1  0.58437301  0.46014429  0.07131424  1
  O2-  O223  1  0.58537083  0.44820612  0.40078542  1
  O2-  O224  1  0.57669189  0.45018117  0.73187899  1
  O2-  O225  1  0.58206380  0.94652616  0.05919988  1
  O2-  O226  1  0.57909271  0.96266629  0.40007354  1
  O2-  O227  1  0.58034738  0.96314171  0.73452595  1
  O2-  O228  1  0.18958864  0.33109155  0.06067845  1
  O2-  O229  1  0.20563504  0.33535924  0.39800433  1
  O2-  O230  1  0.20461447  0.33471341  0.73019548  1
  O2-  O231  1  0.19736122  0.83245911  0.06369870  1
  O2-  O232  1  0.20849691  0.83843288  0.40037262  1
  O2-  O233  1  0.20139449  0.83552226  0.72882640  1
  O2-  O234  1  0.71408368  0.33561116  0.06741187  1
  O2-  O235  1  0.70732987  0.33370659  0.39587947  1
  O2-  O236  1  0.71381867  0.33107010  0.73532991  1
  O2-  O237  1  0.70723084  0.83245459  0.06061903  1
  O2-  O238  1  0.70581910  0.83218150  0.40036978  1
  O2-  O239  1  0.70954812  0.83648208  0.73799421  1
  O2-  O240  1  0.45224859  0.42014557  0.27831004  1
  O2-  O241  1  0.44300030  0.41828237  0.60723740  1
  O2-  O242  1  0.45418965  0.42023024  0.93670107  1
  O2-  O243  1  0.45849997  0.91594737  0.26534810  1
  O2-  O244  1  0.45348553  0.92039487  0.59927772  1
  O2-  O245  1  0.45101772  0.91952733  0.93367314  1
  O2-  O246  1  0.96417837  0.41778865  0.26396846  1
  O2-  O247  1  0.96621936  0.41083767  0.60454841  1
  O2-  O248  1  0.96448005  0.41646901  0.92787075  1
  O2-  O249  1  0.96197942  0.91333175  0.26465604  1
  O2-  O250  1  0.96797286  0.91089573  0.60450533  1
  O2-  O251  1  0.96270834  0.91234712  0.93499740  1
  O2-  O252  1  0.33450202  0.30069486  0.27252754  1
  O2-  O253  1  0.33280819  0.29102788  0.59969225  1
  O2-  O254  1  0.32520845  0.29879005  0.93867713  1
  O2-  O255  1  0.33097262  0.79043512  0.26654221  1
  O2-  O256  1  0.32857015  0.79200040  0.59916991  1
  O2-  O257  1  0.32696588  0.79178950  0.93444748  1
  O2-  O258  1  0.83049662  0.29845544  0.26398404  1
  O2-  O259  1  0.84042803  0.29725648  0.60280596  1
  O2-  O260  1  0.83450240  0.28949641  0.92766984  1
  O2-  O261  1  0.83095540  0.78871093  0.26479286  1
  O2-  O262  1  0.83616377  0.80391644  0.60976771  1
  O2-  O263  1  0.83778823  0.79854707  0.93402225  1
  O2-  O264  1  0.41814053  0.04095202  0.06922382  1
  O2-  O265  1  0.41073530  0.04211126  0.39626864  1
  O2-  O266  1  0.41154556  0.04558554  0.72646696  1
  O2-  O267  1  0.41561384  0.54255082  0.07002125  1
  O2-  O268  1  0.41677586  0.54293592  0.40820723  1
  O2-  O269  1  0.41227151  0.54952837  0.72685780  1
  O2-  O270  1  0.91598102  0.03943047  0.06494969  1
  O2-  O271  1  0.92439358  0.04593840  0.39527844  1
  O2-  O272  1  0.91710855  0.04250222  0.73062398  1
  O2-  O273  1  0.91786051  0.54487261  0.06271644  1
  O2-  O274  1  0.91991579  0.54310159  0.39632955  1
  O2-  O275  1  0.92205911  0.53945301  0.73524758  1
  O2-  O276  1  0.28772220  0.16592657  0.06898419  1
  O2-  O277  1  0.29240168  0.16452968  0.39595630  1
  O2-  O278  1  0.28752693  0.16075559  0.72865059  1
  O2-  O279  1  0.28171028  0.66369519  0.06691308  1
  O2-  O280  1  0.28571388  0.66760734  0.40504957  1
  O2-  O281  1  0.28262932  0.66162062  0.72881936  1
  O2-  O282  1  0.79150242  0.16795859  0.06374222  1
  O2-  O283  1  0.79765711  0.17242266  0.39827609  1
  O2-  O284  1  0.80293135  0.16734694  0.72231997  1
  O2-  O285  1  0.80380628  0.66972445  0.05714925  1
  O2-  O286  1  0.79154268  0.66587361  0.39984900  1
  O2-  O287  1  0.80799599  0.67403090  0.73279268  1
