# generated using pymatgen
data_Ca2Al2SiO7
_symmetry_space_group_name_H-M   'P 1'
_cell_length_a   15.45324338
_cell_length_b   15.45341885
_cell_length_c   15.28015650
_cell_angle_alpha   89.99303326
_cell_angle_beta   89.99097468
_cell_angle_gamma   90.00164445
_symmetry_Int_Tables_number   1
_chemical_formula_structural   Ca2Al2SiO7
_chemical_formula_sum   'Ca48 Al48 Si24 O168'
_cell_volume   3648.98446309
_cell_formula_units_Z   24
loop_
 _symmetry_equiv_pos_site_id
 _symmetry_equiv_pos_as_xyz
  1  'x, y, z'
loop_
 _atom_type_symbol
 _atom_type_oxidation_number
  Ca2+  2.0
  Al0+  0.0
  Si0+  0.0
  O2-  -2.0
loop_
 _atom_site_type_symbol
 _atom_site_label
 _atom_site_symmetry_multiplicity
 _atom_site_fract_x
 _atom_site_fract_y
 _atom_site_fract_z
 _atom_site_occupancy
  Ca2+  Ca0  1  0.17098863  0.07920272  0.17413900  1
  Ca2+  Ca1  1  0.16573254  0.07642958  0.50155233  1
  Ca2+  Ca2  1  0.16001442  0.08086001  0.83476000  1
  Ca2+  Ca3  1  0.17186038  0.57854359  0.17671954  1
  Ca2+  Ca4  1  0.18032812  0.57557418  0.50194527  1
  Ca2+  Ca5  1  0.17161416  0.58331719  0.83764685  1
  Ca2+  Ca6  1  0.67322704  0.08077820  0.17393077  1
  Ca2+  Ca7  1  0.67626186  0.08337364  0.50187999  1
  Ca2+  Ca8  1  0.67779178  0.09117342  0.84191141  1
  Ca2+  Ca9  1  0.67193537  0.58489257  0.17557363  1
  Ca2+  Ca10  1  0.67416609  0.59037513  0.50445641  1
  Ca2+  Ca11  1  0.66724332  0.58690623  0.82975097  1
  Ca2+  Ca12  1  0.07952929  0.33086099  0.16570304  1
  Ca2+  Ca13  1  0.07950858  0.32994757  0.49253462  1
  Ca2+  Ca14  1  0.08442972  0.31698564  0.82806893  1
  Ca2+  Ca15  1  0.08082646  0.82888728  0.15919071  1
  Ca2+  Ca16  1  0.08642830  0.83715029  0.49742874  1
  Ca2+  Ca17  1  0.07848741  0.83344386  0.83249104  1
  Ca2+  Ca18  1  0.57065371  0.32739038  0.16189768  1
  Ca2+  Ca19  1  0.57115235  0.33665852  0.49420014  1
  Ca2+  Ca20  1  0.57622296  0.33085536  0.83267688  1
  Ca2+  Ca21  1  0.58184097  0.83252937  0.16653084  1
  Ca2+  Ca22  1  0.58983507  0.82300929  0.49328236  1
  Ca2+  Ca23  1  0.57542038  0.83084446  0.82955563  1
  Ca2+  Ca24  1  0.32821594  0.41566634  0.17678900  1
  Ca2+  Ca25  1  0.33819451  0.42049595  0.50155650  1
  Ca2+  Ca26  1  0.34347513  0.41958306  0.83364374  1
  Ca2+  Ca27  1  0.32992519  0.92165694  0.17587357  1
  Ca2+  Ca28  1  0.32221329  0.92048007  0.50152500  1
  Ca2+  Ca29  1  0.32716361  0.91160846  0.83776201  1
  Ca2+  Ca30  1  0.83348915  0.42152519  0.17704194  1
  Ca2+  Ca31  1  0.83850664  0.42736343  0.50202710  1
  Ca2+  Ca32  1  0.83399035  0.42289087  0.83541286  1
  Ca2+  Ca33  1  0.83308437  0.92654616  0.17266218  1
  Ca2+  Ca34  1  0.82899135  0.92667436  0.50068276  1
  Ca2+  Ca35  1  0.83457814  0.92562812  0.83900279  1
  Ca2+  Ca36  1  0.41586557  0.17345223  0.16005710  1
  Ca2+  Ca37  1  0.41014505  0.17654461  0.49256775  1
  Ca2+  Ca38  1  0.42021483  0.17802494  0.82899858  1
  Ca2+  Ca39  1  0.41878356  0.67083122  0.16536087  1
  Ca2+  Ca40  1  0.42652840  0.65765500  0.49424208  1
  Ca2+  Ca41  1  0.41932365  0.67025846  0.82591069  1
  Ca2+  Ca42  1  0.91773367  0.16631066  0.16242858  1
  Ca2+  Ca43  1  0.91865780  0.16491397  0.49519876  1
  Ca2+  Ca44  1  0.92440169  0.15565847  0.82955628  1
  Ca2+  Ca45  1  0.92253003  0.67315613  0.15973881  1
  Ca2+  Ca46  1  0.91439389  0.66514211  0.49166807  1
  Ca2+  Ca47  1  0.91920547  0.67131468  0.83047156  1
  Al0+  Al48  1  -0.00095955  -0.00076922  -0.00074961  1
  Al0+  Al49  1  -0.00058363  -0.00065512  0.33864201  1
  Al0+  Al50  1  -0.00024860  -0.00136587  0.66884960  1
  Al0+  Al51  1  0.00198029  0.49993861  -0.00300460  1
  Al0+  Al52  1  0.00078746  0.49887000  0.33626542  1
  Al0+  Al53  1  0.00114731  0.50036293  0.67305078  1
  Al0+  Al54  1  0.50051852  -0.00040071  -0.00919144  1
  Al0+  Al55  1  0.50024265  -0.00149675  0.34327243  1
  Al0+  Al56  1  0.49855608  0.00057474  0.66529646  1
  Al0+  Al57  1  0.50095274  0.50095666  -0.00076002  1
  Al0+  Al58  1  0.50154044  0.49952394  0.32381053  1
  Al0+  Al59  1  0.50083658  0.50062175  0.66385886  1
  Al0+  Al60  1  0.24842883  0.25118160  -0.00810787  1
  Al0+  Al61  1  0.24738795  0.24914125  0.33517681  1
  Al0+  Al62  1  0.24831322  0.24816991  0.65743735  1
  Al0+  Al63  1  0.25095453  0.74864363  -0.00561195  1
  Al0+  Al64  1  0.25139707  0.74864245  0.34091017  1
  Al0+  Al65  1  0.24844472  0.74939719  0.67449184  1
  Al0+  Al66  1  0.74976091  0.25271056  0.00305130  1
  Al0+  Al67  1  0.74977186  0.25183408  0.33301475  1
  Al0+  Al68  1  0.75034239  0.25167439  0.67156108  1
  Al0+  Al69  1  0.75021356  0.75133754  -0.00363923  1
  Al0+  Al70  1  0.75066782  0.75046646  0.33365445  1
  Al0+  Al71  1  0.75014375  0.75158066  0.66914614  1
  Al0+  Al72  1  0.06888456  0.17974314  0.98816996  1
  Al0+  Al73  1  0.82058953  0.07395928  0.34832552  1
  Al0+  Al74  1  0.43133574  0.31934335  0.65049628  1
  Al0+  Al75  1  0.57231765  0.68001381  0.31812886  1
  Al0+  Al76  1  0.92867030  0.82112957  0.98490720  1
  Al0+  Al77  1  0.07191051  0.67729892  0.98482318  1
  Al0+  Al78  1  0.42747179  0.31898119  0.31817218  1
  Al0+  Al79  1  0.17832772  0.92724778  0.34621525  1
  Al0+  Al80  1  0.06761389  0.17703392  0.64991910  1
  Al0+  Al81  1  0.42775836  0.32165276  0.98444778  1
  Al0+  Al82  1  0.82231223  0.57274764  0.68248318  1
  Al0+  Al83  1  0.32207202  0.07257362  0.34661673  1
  Al0+  Al84  1  0.42910540  0.82112939  0.98749571  1
  Al0+  Al85  1  0.82053114  0.57018017  0.34405477  1
  Al0+  Al86  1  0.81845156  0.07090942  0.68185266  1
  Al0+  Al87  1  0.82104874  0.07073059  0.01550419  1
  Al0+  Al88  1  0.18015743  0.93036672  0.68422042  1
  Al0+  Al89  1  0.56953316  0.68279550  0.65248680  1
  Al0+  Al90  1  0.17792586  0.42793524  0.34781114  1
  Al0+  Al91  1  0.32196063  0.56761312  0.68187521  1
  Al0+  Al92  1  0.57277098  0.17863599  0.98632029  1
  Al0+  Al93  1  0.92856562  0.32189110  0.32064040  1
  Al0+  Al94  1  0.67843644  0.92789534  0.34799848  1
  Al0+  Al95  1  0.32403596  0.56969862  0.34653721  1
  Si0+  Si96  1  0.32169425  0.57135281  0.01519677  1
  Si0+  Si97  1  0.67550527  0.92722284  0.01552754  1
  Si0+  Si98  1  0.57518838  0.17722636  0.64907967  1
  Si0+  Si99  1  0.07174032  0.67717071  0.65037960  1
  Si0+  Si100  1  0.82181207  0.57187035  0.01476702  1
  Si0+  Si101  1  0.67845843  0.43086020  0.01700222  1
  Si0+  Si102  1  0.67784973  0.42970489  0.68405726  1
  Si0+  Si103  1  0.67741134  0.42852328  0.34834235  1
  Si0+  Si104  1  0.42397312  0.82272062  0.64807271  1
  Si0+  Si105  1  0.32112433  0.07194416  0.01059277  1
  Si0+  Si106  1  0.57282690  0.67784330  0.98258233  1
  Si0+  Si107  1  0.17972967  0.42773463  0.01379833  1
  Si0+  Si108  1  0.06924753  0.17597237  0.31610755  1
  Si0+  Si109  1  0.92674709  0.32373326  0.98330592  1
  Si0+  Si110  1  0.07239052  0.67903467  0.32197905  1
  Si0+  Si111  1  0.93061899  0.81895856  0.64993754  1
  Si0+  Si112  1  0.42668873  0.82230053  0.31968606  1
  Si0+  Si113  1  0.92748301  0.32420044  0.65147008  1
  Si0+  Si114  1  0.57219093  0.17563331  0.31898662  1
  Si0+  Si115  1  0.92988191  0.82107430  0.31986724  1
  Si0+  Si116  1  0.67659446  0.92798763  0.68518134  1
  Si0+  Si117  1  0.17828657  0.42581178  0.68517774  1
  Si0+  Si118  1  0.18029508  0.92839531  0.01436231  1
  Si0+  Si119  1  0.32190402  0.07420190  0.68503503  1
  O2-  O120  1  0.25189733  -0.00035470  0.05490731  1
  O2-  O121  1  0.24982578  -0.00001607  0.39545908  1
  O2-  O122  1  0.25715432  0.00279181  0.73144819  1
  O2-  O123  1  0.25096034  0.49922263  0.05586064  1
  O2-  O124  1  0.25477045  0.49519617  0.39679796  1
  O2-  O125  1  0.24835161  0.49256752  0.73071730  1
  O2-  O126  1  0.74365744  -0.00312442  0.05932649  1
  O2-  O127  1  0.74680665  0.00345541  0.39756146  1
  O2-  O128  1  0.73869978  0.00204049  0.72990930  1
  O2-  O129  1  0.75083159  0.50166173  0.05799715  1
  O2-  O130  1  0.74657099  0.49622332  0.39307552  1
  O2-  O131  1  0.74904431  0.49639471  0.72879601  1
  O2-  O132  1  0.00000643  0.24463723  0.27256366  1
  O2-  O133  1  -0.00676131  0.25367570  0.60647265  1
  O2-  O134  1  -0.00832738  0.25167265  0.93983685  1
  O2-  O135  1  0.00323776  0.75158102  0.27892597  1
  O2-  O136  1  -0.00094652  0.74564031  0.60677013  1
  O2-  O137  1  -0.00109391  0.74771404  0.93376127  1
  O2-  O138  1  0.49930278  0.23987303  0.27399113  1
  O2-  O139  1  0.50395254  0.24221807  0.60388987  1
  O2-  O140  1  0.49954914  0.24898140  0.93550951  1
  O2-  O141  1  0.49609697  0.75476375  0.27389411  1
  O2-  O142  1  0.49521582  0.75706733  0.60398082  1
  O2-  O143  1  0.50417353  0.74697129  0.94026787  1
  O2-  O144  1  0.07113136  0.18152660  0.10104232  1
  O2-  O145  1  0.06704759  0.17503852  0.42164936  1
  O2-  O146  1  0.06642888  0.17763945  0.76354525  1
  O2-  O147  1  0.07186544  0.67770543  0.09910853  1
  O2-  O148  1  0.07029771  0.67923496  0.42721287  1
  O2-  O149  1  0.07040055  0.67815860  0.75554222  1
  O2-  O150  1  0.57051096  0.17921757  0.10001925  1
  O2-  O151  1  0.57407706  0.18018968  0.42455380  1
  O2-  O152  1  0.57562785  0.17987356  0.75469595  1
  O2-  O153  1  0.57376403  0.67680357  0.08802530  1
  O2-  O154  1  0.57415556  0.68042226  0.43109800  1
  O2-  O155  1  0.56804342  0.68440510  0.76606782  1
  O2-  O156  1  0.17698589  0.43114913  0.23332269  1
  O2-  O157  1  0.17611470  0.42939731  0.57991929  1
  O2-  O158  1  0.17929035  0.42789487  0.90884188  1
  O2-  O159  1  0.17859468  0.92672145  0.23189123  1
  O2-  O160  1  0.18014496  0.93098474  0.57138492  1
  O2-  O161  1  0.18052510  0.92912468  0.90925898  1
  O2-  O162  1  0.67930469  0.43011648  0.24234359  1
  O2-  O163  1  0.67777534  0.43015610  0.57868617  1
  O2-  O164  1  0.67795791  0.43183787  0.91180661  1
  O2-  O165  1  0.68038496  0.92787574  0.23395641  1
  O2-  O166  1  0.68095987  0.92536719  0.57993231  1
  O2-  O167  1  0.67657387  0.92610240  0.90994361  1
  O2-  O168  1  0.42669332  0.32044160  0.09784095  1
  O2-  O169  1  0.43150946  0.32080764  0.43120912  1
  O2-  O170  1  0.43456588  0.31961269  0.76365981  1
  O2-  O171  1  0.42729579  0.82022316  0.10062494  1
  O2-  O172  1  0.42528295  0.82023719  0.42487882  1
  O2-  O173  1  0.42547193  0.82047959  0.75421994  1
  O2-  O174  1  0.92913932  0.32723480  0.08883868  1
  O2-  O175  1  0.93086874  0.32412759  0.43364401  1
  O2-  O176  1  0.92944441  0.32538600  0.75732915  1
  O2-  O177  1  0.93075367  0.81994444  0.09902026  1
  O2-  O178  1  0.92917609  0.81973900  0.42523636  1
  O2-  O179  1  0.93201148  0.81819836  0.75512119  1
  O2-  O180  1  0.32110738  0.07108083  0.23176803  1
  O2-  O181  1  0.32020744  0.07323677  0.57970308  1
  O2-  O182  1  0.31867867  0.07139446  0.90564544  1
  O2-  O183  1  0.31972850  0.57255103  0.23236619  1
  O2-  O184  1  0.32226932  0.56612720  0.56922673  1
  O2-  O185  1  0.32229074  0.57054056  0.90996044  1
  O2-  O186  1  0.82189570  0.07109178  0.23457975  1
  O2-  O187  1  0.81823598  0.06906094  0.56904536  1
  O2-  O188  1  0.82124790  0.06839835  0.90226872  1
  O2-  O189  1  0.82067972  0.57033534  0.23046705  1
  O2-  O190  1  0.82244075  0.57260463  0.56949843  1
  O2-  O191  1  0.82053748  0.57037662  0.90960028  1
  O2-  O192  1  0.04374201  0.08172604  0.27039777  1
  O2-  O193  1  0.03431791  0.08072111  0.59733314  1
  O2-  O194  1  0.03985708  0.08304880  0.93400232  1
  O2-  O195  1  0.04277125  0.58844160  0.27366192  1
  O2-  O196  1  0.04578202  0.58366856  0.60583952  1
  O2-  O197  1  0.04519942  0.57908492  0.93012471  1
  O2-  O198  1  0.55165636  0.07897767  0.27726371  1
  O2-  O199  1  0.55400035  0.08120728  0.60561279  1
  O2-  O200  1  0.54929347  0.08103136  0.92988797  1
  O2-  O201  1  0.54396680  0.58469964  0.26026891  1
  O2-  O202  1  0.54115813  0.58559460  0.59950367  1
  O2-  O203  1  0.54627355  0.58504218  0.93567452  1
  O2-  O204  1  0.16292969  0.20151957  0.27059961  1
  O2-  O205  1  0.16393335  0.20528081  0.59496513  1
  O2-  O206  1  0.16254730  0.21202331  0.92895627  1
  O2-  O207  1  0.16500279  0.70548716  0.27504263  1
  O2-  O208  1  0.16374986  0.70764190  0.60548765  1
  O2-  O209  1  0.16883062  0.70615235  0.93003003  1
  O2-  O210  1  0.66407840  0.20500627  0.27104279  1
  O2-  O211  1  0.66869188  0.20590694  0.60423865  1
  O2-  O212  1  0.67003325  0.21285415  0.93343731  1
  O2-  O213  1  0.66834742  0.71322049  0.26300749  1
  O2-  O214  1  0.66774894  0.71357552  0.60073959  1
  O2-  O215  1  0.66619362  0.70237346  0.93545870  1
  O2-  O216  1  0.08714129  0.45506722  0.06098419  1
  O2-  O217  1  0.08296823  0.46099562  0.40417880  1
  O2-  O218  1  0.08604839  0.45269009  0.73405601  1
  O2-  O219  1  0.08859082  0.95591914  0.06120367  1
  O2-  O220  1  0.08126029  0.95494946  0.40185292  1
  O2-  O221  1  0.08408911  0.96323687  0.73790268  1
  O2-  O222  1  0.58700799  0.46026542  0.06503367  1
  O2-  O223  1  0.58418136  0.45593172  0.39251001  1
  O2-  O224  1  0.58679185  0.46052944  0.73205178  1
  O2-  O225  1  0.58051416  0.95129602  0.05988390  1
  O2-  O226  1  0.58011876  0.94754826  0.40445249  1
  O2-  O227  1  0.57895253  0.94624465  0.72668030  1
  O2-  O228  1  0.20777716  0.33584132  0.06108402  1
  O2-  O229  1  0.19862101  0.32822509  0.39936052  1
  O2-  O230  1  0.20296372  0.32999998  0.72668708  1
  O2-  O231  1  0.20874382  0.83557051  0.05958810  1
  O2-  O232  1  0.20604575  0.83081692  0.40338909  1
  O2-  O233  1  0.20773427  0.83334171  0.73982160  1
  O2-  O234  1  0.70489760  0.33981750  0.06611331  1
  O2-  O235  1  0.69991816  0.33506686  0.39525979  1
  O2-  O236  1  0.70145855  0.33644057  0.73263065  1
  O2-  O237  1  0.70128629  0.83272050  0.06081279  1
  O2-  O238  1  0.71395618  0.83249333  0.40256252  1
  O2-  O239  1  0.70786992  0.83735501  0.73402450  1
  O2-  O240  1  0.46135160  0.41314303  0.26086050  1
  O2-  O241  1  0.46543063  0.41505111  0.59723400  1
  O2-  O242  1  0.46038206  0.41989730  0.93289138  1
  O2-  O243  1  0.45169443  0.91711109  0.27503409  1
  O2-  O244  1  0.44471366  0.91906439  0.60529340  1
  O2-  O245  1  0.45659612  0.91575579  0.92763789  1
  O2-  O246  1  0.96254905  0.41762899  0.26486341  1
  O2-  O247  1  0.95601500  0.41802583  0.60660096  1
  O2-  O248  1  0.95510074  0.41573387  0.93508143  1
  O2-  O249  1  0.95695290  0.91330740  0.27280892  1
  O2-  O250  1  0.96203108  0.90934949  0.60288559  1
  O2-  O251  1  0.96045188  0.91736691  0.93042310  1
  O2-  O252  1  0.32863472  0.29143121  0.26635140  1
  O2-  O253  1  0.33380330  0.29176235  0.59718855  1
  O2-  O254  1  0.33089505  0.29500679  0.92829015  1
  O2-  O255  1  0.33324181  0.79499080  0.27280720  1
  O2-  O256  1  0.32984069  0.79461342  0.60582057  1
  O2-  O257  1  0.33499868  0.78835913  0.92989309  1
  O2-  O258  1  0.83051074  0.29636458  0.26581870  1
  O2-  O259  1  0.83155717  0.30320736  0.60854322  1
  O2-  O260  1  0.83139621  0.30390953  0.93941807  1
  O2-  O261  1  0.84016043  0.79096234  0.27056152  1
  O2-  O262  1  0.83757817  0.79319009  0.60465850  1
  O2-  O263  1  0.83023782  0.79471648  0.93039847  1
  O2-  O264  1  0.41440454  0.04539870  0.05538992  1
  O2-  O265  1  0.41904304  0.04798147  0.40376893  1
  O2-  O266  1  0.41843825  0.05361027  0.72841655  1
  O2-  O267  1  0.41497072  0.54642066  0.06130261  1
  O2-  O268  1  0.42405776  0.54160222  0.39526165  1
  O2-  O269  1  0.41894209  0.53716535  0.73587987  1
  O2-  O270  1  0.91717222  0.03703147  0.06943513  1
  O2-  O271  1  0.91680392  0.04157420  0.40245010  1
  O2-  O272  1  0.91289286  0.03266881  0.73479024  1
  O2-  O273  1  0.91486789  0.54438533  0.06007405  1
  O2-  O274  1  0.91576102  0.53981377  0.40015385  1
  O2-  O275  1  0.91851658  0.54270030  0.73857840  1
  O2-  O276  1  0.29083999  0.16389080  0.05660920  1
  O2-  O277  1  0.29138089  0.16878575  0.40124543  1
  O2-  O278  1  0.29196695  0.16737382  0.72933980  1
  O2-  O279  1  0.29234625  0.66321604  0.06163391  1
  O2-  O280  1  0.29502473  0.66563652  0.40322963  1
  O2-  O281  1  0.29018050  0.66373230  0.73662485  1
  O2-  O282  1  0.79420053  0.16995245  0.06675936  1
  O2-  O283  1  0.79440126  0.17302275  0.40099496  1
  O2-  O284  1  0.79489912  0.16986104  0.73601026  1
  O2-  O285  1  0.79479120  0.66494794  0.06020734  1
  O2-  O286  1  0.79066431  0.66600976  0.39885840  1
  O2-  O287  1  0.78865797  0.66829589  0.73717067  1
