# generated using pymatgen
data_Ca2Al2SiO7
_symmetry_space_group_name_H-M   'P 1'
_cell_length_a   15.46516476
_cell_length_b   15.46637519
_cell_length_c   15.28879349
_cell_angle_alpha   90.00221302
_cell_angle_beta   89.98438540
_cell_angle_gamma   90.03152181
_symmetry_Int_Tables_number   1
_chemical_formula_structural   Ca2Al2SiO7
_chemical_formula_sum   'Ca48 Al48 Si24 O168'
_cell_volume   3656.92644391
_cell_formula_units_Z   24
loop_
 _symmetry_equiv_pos_site_id
 _symmetry_equiv_pos_as_xyz
  1  'x, y, z'
loop_
 _atom_type_symbol
 _atom_type_oxidation_number
  Ca2+  2.0
  Al0+  0.0
  Si0+  0.0
  O2-  -2.0
loop_
 _atom_site_type_symbol
 _atom_site_label
 _atom_site_symmetry_multiplicity
 _atom_site_fract_x
 _atom_site_fract_y
 _atom_site_fract_z
 _atom_site_occupancy
  Ca2+  Ca0  1  0.16785934  0.07723932  0.16782432  1
  Ca2+  Ca1  1  0.17680869  0.07926655  0.50146881  1
  Ca2+  Ca2  1  0.17584468  0.08131827  0.84450620  1
  Ca2+  Ca3  1  0.17453862  0.58347339  0.16980694  1
  Ca2+  Ca4  1  0.16792867  0.58968598  0.49758791  1
  Ca2+  Ca5  1  0.17296861  0.57621341  0.84323290  1
  Ca2+  Ca6  1  0.68010645  0.08030837  0.17292850  1
  Ca2+  Ca7  1  0.67475947  0.07722715  0.50705837  1
  Ca2+  Ca8  1  0.67374342  0.08311399  0.83047027  1
  Ca2+  Ca9  1  0.66972825  0.57477604  0.17235057  1
  Ca2+  Ca10  1  0.66795091  0.57046181  0.50721900  1
  Ca2+  Ca11  1  0.67156268  0.58188926  0.83118045  1
  Ca2+  Ca12  1  0.07824691  0.32536540  0.15273117  1
  Ca2+  Ca13  1  0.07934795  0.32951691  0.49543561  1
  Ca2+  Ca14  1  0.08433280  0.32857839  0.83651760  1
  Ca2+  Ca15  1  0.08599665  0.83576065  0.16211984  1
  Ca2+  Ca16  1  0.07776369  0.83197714  0.49375355  1
  Ca2+  Ca17  1  0.07242144  0.84370986  0.83318922  1
  Ca2+  Ca18  1  0.57755822  0.33291369  0.15996203  1
  Ca2+  Ca19  1  0.59174573  0.32803925  0.49883631  1
  Ca2+  Ca20  1  0.57844714  0.32617588  0.82770840  1
  Ca2+  Ca21  1  0.58439628  0.83421686  0.16521383  1
  Ca2+  Ca22  1  0.57946705  0.84615880  0.49914713  1
  Ca2+  Ca23  1  0.57583357  0.83759166  0.82205760  1
  Ca2+  Ca24  1  0.33155986  0.42219633  0.16472365  1
  Ca2+  Ca25  1  0.33335320  0.42442817  0.50092129  1
  Ca2+  Ca26  1  0.32978005  0.42021330  0.84565551  1
  Ca2+  Ca27  1  0.32182313  0.92790885  0.17190314  1
  Ca2+  Ca28  1  0.33055446  0.92252529  0.50514285  1
  Ca2+  Ca29  1  0.33215439  0.92637921  0.83882484  1
  Ca2+  Ca30  1  0.82818420  0.41020114  0.17195598  1
  Ca2+  Ca31  1  0.82213881  0.42106861  0.50907355  1
  Ca2+  Ca32  1  0.83021871  0.41600888  0.83443813  1
  Ca2+  Ca33  1  0.83627835  0.92698340  0.17022421  1
  Ca2+  Ca34  1  0.82600246  0.92292684  0.50974139  1
  Ca2+  Ca35  1  0.83637037  0.92213729  0.83807793  1
  Ca2+  Ca36  1  0.41398409  0.16847295  0.15890169  1
  Ca2+  Ca37  1  0.42232272  0.15805671  0.49866291  1
  Ca2+  Ca38  1  0.41582894  0.16744972  0.82552383  1
  Ca2+  Ca39  1  0.41531875  0.66192824  0.16231562  1
  Ca2+  Ca40  1  0.41523915  0.67369342  0.49516914  1
  Ca2+  Ca41  1  0.41485256  0.67285050  0.82828310  1
  Ca2+  Ca42  1  0.91890013  0.16675540  0.15407845  1
  Ca2+  Ca43  1  0.91027449  0.16258118  0.49776902  1
  Ca2+  Ca44  1  0.91861743  0.16273870  0.83453328  1
  Ca2+  Ca45  1  0.92611535  0.67498951  0.15960194  1
  Ca2+  Ca46  1  0.91768681  0.66999696  0.49637228  1
  Ca2+  Ca47  1  0.91445494  0.67860242  0.82505569  1
  Al0+  Al48  1  -0.00012859  0.00019575  -0.00037492  1
  Al0+  Al49  1  0.00191233  0.00126051  0.33996839  1
  Al0+  Al50  1  0.00058726  -0.00045516  0.66194708  1
  Al0+  Al51  1  -0.00056927  0.50061804  -0.00077493  1
  Al0+  Al52  1  0.00088434  0.50066345  0.32690192  1
  Al0+  Al53  1  0.00022390  0.49942389  0.66838079  1
  Al0+  Al54  1  0.50175304  -0.00209248  0.00297659  1
  Al0+  Al55  1  0.50110106  0.00175414  0.33302592  1
  Al0+  Al56  1  0.49972239  0.00239845  0.66506765  1
  Al0+  Al57  1  0.50205928  0.49847921  -0.00264893  1
  Al0+  Al58  1  0.49914816  0.50070256  0.34071262  1
  Al0+  Al59  1  0.49781531  0.49993249  0.67009549  1
  Al0+  Al60  1  0.25043841  0.25243274  -0.00113931  1
  Al0+  Al61  1  0.24958668  0.25212880  0.33563752  1
  Al0+  Al62  1  0.24930705  0.25078910  0.66657436  1
  Al0+  Al63  1  0.25215092  0.75007199  0.00508593  1
  Al0+  Al64  1  0.24985097  0.75002669  0.33565871  1
  Al0+  Al65  1  0.24927553  0.75008858  0.66269084  1
  Al0+  Al66  1  0.74910117  0.24927154  -0.00043056  1
  Al0+  Al67  1  0.74804946  0.24983247  0.33886672  1
  Al0+  Al68  1  0.74883882  0.24955114  0.67042421  1
  Al0+  Al69  1  0.75021906  0.74743086  -0.00298273  1
  Al0+  Al70  1  0.74891681  0.75009827  0.33308782  1
  Al0+  Al71  1  0.74817044  0.74820801  0.66688445  1
  Al0+  Al72  1  0.67705979  0.42797354  0.68517923  1
  Al0+  Al73  1  0.17652922  0.42895610  0.01543160  1
  Al0+  Al74  1  0.31965441  0.07044733  0.68038421  1
  Al0+  Al75  1  0.92999310  0.81988387  0.98722626  1
  Al0+  Al76  1  0.17957199  0.92803834  0.35069982  1
  Al0+  Al77  1  0.92579699  0.32292300  0.98399060  1
  Al0+  Al78  1  0.67789523  0.92894987  0.68202214  1
  Al0+  Al79  1  0.32100331  0.07423325  0.34855553  1
  Al0+  Al80  1  0.67898471  0.43016425  0.34603421  1
  Al0+  Al81  1  0.32425286  0.07302421  0.01385208  1
  Al0+  Al82  1  0.67917890  0.92693846  0.34732775  1
  Al0+  Al83  1  0.82184524  0.07105973  0.34809363  1
  Al0+  Al84  1  0.82233672  0.57081154  0.68155426  1
  Al0+  Al85  1  0.81849696  0.06971355  0.01255669  1
  Al0+  Al86  1  0.07173384  0.67985516  0.31751153  1
  Al0+  Al87  1  0.43007903  0.31984006  0.98739809  1
  Al0+  Al88  1  0.92762403  0.82093066  0.65123149  1
  Al0+  Al89  1  0.32321718  0.57047861  0.01406811  1
  Al0+  Al90  1  0.07099645  0.17882552  0.98511517  1
  Al0+  Al91  1  0.57032029  0.18144095  0.65191788  1
  Al0+  Al92  1  0.82351909  0.06991000  0.68455687  1
  Al0+  Al93  1  0.42936422  0.82096434  0.65251063  1
  Al0+  Al94  1  0.17847271  0.93003743  0.01355788  1
  Al0+  Al95  1  0.32008919  0.57037840  0.34832996  1
  Si0+  Si96  1  0.42926340  0.32329399  0.31914179  1
  Si0+  Si97  1  0.43014992  0.82039961  0.98675428  1
  Si0+  Si98  1  0.82394652  0.57144531  0.34682275  1
  Si0+  Si99  1  0.57103914  0.18004772  0.31682327  1
  Si0+  Si100  1  0.17861779  0.42828405  0.68089002  1
  Si0+  Si101  1  0.67807359  0.92336287  0.01617759  1
  Si0+  Si102  1  0.82122632  0.57349149  0.01568322  1
  Si0+  Si103  1  0.92763838  0.82308775  0.31668511  1
  Si0+  Si104  1  0.92771193  0.31933278  0.32068573  1
  Si0+  Si105  1  0.31888913  0.57220437  0.68123347  1
  Si0+  Si106  1  0.68141941  0.42988973  0.01463054  1
  Si0+  Si107  1  0.57012020  0.67674147  0.31844805  1
  Si0+  Si108  1  0.07496449  0.67863427  0.98306558  1
  Si0+  Si109  1  0.57156362  0.67740360  0.98451279  1
  Si0+  Si110  1  0.17850399  0.92642665  0.68287863  1
  Si0+  Si111  1  0.07100368  0.67571098  0.64997755  1
  Si0+  Si112  1  0.43002695  0.82192310  0.31673355  1
  Si0+  Si113  1  0.93011715  0.32100761  0.65148232  1
  Si0+  Si114  1  0.42556978  0.32338226  0.64793222  1
  Si0+  Si115  1  0.57035885  0.67568674  0.64845571  1
  Si0+  Si116  1  0.57197302  0.17578877  0.98412591  1
  Si0+  Si117  1  0.17589029  0.42896011  0.35042909  1
  Si0+  Si118  1  0.07269447  0.17949308  0.64962260  1
  Si0+  Si119  1  0.07208355  0.17991174  0.31944576  1
  O2-  O120  1  0.24971475  0.00337579  0.06284191  1
  O2-  O121  1  0.25245435  -0.00028930  0.39952738  1
  O2-  O122  1  0.24614395  -0.00452066  0.72717410  1
  O2-  O123  1  0.24872883  0.50139106  0.06445840  1
  O2-  O124  1  0.24323388  0.49822371  0.39595771  1
  O2-  O125  1  0.24974370  0.49954324  0.72198825  1
  O2-  O126  1  0.74563266  -0.00670631  0.05923696  1
  O2-  O127  1  0.75379563  -0.00457530  0.39704456  1
  O2-  O128  1  0.75450358  -0.00556360  0.73379769  1
  O2-  O129  1  0.75590737  0.49692063  0.05793880  1
  O2-  O130  1  0.75499276  0.50376878  0.39150414  1
  O2-  O131  1  0.75008737  0.49980435  0.73361774  1
  O2-  O132  1  -0.00269576  0.24763553  0.27832494  1
  O2-  O133  1  -0.00196643  0.24765900  0.60770003  1
  O2-  O134  1  -0.00079148  0.25182776  0.93467965  1
  O2-  O135  1  -0.00269538  0.75537809  0.27183852  1
  O2-  O136  1  0.00135014  0.74376185  0.60651249  1
  O2-  O137  1  0.00648513  0.74708698  0.93894305  1
  O2-  O138  1  0.49752135  0.24966204  0.27621347  1
  O2-  O139  1  0.49601915  0.25711413  0.60339924  1
  O2-  O140  1  0.49758052  0.23884772  0.94075534  1
  O2-  O141  1  0.50210490  0.75042928  0.27512633  1
  O2-  O142  1  0.50527979  0.74761201  0.60388958  1
  O2-  O143  1  0.50173859  0.75004743  0.94379506  1
  O2-  O144  1  0.06760228  0.17888330  0.09937336  1
  O2-  O145  1  0.07404780  0.18437584  0.42487118  1
  O2-  O146  1  0.07633443  0.18194622  0.75403005  1
  O2-  O147  1  0.07313635  0.67903060  0.08876531  1
  O2-  O148  1  0.06758794  0.67775097  0.43077624  1
  O2-  O149  1  0.07336898  0.67360650  0.75518465  1
  O2-  O150  1  0.57443690  0.17980118  0.09009933  1
  O2-  O151  1  0.57265019  0.18150323  0.42168111  1
  O2-  O152  1  0.56753779  0.18250969  0.76508693  1
  O2-  O153  1  0.57295006  0.67592770  0.08998255  1
  O2-  O154  1  0.56758826  0.67268975  0.42291207  1
  O2-  O155  1  0.56595825  0.67312891  0.75431260  1
  O2-  O156  1  0.17634346  0.42752394  0.24564796  1
  O2-  O157  1  0.17852954  0.42770953  0.57544121  1
  O2-  O158  1  0.17870591  0.43189735  0.90111386  1
  O2-  O159  1  0.17986283  0.93003184  0.23725695  1
  O2-  O160  1  0.18047533  0.92638552  0.57730907  1
  O2-  O161  1  0.18128360  0.92913054  0.89975115  1
  O2-  O162  1  0.67909461  0.43054648  0.23240477  1
  O2-  O163  1  0.67922543  0.42967311  0.57118876  1
  O2-  O164  1  0.67976745  0.43264169  0.91011698  1
  O2-  O165  1  0.67966038  0.92860594  0.23328840  1
  O2-  O166  1  0.67861245  0.93307574  0.56866745  1
  O2-  O167  1  0.67643734  0.92124550  0.91112920  1
  O2-  O168  1  0.43585407  0.32465112  0.10086793  1
  O2-  O169  1  0.43001294  0.32507814  0.42414342  1
  O2-  O170  1  0.42402059  0.32291990  0.75338097  1
  O2-  O171  1  0.43264905  0.82010820  0.09186243  1
  O2-  O172  1  0.43114359  0.82066871  0.42191674  1
  O2-  O173  1  0.42778343  0.81705681  0.76601934  1
  O2-  O174  1  0.92304471  0.31958040  0.09841633  1
  O2-  O175  1  0.92968701  0.32111508  0.42606871  1
  O2-  O176  1  0.93364044  0.32363061  0.75591215  1
  O2-  O177  1  0.92757199  0.81685243  0.10037678  1
  O2-  O178  1  0.92686728  0.81952236  0.42210607  1
  O2-  O179  1  0.93144707  0.82130647  0.76445501  1
  O2-  O180  1  0.31932239  0.07505819  0.23526913  1
  O2-  O181  1  0.31737282  0.07035867  0.56737832  1
  O2-  O182  1  0.32583583  0.06856971  0.90020947  1
  O2-  O183  1  0.32313345  0.56658336  0.23588983  1
  O2-  O184  1  0.31823647  0.57211678  0.57602964  1
  O2-  O185  1  0.32266528  0.57064640  0.90002836  1
  O2-  O186  1  0.82037130  0.07358110  0.23422802  1
  O2-  O187  1  0.82173545  0.07017930  0.57098802  1
  O2-  O188  1  0.81695054  0.06951749  0.90016911  1
  O2-  O189  1  0.82193307  0.56963442  0.24088388  1
  O2-  O190  1  0.82366129  0.56609978  0.56741777  1
  O2-  O191  1  0.81672405  0.57697063  0.91119444  1
  O2-  O192  1  0.04857891  0.08597154  0.27505415  1
  O2-  O193  1  0.04862304  0.08732959  0.60143365  1
  O2-  O194  1  0.04216312  0.08143233  0.93108017  1
  O2-  O195  1  0.04184707  0.58325852  0.26132668  1
  O2-  O196  1  0.04674443  0.58178172  0.60231729  1
  O2-  O197  1  0.04937592  0.58486295  0.93777638  1
  O2-  O198  1  0.54603835  0.08815531  0.26810042  1
  O2-  O199  1  0.53797849  0.08642314  0.59623252  1
  O2-  O200  1  0.55371153  0.07934085  0.94113875  1
  O2-  O201  1  0.53847824  0.58588326  0.26988879  1
  O2-  O202  1  0.53915048  0.58316220  0.60192249  1
  O2-  O203  1  0.54268952  0.58735945  0.93481758  1
  O2-  O204  1  0.16238666  0.21159067  0.27134169  1
  O2-  O205  1  0.16189267  0.21364431  0.59957694  1
  O2-  O206  1  0.16914494  0.20801561  0.93183385  1
  O2-  O207  1  0.16993347  0.70840779  0.26539332  1
  O2-  O208  1  0.16373868  0.70315775  0.60214445  1
  O2-  O209  1  0.16994340  0.70233603  0.93868940  1
  O2-  O210  1  0.66217142  0.21209494  0.26949328  1
  O2-  O211  1  0.66751419  0.21309781  0.59798277  1
  O2-  O212  1  0.66191580  0.20894292  0.93612061  1
  O2-  O213  1  0.66323467  0.70059640  0.27002667  1
  O2-  O214  1  0.66593238  0.69351328  0.60443650  1
  O2-  O215  1  0.66303320  0.70320655  0.93581344  1
  O2-  O216  1  0.07701287  0.45495344  0.06767772  1
  O2-  O217  1  0.08168920  0.45469614  0.39595067  1
  O2-  O218  1  0.08764460  0.45540700  0.72880425  1
  O2-  O219  1  0.08049532  0.95683879  0.06757102  1
  O2-  O220  1  0.08228191  0.95653123  0.40508533  1
  O2-  O221  1  0.08456854  0.95327909  0.72569799  1
  O2-  O222  1  0.59170248  0.46291261  0.06298198  1
  O2-  O223  1  0.58514448  0.46222731  0.40299638  1
  O2-  O224  1  0.57774882  0.45659857  0.73622818  1
  O2-  O225  1  0.58475960  0.94736616  0.06347866  1
  O2-  O226  1  0.58141560  0.95825790  0.39815822  1
  O2-  O227  1  0.58104830  0.96242967  0.73473703  1
  O2-  O228  1  0.20513839  0.33132843  0.06830200  1
  O2-  O229  1  0.20323814  0.33703650  0.39897723  1
  O2-  O230  1  0.20692257  0.33756518  0.72901923  1
  O2-  O231  1  0.20807027  0.83247590  0.06743898  1
  O2-  O232  1  0.20695073  0.82987287  0.40334552  1
  O2-  O233  1  0.20316323  0.83214812  0.72758923  1
  O2-  O234  1  0.70496812  0.33740952  0.06254376  1
  O2-  O235  1  0.70951197  0.33530353  0.40197908  1
  O2-  O236  1  0.70625713  0.33086941  0.73784889  1
  O2-  O237  1  0.70371978  0.82949268  0.06230646  1
  O2-  O238  1  0.69878903  0.82568455  0.39863939  1
  O2-  O239  1  0.69462686  0.82604416  0.72931131  1
  O2-  O240  1  0.46145057  0.41423649  0.27242460  1
  O2-  O241  1  0.44917614  0.41891056  0.60418800  1
  O2-  O242  1  0.46681440  0.41392727  0.93065205  1
  O2-  O243  1  0.45809533  0.91354728  0.26868000  1
  O2-  O244  1  0.45922345  0.91728101  0.59822631  1
  O2-  O245  1  0.45793145  0.91207541  0.93841764  1
  O2-  O246  1  0.95390263  0.41085347  0.27169569  1
  O2-  O247  1  0.96132535  0.41145438  0.60199440  1
  O2-  O248  1  0.95105353  0.42306258  0.93253255  1
  O2-  O249  1  0.95429290  0.91818940  0.27413051  1
  O2-  O250  1  0.96026402  0.91632713  0.59531048  1
  O2-  O251  1  0.95967278  0.91589858  0.93265746  1
  O2-  O252  1  0.33564491  0.29889475  0.27341099  1
  O2-  O253  1  0.33201651  0.29770918  0.60111020  1
  O2-  O254  1  0.33194841  0.29912360  0.93295376  1
  O2-  O255  1  0.33854954  0.79193505  0.27113792  1
  O2-  O256  1  0.33364682  0.78763515  0.59689454  1
  O2-  O257  1  0.33877457  0.79184062  0.93914380  1
  O2-  O258  1  0.83461621  0.29304355  0.27476424  1
  O2-  O259  1  0.83674297  0.29572618  0.60627624  1
  O2-  O260  1  0.82758303  0.29345657  0.93131386  1
  O2-  O261  1  0.83367950  0.79739217  0.27031233  1
  O2-  O262  1  0.82998652  0.79047213  0.59872880  1
  O2-  O263  1  0.83404740  0.78632486  0.93279432  1
  O2-  O264  1  0.42201279  0.04251947  0.06813004  1
  O2-  O265  1  0.42086772  0.04706555  0.39751092  1
  O2-  O266  1  0.41608821  0.04112495  0.73297688  1
  O2-  O267  1  0.42168102  0.53899556  0.06603320  1
  O2-  O268  1  0.41402353  0.53785283  0.40598553  1
  O2-  O269  1  0.41072315  0.54711059  0.72894637  1
  O2-  O270  1  0.91502497  0.03989242  0.06611656  1
  O2-  O271  1  0.92142573  0.05074103  0.40051772  1
  O2-  O272  1  0.92478953  0.04469369  0.73264754  1
  O2-  O273  1  0.91524770  0.55269527  0.06059650  1
  O2-  O274  1  0.91741523  0.54530587  0.39192667  1
  O2-  O275  1  0.92058865  0.54236745  0.73485508  1
  O2-  O276  1  0.30075513  0.17329483  0.06296285  1
  O2-  O277  1  0.29179207  0.17221880  0.40242219  1
  O2-  O278  1  0.28885104  0.16833904  0.73184585  1
  O2-  O279  1  0.29845672  0.66866924  0.06844736  1
  O2-  O280  1  0.29102419  0.66666449  0.40254610  1
  O2-  O281  1  0.28959595  0.66350376  0.72846981  1
  O2-  O282  1  0.78628198  0.16600130  0.06741809  1
  O2-  O283  1  0.78943470  0.16756099  0.40256625  1
  O2-  O284  1  0.79307359  0.16806763  0.73541551  1
  O2-  O285  1  0.78673094  0.66157396  0.06656007  1
  O2-  O286  1  0.79920525  0.66530596  0.39138441  1
  O2-  O287  1  0.79300551  0.66839276  0.73485437  1
