# generated using pymatgen
data_Ca2Al2SiO7
_symmetry_space_group_name_H-M   'P 1'
_cell_length_a   15.46322320
_cell_length_b   15.46211921
_cell_length_c   15.28791858
_cell_angle_alpha   90.00550890
_cell_angle_beta   90.00568257
_cell_angle_gamma   89.98576411
_symmetry_Int_Tables_number   1
_chemical_formula_structural   Ca2Al2SiO7
_chemical_formula_sum   'Ca48 Al48 Si24 O168'
_cell_volume   3655.25252300
_cell_formula_units_Z   24
loop_
 _symmetry_equiv_pos_site_id
 _symmetry_equiv_pos_as_xyz
  1  'x, y, z'
loop_
 _atom_type_symbol
 _atom_type_oxidation_number
  Ca2+  2.0
  Al0+  0.0
  Si0+  0.0
  O2-  -2.0
loop_
 _atom_site_type_symbol
 _atom_site_label
 _atom_site_symmetry_multiplicity
 _atom_site_fract_x
 _atom_site_fract_y
 _atom_site_fract_z
 _atom_site_occupancy
  Ca2+  Ca0  1  0.16279999  0.07470751  0.17387911  1
  Ca2+  Ca1  1  0.16678802  0.08870519  0.49538980  1
  Ca2+  Ca2  1  0.15837428  0.08146749  0.84075849  1
  Ca2+  Ca3  1  0.16976152  0.57605954  0.17609586  1
  Ca2+  Ca4  1  0.16544626  0.58234784  0.50428729  1
  Ca2+  Ca5  1  0.15409605  0.56987411  0.83446143  1
  Ca2+  Ca6  1  0.67782648  0.08649343  0.17455122  1
  Ca2+  Ca7  1  0.67249518  0.07366194  0.50206264  1
  Ca2+  Ca8  1  0.67600385  0.08102312  0.84098064  1
  Ca2+  Ca9  1  0.66646761  0.58344813  0.17451727  1
  Ca2+  Ca10  1  0.66654435  0.58446480  0.50117593  1
  Ca2+  Ca11  1  0.67142571  0.58033651  0.83788793  1
  Ca2+  Ca12  1  0.08519070  0.31869567  0.16373384  1
  Ca2+  Ca13  1  0.07811953  0.32613620  0.49537039  1
  Ca2+  Ca14  1  0.08608747  0.32431122  0.82536745  1
  Ca2+  Ca15  1  0.08815345  0.83318605  0.16168363  1
  Ca2+  Ca16  1  0.08704586  0.82433093  0.49264943  1
  Ca2+  Ca17  1  0.07038269  0.83659385  0.82821308  1
  Ca2+  Ca18  1  0.56970714  0.32617614  0.16162781  1
  Ca2+  Ca19  1  0.57505761  0.33110967  0.49008516  1
  Ca2+  Ca20  1  0.57999802  0.32595947  0.83648250  1
  Ca2+  Ca21  1  0.58161047  0.83704878  0.17130455  1
  Ca2+  Ca22  1  0.58155603  0.83363126  0.48930519  1
  Ca2+  Ca23  1  0.58354451  0.83617499  0.82700947  1
  Ca2+  Ca24  1  0.33201912  0.41541098  0.17255113  1
  Ca2+  Ca25  1  0.32856568  0.42163004  0.50207539  1
  Ca2+  Ca26  1  0.32049326  0.41513475  0.83994768  1
  Ca2+  Ca27  1  0.32442774  0.92214670  0.17850396  1
  Ca2+  Ca28  1  0.32919141  0.91721891  0.49430304  1
  Ca2+  Ca29  1  0.32143750  0.92063830  0.84007656  1
  Ca2+  Ca30  1  0.83246422  0.41500005  0.17470176  1
  Ca2+  Ca31  1  0.84113098  0.41323308  0.50291249  1
  Ca2+  Ca32  1  0.83938674  0.41591438  0.83513040  1
  Ca2+  Ca33  1  0.83326066  0.92817064  0.17310345  1
  Ca2+  Ca34  1  0.82604094  0.91501604  0.50179703  1
  Ca2+  Ca35  1  0.83409867  0.91692425  0.84069145  1
  Ca2+  Ca36  1  0.41319698  0.17330028  0.16241488  1
  Ca2+  Ca37  1  0.41403794  0.17131960  0.48887845  1
  Ca2+  Ca38  1  0.41781508  0.17031409  0.83460963  1
  Ca2+  Ca39  1  0.41514780  0.67025001  0.17332728  1
  Ca2+  Ca40  1  0.42121786  0.67243857  0.48440784  1
  Ca2+  Ca41  1  0.41778241  0.66854790  0.83206121  1
  Ca2+  Ca42  1  0.92298546  0.15904514  0.16415070  1
  Ca2+  Ca43  1  0.92486939  0.17252824  0.49244623  1
  Ca2+  Ca44  1  0.92761666  0.16666474  0.82927813  1
  Ca2+  Ca45  1  0.92442696  0.67679025  0.16568964  1
  Ca2+  Ca46  1  0.92887462  0.67135704  0.49838810  1
  Ca2+  Ca47  1  0.92201652  0.67891675  0.82631555  1
  Al0+  Al48  1  -0.00191062  -0.00079425  -0.00016078  1
  Al0+  Al49  1  -0.00106169  -0.00035163  0.34133138  1
  Al0+  Al50  1  -0.00074762  0.00142143  0.65724286  1
  Al0+  Al51  1  -0.00003087  0.50028436  0.00831106  1
  Al0+  Al52  1  -0.00135166  0.50131845  0.32601672  1
  Al0+  Al53  1  -0.00015102  0.50105845  0.66607790  1
  Al0+  Al54  1  0.50024366  -0.00144402  -0.00551409  1
  Al0+  Al55  1  0.49998287  -0.00005632  0.33569879  1
  Al0+  Al56  1  0.50111930  0.00011281  0.67220469  1
  Al0+  Al57  1  0.50015386  0.50060013  -0.00534679  1
  Al0+  Al58  1  0.49998605  0.49987260  0.33008694  1
  Al0+  Al59  1  0.50043093  0.49994000  0.67067889  1
  Al0+  Al60  1  0.24930242  0.25085544  -0.00465732  1
  Al0+  Al61  1  0.24681768  0.25003948  0.32931326  1
  Al0+  Al62  1  0.25206689  0.25174560  0.66722310  1
  Al0+  Al63  1  0.25132977  0.74677244  0.00003419  1
  Al0+  Al64  1  0.25260517  0.74822959  0.33217340  1
  Al0+  Al65  1  0.25275083  0.75212685  0.66684488  1
  Al0+  Al66  1  0.74903628  0.25075082  0.00076035  1
  Al0+  Al67  1  0.74910699  0.25194759  0.33686816  1
  Al0+  Al68  1  0.74828875  0.24899074  0.66548087  1
  Al0+  Al69  1  0.74997989  0.74951849  -0.00291468  1
  Al0+  Al70  1  0.75160762  0.74725464  0.33336231  1
  Al0+  Al71  1  0.74874363  0.74857792  0.66873022  1
  Al0+  Al72  1  0.07325018  0.68038392  0.31836123  1
  Al0+  Al73  1  0.68032365  0.92776509  0.34685037  1
  Al0+  Al74  1  0.07226248  0.68076536  0.65325554  1
  Al0+  Al75  1  0.93056279  0.81988251  0.98831097  1
  Al0+  Al76  1  0.06857923  0.17928416  0.98691551  1
  Al0+  Al77  1  0.32012689  0.07363740  0.34590703  1
  Al0+  Al78  1  0.82198195  0.07414794  0.35185755  1
  Al0+  Al79  1  0.07474875  0.17854468  0.64975551  1
  Al0+  Al80  1  0.32142803  0.56837893  0.34644923  1
  Al0+  Al81  1  0.92593796  0.82207991  0.64998266  1
  Al0+  Al82  1  0.57284096  0.17718856  0.98508814  1
  Al0+  Al83  1  0.92794710  0.32073863  0.65377952  1
  Al0+  Al84  1  0.06893771  0.17727865  0.31594602  1
  Al0+  Al85  1  0.68068788  0.92888201  0.68251743  1
  Al0+  Al86  1  0.81932515  0.07055845  0.01241155  1
  Al0+  Al87  1  0.42772655  0.32040240  0.32167970  1
  Al0+  Al88  1  0.17876777  0.92903879  0.01075071  1
  Al0+  Al89  1  0.92725904  0.32119872  0.31659374  1
  Al0+  Al90  1  0.57300421  0.67895159  0.31866678  1
  Al0+  Al91  1  0.42975889  0.82336151  0.31780060  1
  Al0+  Al92  1  0.17853921  0.92708021  0.34900063  1
  Al0+  Al93  1  0.17884046  0.42799922  0.01589242  1
  Al0+  Al94  1  0.42801522  0.32180299  0.98221413  1
  Al0+  Al95  1  0.17984095  0.43109528  0.67891895  1
  Si0+  Si96  1  0.67863644  0.43054302  0.01533922  1
  Si0+  Si97  1  0.67867448  0.43078869  0.34845619  1
  Si0+  Si98  1  0.17597592  0.42912662  0.34994704  1
  Si0+  Si99  1  0.82240556  0.57029265  0.34953953  1
  Si0+  Si100  1  0.57165277  0.67985369  0.98286526  1
  Si0+  Si101  1  0.57167603  0.17762997  0.31957034  1
  Si0+  Si102  1  0.67614225  0.92573432  0.01660387  1
  Si0+  Si103  1  0.67597900  0.42717056  0.68348402  1
  Si0+  Si104  1  0.43063337  0.82237273  0.65264737  1
  Si0+  Si105  1  0.81978779  0.57256668  0.01640597  1
  Si0+  Si106  1  0.82201456  0.07297561  0.68417516  1
  Si0+  Si107  1  0.43097452  0.32147445  0.65138497  1
  Si0+  Si108  1  0.92819167  0.82110200  0.31791950  1
  Si0+  Si109  1  0.92727111  0.32469384  0.98503986  1
  Si0+  Si110  1  0.56967045  0.17818288  0.65102433  1
  Si0+  Si111  1  0.32420536  0.57387263  0.68455426  1
  Si0+  Si112  1  0.32500282  0.57100430  0.01776404  1
  Si0+  Si113  1  0.32330753  0.07091935  0.01387837  1
  Si0+  Si114  1  0.42744565  0.82057535  0.98310423  1
  Si0+  Si115  1  0.81967317  0.56914930  0.68230061  1
  Si0+  Si116  1  0.17878871  0.92872216  0.68094729  1
  Si0+  Si117  1  0.32156196  0.07167227  0.68246984  1
  Si0+  Si118  1  0.56954334  0.67754170  0.65340313  1
  Si0+  Si119  1  0.07341769  0.67611831  0.98402834  1
  O2-  O120  1  0.25461704  0.00244360  0.05690629  1
  O2-  O121  1  0.24900787  0.00183535  0.39830596  1
  O2-  O122  1  0.24568254  0.00451372  0.72319047  1
  O2-  O123  1  0.25549673  0.50249461  0.05988383  1
  O2-  O124  1  0.24515968  0.49702214  0.39510057  1
  O2-  O125  1  0.25205438  0.50869364  0.72781188  1
  O2-  O126  1  0.74099217  -0.00163894  0.05836126  1
  O2-  O127  1  0.75097463  -0.00070514  0.39929633  1
  O2-  O128  1  0.75828003  -0.00019254  0.72979161  1
  O2-  O129  1  0.75105002  0.49927869  0.05858667  1
  O2-  O130  1  0.75220463  0.49834370  0.39195052  1
  O2-  O131  1  0.75096249  0.49491827  0.72473665  1
  O2-  O132  1  -0.00523079  0.24687129  0.26513915  1
  O2-  O133  1  -0.00066318  0.24923010  0.60352391  1
  O2-  O134  1  -0.00340426  0.25745121  0.94078063  1
  O2-  O135  1  0.00365586  0.76033761  0.27267286  1
  O2-  O136  1  0.00421119  0.75573450  0.60192289  1
  O2-  O137  1  0.00728649  0.74731975  0.94059412  1
  O2-  O138  1  0.49782859  0.24092291  0.27586885  1
  O2-  O139  1  0.50063023  0.25035592  0.60802683  1
  O2-  O140  1  0.49871732  0.24702564  0.93359418  1
  O2-  O141  1  0.50397590  0.75292464  0.26794178  1
  O2-  O142  1  0.49910204  0.74828905  0.61198815  1
  O2-  O143  1  0.50138514  0.75167144  0.94073809  1
  O2-  O144  1  0.06802542  0.17677022  0.09903716  1
  O2-  O145  1  0.07149535  0.18333488  0.42922579  1
  O2-  O146  1  0.07441404  0.17917238  0.76397226  1
  O2-  O147  1  0.07242949  0.67633338  0.08941166  1
  O2-  O148  1  0.07008220  0.67773315  0.43144442  1
  O2-  O149  1  0.06798989  0.67974074  0.76720498  1
  O2-  O150  1  0.57316552  0.18060731  0.09837234  1
  O2-  O151  1  0.57179656  0.18210131  0.42577718  1
  O2-  O152  1  0.56879419  0.17966896  0.75603194  1
  O2-  O153  1  0.57378865  0.67776529  0.08693763  1
  O2-  O154  1  0.57130990  0.67708105  0.43277066  1
  O2-  O155  1  0.56869687  0.67641706  0.75903767  1
  O2-  O156  1  0.17790442  0.43064490  0.24423724  1
  O2-  O157  1  0.18385516  0.43183616  0.56625690  1
  O2-  O158  1  0.17732671  0.43061237  0.90222999  1
  O2-  O159  1  0.18052963  0.92711304  0.23500933  1
  O2-  O160  1  0.18439092  0.92269216  0.57694496  1
  O2-  O161  1  0.17961165  0.93037148  0.89677315  1
  O2-  O162  1  0.67828755  0.43264500  0.24326136  1
  O2-  O163  1  0.66917727  0.43039639  0.57896316  1
  O2-  O164  1  0.67929523  0.43336794  0.90968649  1
  O2-  O165  1  0.68285624  0.92826361  0.23298933  1
  O2-  O166  1  0.67676316  0.92984927  0.57026109  1
  O2-  O167  1  0.67843905  0.92351367  0.91059479  1
  O2-  O168  1  0.43075185  0.32336311  0.09552706  1
  O2-  O169  1  0.43200204  0.32203991  0.43551185  1
  O2-  O170  1  0.43266018  0.32111787  0.75624761  1
  O2-  O171  1  0.42667823  0.82098393  0.08713186  1
  O2-  O172  1  0.43080250  0.82031974  0.43203677  1
  O2-  O173  1  0.43079516  0.82099242  0.75841620  1
  O2-  O174  1  0.92615658  0.32526302  0.08997650  1
  O2-  O175  1  0.93014134  0.32309876  0.43017983  1
  O2-  O176  1  0.92779850  0.31986001  0.76776969  1
  O2-  O177  1  0.92842758  0.81720081  0.10085666  1
  O2-  O178  1  0.92487728  0.81401616  0.42318528  1
  O2-  O179  1  0.92609163  0.81926665  0.76424102  1
  O2-  O180  1  0.32024858  0.07307068  0.23224387  1
  O2-  O181  1  0.32626035  0.07093753  0.57805475  1
  O2-  O182  1  0.32387091  0.06764799  0.90744086  1
  O2-  O183  1  0.32173747  0.56534955  0.23332391  1
  O2-  O184  1  0.33039024  0.57150562  0.57967526  1
  O2-  O185  1  0.32679259  0.57234851  0.91175781  1
  O2-  O186  1  0.81931538  0.07403776  0.23776050  1
  O2-  O187  1  0.81529382  0.07629201  0.57947252  1
  O2-  O188  1  0.81977086  0.06836245  0.89908619  1
  O2-  O189  1  0.82009234  0.57083455  0.24418564  1
  O2-  O190  1  0.81679674  0.57010175  0.57747322  1
  O2-  O191  1  0.81773233  0.57264646  0.91088436  1
  O2-  O192  1  0.04282741  0.07571580  0.26858029  1
  O2-  O193  1  0.05142146  0.07999804  0.59646589  1
  O2-  O194  1  0.03427012  0.08433364  0.93153881  1
  O2-  O195  1  0.03637455  0.58719947  0.26193072  1
  O2-  O196  1  0.03993006  0.58403484  0.60010962  1
  O2-  O197  1  0.04059568  0.58357671  0.93959368  1
  O2-  O198  1  0.55407963  0.08258642  0.27542941  1
  O2-  O199  1  0.53947130  0.08638605  0.60580936  1
  O2-  O200  1  0.54814899  0.07802759  0.93025609  1
  O2-  O201  1  0.54162876  0.58237965  0.26383616  1
  O2-  O202  1  0.54308599  0.58488694  0.60691036  1
  O2-  O203  1  0.54332297  0.58920067  0.93245827  1
  O2-  O204  1  0.16622091  0.20758649  0.26178270  1
  O2-  O205  1  0.17332706  0.20993439  0.59897593  1
  O2-  O206  1  0.16574130  0.20639384  0.93210316  1
  O2-  O207  1  0.17067900  0.70474437  0.26447606  1
  O2-  O208  1  0.17352928  0.70441862  0.60361440  1
  O2-  O209  1  0.16883361  0.69473971  0.93892068  1
  O2-  O210  1  0.66231909  0.21085470  0.27313961  1
  O2-  O211  1  0.66108105  0.20530004  0.60371827  1
  O2-  O212  1  0.66891462  0.21221383  0.92946040  1
  O2-  O213  1  0.67238024  0.70295204  0.26526317  1
  O2-  O214  1  0.66185533  0.70268585  0.60743870  1
  O2-  O215  1  0.66287289  0.70652637  0.93279572  1
  O2-  O216  1  0.08326178  0.45874020  0.07184599  1
  O2-  O217  1  0.08218732  0.45811986  0.39314829  1
  O2-  O218  1  0.08266260  0.46064582  0.73398772  1
  O2-  O219  1  0.08295935  0.95859970  0.06485552  1
  O2-  O220  1  0.07982036  0.94912030  0.40283065  1
  O2-  O221  1  0.08388595  0.95338431  0.72396835  1
  O2-  O222  1  0.58720326  0.46220850  0.06065653  1
  O2-  O223  1  0.58879352  0.46231744  0.39758371  1
  O2-  O224  1  0.58745432  0.46032141  0.73561918  1
  O2-  O225  1  0.57974768  0.94623600  0.05830494  1
  O2-  O226  1  0.58124676  0.95320580  0.39997172  1
  O2-  O227  1  0.58471289  0.96203481  0.73864199  1
  O2-  O228  1  0.21057522  0.33070631  0.06732105  1
  O2-  O229  1  0.20157095  0.33547616  0.39421039  1
  O2-  O230  1  0.21504951  0.33585999  0.73438298  1
  O2-  O231  1  0.20865999  0.83056609  0.06138129  1
  O2-  O232  1  0.21277260  0.82999439  0.40153606  1
  O2-  O233  1  0.21128059  0.83924734  0.73185492  1
  O2-  O234  1  0.70287448  0.33852503  0.06278222  1
  O2-  O235  1  0.70175728  0.33926102  0.39845743  1
  O2-  O236  1  0.70049260  0.33414955  0.73012627  1
  O2-  O237  1  0.70362760  0.83205140  0.06101619  1
  O2-  O238  1  0.70871577  0.82819988  0.39933467  1
  O2-  O239  1  0.70564409  0.82962297  0.73595454  1
  O2-  O240  1  0.46508908  0.41309691  0.26561135  1
  O2-  O241  1  0.46069783  0.41405819  0.60642345  1
  O2-  O242  1  0.46069510  0.41900693  0.92769436  1
  O2-  O243  1  0.45614386  0.92214140  0.26451475  1
  O2-  O244  1  0.46165515  0.91358556  0.60736519  1
  O2-  O245  1  0.45237020  0.91200631  0.93284547  1
  O2-  O246  1  0.95339643  0.41982699  0.26304297  1
  O2-  O247  1  0.95368070  0.42014239  0.60245503  1
  O2-  O248  1  0.95130438  0.42034419  0.94137551  1
  O2-  O249  1  0.94517121  0.91816778  0.27805878  1
  O2-  O250  1  0.94465768  0.92220047  0.59924055  1
  O2-  O251  1  0.96047813  0.91477827  0.93125293  1
  O2-  O252  1  0.33108747  0.29499435  0.26691706  1
  O2-  O253  1  0.33958099  0.29499470  0.60439771  1
  O2-  O254  1  0.33080622  0.29334632  0.92729339  1
  O2-  O255  1  0.33424620  0.78959527  0.26322088  1
  O2-  O256  1  0.33858206  0.79801856  0.60547648  1
  O2-  O257  1  0.33769244  0.78827554  0.93266296  1
  O2-  O258  1  0.82484346  0.29964552  0.26841391  1
  O2-  O259  1  0.82684375  0.29757456  0.60238629  1
  O2-  O260  1  0.83276485  0.30154971  0.93965503  1
  O2-  O261  1  0.83876217  0.78645619  0.26903905  1
  O2-  O262  1  0.82915701  0.78518409  0.59922161  1
  O2-  O263  1  0.83466961  0.78629863  0.93256688  1
  O2-  O264  1  0.41767753  0.04550523  0.05812334  1
  O2-  O265  1  0.41916015  0.04798010  0.39997003  1
  O2-  O266  1  0.41063270  0.03885678  0.73334290  1
  O2-  O267  1  0.41948949  0.54571544  0.06189956  1
  O2-  O268  1  0.41802387  0.53630384  0.40093478  1
  O2-  O269  1  0.41622767  0.54427397  0.73408676  1
  O2-  O270  1  0.91307778  0.03480224  0.06761413  1
  O2-  O271  1  0.91937878  0.04792439  0.40607985  1
  O2-  O272  1  0.91920918  0.05249018  0.72489089  1
  O2-  O273  1  0.91146412  0.54882283  0.06520014  1
  O2-  O274  1  0.91423722  0.54228432  0.39649918  1
  O2-  O275  1  0.91109203  0.54386306  0.73150465  1
  O2-  O276  1  0.30021017  0.16619778  0.05529194  1
  O2-  O277  1  0.29097044  0.17209273  0.40039127  1
  O2-  O278  1  0.29909485  0.16510613  0.72941313  1
  O2-  O279  1  0.30084195  0.66505659  0.06302950  1
  O2-  O280  1  0.29513837  0.66570177  0.40007046  1
  O2-  O281  1  0.30386980  0.66948429  0.72967920  1
  O2-  O282  1  0.79104688  0.16839628  0.06579983  1
  O2-  O283  1  0.78968868  0.17182084  0.40502851  1
  O2-  O284  1  0.79026139  0.16488121  0.73191666  1
  O2-  O285  1  0.78684043  0.66263793  0.06375051  1
  O2-  O286  1  0.79279812  0.66001096  0.39929191  1
  O2-  O287  1  0.78682676  0.65824561  0.73284794  1
