# generated using pymatgen
data_Ca2Al2SiO7
_symmetry_space_group_name_H-M   'P 1'
_cell_length_a   15.45827560
_cell_length_b   15.45856587
_cell_length_c   15.28450065
_cell_angle_alpha   90.00671555
_cell_angle_beta   90.01031611
_cell_angle_gamma   89.98648669
_symmetry_Int_Tables_number   1
_chemical_formula_structural   Ca2Al2SiO7
_chemical_formula_sum   'Ca48 Al48 Si24 O168'
_cell_volume   3652.42645338
_cell_formula_units_Z   24
loop_
 _symmetry_equiv_pos_site_id
 _symmetry_equiv_pos_as_xyz
  1  'x, y, z'
loop_
 _atom_type_symbol
 _atom_type_oxidation_number
  Ca2+  2.0
  Al0+  0.0
  Si0+  0.0
  O2-  -2.0
loop_
 _atom_site_type_symbol
 _atom_site_label
 _atom_site_symmetry_multiplicity
 _atom_site_fract_x
 _atom_site_fract_y
 _atom_site_fract_z
 _atom_site_occupancy
  Ca2+  Ca0  1  0.16906018  0.08498910  0.17268010  1
  Ca2+  Ca1  1  0.16717099  0.08196767  0.51078869  1
  Ca2+  Ca2  1  0.16643903  0.07703611  0.82901111  1
  Ca2+  Ca3  1  0.16281768  0.57513527  0.16682255  1
  Ca2+  Ca4  1  0.15824069  0.57771000  0.50403675  1
  Ca2+  Ca5  1  0.16006121  0.58169918  0.84207867  1
  Ca2+  Ca6  1  0.66645124  0.07806076  0.17180511  1
  Ca2+  Ca7  1  0.66867441  0.06746530  0.50614955  1
  Ca2+  Ca8  1  0.66322661  0.07771769  0.83604995  1
  Ca2+  Ca9  1  0.66778746  0.57713575  0.17125860  1
  Ca2+  Ca10  1  0.66910509  0.58461019  0.50562160  1
  Ca2+  Ca11  1  0.67740263  0.58801328  0.83720981  1
  Ca2+  Ca12  1  0.08438497  0.33555837  0.16728636  1
  Ca2+  Ca13  1  0.07968344  0.32440742  0.49175228  1
  Ca2+  Ca14  1  0.08572673  0.33052337  0.82812239  1
  Ca2+  Ca15  1  0.07072453  0.82675271  0.15671614  1
  Ca2+  Ca16  1  0.07349155  0.83573297  0.49775156  1
  Ca2+  Ca17  1  0.07385647  0.82226911  0.82393910  1
  Ca2+  Ca18  1  0.58321351  0.33326212  0.15571564  1
  Ca2+  Ca19  1  0.58299865  0.33408811  0.49256443  1
  Ca2+  Ca20  1  0.58433434  0.33340483  0.83589077  1
  Ca2+  Ca21  1  0.58281835  0.82885901  0.16441252  1
  Ca2+  Ca22  1  0.59293357  0.82329831  0.49883891  1
  Ca2+  Ca23  1  0.57465521  0.83174989  0.82355771  1
  Ca2+  Ca24  1  0.32434602  0.41113939  0.16891797  1
  Ca2+  Ca25  1  0.32660792  0.41867237  0.50151224  1
  Ca2+  Ca26  1  0.32727425  0.41909325  0.84194242  1
  Ca2+  Ca27  1  0.33467681  0.91577284  0.16851628  1
  Ca2+  Ca28  1  0.32544046  0.92312977  0.51509793  1
  Ca2+  Ca29  1  0.33312992  0.91382398  0.83385041  1
  Ca2+  Ca30  1  0.82617356  0.42194429  0.17222165  1
  Ca2+  Ca31  1  0.83188793  0.42043773  0.50333685  1
  Ca2+  Ca32  1  0.83108056  0.43279309  0.84237826  1
  Ca2+  Ca33  1  0.83292046  0.91300068  0.17263400  1
  Ca2+  Ca34  1  0.82717579  0.90409688  0.50404288  1
  Ca2+  Ca35  1  0.83094337  0.90748552  0.83333286  1
  Ca2+  Ca36  1  0.42671504  0.17401947  0.15649665  1
  Ca2+  Ca37  1  0.41435779  0.16345906  0.50074869  1
  Ca2+  Ca38  1  0.41670574  0.17151220  0.83405225  1
  Ca2+  Ca39  1  0.42384268  0.66979513  0.16173534  1
  Ca2+  Ca40  1  0.42780807  0.67261916  0.49849763  1
  Ca2+  Ca41  1  0.42124067  0.67786200  0.82512285  1
  Ca2+  Ca42  1  0.91891327  0.17426048  0.16801610  1
  Ca2+  Ca43  1  0.92925083  0.16850945  0.49254691  1
  Ca2+  Ca44  1  0.92262877  0.17178627  0.82682967  1
  Ca2+  Ca45  1  0.91562899  0.67435130  0.15992942  1
  Ca2+  Ca46  1  0.91398884  0.67368107  0.50366026  1
  Ca2+  Ca47  1  0.92036460  0.66635019  0.82819278  1
  Al0+  Al48  1  -0.00065733  -0.00014517  -0.00211023  1
  Al0+  Al49  1  0.00153698  0.00067578  0.32423333  1
  Al0+  Al50  1  0.00002342  0.00126388  0.66366819  1
  Al0+  Al51  1  -0.00040903  0.49942288  0.00759783  1
  Al0+  Al52  1  0.00000327  0.49961420  0.33581999  1
  Al0+  Al53  1  -0.00291890  0.49997853  0.66737223  1
  Al0+  Al54  1  0.50020122  0.00125553  -0.00502083  1
  Al0+  Al55  1  0.50038006  -0.00036424  0.33856657  1
  Al0+  Al56  1  0.49894477  0.00341419  0.67180240  1
  Al0+  Al57  1  0.49882496  0.50002784  -0.00193180  1
  Al0+  Al58  1  0.50047775  0.50098757  0.33289274  1
  Al0+  Al59  1  0.49730240  0.49855834  0.66362140  1
  Al0+  Al60  1  0.25210709  0.24886356  0.00103392  1
  Al0+  Al61  1  0.25128125  0.25079356  0.33486286  1
  Al0+  Al62  1  0.25013080  0.24980337  0.66706161  1
  Al0+  Al63  1  0.24883775  0.74979880  -0.00377743  1
  Al0+  Al64  1  0.25140380  0.75094338  0.33438948  1
  Al0+  Al65  1  0.24967422  0.74823384  0.66178378  1
  Al0+  Al66  1  0.75190008  0.24769213  -0.00177890  1
  Al0+  Al67  1  0.75177887  0.24923536  0.33540152  1
  Al0+  Al68  1  0.74721324  0.24923570  0.66615610  1
  Al0+  Al69  1  0.74927864  0.75174093  0.00272438  1
  Al0+  Al70  1  0.74931431  0.74861401  0.32732486  1
  Al0+  Al71  1  0.74993777  0.74795258  0.66999917  1
  Al0+  Al72  1  0.68118629  0.92907496  0.68156056  1
  Al0+  Al73  1  0.17963562  0.43022281  0.34940864  1
  Al0+  Al74  1  0.17663237  0.92630836  0.68180657  1
  Al0+  Al75  1  0.67853939  0.42772108  0.34751899  1
  Al0+  Al76  1  0.42832133  0.32233502  0.98484407  1
  Al0+  Al77  1  0.57057868  0.67920105  0.65254780  1
  Al0+  Al78  1  0.57392369  0.17954604  0.98436458  1
  Al0+  Al79  1  0.42919898  0.82103181  0.98712883  1
  Al0+  Al80  1  0.93013339  0.81888836  0.31855475  1
  Al0+  Al81  1  0.82049729  0.57336435  0.01865097  1
  Al0+  Al82  1  0.68074102  0.92878820  0.34637395  1
  Al0+  Al83  1  0.07036472  0.18116139  0.65437148  1
  Al0+  Al84  1  0.07350593  0.18026778  0.31613847  1
  Al0+  Al85  1  0.42831695  0.82473375  0.65011061  1
  Al0+  Al86  1  0.67901639  0.42821873  0.01379322  1
  Al0+  Al87  1  0.92920502  0.82048455  0.65158659  1
  Al0+  Al88  1  0.57014534  0.67898015  0.31773738  1
  Al0+  Al89  1  0.92694804  0.82255788  0.98297850  1
  Al0+  Al90  1  0.06851774  0.67699275  0.98671333  1
  Al0+  Al91  1  0.92782446  0.32265910  0.31785046  1
  Al0+  Al92  1  0.18030178  0.42743223  0.01391281  1
  Al0+  Al93  1  0.32039169  0.07266811  0.68503758  1
  Al0+  Al94  1  0.07186256  0.67542671  0.65066415  1
  Al0+  Al95  1  0.81892184  0.56847603  0.68023782  1
  Si0+  Si96  1  0.32303819  0.57359251  0.35096109  1
  Si0+  Si97  1  0.42847330  0.32008551  0.64958590  1
  Si0+  Si98  1  0.43074505  0.32091965  0.31947410  1
  Si0+  Si99  1  0.42764438  0.82379290  0.31766665  1
  Si0+  Si100  1  0.82187067  0.07469432  0.68304939  1
  Si0+  Si101  1  0.67774336  0.93181353  0.01520630  1
  Si0+  Si102  1  0.82107891  0.57213793  0.35116951  1
  Si0+  Si103  1  0.82420526  0.07116391  0.01588334  1
  Si0+  Si104  1  0.17842068  0.92934270  0.34566472  1
  Si0+  Si105  1  0.32102615  0.07046340  0.34744570  1
  Si0+  Si106  1  0.57176256  0.67762194  0.98364407  1
  Si0+  Si107  1  0.67415211  0.42559765  0.68330359  1
  Si0+  Si108  1  0.82438432  0.07142902  0.34964632  1
  Si0+  Si109  1  0.32104422  0.06914318  0.01676673  1
  Si0+  Si110  1  0.17826930  0.92863910  0.01537162  1
  Si0+  Si111  1  0.07572532  0.67755645  0.31650026  1
  Si0+  Si112  1  0.17965976  0.43078593  0.68058691  1
  Si0+  Si113  1  0.32251975  0.57023693  0.68062761  1
  Si0+  Si114  1  0.32173803  0.57458698  0.01578195  1
  Si0+  Si115  1  0.57064330  0.17709233  0.32166208  1
  Si0+  Si116  1  0.93005868  0.32007693  0.98584832  1
  Si0+  Si117  1  0.92588798  0.32220885  0.65183486  1
  Si0+  Si118  1  0.57196885  0.17943917  0.64911706  1
  Si0+  Si119  1  0.07305107  0.17865610  0.98463647  1
  O2-  O120  1  0.25034816  -0.00168741  0.05985018  1
  O2-  O121  1  0.24930770  0.00015452  0.38815590  1
  O2-  O122  1  0.25224997  -0.00458240  0.73286639  1
  O2-  O123  1  0.25540340  0.50303220  0.05971811  1
  O2-  O124  1  0.25078362  0.50849568  0.39598855  1
  O2-  O125  1  0.24572560  0.50557224  0.72322335  1
  O2-  O126  1  0.75247385  -0.00026904  0.05683381  1
  O2-  O127  1  0.75762224  0.00114865  0.39385720  1
  O2-  O128  1  0.75651731  0.00359433  0.72857398  1
  O2-  O129  1  0.74705075  0.50154268  0.06714871  1
  O2-  O130  1  0.75443558  0.50041516  0.39464777  1
  O2-  O131  1  0.74318619  0.49377428  0.72598700  1
  O2-  O132  1  0.00209409  0.25298172  0.26644157  1
  O2-  O133  1  -0.00730845  0.25216045  0.60766270  1
  O2-  O134  1  0.00369434  0.25155247  0.94310415  1
  O2-  O135  1  0.00644415  0.74542339  0.27261804  1
  O2-  O136  1  0.00504638  0.75238981  0.60107654  1
  O2-  O137  1  -0.00367987  0.74743680  0.93552938  1
  O2-  O138  1  0.50538658  0.25293955  0.27860738  1
  O2-  O139  1  0.50125058  0.25098038  0.60695510  1
  O2-  O140  1  0.50439954  0.25460945  0.93501683  1
  O2-  O141  1  0.49482643  0.75440559  0.27284794  1
  O2-  O142  1  0.50232909  0.75449379  0.60067045  1
  O2-  O143  1  0.50208255  0.74537685  0.94036728  1
  O2-  O144  1  0.07280606  0.17782439  0.08948099  1
  O2-  O145  1  0.07401581  0.18018993  0.42958863  1
  O2-  O146  1  0.07024155  0.18513568  0.76802906  1
  O2-  O147  1  0.07014556  0.68038257  0.10072097  1
  O2-  O148  1  0.07744413  0.68013176  0.42179368  1
  O2-  O149  1  0.06814475  0.67079671  0.76376941  1
  O2-  O150  1  0.57059042  0.17634495  0.09883479  1
  O2-  O151  1  0.56607242  0.17555878  0.42670337  1
  O2-  O152  1  0.57488833  0.18155539  0.75373764  1
  O2-  O153  1  0.57009208  0.67898339  0.08965089  1
  O2-  O154  1  0.57010586  0.67913450  0.43047332  1
  O2-  O155  1  0.56756911  0.67854110  0.76614918  1
  O2-  O156  1  0.18379626  0.42859692  0.23647242  1
  O2-  O157  1  0.18236916  0.42911781  0.57546509  1
  O2-  O158  1  0.18123948  0.42578264  0.90035785  1
  O2-  O159  1  0.18134457  0.92961414  0.24018365  1
  O2-  O160  1  0.17625221  0.93189907  0.56740860  1
  O2-  O161  1  0.17819386  0.93088198  0.91091845  1
  O2-  O162  1  0.67647288  0.42812540  0.23485431  1
  O2-  O163  1  0.67448564  0.42405374  0.57745685  1
  O2-  O164  1  0.68333192  0.42825564  0.90016751  1
  O2-  O165  1  0.67733990  0.93337026  0.23304265  1
  O2-  O166  1  0.68298602  0.92983473  0.56815404  1
  O2-  O167  1  0.67646382  0.93372634  0.91033490  1
  O2-  O168  1  0.42564210  0.31673756  0.09886342  1
  O2-  O169  1  0.42945645  0.31911490  0.42489643  1
  O2-  O170  1  0.42719533  0.32068270  0.75419156  1
  O2-  O171  1  0.43167803  0.82168493  0.10091269  1
  O2-  O172  1  0.42621003  0.82479495  0.42240797  1
  O2-  O173  1  0.43037603  0.82099204  0.76396697  1
  O2-  O174  1  0.92889278  0.31698752  0.09057144  1
  O2-  O175  1  0.92875553  0.31921262  0.43175962  1
  O2-  O176  1  0.92802161  0.32189467  0.75785994  1
  O2-  O177  1  0.93008457  0.82476142  0.09692969  1
  O2-  O178  1  0.93028126  0.81879474  0.43121384  1
  O2-  O179  1  0.92848573  0.81764424  0.76464430  1
  O2-  O180  1  0.32332005  0.06964385  0.24209765  1
  O2-  O181  1  0.31719016  0.07593122  0.57064933  1
  O2-  O182  1  0.31985065  0.07057941  0.91237738  1
  O2-  O183  1  0.32380155  0.57288962  0.24534188  1
  O2-  O184  1  0.32676483  0.56362106  0.57572094  1
  O2-  O185  1  0.32027708  0.57471000  0.91012481  1
  O2-  O186  1  0.82154528  0.07238163  0.24366146  1
  O2-  O187  1  0.81746141  0.07980715  0.57779261  1
  O2-  O188  1  0.82672389  0.07337250  0.91106575  1
  O2-  O189  1  0.81889570  0.57227843  0.24575795  1
  O2-  O190  1  0.81884755  0.56600186  0.56700814  1
  O2-  O191  1  0.82069810  0.57161737  0.90496366  1
  O2-  O192  1  0.04591004  0.08301361  0.26033710  1
  O2-  O193  1  0.04268132  0.08512456  0.59867102  1
  O2-  O194  1  0.04255864  0.08805433  0.93711521  1
  O2-  O195  1  0.05145447  0.58242180  0.27404628  1
  O2-  O196  1  0.03693159  0.57860705  0.59655923  1
  O2-  O197  1  0.04311168  0.57643184  0.93675960  1
  O2-  O198  1  0.53738121  0.08753487  0.27242630  1
  O2-  O199  1  0.54219018  0.08834846  0.60220718  1
  O2-  O200  1  0.53949094  0.08431099  0.92964512  1
  O2-  O201  1  0.53701171  0.58306449  0.26319917  1
  O2-  O202  1  0.53906594  0.58089056  0.59940902  1
  O2-  O203  1  0.54944207  0.58373227  0.93785412  1
  O2-  O204  1  0.17292035  0.20916886  0.26448859  1
  O2-  O205  1  0.16571853  0.21526866  0.59990486  1
  O2-  O206  1  0.16515212  0.20502844  0.93839361  1
  O2-  O207  1  0.16993587  0.70261635  0.27050662  1
  O2-  O208  1  0.17287224  0.69293175  0.59926258  1
  O2-  O209  1  0.16707720  0.70449129  0.93406266  1
  O2-  O210  1  0.66500322  0.19761953  0.27733050  1
  O2-  O211  1  0.66337864  0.20588137  0.59943439  1
  O2-  O212  1  0.67320254  0.20234591  0.93044346  1
  O2-  O213  1  0.66435778  0.71079001  0.26103735  1
  O2-  O214  1  0.66913819  0.70620140  0.60019382  1
  O2-  O215  1  0.66485219  0.70609656  0.93973219  1
  O2-  O216  1  0.08481803  0.45632036  0.07054973  1
  O2-  O217  1  0.08172856  0.45612297  0.40347331  1
  O2-  O218  1  0.08588400  0.45273698  0.72647044  1
  O2-  O219  1  0.08699810  0.95946235  0.06292849  1
  O2-  O220  1  0.08624516  0.95816850  0.39100120  1
  O2-  O221  1  0.07961510  0.96063095  0.73493252  1
  O2-  O222  1  0.57729103  0.45156978  0.06350979  1
  O2-  O223  1  0.58112668  0.45820447  0.40092066  1
  O2-  O224  1  0.57941262  0.44991353  0.72730493  1
  O2-  O225  1  0.58716263  0.96383965  0.06338041  1
  O2-  O226  1  0.58537163  0.96189080  0.40229149  1
  O2-  O227  1  0.58541312  0.96352540  0.73478326  1
  O2-  O228  1  0.21331798  0.33121632  0.06894936  1
  O2-  O229  1  0.21594965  0.33467018  0.40345763  1
  O2-  O230  1  0.21263536  0.34103319  0.72853639  1
  O2-  O231  1  0.20603739  0.83667644  0.06272347  1
  O2-  O232  1  0.20436250  0.83738766  0.39352896  1
  O2-  O233  1  0.20168601  0.82527539  0.73101675  1
  O2-  O234  1  0.70831657  0.32830231  0.06436066  1
  O2-  O235  1  0.70615502  0.32967299  0.40183221  1
  O2-  O236  1  0.69835630  0.33120975  0.72847835  1
  O2-  O237  1  0.70132040  0.83920636  0.06293445  1
  O2-  O238  1  0.71133631  0.83097474  0.39727135  1
  O2-  O239  1  0.70937879  0.83287894  0.73657790  1
  O2-  O240  1  0.45380280  0.41341448  0.27248388  1
  O2-  O241  1  0.45408624  0.41128519  0.59980796  1
  O2-  O242  1  0.44949473  0.42226408  0.93175660  1
  O2-  O243  1  0.45522955  0.91751791  0.27176535  1
  O2-  O244  1  0.45173442  0.92674313  0.60290055  1
  O2-  O245  1  0.46004285  0.91655306  0.93273203  1
  O2-  O246  1  0.95449674  0.42214149  0.26680716  1
  O2-  O247  1  0.95351620  0.41378758  0.60445874  1
  O2-  O248  1  0.95717388  0.41257950  0.94074490  1
  O2-  O249  1  0.95877316  0.91565290  0.26332049  1
  O2-  O250  1  0.95091882  0.92118118  0.59985100  1
  O2-  O251  1  0.95679211  0.92093799  0.93096060  1
  O2-  O252  1  0.34078315  0.28875818  0.27170621  1
  O2-  O253  1  0.33792930  0.28940720  0.60095914  1
  O2-  O254  1  0.33222302  0.28690944  0.93058249  1
  O2-  O255  1  0.33360439  0.79958430  0.27040735  1
  O2-  O256  1  0.33059050  0.79531987  0.59700145  1
  O2-  O257  1  0.33226458  0.79312860  0.93336007  1
  O2-  O258  1  0.83005163  0.29036281  0.26441018  1
  O2-  O259  1  0.83095752  0.29899104  0.60717368  1
  O2-  O260  1  0.84096878  0.28892252  0.93577952  1
  O2-  O261  1  0.83453579  0.78820496  0.26305315  1
  O2-  O262  1  0.83217916  0.78575966  0.59966566  1
  O2-  O263  1  0.82565467  0.79911419  0.93527064  1
  O2-  O264  1  0.41340302  0.04082192  0.06377783  1
  O2-  O265  1  0.41152449  0.04280800  0.39787583  1
  O2-  O266  1  0.42046059  0.05273036  0.73745926  1
  O2-  O267  1  0.41633281  0.55139224  0.06112799  1
  O2-  O268  1  0.41428609  0.54232753  0.39829117  1
  O2-  O269  1  0.41091435  0.53552656  0.73115097  1
  O2-  O270  1  0.91552779  0.04350186  0.06539283  1
  O2-  O271  1  0.92015073  0.04728202  0.39167615  1
  O2-  O272  1  0.91719529  0.05404371  0.72680354  1
  O2-  O273  1  0.91747108  0.54268673  0.07273468  1
  O2-  O274  1  0.91581692  0.55007364  0.39646904  1
  O2-  O275  1  0.91428354  0.53493752  0.73648955  1
  O2-  O276  1  0.29257750  0.16017806  0.06579313  1
  O2-  O277  1  0.29516399  0.16242921  0.39536010  1
  O2-  O278  1  0.28634461  0.16986484  0.73839446  1
  O2-  O279  1  0.29443577  0.66702169  0.06440455  1
  O2-  O280  1  0.30234151  0.66901341  0.39608044  1
  O2-  O281  1  0.30246957  0.66457035  0.72493848  1
  O2-  O282  1  0.79555032  0.16210936  0.06469036  1
  O2-  O283  1  0.79890672  0.16393593  0.39747573  1
  O2-  O284  1  0.79263208  0.16711180  0.73184368  1
  O2-  O285  1  0.79206891  0.67244868  0.07097544  1
  O2-  O286  1  0.79014942  0.66440772  0.39600146  1
  O2-  O287  1  0.78816402  0.66321859  0.73663245  1
