# generated using pymatgen
data_Ca2Al2SiO7
_symmetry_space_group_name_H-M   'P 1'
_cell_length_a   15.45181624
_cell_length_b   15.45233258
_cell_length_c   15.27925416
_cell_angle_alpha   89.99163273
_cell_angle_beta   90.00839869
_cell_angle_gamma   90.00613762
_symmetry_Int_Tables_number   1
_chemical_formula_structural   Ca2Al2SiO7
_chemical_formula_sum   'Ca48 Al48 Si24 O168'
_cell_volume   3648.17552175
_cell_formula_units_Z   24
loop_
 _symmetry_equiv_pos_site_id
 _symmetry_equiv_pos_as_xyz
  1  'x, y, z'
loop_
 _atom_type_symbol
 _atom_type_oxidation_number
  Ca2+  2.0
  Al0+  0.0
  Si0+  0.0
  O2-  -2.0
loop_
 _atom_site_type_symbol
 _atom_site_label
 _atom_site_symmetry_multiplicity
 _atom_site_fract_x
 _atom_site_fract_y
 _atom_site_fract_z
 _atom_site_occupancy
  Ca2+  Ca0  1  0.16277707  0.07342570  0.17145812  1
  Ca2+  Ca1  1  0.17175162  0.08213318  0.51243205  1
  Ca2+  Ca2  1  0.16784352  0.07412635  0.83622088  1
  Ca2+  Ca3  1  0.17532629  0.59130862  0.17027666  1
  Ca2+  Ca4  1  0.16989405  0.58387175  0.50382782  1
  Ca2+  Ca5  1  0.16656919  0.58435030  0.83827289  1
  Ca2+  Ca6  1  0.67415201  0.08344680  0.17118941  1
  Ca2+  Ca7  1  0.66672686  0.08196850  0.50142134  1
  Ca2+  Ca8  1  0.66995701  0.08951901  0.84220780  1
  Ca2+  Ca9  1  0.67432757  0.58948912  0.16981547  1
  Ca2+  Ca10  1  0.67364702  0.57813395  0.50553149  1
  Ca2+  Ca11  1  0.66774986  0.57201803  0.84593635  1
  Ca2+  Ca12  1  0.08198789  0.32506253  0.16604971  1
  Ca2+  Ca13  1  0.09413661  0.32155045  0.49684574  1
  Ca2+  Ca14  1  0.08130970  0.33040295  0.82331301  1
  Ca2+  Ca15  1  0.08530024  0.82154661  0.15957722  1
  Ca2+  Ca16  1  0.08916247  0.82339062  0.49686966  1
  Ca2+  Ca17  1  0.09207152  0.82571385  0.83168547  1
  Ca2+  Ca18  1  0.58261990  0.33349730  0.16075446  1
  Ca2+  Ca19  1  0.58128412  0.33028630  0.49884298  1
  Ca2+  Ca20  1  0.59095521  0.32667958  0.82927449  1
  Ca2+  Ca21  1  0.57300887  0.83295842  0.15953988  1
  Ca2+  Ca22  1  0.57530940  0.83581953  0.48993260  1
  Ca2+  Ca23  1  0.57927793  0.82752045  0.83301380  1
  Ca2+  Ca24  1  0.34018880  0.43031311  0.17148035  1
  Ca2+  Ca25  1  0.33136379  0.42063342  0.50263682  1
  Ca2+  Ca26  1  0.32456553  0.42136120  0.83727625  1
  Ca2+  Ca27  1  0.33072017  0.90714116  0.16772546  1
  Ca2+  Ca28  1  0.32914951  0.92248602  0.50728300  1
  Ca2+  Ca29  1  0.32489944  0.91639246  0.83534088  1
  Ca2+  Ca30  1  0.82692876  0.42669338  0.16599896  1
  Ca2+  Ca31  1  0.83132381  0.42098916  0.50238177  1
  Ca2+  Ca32  1  0.82294688  0.41953977  0.84102363  1
  Ca2+  Ca33  1  0.82532855  0.92572190  0.17472300  1
  Ca2+  Ca34  1  0.82865744  0.91928753  0.49674439  1
  Ca2+  Ca35  1  0.83347054  0.92546928  0.84068367  1
  Ca2+  Ca36  1  0.42377199  0.17691666  0.16080793  1
  Ca2+  Ca37  1  0.41690977  0.17215219  0.49561689  1
  Ca2+  Ca38  1  0.42859381  0.16218789  0.82666972  1
  Ca2+  Ca39  1  0.41511236  0.67435378  0.15763590  1
  Ca2+  Ca40  1  0.41461248  0.67358448  0.48955724  1
  Ca2+  Ca41  1  0.41363045  0.66809093  0.83996741  1
  Ca2+  Ca42  1  0.91475236  0.16016583  0.16502945  1
  Ca2+  Ca43  1  0.92863044  0.16425788  0.49425003  1
  Ca2+  Ca44  1  0.91980775  0.16729614  0.82770980  1
  Ca2+  Ca45  1  0.92451014  0.65764648  0.16118468  1
  Ca2+  Ca46  1  0.92860418  0.66149501  0.49371686  1
  Ca2+  Ca47  1  0.92594222  0.66231937  0.83046857  1
  Al0+  Al48  1  0.00107786  -0.00184036  0.00837775  1
  Al0+  Al49  1  -0.00052494  -0.00228473  0.33437102  1
  Al0+  Al50  1  -0.00133832  -0.00135759  0.66599074  1
  Al0+  Al51  1  -0.00085465  0.49646246  -0.00162886  1
  Al0+  Al52  1  0.00029184  0.49627507  0.33285032  1
  Al0+  Al53  1  0.00101030  0.50124521  0.66484350  1
  Al0+  Al54  1  0.49794937  0.00204729  -0.00926607  1
  Al0+  Al55  1  0.49829573  0.00049608  0.33114098  1
  Al0+  Al56  1  0.50138352  0.00004524  0.66554857  1
  Al0+  Al57  1  0.49669093  0.49965854  0.00289649  1
  Al0+  Al58  1  0.49957540  0.50063246  0.33588787  1
  Al0+  Al59  1  0.50173016  0.50045202  0.67097808  1
  Al0+  Al60  1  0.24993187  0.24836871  -0.00082774  1
  Al0+  Al61  1  0.25053202  0.24933036  0.32057784  1
  Al0+  Al62  1  0.25229519  0.25199515  0.67294410  1
  Al0+  Al63  1  0.24818880  0.75014746  -0.00163947  1
  Al0+  Al64  1  0.25047597  0.74895429  0.33104173  1
  Al0+  Al65  1  0.25044006  0.75123329  0.66467979  1
  Al0+  Al66  1  0.75084643  0.25151468  0.00567660  1
  Al0+  Al67  1  0.75258095  0.24983683  0.33849172  1
  Al0+  Al68  1  0.74958603  0.25077470  0.66273080  1
  Al0+  Al69  1  0.75044379  0.75126695  -0.00107268  1
  Al0+  Al70  1  0.75123818  0.75018437  0.34458049  1
  Al0+  Al71  1  0.75066412  0.75139557  0.66660832  1
  Al0+  Al72  1  0.67755255  0.42947672  0.01629860  1
  Al0+  Al73  1  0.57171306  0.17898085  0.65094285  1
  Al0+  Al74  1  0.82236634  0.07183472  0.35213831  1
  Al0+  Al75  1  0.32321148  0.07271216  0.68152786  1
  Al0+  Al76  1  0.07167341  0.17945056  0.65604948  1
  Al0+  Al77  1  0.42971556  0.32246705  0.31960592  1
  Al0+  Al78  1  0.06923369  0.67807368  0.31893308  1
  Al0+  Al79  1  0.17789419  0.92870204  0.68087695  1
  Al0+  Al80  1  0.82031468  0.07068996  0.01254435  1
  Al0+  Al81  1  0.57120935  0.18309253  0.98763189  1
  Al0+  Al82  1  0.42976808  0.82135171  0.32027708  1
  Al0+  Al83  1  0.07061091  0.68017495  0.65150325  1
  Al0+  Al84  1  0.06833642  0.67828867  0.98593568  1
  Al0+  Al85  1  0.82330682  0.57040247  0.34877842  1
  Al0+  Al86  1  0.07045217  0.17677625  0.31870982  1
  Al0+  Al87  1  0.17912050  0.42979228  0.67856022  1
  Al0+  Al88  1  0.67595220  0.93032582  0.34789816  1
  Al0+  Al89  1  0.68012340  0.42962547  0.68037381  1
  Al0+  Al90  1  0.82195711  0.57299915  0.01342918  1
  Al0+  Al91  1  0.18182437  0.93030177  0.01600290  1
  Al0+  Al92  1  0.32025244  0.57152771  0.34715702  1
  Al0+  Al93  1  0.42742317  0.82135097  0.98163387  1
  Al0+  Al94  1  0.57298323  0.67790683  0.98594118  1
  Al0+  Al95  1  0.31650950  0.56914622  0.01325456  1
  Si0+  Si96  1  0.57289282  0.17914072  0.31739620  1
  Si0+  Si97  1  0.92640453  0.32086705  0.31512216  1
  Si0+  Si98  1  0.93032022  0.31854220  0.98487005  1
  Si0+  Si99  1  0.32251885  0.57364730  0.68329137  1
  Si0+  Si100  1  0.67795674  0.92804906  0.68325569  1
  Si0+  Si101  1  0.07091777  0.17579564  0.98480898  1
  Si0+  Si102  1  0.82248165  0.57321435  0.68361981  1
  Si0+  Si103  1  0.57406671  0.67828543  0.32049599  1
  Si0+  Si104  1  0.18033988  0.92832112  0.34821775  1
  Si0+  Si105  1  0.32425905  0.07320269  0.01840009  1
  Si0+  Si106  1  0.42564655  0.32355420  0.98094813  1
  Si0+  Si107  1  0.17947242  0.42556439  0.34750267  1
  Si0+  Si108  1  0.43121122  0.81922529  0.65037366  1
  Si0+  Si109  1  0.92826370  0.82443516  0.98497980  1
  Si0+  Si110  1  0.92826552  0.32191207  0.64936362  1
  Si0+  Si111  1  0.92466469  0.82316205  0.64791597  1
  Si0+  Si112  1  0.81949941  0.07005337  0.68071588  1
  Si0+  Si113  1  0.67507874  0.92821953  0.01364852  1
  Si0+  Si114  1  0.42855820  0.32422732  0.65144566  1
  Si0+  Si115  1  0.57267156  0.67753265  0.65141633  1
  Si0+  Si116  1  0.92626208  0.82065556  0.31677800  1
  Si0+  Si117  1  0.67728227  0.42819015  0.35163639  1
  Si0+  Si118  1  0.31912340  0.07324371  0.34524461  1
  Si0+  Si119  1  0.17566231  0.42378494  0.01799869  1
  O2-  O120  1  0.25677924  0.00425736  0.06411081  1
  O2-  O121  1  0.24866186  0.00243686  0.38935575  1
  O2-  O122  1  0.24783669  0.00325137  0.73035602  1
  O2-  O123  1  0.24384905  0.49287832  0.06145277  1
  O2-  O124  1  0.24574539  0.49612476  0.39273635  1
  O2-  O125  1  0.25211026  0.50569624  0.72571400  1
  O2-  O126  1  0.74406428  -0.00326607  0.05750183  1
  O2-  O127  1  0.74666483  0.00277374  0.40062510  1
  O2-  O128  1  0.74823906  0.00016351  0.72457462  1
  O2-  O129  1  0.74338724  0.50835964  0.06434201  1
  O2-  O130  1  0.74635303  0.49734873  0.39501860  1
  O2-  O131  1  0.75311391  0.50551113  0.72730240  1
  O2-  O132  1  -0.00730409  0.24874099  0.27199709  1
  O2-  O133  1  0.00041233  0.25608196  0.60616183  1
  O2-  O134  1  0.00221306  0.24839644  0.94207651  1
  O2-  O135  1  -0.00810523  0.74975583  0.27165550  1
  O2-  O136  1  -0.00512670  0.75461721  0.60562191  1
  O2-  O137  1  -0.00905567  0.75072018  0.93956193  1
  O2-  O138  1  0.50800992  0.25113628  0.27330123  1
  O2-  O139  1  0.49515554  0.25321211  0.60679525  1
  O2-  O140  1  0.49610591  0.25613216  0.93779044  1
  O2-  O141  1  0.50675869  0.74792338  0.27615211  1
  O2-  O142  1  0.50147850  0.74753978  0.60765088  1
  O2-  O143  1  0.50200635  0.75026531  0.93336524  1
  O2-  O144  1  0.06966549  0.17668048  0.08997431  1
  O2-  O145  1  0.07381182  0.17902611  0.43208202  1
  O2-  O146  1  0.06625999  0.17958411  0.76929368  1
  O2-  O147  1  0.06893499  0.67993041  0.09907597  1
  O2-  O148  1  0.07087204  0.68050642  0.43236872  1
  O2-  O149  1  0.06948289  0.67980187  0.76457575  1
  O2-  O150  1  0.57047099  0.18395368  0.10087675  1
  O2-  O151  1  0.56973966  0.17908195  0.42323093  1
  O2-  O152  1  0.57472451  0.18049852  0.76398327  1
  O2-  O153  1  0.57323968  0.68146519  0.09970093  1
  O2-  O154  1  0.57094059  0.67864106  0.42685621  1
  O2-  O155  1  0.57337665  0.67882205  0.75605203  1
  O2-  O156  1  0.17999379  0.42517088  0.24196739  1
  O2-  O157  1  0.18217369  0.42840722  0.56537105  1
  O2-  O158  1  0.17589273  0.42259610  0.91208448  1
  O2-  O159  1  0.18158611  0.92803573  0.24311536  1
  O2-  O160  1  0.18196644  0.92782710  0.56673888  1
  O2-  O161  1  0.18036730  0.93233166  0.90303023  1
  O2-  O162  1  0.67756552  0.42792252  0.24640909  1
  O2-  O163  1  0.68071521  0.43181828  0.56707347  1
  O2-  O164  1  0.68332960  0.42588568  0.90258952  1
  O2-  O165  1  0.67600152  0.93177550  0.23421462  1
  O2-  O166  1  0.67730528  0.92723271  0.57842011  1
  O2-  O167  1  0.67778125  0.92950060  0.90746766  1
  O2-  O168  1  0.42474557  0.32107339  0.08675019  1
  O2-  O169  1  0.42780589  0.31960139  0.43302116  1
  O2-  O170  1  0.43031221  0.32599193  0.75673749  1
  O2-  O171  1  0.42841687  0.81992448  0.09544323  1
  O2-  O172  1  0.42867673  0.82070996  0.43407766  1
  O2-  O173  1  0.43175409  0.81847233  0.75506125  1
  O2-  O174  1  0.93142721  0.31863941  0.08986613  1
  O2-  O175  1  0.92738938  0.32219610  0.42080678  1
  O2-  O176  1  0.92665397  0.31924746  0.75528103  1
  O2-  O177  1  0.93160413  0.82751628  0.09027893  1
  O2-  O178  1  0.92960373  0.82128808  0.42264298  1
  O2-  O179  1  0.91985060  0.82334518  0.75336814  1
  O2-  O180  1  0.31813686  0.07285951  0.24033532  1
  O2-  O181  1  0.32279342  0.07122099  0.56692552  1
  O2-  O182  1  0.32163175  0.07444188  0.91295539  1
  O2-  O183  1  0.31954448  0.57255513  0.23441786  1
  O2-  O184  1  0.32333433  0.57379028  0.57740873  1
  O2-  O185  1  0.31376264  0.56753783  0.89968318  1
  O2-  O186  1  0.82022397  0.06969511  0.23844432  1
  O2-  O187  1  0.81935100  0.06829899  0.57604623  1
  O2-  O188  1  0.82115202  0.07056926  0.89868538  1
  O2-  O189  1  0.82255732  0.56927690  0.23602475  1
  O2-  O190  1  0.82143579  0.57175141  0.57772913  1
  O2-  O191  1  0.82476673  0.56666878  0.89979925  1
  O2-  O192  1  0.04057762  0.07906010  0.26605874  1
  O2-  O193  1  0.03979357  0.08312523  0.60167347  1
  O2-  O194  1  0.04033229  0.08412081  0.93948569  1
  O2-  O195  1  0.04283547  0.57915935  0.26773224  1
  O2-  O196  1  0.04099598  0.58314259  0.59661071  1
  O2-  O197  1  0.04142285  0.57950513  0.93306041  1
  O2-  O198  1  0.54412976  0.08729652  0.27038439  1
  O2-  O199  1  0.54290995  0.08133295  0.59751943  1
  O2-  O200  1  0.54314381  0.08704674  0.93036813  1
  O2-  O201  1  0.54969072  0.58450729  0.27563309  1
  O2-  O202  1  0.54609959  0.58501729  0.60465044  1
  O2-  O203  1  0.54140181  0.57913640  0.93440917  1
  O2-  O204  1  0.16357978  0.20930659  0.25903859  1
  O2-  O205  1  0.17019321  0.20950237  0.60465341  1
  O2-  O206  1  0.16412811  0.20085847  0.93877815  1
  O2-  O207  1  0.16432417  0.71366809  0.26549104  1
  O2-  O208  1  0.16761886  0.71166717  0.59727414  1
  O2-  O209  1  0.16263214  0.71338122  0.93109289  1
  O2-  O210  1  0.66912260  0.20158309  0.27567657  1
  O2-  O211  1  0.66680465  0.21214195  0.59480200  1
  O2-  O212  1  0.66886812  0.21445548  0.93488595  1
  O2-  O213  1  0.66960186  0.70240187  0.27864078  1
  O2-  O214  1  0.66505486  0.70560846  0.60450969  1
  O2-  O215  1  0.67213924  0.70401658  0.93118366  1
  O2-  O216  1  0.08153450  0.44728481  0.06267107  1
  O2-  O217  1  0.08494380  0.44601591  0.39325346  1
  O2-  O218  1  0.08131001  0.45799980  0.73240973  1
  O2-  O219  1  0.08686036  0.96159431  0.07316428  1
  O2-  O220  1  0.08719664  0.95147700  0.39422308  1
  O2-  O221  1  0.07767855  0.95259469  0.73244420  1
  O2-  O222  1  0.57602205  0.44806632  0.06527501  1
  O2-  O223  1  0.58430029  0.45352060  0.39915119  1
  O2-  O224  1  0.58373709  0.45806311  0.73579149  1
  O2-  O225  1  0.58052099  0.95486006  0.05630396  1
  O2-  O226  1  0.57713794  0.95943684  0.40175732  1
  O2-  O227  1  0.58633913  0.95453805  0.73041272  1
  O2-  O228  1  0.20101866  0.32943915  0.06332225  1
  O2-  O229  1  0.21018414  0.33193895  0.39141772  1
  O2-  O230  1  0.20912203  0.33560181  0.73771571  1
  O2-  O231  1  0.21244580  0.83364650  0.06912513  1
  O2-  O232  1  0.21241661  0.83817702  0.39590748  1
  O2-  O233  1  0.21163001  0.83163341  0.73385708  1
  O2-  O234  1  0.71479073  0.33571048  0.07276169  1
  O2-  O235  1  0.70391125  0.33493286  0.39833416  1
  O2-  O236  1  0.71337526  0.33270424  0.73252242  1
  O2-  O237  1  0.69901236  0.83491612  0.06010083  1
  O2-  O238  1  0.70425633  0.83350694  0.40555044  1
  O2-  O239  1  0.70680911  0.83633539  0.73092989  1
  O2-  O240  1  0.45921577  0.42004906  0.26664237  1
  O2-  O241  1  0.45677429  0.41750928  0.60460681  1
  O2-  O242  1  0.44669461  0.41805352  0.93623362  1
  O2-  O243  1  0.45621211  0.91857600  0.26487397  1
  O2-  O244  1  0.46049236  0.91077728  0.60311275  1
  O2-  O245  1  0.45189762  0.92017816  0.92758363  1
  O2-  O246  1  0.95566679  0.41218968  0.26666223  1
  O2-  O247  1  0.95044000  0.41674517  0.60478591  1
  O2-  O248  1  0.95721229  0.40883524  0.93387213  1
  O2-  O249  1  0.95316600  0.91373787  0.27061242  1
  O2-  O250  1  0.94944418  0.91667566  0.60139249  1
  O2-  O251  1  0.96076073  0.91604584  0.93726125  1
  O2-  O252  1  0.33711897  0.28960133  0.25965332  1
  O2-  O253  1  0.33441395  0.30026076  0.60587945  1
  O2-  O254  1  0.33163219  0.29624141  0.93517684  1
  O2-  O255  1  0.33499945  0.78725076  0.26554078  1
  O2-  O256  1  0.33936726  0.79254240  0.60228315  1
  O2-  O257  1  0.33098963  0.78716149  0.92839581  1
  O2-  O258  1  0.83192590  0.29710217  0.26967257  1
  O2-  O259  1  0.83712418  0.29286741  0.60041058  1
  O2-  O260  1  0.83920060  0.28853183  0.93758118  1
  O2-  O261  1  0.83017922  0.79864262  0.27501145  1
  O2-  O262  1  0.83145166  0.79705145  0.59968610  1
  O2-  O263  1  0.83262172  0.80746887  0.93941010  1
  O2-  O264  1  0.41930369  0.04958618  0.06184990  1
  O2-  O265  1  0.41123382  0.04694188  0.39256707  1
  O2-  O266  1  0.42082031  0.03958265  0.73373487  1
  O2-  O267  1  0.41335833  0.54185888  0.06845256  1
  O2-  O268  1  0.41699729  0.54253624  0.40267775  1
  O2-  O269  1  0.41551462  0.54770577  0.73003860  1
  O2-  O270  1  0.91510445  0.03949320  0.06923270  1
  O2-  O271  1  0.92021418  0.03878530  0.40463938  1
  O2-  O272  1  0.91067103  0.04192841  0.72935067  1
  O2-  O273  1  0.91772757  0.53502496  0.06683262  1
  O2-  O274  1  0.91874369  0.53452628  0.40331178  1
  O2-  O275  1  0.91630358  0.54713344  0.72788311  1
  O2-  O276  1  0.29784097  0.16726210  0.06389313  1
  O2-  O277  1  0.29008513  0.16534909  0.39133135  1
  O2-  O278  1  0.30119227  0.17149483  0.73553709  1
  O2-  O279  1  0.28400878  0.66522674  0.06627143  1
  O2-  O280  1  0.28699440  0.66715358  0.40242884  1
  O2-  O281  1  0.29609721  0.66696893  0.72830640  1
  O2-  O282  1  0.79057706  0.16571456  0.06897194  1
  O2-  O283  1  0.79939630  0.17160632  0.40494691  1
  O2-  O284  1  0.79259475  0.16299896  0.72599505  1
  O2-  O285  1  0.80260057  0.67461548  0.06417954  1
  O2-  O286  1  0.79695604  0.66625685  0.40655271  1
  O2-  O287  1  0.79882330  0.66806736  0.72766170  1
