# generated using pymatgen
data_Ca2Al2SiO7
_symmetry_space_group_name_H-M   'P 1'
_cell_length_a   15.45500628
_cell_length_b   15.45543270
_cell_length_c   15.28205934
_cell_angle_alpha   89.98707124
_cell_angle_beta   89.99353954
_cell_angle_gamma   89.99874439
_symmetry_Int_Tables_number   1
_chemical_formula_structural   Ca2Al2SiO7
_chemical_formula_sum   'Ca48 Al48 Si24 O168'
_cell_volume   3650.33079290
_cell_formula_units_Z   24
loop_
 _symmetry_equiv_pos_site_id
 _symmetry_equiv_pos_as_xyz
  1  'x, y, z'
loop_
 _atom_type_symbol
 _atom_type_oxidation_number
  Ca2+  2.0
  Al0+  0.0
  Si0+  0.0
  O2-  -2.0
loop_
 _atom_site_type_symbol
 _atom_site_label
 _atom_site_symmetry_multiplicity
 _atom_site_fract_x
 _atom_site_fract_y
 _atom_site_fract_z
 _atom_site_occupancy
  Ca2+  Ca0  1  0.16933215  0.08100432  0.17641567  1
  Ca2+  Ca1  1  0.16243411  0.07291900  0.49935598  1
  Ca2+  Ca2  1  0.16082909  0.07414619  0.83817629  1
  Ca2+  Ca3  1  0.17918959  0.58334723  0.17344445  1
  Ca2+  Ca4  1  0.17376143  0.59483412  0.50357543  1
  Ca2+  Ca5  1  0.17618602  0.58430075  0.83816132  1
  Ca2+  Ca6  1  0.66981187  0.08701425  0.17233633  1
  Ca2+  Ca7  1  0.67076092  0.08447134  0.50552005  1
  Ca2+  Ca8  1  0.67964133  0.08078802  0.83788839  1
  Ca2+  Ca9  1  0.66601392  0.58053452  0.17868712  1
  Ca2+  Ca10  1  0.67555022  0.58431633  0.49838138  1
  Ca2+  Ca11  1  0.67231608  0.59220402  0.83562986  1
  Ca2+  Ca12  1  0.08585816  0.32535607  0.16219318  1
  Ca2+  Ca13  1  0.07465688  0.32703176  0.48786803  1
  Ca2+  Ca14  1  0.09205714  0.32670441  0.83418737  1
  Ca2+  Ca15  1  0.08915067  0.82908978  0.17028385  1
  Ca2+  Ca16  1  0.08410242  0.82831070  0.50027645  1
  Ca2+  Ca17  1  0.08102966  0.82712644  0.82134046  1
  Ca2+  Ca18  1  0.57971619  0.33276005  0.16654207  1
  Ca2+  Ca19  1  0.58612930  0.32913558  0.49094604  1
  Ca2+  Ca20  1  0.57661781  0.33618535  0.83504335  1
  Ca2+  Ca21  1  0.57539473  0.82045984  0.15946650  1
  Ca2+  Ca22  1  0.57617523  0.82779465  0.49422987  1
  Ca2+  Ca23  1  0.56997658  0.83014603  0.83174424  1
  Ca2+  Ca24  1  0.33339082  0.42185399  0.16752329  1
  Ca2+  Ca25  1  0.33414440  0.43150173  0.50278687  1
  Ca2+  Ca26  1  0.32997431  0.42723990  0.84364339  1
  Ca2+  Ca27  1  0.32989505  0.92043235  0.17637391  1
  Ca2+  Ca28  1  0.32183449  0.91498981  0.50332010  1
  Ca2+  Ca29  1  0.32971515  0.90785093  0.83422531  1
  Ca2+  Ca30  1  0.82658030  0.42065685  0.17831061  1
  Ca2+  Ca31  1  0.83393179  0.42392686  0.49765570  1
  Ca2+  Ca32  1  0.83304381  0.42477877  0.83430786  1
  Ca2+  Ca33  1  0.83319421  0.92293232  0.16851343  1
  Ca2+  Ca34  1  0.83508644  0.92139579  0.50822754  1
  Ca2+  Ca35  1  0.84278777  0.92577516  0.83578362  1
  Ca2+  Ca36  1  0.41837916  0.16933403  0.16305201  1
  Ca2+  Ca37  1  0.42187411  0.16721257  0.48956038  1
  Ca2+  Ca38  1  0.41171036  0.17732076  0.83132291  1
  Ca2+  Ca39  1  0.42416273  0.66083288  0.16022388  1
  Ca2+  Ca40  1  0.41327980  0.66983939  0.49471909  1
  Ca2+  Ca41  1  0.41289033  0.67105250  0.83029646  1
  Ca2+  Ca42  1  0.92603061  0.17083209  0.16336103  1
  Ca2+  Ca43  1  0.91851740  0.17173255  0.49033984  1
  Ca2+  Ca44  1  0.91810255  0.16228921  0.83155159  1
  Ca2+  Ca45  1  0.92203395  0.66171115  0.16791389  1
  Ca2+  Ca46  1  0.92518834  0.66252694  0.49431039  1
  Ca2+  Ca47  1  0.92404968  0.67179081  0.81905940  1
  Al0+  Al48  1  0.00038013  0.00134245  0.00342739  1
  Al0+  Al49  1  -0.00051926  -0.00044261  0.33326172  1
  Al0+  Al50  1  0.00097026  -0.00069907  0.67063157  1
  Al0+  Al51  1  -0.00038333  0.49757059  0.00262148  1
  Al0+  Al52  1  -0.00020413  0.50128089  0.32656107  1
  Al0+  Al53  1  -0.00040400  0.49696303  0.66766526  1
  Al0+  Al54  1  0.50156718  -0.00214780  -0.00512005  1
  Al0+  Al55  1  0.50080357  0.00132409  0.33201354  1
  Al0+  Al56  1  0.49965226  0.00101711  0.66402873  1
  Al0+  Al57  1  0.50282873  0.49907726  -0.00618749  1
  Al0+  Al58  1  0.50032051  0.49950769  0.33972301  1
  Al0+  Al59  1  0.49954035  0.49907430  0.67030818  1
  Al0+  Al60  1  0.24934217  0.24818112  -0.00625582  1
  Al0+  Al61  1  0.25072129  0.25040496  0.33495052  1
  Al0+  Al62  1  0.25087760  0.25038523  0.66223612  1
  Al0+  Al63  1  0.24969895  0.74932007  0.00217651  1
  Al0+  Al64  1  0.24741646  0.75198811  0.33614748  1
  Al0+  Al65  1  0.25067689  0.75102076  0.66814404  1
  Al0+  Al66  1  0.75297417  0.25109503  0.00322052  1
  Al0+  Al67  1  0.74849017  0.25107218  0.32844482  1
  Al0+  Al68  1  0.74990447  0.24938781  0.67320980  1
  Al0+  Al69  1  0.75026188  0.75258604  -0.00340776  1
  Al0+  Al70  1  0.74945746  0.75110262  0.33284965  1
  Al0+  Al71  1  0.74776244  0.75126145  0.66816724  1
  Al0+  Al72  1  0.17888535  0.42626396  0.01556643  1
  Al0+  Al73  1  0.92840575  0.32213657  0.31698873  1
  Al0+  Al74  1  0.67869239  0.42812453  0.34843924  1
  Al0+  Al75  1  0.82134753  0.07071091  0.01745167  1
  Al0+  Al76  1  0.57001071  0.67899120  0.32223898  1
  Al0+  Al77  1  0.07176274  0.68019100  0.31816332  1
  Al0+  Al78  1  0.06970678  0.17908129  0.98448583  1
  Al0+  Al79  1  0.32046717  0.57002669  0.34710613  1
  Al0+  Al80  1  0.31952676  0.57077863  0.68174012  1
  Al0+  Al81  1  0.17766566  0.92989455  0.34993901  1
  Al0+  Al82  1  0.82268026  0.57328196  0.34705496  1
  Al0+  Al83  1  0.18150348  0.93155411  0.68237724  1
  Al0+  Al84  1  0.42999876  0.31891980  0.98658155  1
  Al0+  Al85  1  0.06998646  0.67722081  0.65278498  1
  Al0+  Al86  1  0.42929637  0.82065146  0.65029725  1
  Al0+  Al87  1  0.57261053  0.67741883  0.98352171  1
  Al0+  Al88  1  0.32322716  0.07326854  0.34754007  1
  Al0+  Al89  1  0.32158795  0.57116507  0.01600842  1
  Al0+  Al90  1  0.82122724  0.57129220  0.68003190  1
  Al0+  Al91  1  0.82007639  0.06959374  0.67973182  1
  Al0+  Al92  1  0.07164242  0.17787118  0.31879549  1
  Al0+  Al93  1  0.57043953  0.17803176  0.31996434  1
  Al0+  Al94  1  0.92738632  0.82269236  0.65251015  1
  Al0+  Al95  1  0.42665379  0.82099092  0.98550151  1
  Si0+  Si96  1  0.93068923  0.82117288  0.98634177  1
  Si0+  Si97  1  0.06992268  0.67739883  0.98626872  1
  Si0+  Si98  1  0.57204899  0.67594784  0.64804783  1
  Si0+  Si99  1  0.92683358  0.31944443  0.65266030  1
  Si0+  Si100  1  0.67840625  0.92857537  0.34767464  1
  Si0+  Si101  1  0.42865388  0.32211298  0.64990707  1
  Si0+  Si102  1  0.81907046  0.07031170  0.34700199  1
  Si0+  Si103  1  0.57528067  0.17714940  0.98206674  1
  Si0+  Si104  1  0.17937948  0.92905373  0.01536248  1
  Si0+  Si105  1  0.07097691  0.17860295  0.65153630  1
  Si0+  Si106  1  0.42753954  0.82139659  0.31780651  1
  Si0+  Si107  1  0.67872381  0.42715434  0.68596385  1
  Si0+  Si108  1  0.92625078  0.82287313  0.31565523  1
  Si0+  Si109  1  0.17689083  0.42763542  0.34921400  1
  Si0+  Si110  1  0.17759867  0.42429320  0.68209500  1
  Si0+  Si111  1  0.42793532  0.32299693  0.31854714  1
  Si0+  Si112  1  0.57135693  0.18171363  0.65376536  1
  Si0+  Si113  1  0.67414496  0.92783993  0.68412366  1
  Si0+  Si114  1  0.68025430  0.42986859  0.01475855  1
  Si0+  Si115  1  0.82117076  0.57373297  0.01416469  1
  Si0+  Si116  1  0.32261729  0.07069968  0.01131368  1
  Si0+  Si117  1  0.32380638  0.07406618  0.68402609  1
  Si0+  Si118  1  0.92694698  0.32252572  0.98038180  1
  Si0+  Si119  1  0.67744891  0.92859178  0.01782376  1
  O2-  O120  1  0.25540194  -0.00354375  0.05394518  1
  O2-  O121  1  0.25004878  0.00304312  0.39823736  1
  O2-  O122  1  0.25585205  0.00622637  0.73047715  1
  O2-  O123  1  0.24908880  0.49948783  0.06599412  1
  O2-  O124  1  0.24348568  0.49755313  0.39481204  1
  O2-  O125  1  0.24345314  0.49590709  0.72574998  1
  O2-  O126  1  0.74326076  -0.00061072  0.06375700  1
  O2-  O127  1  0.74881878  -0.00015192  0.39081062  1
  O2-  O128  1  0.74872718  -0.00853506  0.72724023  1
  O2-  O129  1  0.74865943  0.50403633  0.05537769  1
  O2-  O130  1  0.75128468  0.50029175  0.39682115  1
  O2-  O131  1  0.74406599  0.49977398  0.72927412  1
  O2-  O132  1  0.00298868  0.25230690  0.26761138  1
  O2-  O133  1  -0.00003666  0.25021112  0.61101561  1
  O2-  O134  1  -0.00322119  0.25502791  0.93572748  1
  O2-  O135  1  -0.00546181  0.75333365  0.27180422  1
  O2-  O136  1  -0.00634882  0.74548695  0.60303577  1
  O2-  O137  1  -0.00218907  0.74704714  0.94393133  1
  O2-  O138  1  0.49301206  0.25031426  0.27473425  1
  O2-  O139  1  0.49965783  0.25055917  0.60939506  1
  O2-  O140  1  0.50404009  0.24307093  0.93761825  1
  O2-  O141  1  0.49309218  0.75008976  0.27353833  1
  O2-  O142  1  0.50311830  0.74469914  0.60412586  1
  O2-  O143  1  0.49650256  0.74633676  0.93552167  1
  O2-  O144  1  0.06908864  0.17736884  0.09685290  1
  O2-  O145  1  0.06626574  0.17768992  0.43303979  1
  O2-  O146  1  0.07128153  0.17915218  0.75683310  1
  O2-  O147  1  0.06981368  0.67971756  0.09125628  1
  O2-  O148  1  0.07212591  0.68149301  0.43087020  1
  O2-  O149  1  0.06951672  0.67894258  0.76737792  1
  O2-  O150  1  0.57463136  0.17815588  0.08749367  1
  O2-  O151  1  0.57243866  0.17920131  0.43367764  1
  O2-  O152  1  0.57145867  0.18392118  0.75888651  1
  O2-  O153  1  0.57404585  0.67827852  0.09731338  1
  O2-  O154  1  0.57081909  0.68299160  0.43516988  1
  O2-  O155  1  0.57172679  0.67707309  0.75369664  1
  O2-  O156  1  0.18054656  0.42702944  0.24381051  1
  O2-  O157  1  0.18021504  0.41881178  0.57685002  1
  O2-  O158  1  0.18053340  0.42839696  0.90144723  1
  O2-  O159  1  0.18001173  0.92975036  0.23554708  1
  O2-  O160  1  0.17979988  0.93371067  0.57006744  1
  O2-  O161  1  0.17628189  0.92963206  0.91023796  1
  O2-  O162  1  0.67739372  0.42936004  0.23445792  1
  O2-  O163  1  0.68020550  0.42212788  0.58106160  1
  O2-  O164  1  0.68294483  0.42706469  0.90937422  1
  O2-  O165  1  0.67964100  0.92909852  0.24258870  1
  O2-  O166  1  0.67155058  0.93241898  0.57833001  1
  O2-  O167  1  0.67907081  0.92964281  0.91226192  1
  O2-  O168  1  0.43190281  0.31718718  0.09949660  1
  O2-  O169  1  0.43043336  0.32291231  0.42457392  1
  O2-  O170  1  0.42813211  0.32083642  0.75509343  1
  O2-  O171  1  0.42901293  0.82477119  0.09889295  1
  O2-  O172  1  0.43009324  0.82153137  0.42360128  1
  O2-  O173  1  0.43060863  0.82030150  0.76328890  1
  O2-  O174  1  0.92460161  0.32104952  0.08525426  1
  O2-  O175  1  0.92815928  0.31832697  0.43162972  1
  O2-  O176  1  0.92530557  0.31869806  0.75780013  1
  O2-  O177  1  0.93034065  0.82119853  0.09143623  1
  O2-  O178  1  0.92461885  0.82556091  0.42079356  1
  O2-  O179  1  0.93273296  0.82317597  0.76688248  1
  O2-  O180  1  0.32475441  0.07024777  0.23315925  1
  O2-  O181  1  0.32359425  0.07520530  0.57892350  1
  O2-  O182  1  0.32013785  0.07170939  0.90607027  1
  O2-  O183  1  0.32299059  0.56778505  0.23433351  1
  O2-  O184  1  0.32043664  0.56926452  0.56854134  1
  O2-  O185  1  0.31821988  0.57192715  0.90223209  1
  O2-  O186  1  0.81825012  0.06781422  0.24189640  1
  O2-  O187  1  0.81657082  0.07312676  0.56649284  1
  O2-  O188  1  0.82148203  0.06781109  0.90404624  1
  O2-  O189  1  0.81872503  0.57358356  0.23285240  1
  O2-  O190  1  0.82233238  0.56783361  0.56775562  1
  O2-  O191  1  0.82195764  0.57249549  0.90876700  1
  O2-  O192  1  0.04057810  0.08028163  0.26566827  1
  O2-  O193  1  0.04134110  0.08730168  0.60586417  1
  O2-  O194  1  0.03471100  0.08265205  0.93109494  1
  O2-  O195  1  0.04392979  0.58440307  0.26147332  1
  O2-  O196  1  0.04677376  0.57614765  0.60237028  1
  O2-  O197  1  0.04336876  0.58474603  0.94017001  1
  O2-  O198  1  0.54384448  0.08124732  0.26324680  1
  O2-  O199  1  0.54691478  0.08942849  0.60602688  1
  O2-  O200  1  0.55442582  0.08249351  0.93654969  1
  O2-  O201  1  0.54127025  0.58075726  0.27072712  1
  O2-  O202  1  0.54772072  0.58048031  0.60568944  1
  O2-  O203  1  0.55240907  0.57816115  0.92937143  1
  O2-  O204  1  0.17230249  0.20294006  0.26852992  1
  O2-  O205  1  0.16303778  0.20520347  0.60387898  1
  O2-  O206  1  0.16561640  0.20658236  0.92708376  1
  O2-  O207  1  0.16696028  0.71543598  0.26282121  1
  O2-  O208  1  0.16685285  0.71160383  0.60172300  1
  O2-  O209  1  0.16140595  0.70687505  0.93972758  1
  O2-  O210  1  0.66449769  0.21042646  0.26264636  1
  O2-  O211  1  0.66313474  0.21140784  0.60689097  1
  O2-  O212  1  0.66821775  0.20783461  0.93694491  1
  O2-  O213  1  0.66562726  0.71168053  0.26710516  1
  O2-  O214  1  0.66586804  0.70212825  0.60316223  1
  O2-  O215  1  0.66975468  0.71205920  0.92927278  1
  O2-  O216  1  0.07826158  0.44960903  0.06636227  1
  O2-  O217  1  0.08170296  0.45105788  0.39192121  1
  O2-  O218  1  0.08247766  0.44333051  0.72752184  1
  O2-  O219  1  0.08996904  0.96105412  0.06427509  1
  O2-  O220  1  0.07865434  0.95829810  0.40239704  1
  O2-  O221  1  0.08574874  0.96318676  0.73838077  1
  O2-  O222  1  0.58738341  0.45395388  0.06063790  1
  O2-  O223  1  0.58207406  0.45504071  0.40509864  1
  O2-  O224  1  0.58385086  0.44949735  0.73111625  1
  O2-  O225  1  0.58263704  0.95141956  0.06274128  1
  O2-  O226  1  0.58723111  0.95673178  0.39579307  1
  O2-  O227  1  0.58376112  0.96149370  0.73265054  1
  O2-  O228  1  0.20938704  0.32684492  0.06507612  1
  O2-  O229  1  0.20152128  0.33439931  0.39694482  1
  O2-  O230  1  0.20823390  0.33194058  0.72977915  1
  O2-  O231  1  0.20345348  0.83661449  0.06303588  1
  O2-  O232  1  0.20694867  0.83298538  0.40452202  1
  O2-  O233  1  0.21263991  0.83551278  0.73691842  1
  O2-  O234  1  0.70961037  0.33902302  0.06317365  1
  O2-  O235  1  0.70835905  0.32918380  0.40081191  1
  O2-  O236  1  0.70844668  0.33626847  0.73628320  1
  O2-  O237  1  0.70758874  0.83593802  0.06400086  1
  O2-  O238  1  0.70642746  0.83824686  0.39720806  1
  O2-  O239  1  0.69191543  0.83248370  0.72887905  1
  O2-  O240  1  0.45884949  0.41441837  0.27188666  1
  O2-  O241  1  0.45787575  0.41370116  0.60342113  1
  O2-  O242  1  0.46355529  0.41293978  0.92889917  1
  O2-  O243  1  0.45681880  0.91386408  0.27183479  1
  O2-  O244  1  0.45969049  0.91856925  0.59763822  1
  O2-  O245  1  0.45708737  0.91831143  0.92877599  1
  O2-  O246  1  0.95157969  0.42077909  0.26305725  1
  O2-  O247  1  0.95276310  0.41104117  0.60468534  1
  O2-  O248  1  0.95090228  0.41739297  0.93486793  1
  O2-  O249  1  0.95390197  0.91549430  0.26798229  1
  O2-  O250  1  0.95990491  0.92040869  0.60009399  1
  O2-  O251  1  0.96281790  0.91200330  0.93986183  1
  O2-  O252  1  0.33349138  0.30178931  0.27309411  1
  O2-  O253  1  0.33750609  0.29493779  0.60081346  1
  O2-  O254  1  0.33544136  0.28719858  0.92862998  1
  O2-  O255  1  0.33251313  0.80020324  0.27446220  1
  O2-  O256  1  0.33288491  0.78964891  0.59754185  1
  O2-  O257  1  0.32709623  0.79399992  0.93312365  1
  O2-  O258  1  0.83150760  0.29108356  0.26296114  1
  O2-  O259  1  0.83547390  0.28822977  0.60647562  1
  O2-  O260  1  0.83396020  0.29469028  0.93327236  1
  O2-  O261  1  0.83297208  0.79868905  0.26771491  1
  O2-  O262  1  0.82455199  0.80472047  0.60492155  1
  O2-  O263  1  0.83784503  0.79961787  0.93826077  1
  O2-  O264  1  0.41731335  0.04808549  0.05576367  1
  O2-  O265  1  0.42243426  0.04523812  0.40028871  1
  O2-  O266  1  0.41842099  0.05097859  0.72918613  1
  O2-  O267  1  0.42236303  0.54066227  0.06246466  1
  O2-  O268  1  0.41470337  0.53811677  0.40469144  1
  O2-  O269  1  0.41609146  0.53820403  0.73540062  1
  O2-  O270  1  0.91604701  0.03518296  0.07196082  1
  O2-  O271  1  0.91053900  0.04298822  0.39460337  1
  O2-  O272  1  0.91646369  0.04106135  0.73547266  1
  O2-  O273  1  0.91230104  0.54444827  0.06179518  1
  O2-  O274  1  0.92199370  0.54452319  0.39768774  1
  O2-  O275  1  0.91661010  0.53689713  0.73608489  1
  O2-  O276  1  0.29204793  0.16103929  0.05872745  1
  O2-  O277  1  0.29988187  0.17295545  0.40096470  1
  O2-  O278  1  0.29702330  0.16879167  0.72824097  1
  O2-  O279  1  0.29264267  0.66944885  0.06948763  1
  O2-  O280  1  0.28982479  0.66725276  0.39934466  1
  O2-  O281  1  0.28893732  0.66672131  0.73595610  1
  O2-  O282  1  0.79337727  0.16870647  0.06932348  1
  O2-  O283  1  0.79028930  0.16223430  0.39255254  1
  O2-  O284  1  0.78592289  0.16374970  0.73787364  1
  O2-  O285  1  0.79689250  0.66742570  0.05901994  1
  O2-  O286  1  0.79381271  0.67175265  0.39997551  1
  O2-  O287  1  0.79276519  0.66929133  0.73419512  1
