# generated using pymatgen
data_Ca2Al2SiO7
_symmetry_space_group_name_H-M   'P 1'
_cell_length_a   15.46933294
_cell_length_b   15.46883843
_cell_length_c   15.28988062
_cell_angle_alpha   89.99215307
_cell_angle_beta   89.98892775
_cell_angle_gamma   90.00892104
_symmetry_Int_Tables_number   1
_chemical_formula_structural   Ca2Al2SiO7
_chemical_formula_sum   'Ca48 Al48 Si24 O168'
_cell_volume   3658.75532227
_cell_formula_units_Z   24
loop_
 _symmetry_equiv_pos_site_id
 _symmetry_equiv_pos_as_xyz
  1  'x, y, z'
loop_
 _atom_type_symbol
 _atom_type_oxidation_number
  Ca2+  2.0
  Al0+  0.0
  Si0+  0.0
  O2-  -2.0
loop_
 _atom_site_type_symbol
 _atom_site_label
 _atom_site_symmetry_multiplicity
 _atom_site_fract_x
 _atom_site_fract_y
 _atom_site_fract_z
 _atom_site_occupancy
  Ca2+  Ca0  1  0.16736072  0.08807833  0.16945208  1
  Ca2+  Ca1  1  0.15988614  0.07955049  0.50513301  1
  Ca2+  Ca2  1  0.16310944  0.07965506  0.83861342  1
  Ca2+  Ca3  1  0.17288125  0.58034093  0.17906114  1
  Ca2+  Ca4  1  0.17294539  0.58557403  0.49604645  1
  Ca2+  Ca5  1  0.17813888  0.58699246  0.83769759  1
  Ca2+  Ca6  1  0.67812661  0.08689238  0.17531522  1
  Ca2+  Ca7  1  0.67167192  0.08027829  0.49895565  1
  Ca2+  Ca8  1  0.67311828  0.07493451  0.84009366  1
  Ca2+  Ca9  1  0.67714127  0.57332446  0.17151817  1
  Ca2+  Ca10  1  0.67011382  0.58030772  0.49536106  1
  Ca2+  Ca11  1  0.67365138  0.57683466  0.84355868  1
  Ca2+  Ca12  1  0.08356948  0.32826681  0.16718576  1
  Ca2+  Ca13  1  0.08269046  0.32339268  0.48757275  1
  Ca2+  Ca14  1  0.08579186  0.31942645  0.83015277  1
  Ca2+  Ca15  1  0.07773252  0.82641512  0.17208828  1
  Ca2+  Ca16  1  0.07581316  0.83118702  0.49379940  1
  Ca2+  Ca17  1  0.07706086  0.83461069  0.82582923  1
  Ca2+  Ca18  1  0.58583573  0.33745408  0.16889717  1
  Ca2+  Ca19  1  0.57882710  0.32982622  0.48611844  1
  Ca2+  Ca20  1  0.58400594  0.33577296  0.83288982  1
  Ca2+  Ca21  1  0.57044370  0.83288828  0.16396373  1
  Ca2+  Ca22  1  0.57737146  0.83435474  0.49251294  1
  Ca2+  Ca23  1  0.57798527  0.83557742  0.82997281  1
  Ca2+  Ca24  1  0.33000044  0.42642835  0.17851029  1
  Ca2+  Ca25  1  0.33112297  0.42216472  0.49732820  1
  Ca2+  Ca26  1  0.33293688  0.42834314  0.83919727  1
  Ca2+  Ca27  1  0.33803543  0.91918369  0.17048263  1
  Ca2+  Ca28  1  0.32572423  0.91588607  0.50353090  1
  Ca2+  Ca29  1  0.32510578  0.92164150  0.84101324  1
  Ca2+  Ca30  1  0.82801553  0.41912418  0.17893585  1
  Ca2+  Ca31  1  0.83555765  0.41550332  0.49300954  1
  Ca2+  Ca32  1  0.82554101  0.42108565  0.84532561  1
  Ca2+  Ca33  1  0.84069606  0.92803376  0.17354308  1
  Ca2+  Ca34  1  0.83865230  0.91980375  0.50301551  1
  Ca2+  Ca35  1  0.82972348  0.91697702  0.83639461  1
  Ca2+  Ca36  1  0.42146752  0.17175933  0.16546672  1
  Ca2+  Ca37  1  0.42634126  0.17308444  0.48606735  1
  Ca2+  Ca38  1  0.41524705  0.16535756  0.83258332  1
  Ca2+  Ca39  1  0.40677518  0.67458828  0.16236173  1
  Ca2+  Ca40  1  0.41206520  0.66959839  0.49140783  1
  Ca2+  Ca41  1  0.41206231  0.66782428  0.83232050  1
  Ca2+  Ca42  1  0.92241173  0.16684755  0.16627030  1
  Ca2+  Ca43  1  0.92667843  0.16850572  0.48840140  1
  Ca2+  Ca44  1  0.92556875  0.15961519  0.83228361  1
  Ca2+  Ca45  1  0.91742559  0.65958820  0.16593227  1
  Ca2+  Ca46  1  0.91891207  0.67783859  0.48653083  1
  Ca2+  Ca47  1  0.91409338  0.67108279  0.82622787  1
  Al0+  Al48  1  -0.00047794  -0.00246100  -0.00058967  1
  Al0+  Al49  1  0.00129217  -0.00110024  0.33031268  1
  Al0+  Al50  1  0.00056325  -0.00040909  0.66470079  1
  Al0+  Al51  1  0.00115664  0.49891135  -0.00268930  1
  Al0+  Al52  1  0.00156484  0.49914004  0.33575427  1
  Al0+  Al53  1  0.00191608  0.49889719  0.66749323  1
  Al0+  Al54  1  0.49729161  0.00025506  -0.00274839  1
  Al0+  Al55  1  0.50060277  0.00053204  0.32619473  1
  Al0+  Al56  1  0.50101437  -0.00001473  0.66934092  1
  Al0+  Al57  1  0.49958136  0.50150855  0.00598927  1
  Al0+  Al58  1  0.50164290  0.50177043  0.33725344  1
  Al0+  Al59  1  0.50104724  0.50176350  0.67068134  1
  Al0+  Al60  1  0.25087998  0.24819304  -0.00312247  1
  Al0+  Al61  1  0.25379467  0.25085611  0.33040255  1
  Al0+  Al62  1  0.25150446  0.25212083  0.66251221  1
  Al0+  Al63  1  0.24743395  0.75204645  -0.00231729  1
  Al0+  Al64  1  0.24791901  0.75265816  0.32979607  1
  Al0+  Al65  1  0.24959203  0.75193616  0.67550743  1
  Al0+  Al66  1  0.74879687  0.24746232  0.00389670  1
  Al0+  Al67  1  0.75235177  0.24757643  0.33725236  1
  Al0+  Al68  1  0.75008918  0.25007133  0.66806170  1
  Al0+  Al69  1  0.74691660  0.74842544  0.00285735  1
  Al0+  Al70  1  0.74706577  0.75277447  0.33093766  1
  Al0+  Al71  1  0.74758211  0.75071158  0.66643939  1
  Al0+  Al72  1  0.93006039  0.32069163  0.31913359  1
  Al0+  Al73  1  0.07045562  0.17886251  0.98478776  1
  Al0+  Al74  1  0.32046283  0.07096626  0.01428384  1
  Al0+  Al75  1  0.07053028  0.18014020  0.65290220  1
  Al0+  Al76  1  0.42819999  0.81954011  0.32141691  1
  Al0+  Al77  1  0.67761065  0.92816031  0.68027185  1
  Al0+  Al78  1  0.17854535  0.93156109  0.68011743  1
  Al0+  Al79  1  0.82344164  0.57156807  0.01355485  1
  Al0+  Al80  1  0.06918728  0.67874028  0.31987271  1
  Al0+  Al81  1  0.42737791  0.82183106  0.98263130  1
  Al0+  Al82  1  0.82299391  0.06869185  0.34850676  1
  Al0+  Al83  1  0.57248401  0.17909528  0.31784138  1
  Al0+  Al84  1  0.67882209  0.42740583  0.01553077  1
  Al0+  Al85  1  0.07366461  0.17739931  0.31757442  1
  Al0+  Al86  1  0.68054449  0.42814059  0.35065210  1
  Al0+  Al87  1  0.92600803  0.82145138  0.31735236  1
  Al0+  Al88  1  0.82124792  0.06717456  0.01354347  1
  Al0+  Al89  1  0.32045410  0.57451452  0.34798001  1
  Al0+  Al90  1  0.82281144  0.57352092  0.34942945  1
  Al0+  Al91  1  0.17922950  0.42657204  0.34851633  1
  Al0+  Al92  1  0.92774327  0.81831518  0.65395869  1
  Al0+  Al93  1  0.43057573  0.32405163  0.31784074  1
  Al0+  Al94  1  0.31814868  0.57213520  0.01472978  1
  Al0+  Al95  1  0.32041140  0.57007357  0.68166843  1
  Si0+  Si96  1  0.92749487  0.81857601  0.98480389  1
  Si0+  Si97  1  0.42830612  0.82120805  0.65280015  1
  Si0+  Si98  1  0.07420337  0.67761153  0.65152722  1
  Si0+  Si99  1  0.57184983  0.17868395  0.98273553  1
  Si0+  Si100  1  0.67568108  0.92737837  0.01735859  1
  Si0+  Si101  1  0.82131920  0.07105996  0.68342329  1
  Si0+  Si102  1  0.67523888  0.92984047  0.34846806  1
  Si0+  Si103  1  0.82143422  0.57163766  0.67925973  1
  Si0+  Si104  1  0.57285492  0.67747861  0.31544068  1
  Si0+  Si105  1  0.17908605  0.42623727  0.01446917  1
  Si0+  Si106  1  0.32377354  0.07093373  0.34717241  1
  Si0+  Si107  1  0.18048136  0.93129120  0.34780273  1
  Si0+  Si108  1  0.92626654  0.32112709  0.98307894  1
  Si0+  Si109  1  0.43217770  0.32376101  0.65310058  1
  Si0+  Si110  1  0.07045301  0.67715341  0.98328797  1
  Si0+  Si111  1  0.17686163  0.92852118  0.01911410  1
  Si0+  Si112  1  0.56967261  0.67868243  0.98201000  1
  Si0+  Si113  1  0.17789658  0.42540631  0.68520909  1
  Si0+  Si114  1  0.68006464  0.42916026  0.68192615  1
  Si0+  Si115  1  0.32301423  0.07372484  0.68098253  1
  Si0+  Si116  1  0.56973206  0.67881010  0.65174544  1
  Si0+  Si117  1  0.92599147  0.32337194  0.65113258  1
  Si0+  Si118  1  0.57124197  0.17832755  0.65324511  1
  Si0+  Si119  1  0.43017911  0.32214084  0.98387652  1
  O2-  O120  1  0.24649343  -0.00336749  0.06214695  1
  O2-  O121  1  0.24975478  0.00416066  0.39056649  1
  O2-  O122  1  0.25149529  0.00860486  0.72593626  1
  O2-  O123  1  0.24361831  0.49774578  0.05937532  1
  O2-  O124  1  0.25056236  0.50042417  0.39797107  1
  O2-  O125  1  0.24404741  0.49693635  0.72911559  1
  O2-  O126  1  0.74584998  -0.00624722  0.06110543  1
  O2-  O127  1  0.74867762  -0.00745476  0.39401993  1
  O2-  O128  1  0.75250170  0.00227787  0.72764508  1
  O2-  O129  1  0.75679544  0.49441492  0.06194578  1
  O2-  O130  1  0.75244138  0.50042374  0.40124564  1
  O2-  O131  1  0.75548447  0.49614573  0.72254450  1
  O2-  O132  1  0.00325807  0.25082352  0.26813589  1
  O2-  O133  1  -0.00353806  0.25596561  0.60874560  1
  O2-  O134  1  -0.00508434  0.25291505  0.93725288  1
  O2-  O135  1  -0.00953171  0.74245710  0.26771355  1
  O2-  O136  1  0.00090866  0.74166997  0.60874357  1
  O2-  O137  1  -0.00585586  0.74348329  0.94183824  1
  O2-  O138  1  0.50416489  0.25407594  0.26712081  1
  O2-  O139  1  0.49993311  0.24916016  0.61193682  1
  O2-  O140  1  0.50204387  0.25161268  0.94016336  1
  O2-  O141  1  0.49934626  0.74239147  0.27338508  1
  O2-  O142  1  0.49832778  0.74992609  0.60998668  1
  O2-  O143  1  0.50164202  0.74683719  0.93480323  1
  O2-  O144  1  0.07128283  0.18013057  0.09663821  1
  O2-  O145  1  0.07128385  0.17587441  0.43160469  1
  O2-  O146  1  0.06922255  0.17987928  0.76646026  1
  O2-  O147  1  0.07312861  0.67825617  0.08759260  1
  O2-  O148  1  0.07327827  0.68592350  0.43373127  1
  O2-  O149  1  0.07308780  0.67895274  0.75775378  1
  O2-  O150  1  0.57132389  0.17639406  0.08687314  1
  O2-  O151  1  0.56801982  0.17637254  0.43251917  1
  O2-  O152  1  0.57156214  0.17913000  0.75863202  1
  O2-  O153  1  0.56984067  0.68074758  0.08682838  1
  O2-  O154  1  0.57409622  0.68069024  0.42181570  1
  O2-  O155  1  0.56978976  0.67761056  0.75680308  1
  O2-  O156  1  0.18210981  0.42684359  0.23457954  1
  O2-  O157  1  0.17932925  0.42227677  0.58060367  1
  O2-  O158  1  0.18200242  0.42683048  0.90815340  1
  O2-  O159  1  0.18183995  0.93021630  0.24282411  1
  O2-  O160  1  0.18141154  0.92980310  0.56714327  1
  O2-  O161  1  0.17615346  0.92971982  0.91288832  1
  O2-  O162  1  0.68127129  0.43006696  0.23754234  1
  O2-  O163  1  0.67656959  0.42856491  0.57782709  1
  O2-  O164  1  0.67887532  0.43002194  0.90030657  1
  O2-  O165  1  0.67165479  0.93344621  0.24313849  1
  O2-  O166  1  0.67275750  0.93077578  0.56806623  1
  O2-  O167  1  0.67715385  0.92868757  0.91096634  1
  O2-  O168  1  0.42977346  0.32137624  0.08801843  1
  O2-  O169  1  0.43110705  0.31950064  0.43259257  1
  O2-  O170  1  0.43416733  0.32438807  0.75870818  1
  O2-  O171  1  0.42907500  0.82138756  0.09536021  1
  O2-  O172  1  0.42933555  0.82127495  0.43536120  1
  O2-  O173  1  0.43001529  0.82089717  0.75772951  1
  O2-  O174  1  0.92706747  0.32170434  0.08769079  1
  O2-  O175  1  0.93114747  0.31651699  0.43344603  1
  O2-  O176  1  0.92339689  0.32330295  0.75693014  1
  O2-  O177  1  0.92996049  0.82061580  0.08910627  1
  O2-  O178  1  0.93112063  0.82342914  0.43125353  1
  O2-  O179  1  0.92785469  0.81634733  0.76796850  1
  O2-  O180  1  0.32515700  0.06776577  0.24225751  1
  O2-  O181  1  0.32653002  0.07098177  0.57564532  1
  O2-  O182  1  0.31918085  0.07039436  0.90041079  1
  O2-  O183  1  0.31658026  0.57584144  0.23460344  1
  O2-  O184  1  0.32188459  0.57053651  0.56953435  1
  O2-  O185  1  0.31804582  0.56978223  0.90087093  1
  O2-  O186  1  0.82288684  0.06676701  0.23536381  1
  O2-  O187  1  0.82009186  0.07129731  0.57833778  1
  O2-  O188  1  0.81986579  0.06435233  0.89958103  1
  O2-  O189  1  0.81918435  0.57179093  0.23616796  1
  O2-  O190  1  0.81877710  0.57329375  0.57505539  1
  O2-  O191  1  0.82010713  0.57190523  0.89849101  1
  O2-  O192  1  0.04420846  0.08013615  0.26430646  1
  O2-  O193  1  0.04015561  0.08367595  0.59961562  1
  O2-  O194  1  0.03778967  0.08115558  0.93171331  1
  O2-  O195  1  0.05062197  0.57819656  0.26895634  1
  O2-  O196  1  0.05576988  0.58105547  0.60912516  1
  O2-  O197  1  0.05029879  0.58383030  0.93384908  1
  O2-  O198  1  0.53979126  0.08395727  0.26160058  1
  O2-  O199  1  0.54336453  0.08664738  0.60601985  1
  O2-  O200  1  0.54088607  0.08822682  0.93331443  1
  O2-  O201  1  0.55231595  0.58263721  0.27215083  1
  O2-  O202  1  0.54141836  0.58709162  0.60456952  1
  O2-  O203  1  0.54322040  0.58456333  0.93611364  1
  O2-  O204  1  0.17333316  0.20261907  0.26709011  1
  O2-  O205  1  0.16908325  0.20710083  0.60040778  1
  O2-  O206  1  0.16720161  0.20957584  0.92885822  1
  O2-  O207  1  0.16304340  0.71686368  0.26364644  1
  O2-  O208  1  0.16666149  0.70956494  0.60776491  1
  O2-  O209  1  0.15907960  0.71190345  0.93297319  1
  O2-  O210  1  0.67240510  0.20305285  0.26885695  1
  O2-  O211  1  0.66366725  0.20559511  0.60710423  1
  O2-  O212  1  0.66393722  0.20465080  0.93359071  1
  O2-  O213  1  0.66316093  0.70739465  0.26593842  1
  O2-  O214  1  0.66045380  0.70718902  0.60343958  1
  O2-  O215  1  0.66373873  0.70448737  0.93458407  1
  O2-  O216  1  0.08340463  0.44712574  0.05654776  1
  O2-  O217  1  0.08134539  0.45173020  0.40317083  1
  O2-  O218  1  0.08270437  0.44702475  0.73114212  1
  O2-  O219  1  0.08388648  0.95435969  0.06448903  1
  O2-  O220  1  0.08911647  0.95816475  0.39595210  1
  O2-  O221  1  0.08190223  0.96114936  0.73568109  1
  O2-  O222  1  0.58270723  0.45973149  0.06850493  1
  O2-  O223  1  0.58256885  0.45795319  0.40494257  1
  O2-  O224  1  0.59078250  0.46158197  0.73210452  1
  O2-  O225  1  0.58202087  0.95502105  0.06012379  1
  O2-  O226  1  0.58370504  0.96158086  0.39670367  1
  O2-  O227  1  0.58230232  0.96059284  0.73756233  1
  O2-  O228  1  0.20750777  0.33379048  0.05902433  1
  O2-  O229  1  0.21222051  0.32886944  0.40221602  1
  O2-  O230  1  0.20857456  0.33324686  0.73293875  1
  O2-  O231  1  0.20260812  0.83494556  0.06335756  1
  O2-  O232  1  0.21112647  0.84144335  0.39672858  1
  O2-  O233  1  0.20969459  0.83735956  0.73890030  1
  O2-  O234  1  0.69889757  0.32676531  0.06498377  1
  O2-  O235  1  0.70798851  0.32971730  0.40441842  1
  O2-  O236  1  0.70405121  0.33607160  0.73026771  1
  O2-  O237  1  0.69662012  0.83265077  0.06139934  1
  O2-  O238  1  0.69305888  0.83421894  0.39279005  1
  O2-  O239  1  0.70667978  0.83141057  0.73600148  1
  O2-  O240  1  0.45597942  0.42413025  0.26805217  1
  O2-  O241  1  0.46448821  0.41398890  0.60620905  1
  O2-  O242  1  0.45916134  0.41450335  0.93670598  1
  O2-  O243  1  0.46201740  0.91364393  0.26461640  1
  O2-  O244  1  0.45621654  0.91362911  0.60660680  1
  O2-  O245  1  0.45850650  0.91837298  0.92751533  1
  O2-  O246  1  0.95373676  0.42046562  0.26821981  1
  O2-  O247  1  0.94942208  0.41820530  0.60648301  1
  O2-  O248  1  0.95109282  0.41502153  0.93504635  1
  O2-  O249  1  0.96591075  0.91467233  0.26248526  1
  O2-  O250  1  0.95986427  0.91463250  0.60161736  1
  O2-  O251  1  0.95977378  0.90817847  0.93509032  1
  O2-  O252  1  0.33461800  0.29343941  0.26309091  1
  O2-  O253  1  0.33914066  0.30129523  0.60667955  1
  O2-  O254  1  0.33976008  0.29269102  0.93379399  1
  O2-  O255  1  0.33220843  0.79354315  0.26501349  1
  O2-  O256  1  0.33528559  0.79363222  0.60835857  1
  O2-  O257  1  0.32962771  0.79216670  0.92926527  1
  O2-  O258  1  0.83223513  0.29002064  0.26809680  1
  O2-  O259  1  0.83214261  0.29739437  0.60535025  1
  O2-  O260  1  0.83200984  0.29444330  0.93737495  1
  O2-  O261  1  0.82406944  0.80613613  0.26774161  1
  O2-  O262  1  0.83011817  0.79104078  0.60067024  1
  O2-  O263  1  0.83298003  0.79506731  0.93934721  1
  O2-  O264  1  0.41742372  0.04037597  0.06661248  1
  O2-  O265  1  0.41411172  0.03861868  0.39526022  1
  O2-  O266  1  0.41485209  0.04548896  0.72985656  1
  O2-  O267  1  0.41505259  0.54434282  0.06693015  1
  O2-  O268  1  0.42020691  0.55088736  0.39979609  1
  O2-  O269  1  0.41671666  0.53763013  0.73720236  1
  O2-  O270  1  0.91691581  0.03452738  0.06680496  1
  O2-  O271  1  0.91953352  0.03556834  0.40192995  1
  O2-  O272  1  0.91436304  0.04364486  0.72897476  1
  O2-  O273  1  0.92520279  0.55035447  0.06093925  1
  O2-  O274  1  0.92180821  0.54893281  0.40229485  1
  O2-  O275  1  0.91594355  0.55023254  0.72551264  1
  O2-  O276  1  0.29176324  0.16842145  0.06625875  1
  O2-  O277  1  0.30199230  0.16412105  0.39349295  1
  O2-  O278  1  0.30204909  0.16952072  0.72494223  1
  O2-  O279  1  0.28696724  0.66999374  0.06403902  1
  O2-  O280  1  0.28774075  0.67263840  0.40073774  1
  O2-  O281  1  0.29058005  0.66631178  0.73780769  1
  O2-  O282  1  0.79217210  0.16388452  0.06577143  1
  O2-  O283  1  0.79228186  0.16316054  0.40544700  1
  O2-  O284  1  0.79506764  0.16474950  0.73023242  1
  O2-  O285  1  0.79153465  0.66829763  0.06674369  1
  O2-  O286  1  0.79031536  0.67310786  0.39974586  1
  O2-  O287  1  0.78842287  0.66099579  0.72856139  1
