# generated using pymatgen
data_Ca2Al2SiO7
_symmetry_space_group_name_H-M   'P 1'
_cell_length_a   15.46268970
_cell_length_b   15.46101349
_cell_length_c   15.28606809
_cell_angle_alpha   90.00182131
_cell_angle_beta   90.00354512
_cell_angle_gamma   90.00514448
_symmetry_Int_Tables_number   1
_chemical_formula_structural   Ca2Al2SiO7
_chemical_formula_sum   'Ca48 Al48 Si24 O168'
_cell_volume   3654.42275748
_cell_formula_units_Z   24
loop_
 _symmetry_equiv_pos_site_id
 _symmetry_equiv_pos_as_xyz
  1  'x, y, z'
loop_
 _atom_type_symbol
 _atom_type_oxidation_number
  Ca2+  2.0
  Al0+  0.0
  Si0+  0.0
  O2-  -2.0
loop_
 _atom_site_type_symbol
 _atom_site_label
 _atom_site_symmetry_multiplicity
 _atom_site_fract_x
 _atom_site_fract_y
 _atom_site_fract_z
 _atom_site_occupancy
  Ca2+  Ca0  1  0.16157741  0.08002520  0.16841535  1
  Ca2+  Ca1  1  0.15863995  0.08079152  0.51011190  1
  Ca2+  Ca2  1  0.15905257  0.07436470  0.83405010  1
  Ca2+  Ca3  1  0.17367925  0.58363846  0.16664689  1
  Ca2+  Ca4  1  0.17532981  0.57454505  0.51144296  1
  Ca2+  Ca5  1  0.18041654  0.58398619  0.83616471  1
  Ca2+  Ca6  1  0.65885061  0.07980221  0.16853305  1
  Ca2+  Ca7  1  0.67344983  0.08309243  0.50558882  1
  Ca2+  Ca8  1  0.67008323  0.07846115  0.84086657  1
  Ca2+  Ca9  1  0.67643848  0.58014069  0.16895101  1
  Ca2+  Ca10  1  0.67112813  0.58568495  0.50709343  1
  Ca2+  Ca11  1  0.67231877  0.57582117  0.83328378  1
  Ca2+  Ca12  1  0.07743124  0.32860722  0.16081391  1
  Ca2+  Ca13  1  0.09013167  0.32287362  0.49884244  1
  Ca2+  Ca14  1  0.07874611  0.33157622  0.82618091  1
  Ca2+  Ca15  1  0.07068871  0.83369100  0.15885403  1
  Ca2+  Ca16  1  0.07315934  0.83478365  0.50011854  1
  Ca2+  Ca17  1  0.07620421  0.83581451  0.82781557  1
  Ca2+  Ca18  1  0.58586081  0.32310178  0.15480253  1
  Ca2+  Ca19  1  0.58132537  0.33542469  0.50131379  1
  Ca2+  Ca20  1  0.57658555  0.34630320  0.83099547  1
  Ca2+  Ca21  1  0.58768305  0.82681591  0.16083683  1
  Ca2+  Ca22  1  0.58616480  0.81853651  0.49677005  1
  Ca2+  Ca23  1  0.58688096  0.82611737  0.82790700  1
  Ca2+  Ca24  1  0.34017543  0.41740258  0.16143377  1
  Ca2+  Ca25  1  0.33014238  0.41791043  0.51244253  1
  Ca2+  Ca26  1  0.33556617  0.41950858  0.83329290  1
  Ca2+  Ca27  1  0.32486284  0.91667100  0.16822703  1
  Ca2+  Ca28  1  0.32412342  0.92181447  0.50930066  1
  Ca2+  Ca29  1  0.31778967  0.91306236  0.83954251  1
  Ca2+  Ca30  1  0.83468983  0.42303707  0.16853783  1
  Ca2+  Ca31  1  0.82570059  0.43112930  0.51160757  1
  Ca2+  Ca32  1  0.82498851  0.42277637  0.84442246  1
  Ca2+  Ca33  1  0.83110476  0.91083899  0.16551110  1
  Ca2+  Ca34  1  0.83948648  0.92013428  0.50736791  1
  Ca2+  Ca35  1  0.83538845  0.92056033  0.83653130  1
  Ca2+  Ca36  1  0.42803815  0.17289931  0.15720055  1
  Ca2+  Ca37  1  0.42227702  0.17466066  0.49574737  1
  Ca2+  Ca38  1  0.42396912  0.17737451  0.83037982  1
  Ca2+  Ca39  1  0.42371108  0.66186958  0.16134779  1
  Ca2+  Ca40  1  0.42858556  0.65747061  0.50126411  1
  Ca2+  Ca41  1  0.42182099  0.65786299  0.82530689  1
  Ca2+  Ca42  1  0.92157829  0.17317057  0.16151593  1
  Ca2+  Ca43  1  0.92500140  0.16479704  0.50049222  1
  Ca2+  Ca44  1  0.91638346  0.17207074  0.82838691  1
  Ca2+  Ca45  1  0.90812085  0.67260506  0.16141902  1
  Ca2+  Ca46  1  0.90483622  0.67699580  0.49694675  1
  Ca2+  Ca47  1  0.90172313  0.67728160  0.82995512  1
  Al0+  Al48  1  -0.00090720  -0.00226243  0.00214340  1
  Al0+  Al49  1  -0.00160111  -0.00054227  0.32481066  1
  Al0+  Al50  1  -0.00157945  0.00052383  0.66760890  1
  Al0+  Al51  1  0.00331409  0.50101464  -0.00023693  1
  Al0+  Al52  1  0.00133483  0.50180779  0.34018009  1
  Al0+  Al53  1  0.00025426  0.50326178  0.67294817  1
  Al0+  Al54  1  0.49879592  -0.00113267  -0.00019388  1
  Al0+  Al55  1  0.49746162  0.00005479  0.33348628  1
  Al0+  Al56  1  0.49919836  0.00020457  0.66512292  1
  Al0+  Al57  1  0.50146179  0.49909042  0.00527225  1
  Al0+  Al58  1  0.50012812  0.50066891  0.32817282  1
  Al0+  Al59  1  0.50135909  0.49990355  0.66224239  1
  Al0+  Al60  1  0.25255538  0.24881703  -0.00323058  1
  Al0+  Al61  1  0.25050385  0.24850499  0.32705561  1
  Al0+  Al62  1  0.25109267  0.24936770  0.66257333  1
  Al0+  Al63  1  0.24901984  0.74964203  0.01126369  1
  Al0+  Al64  1  0.24828797  0.75027828  0.33652449  1
  Al0+  Al65  1  0.24840694  0.75139022  0.67198365  1
  Al0+  Al66  1  0.75321329  0.24791553  -0.00331402  1
  Al0+  Al67  1  0.74961007  0.24939272  0.33161583  1
  Al0+  Al68  1  0.75002000  0.24981537  0.67291874  1
  Al0+  Al69  1  0.74976228  0.75203732  0.00202347  1
  Al0+  Al70  1  0.74772572  0.75026658  0.32866761  1
  Al0+  Al71  1  0.74783476  0.75142119  0.66048518  1
  Al0+  Al72  1  0.32161458  0.56952013  0.01531337  1
  Al0+  Al73  1  0.32123732  0.56976169  0.67960282  1
  Al0+  Al74  1  0.81994645  0.57193912  0.34874774  1
  Al0+  Al75  1  0.67803344  0.93046018  0.01324701  1
  Al0+  Al76  1  0.82248274  0.57170211  0.01525316  1
  Al0+  Al77  1  0.92933597  0.81812030  0.98397956  1
  Al0+  Al78  1  0.43143552  0.32218454  0.98249794  1
  Al0+  Al79  1  0.93076889  0.81888842  0.65331425  1
  Al0+  Al80  1  0.43162577  0.31947933  0.65171953  1
  Al0+  Al81  1  0.57179113  0.17856807  0.32079625  1
  Al0+  Al82  1  0.06785217  0.18178712  0.65542100  1
  Al0+  Al83  1  0.93076818  0.32321650  0.98667556  1
  Al0+  Al84  1  0.82070803  0.07014415  0.67928255  1
  Al0+  Al85  1  0.82115996  0.57580002  0.68124589  1
  Al0+  Al86  1  0.57308974  0.17570447  0.98283308  1
  Al0+  Al87  1  0.93011134  0.81878786  0.31800632  1
  Al0+  Al88  1  0.17752580  0.93008522  0.01683169  1
  Al0+  Al89  1  0.07078587  0.17934265  0.31854206  1
  Al0+  Al90  1  0.68003850  0.42924703  0.68061613  1
  Al0+  Al91  1  0.17794718  0.42505723  0.68147057  1
  Al0+  Al92  1  0.17898033  0.93136485  0.67947731  1
  Al0+  Al93  1  0.68051697  0.42722431  0.01679107  1
  Al0+  Al94  1  0.56891220  0.67986209  0.31622308  1
  Al0+  Al95  1  0.56830498  0.68089162  0.65393946  1
  Si0+  Si96  1  0.67724209  0.92959492  0.34857663  1
  Si0+  Si97  1  0.42397562  0.82441976  0.65113886  1
  Si0+  Si98  1  0.57457882  0.17446757  0.64937668  1
  Si0+  Si99  1  0.07469719  0.67632450  0.31732931  1
  Si0+  Si100  1  0.32450230  0.07305269  0.68321981  1
  Si0+  Si101  1  0.17872224  0.42508159  0.01726236  1
  Si0+  Si102  1  0.92537824  0.32581572  0.65117832  1
  Si0+  Si103  1  0.67759241  0.42634090  0.34962147  1
  Si0+  Si104  1  0.56962013  0.68090649  0.98513267  1
  Si0+  Si105  1  0.17666643  0.93084309  0.34959092  1
  Si0+  Si106  1  0.92909428  0.32440138  0.32042070  1
  Si0+  Si107  1  0.07617664  0.67745280  0.65049004  1
  Si0+  Si108  1  0.42818150  0.32152375  0.31513501  1
  Si0+  Si109  1  0.82279190  0.07118749  0.01887473  1
  Si0+  Si110  1  0.07564155  0.67848535  0.98339696  1
  Si0+  Si111  1  0.32137772  0.07200066  0.01754374  1
  Si0+  Si112  1  0.42507873  0.82241691  0.31700257  1
  Si0+  Si113  1  0.42566381  0.82008400  0.98674764  1
  Si0+  Si114  1  0.67645276  0.92853970  0.68011539  1
  Si0+  Si115  1  0.82140936  0.07093752  0.34702416  1
  Si0+  Si116  1  0.32196185  0.57104679  0.34891285  1
  Si0+  Si117  1  0.18039313  0.42729443  0.34718682  1
  Si0+  Si118  1  0.07174120  0.17757984  0.98328458  1
  Si0+  Si119  1  0.32008299  0.07093093  0.34863757  1
  O2-  O120  1  0.25096825  0.00592295  0.06406184  1
  O2-  O121  1  0.24754905  0.00187483  0.39212993  1
  O2-  O122  1  0.25689199  0.00284773  0.72646091  1
  O2-  O123  1  0.24779596  0.49348850  0.06226154  1
  O2-  O124  1  0.25170965  0.49854440  0.38910775  1
  O2-  O125  1  0.24787479  0.49973320  0.73022366  1
  O2-  O126  1  0.74928023  0.00721659  0.06283224  1
  O2-  O127  1  0.74838354  0.00134548  0.38930890  1
  O2-  O128  1  0.74123556  0.00000439  0.72435730  1
  O2-  O129  1  0.75479376  0.49662526  0.06727046  1
  O2-  O130  1  0.74601556  0.49535215  0.39354175  1
  O2-  O131  1  0.75813891  0.49534726  0.72941266  1
  O2-  O132  1  -0.00239271  0.25606428  0.27446910  1
  O2-  O133  1  -0.00250183  0.26019420  0.60621281  1
  O2-  O134  1  0.00634848  0.24899605  0.94012519  1
  O2-  O135  1  0.00330851  0.74166092  0.27275363  1
  O2-  O136  1  0.00217896  0.74084178  0.60614569  1
  O2-  O137  1  0.00249357  0.74162018  0.93841226  1
  O2-  O138  1  0.50046151  0.25568279  0.27354356  1
  O2-  O139  1  0.50645646  0.24410218  0.60570083  1
  O2-  O140  1  0.50671995  0.25301005  0.93314438  1
  O2-  O141  1  0.49235688  0.75384483  0.27077570  1
  O2-  O142  1  0.49237362  0.75567951  0.60693410  1
  O2-  O143  1  0.49644842  0.75020411  0.94301388  1
  O2-  O144  1  0.07013121  0.17850732  0.08956725  1
  O2-  O145  1  0.07045695  0.17825841  0.43153553  1
  O2-  O146  1  0.06510713  0.17934262  0.76807673  1
  O2-  O147  1  0.07801076  0.68179405  0.08951203  1
  O2-  O148  1  0.07988113  0.67875610  0.42247473  1
  O2-  O149  1  0.08400595  0.68276308  0.75527322  1
  O2-  O150  1  0.56778823  0.17492864  0.09707965  1
  O2-  O151  1  0.56971850  0.17728443  0.43385012  1
  O2-  O152  1  0.57172244  0.16778457  0.75389407  1
  O2-  O153  1  0.56839177  0.68334890  0.09060792  1
  O2-  O154  1  0.56757159  0.68036291  0.42934047  1
  O2-  O155  1  0.56825514  0.68312699  0.76709820  1
  O2-  O156  1  0.17981567  0.42767504  0.24217988  1
  O2-  O157  1  0.18252332  0.42453618  0.56667657  1
  O2-  O158  1  0.17869570  0.42475936  0.91237857  1
  O2-  O159  1  0.17857783  0.93123484  0.24467244  1
  O2-  O160  1  0.17878692  0.93388916  0.56558959  1
  O2-  O161  1  0.17796823  0.93092323  0.90388593  1
  O2-  O162  1  0.67913340  0.42490301  0.24444509  1
  O2-  O163  1  0.67958857  0.43052189  0.56621351  1
  O2-  O164  1  0.67834661  0.43299570  0.90370267  1
  O2-  O165  1  0.67633621  0.93014732  0.24360763  1
  O2-  O166  1  0.67686106  0.92880028  0.57399499  1
  O2-  O167  1  0.67947991  0.92860848  0.90025759  1
  O2-  O168  1  0.43041243  0.31842067  0.09670699  1
  O2-  O169  1  0.42514671  0.32035195  0.42069303  1
  O2-  O170  1  0.43216072  0.31987977  0.76401804  1
  O2-  O171  1  0.42655800  0.81863310  0.09226549  1
  O2-  O172  1  0.42462703  0.82335622  0.42245764  1
  O2-  O173  1  0.42464790  0.82617239  0.75664937  1
  O2-  O174  1  0.93374353  0.32109233  0.10078843  1
  O2-  O175  1  0.92997590  0.32299945  0.42576348  1
  O2-  O176  1  0.92557450  0.32160111  0.75644485  1
  O2-  O177  1  0.93043572  0.81796106  0.09740998  1
  O2-  O178  1  0.93246208  0.82228952  0.43113612  1
  O2-  O179  1  0.93099745  0.82023845  0.76600258  1
  O2-  O180  1  0.32023680  0.06856891  0.24383772  1
  O2-  O181  1  0.32493663  0.07097153  0.57686807  1
  O2-  O182  1  0.32091147  0.06985118  0.91226416  1
  O2-  O183  1  0.32109723  0.57175006  0.24391771  1
  O2-  O184  1  0.32055762  0.56761039  0.56517383  1
  O2-  O185  1  0.32096118  0.57250625  0.90296963  1
  O2-  O186  1  0.82208862  0.07114396  0.24231076  1
  O2-  O187  1  0.82152120  0.06763922  0.56511794  1
  O2-  O188  1  0.82627161  0.06724658  0.91343973  1
  O2-  O189  1  0.82003917  0.57062593  0.23600224  1
  O2-  O190  1  0.81554489  0.57730432  0.56709269  1
  O2-  O191  1  0.81713967  0.57359419  0.90229510  1
  O2-  O192  1  0.03787203  0.08516799  0.26194387  1
  O2-  O193  1  0.03228384  0.08704005  0.59948323  1
  O2-  O194  1  0.04209500  0.08443178  0.93968100  1
  O2-  O195  1  0.05314927  0.58070861  0.27364018  1
  O2-  O196  1  0.05731399  0.58092879  0.60725538  1
  O2-  O197  1  0.05994236  0.58219201  0.94066138  1
  O2-  O198  1  0.53733493  0.08229682  0.26758111  1
  O2-  O199  1  0.54804208  0.08139827  0.60033854  1
  O2-  O200  1  0.53906625  0.07830384  0.93039695  1
  O2-  O201  1  0.53896966  0.58337125  0.26139864  1
  O2-  O202  1  0.53744834  0.58651123  0.59564731  1
  O2-  O203  1  0.54208482  0.58828405  0.94126226  1
  O2-  O204  1  0.16728313  0.20752498  0.26258644  1
  O2-  O205  1  0.16581473  0.20591648  0.59926938  1
  O2-  O206  1  0.16725981  0.19718233  0.93976776  1
  O2-  O207  1  0.16737347  0.70508826  0.26951656  1
  O2-  O208  1  0.16718587  0.70887052  0.60058995  1
  O2-  O209  1  0.16796296  0.71122636  0.93880639  1
  O2-  O210  1  0.66957319  0.20380859  0.26600448  1
  O2-  O211  1  0.66896316  0.20047008  0.60490351  1
  O2-  O212  1  0.67525669  0.19324336  0.93581729  1
  O2-  O213  1  0.66323159  0.71405697  0.26112267  1
  O2-  O214  1  0.66136949  0.71578995  0.59489689  1
  O2-  O215  1  0.65975673  0.71309111  0.93875098  1
  O2-  O216  1  0.08653916  0.45207222  0.06584766  1
  O2-  O217  1  0.08956168  0.45291904  0.39734251  1
  O2-  O218  1  0.07835641  0.44844203  0.73285801  1
  O2-  O219  1  0.08179486  0.96171248  0.07215792  1
  O2-  O220  1  0.08428215  0.96079723  0.39403453  1
  O2-  O221  1  0.08487361  0.96621507  0.73414672  1
  O2-  O222  1  0.58317051  0.45632629  0.07137436  1
  O2-  O223  1  0.58222460  0.45273447  0.39223484  1
  O2-  O224  1  0.58412092  0.46553768  0.73190152  1
  O2-  O225  1  0.57966857  0.95586579  0.06816412  1
  O2-  O226  1  0.58474877  0.95575912  0.39604246  1
  O2-  O227  1  0.58087331  0.94822064  0.72516620  1
  O2-  O228  1  0.20493388  0.33095195  0.06338843  1
  O2-  O229  1  0.20975433  0.33452442  0.39247585  1
  O2-  O230  1  0.20837803  0.32715494  0.73312671  1
  O2-  O231  1  0.21034288  0.83608871  0.07470184  1
  O2-  O232  1  0.20365326  0.83829105  0.39665298  1
  O2-  O233  1  0.20716145  0.83570915  0.73576023  1
  O2-  O234  1  0.70788290  0.32634314  0.06568527  1
  O2-  O235  1  0.70157184  0.33205270  0.39593705  1
  O2-  O236  1  0.69811765  0.32899492  0.73296307  1
  O2-  O237  1  0.71218265  0.83620268  0.07017244  1
  O2-  O238  1  0.70648225  0.83799853  0.39480153  1
  O2-  O239  1  0.70546854  0.83668947  0.72607856  1
  O2-  O240  1  0.44956154  0.41624278  0.27023942  1
  O2-  O241  1  0.46327585  0.41440431  0.59456264  1
  O2-  O242  1  0.45799890  0.42267387  0.93300441  1
  O2-  O243  1  0.44985907  0.91615416  0.27094375  1
  O2-  O244  1  0.44874930  0.91799100  0.60298698  1
  O2-  O245  1  0.45008717  0.91224375  0.93967877  1
  O2-  O246  1  0.95663256  0.41793510  0.27496222  1
  O2-  O247  1  0.94618321  0.42219419  0.60845632  1
  O2-  O248  1  0.96050038  0.41998960  0.93280899  1
  O2-  O249  1  0.96207210  0.91349111  0.26130097  1
  O2-  O250  1  0.96579508  0.91419697  0.59863428  1
  O2-  O251  1  0.96225829  0.91557759  0.93326253  1
  O2-  O252  1  0.33681435  0.29239676  0.26636759  1
  O2-  O253  1  0.33605183  0.28763596  0.59527601  1
  O2-  O254  1  0.33264172  0.29210018  0.93084510  1
  O2-  O255  1  0.33041903  0.79726639  0.27200375  1
  O2-  O256  1  0.33011510  0.79997918  0.60482669  1
  O2-  O257  1  0.33285574  0.79158462  0.94234144  1
  O2-  O258  1  0.83602543  0.29786851  0.27385706  1
  O2-  O259  1  0.83291741  0.29574508  0.60460239  1
  O2-  O260  1  0.83585651  0.29131252  0.93138319  1
  O2-  O261  1  0.83265435  0.79079035  0.26504722  1
  O2-  O262  1  0.83356535  0.79270361  0.59723725  1
  O2-  O263  1  0.83120816  0.79021468  0.93156083  1
  O2-  O264  1  0.41329406  0.04260319  0.06509632  1
  O2-  O265  1  0.41061963  0.04183383  0.39859220  1
  O2-  O266  1  0.41849932  0.04921644  0.72902766  1
  O2-  O267  1  0.41678365  0.53876395  0.07220809  1
  O2-  O268  1  0.41479448  0.54348812  0.39427650  1
  O2-  O269  1  0.41902290  0.53962566  0.73049699  1
  O2-  O270  1  0.91379061  0.03988645  0.06749170  1
  O2-  O271  1  0.91299814  0.03918540  0.39322058  1
  O2-  O272  1  0.91344052  0.03423170  0.73579083  1
  O2-  O273  1  0.92435689  0.54954058  0.06525697  1
  O2-  O274  1  0.91859974  0.54689352  0.40274390  1
  O2-  O275  1  0.92384843  0.56327131  0.72953091  1
  O2-  O276  1  0.29759489  0.16613320  0.06412614  1
  O2-  O277  1  0.29406888  0.16440776  0.39367155  1
  O2-  O278  1  0.29740795  0.16563061  0.72794276  1
  O2-  O279  1  0.28952575  0.66387654  0.07427329  1
  O2-  O280  1  0.29439179  0.66319202  0.39620360  1
  O2-  O281  1  0.29661221  0.66917067  0.73220457  1
  O2-  O282  1  0.80416497  0.16656261  0.06341155  1
  O2-  O283  1  0.79617509  0.16340119  0.39499555  1
  O2-  O284  1  0.79571589  0.16671534  0.73475268  1
  O2-  O285  1  0.78770234  0.66833665  0.06854215  1
  O2-  O286  1  0.78440715  0.66898169  0.39944702  1
  O2-  O287  1  0.78207803  0.67137395  0.73269871  1
