# generated using pymatgen
data_Ca2Al2SiO7
_symmetry_space_group_name_H-M   'P 1'
_cell_length_a   15.46595152
_cell_length_b   15.46608657
_cell_length_c   15.29025914
_cell_angle_alpha   90.00299963
_cell_angle_beta   89.99280742
_cell_angle_gamma   89.96870197
_symmetry_Int_Tables_number   1
_chemical_formula_structural   Ca2Al2SiO7
_chemical_formula_sum   'Ca48 Al48 Si24 O168'
_cell_volume   3657.39492917
_cell_formula_units_Z   24
loop_
 _symmetry_equiv_pos_site_id
 _symmetry_equiv_pos_as_xyz
  1  'x, y, z'
loop_
 _atom_type_symbol
 _atom_type_oxidation_number
  Ca2+  2.0
  Al0+  0.0
  Si0+  0.0
  O2-  -2.0
loop_
 _atom_site_type_symbol
 _atom_site_label
 _atom_site_symmetry_multiplicity
 _atom_site_fract_x
 _atom_site_fract_y
 _atom_site_fract_z
 _atom_site_occupancy
  Ca2+  Ca0  1  0.17443186  0.07536767  0.17733159  1
  Ca2+  Ca1  1  0.16762441  0.08200807  0.49697103  1
  Ca2+  Ca2  1  0.17545039  0.07499455  0.84307882  1
  Ca2+  Ca3  1  0.16604558  0.58232132  0.17435161  1
  Ca2+  Ca4  1  0.16017120  0.57960846  0.50755716  1
  Ca2+  Ca5  1  0.16135036  0.57821867  0.82855827  1
  Ca2+  Ca6  1  0.67282474  0.08559981  0.17772944  1
  Ca2+  Ca7  1  0.67422531  0.09237959  0.50419453  1
  Ca2+  Ca8  1  0.67153412  0.08837451  0.82835632  1
  Ca2+  Ca9  1  0.66167841  0.58569158  0.17417806  1
  Ca2+  Ca10  1  0.67162108  0.57808893  0.50923437  1
  Ca2+  Ca11  1  0.66843869  0.58180080  0.83468459  1
  Ca2+  Ca12  1  0.07980229  0.32572694  0.17206597  1
  Ca2+  Ca13  1  0.07261443  0.33194173  0.49423199  1
  Ca2+  Ca14  1  0.07901315  0.33155616  0.82189006  1
  Ca2+  Ca15  1  0.08151858  0.84536800  0.17030444  1
  Ca2+  Ca16  1  0.07574278  0.82563518  0.49286937  1
  Ca2+  Ca17  1  0.08086282  0.83000225  0.82284161  1
  Ca2+  Ca18  1  0.57766034  0.32607378  0.17178634  1
  Ca2+  Ca19  1  0.58143354  0.32697245  0.49640042  1
  Ca2+  Ca20  1  0.57786071  0.32709067  0.82006384  1
  Ca2+  Ca21  1  0.58104250  0.82630809  0.16683339  1
  Ca2+  Ca22  1  0.57258100  0.83079382  0.49381324  1
  Ca2+  Ca23  1  0.57700520  0.82939593  0.82740172  1
  Ca2+  Ca24  1  0.33539660  0.41830765  0.17512116  1
  Ca2+  Ca25  1  0.33024928  0.41276878  0.50639173  1
  Ca2+  Ca26  1  0.32810447  0.41095876  0.83112365  1
  Ca2+  Ca27  1  0.32573960  0.92315681  0.17947693  1
  Ca2+  Ca28  1  0.33441161  0.91518683  0.50057682  1
  Ca2+  Ca29  1  0.32972705  0.91978788  0.84090497  1
  Ca2+  Ca30  1  0.83200495  0.41796812  0.17526702  1
  Ca2+  Ca31  1  0.83180871  0.41813247  0.51204766  1
  Ca2+  Ca32  1  0.83060771  0.41969322  0.82569608  1
  Ca2+  Ca33  1  0.83109297  0.92054265  0.17934761  1
  Ca2+  Ca34  1  0.84256384  0.92582399  0.50302659  1
  Ca2+  Ca35  1  0.83770638  0.92088660  0.83059574  1
  Ca2+  Ca36  1  0.40931083  0.16450651  0.16910724  1
  Ca2+  Ca37  1  0.42560844  0.17515319  0.49231360  1
  Ca2+  Ca38  1  0.42175422  0.16734120  0.82200894  1
  Ca2+  Ca39  1  0.42539684  0.67215217  0.16914203  1
  Ca2+  Ca40  1  0.41907761  0.67798845  0.49365111  1
  Ca2+  Ca41  1  0.42072422  0.67337323  0.82749788  1
  Ca2+  Ca42  1  0.92226717  0.16045927  0.17418954  1
  Ca2+  Ca43  1  0.91425583  0.17411849  0.49168289  1
  Ca2+  Ca44  1  0.91844420  0.17126529  0.82200102  1
  Ca2+  Ca45  1  0.92343431  0.67316474  0.17040258  1
  Ca2+  Ca46  1  0.92385488  0.66942805  0.49551850  1
  Ca2+  Ca47  1  0.92255110  0.67298393  0.81917761  1
  Al0+  Al48  1  -0.00004900  0.00179057  0.00112977  1
  Al0+  Al49  1  0.00013222  0.00070705  0.33493428  1
  Al0+  Al50  1  0.00174850  -0.00077159  0.67016890  1
  Al0+  Al51  1  -0.00246912  0.50120585  0.00046947  1
  Al0+  Al52  1  -0.00152403  0.50131254  0.32512719  1
  Al0+  Al53  1  0.00045509  0.49845475  0.67022050  1
  Al0+  Al54  1  0.50267258  0.00094567  0.00257554  1
  Al0+  Al55  1  0.50044720  0.00027350  0.33001509  1
  Al0+  Al56  1  0.50219414  -0.00019555  0.66041249  1
  Al0+  Al57  1  0.50063201  0.49844478  -0.00420838  1
  Al0+  Al58  1  0.49923102  0.49837242  0.32877634  1
  Al0+  Al59  1  0.49819306  0.50010763  0.67005748  1
  Al0+  Al60  1  0.24761525  0.25069221  0.00303709  1
  Al0+  Al61  1  0.24790961  0.25069716  0.33047310  1
  Al0+  Al62  1  0.25118734  0.24903257  0.66964212  1
  Al0+  Al63  1  0.24865821  0.74710608  0.00359701  1
  Al0+  Al64  1  0.25116750  0.74824845  0.33022121  1
  Al0+  Al65  1  0.25010662  0.74873411  0.66149822  1
  Al0+  Al66  1  0.74848460  0.25292261  0.00034979  1
  Al0+  Al67  1  0.74741965  0.25221145  0.32871015  1
  Al0+  Al68  1  0.75152505  0.25027316  0.67062124  1
  Al0+  Al69  1  0.75175971  0.74928975  -0.00418725  1
  Al0+  Al70  1  0.75207222  0.74911802  0.32872651  1
  Al0+  Al71  1  0.75041347  0.75315564  0.66872422  1
  Al0+  Al72  1  0.32256034  0.07284995  0.35244581  1
  Al0+  Al73  1  0.82120184  0.57332746  0.68106041  1
  Al0+  Al74  1  0.32294000  0.07153975  0.01457822  1
  Al0+  Al75  1  0.92655696  0.32210722  0.31832518  1
  Al0+  Al76  1  0.07044079  0.17861647  0.31924414  1
  Al0+  Al77  1  0.17999958  0.42786796  0.67883374  1
  Al0+  Al78  1  0.42827282  0.82264637  0.31694435  1
  Al0+  Al79  1  0.82208262  0.07029416  0.68007503  1
  Al0+  Al80  1  0.93106482  0.31889434  0.65551266  1
  Al0+  Al81  1  0.57218029  0.17998326  0.65193467  1
  Al0+  Al82  1  0.17855493  0.92705998  0.01490220  1
  Al0+  Al83  1  0.92753808  0.82424711  0.65192392  1
  Al0+  Al84  1  0.07208015  0.67837654  0.31694237  1
  Al0+  Al85  1  0.17968861  0.92709705  0.35271175  1
  Al0+  Al86  1  0.42909602  0.82076716  0.65484605  1
  Al0+  Al87  1  0.06973344  0.67848845  0.65266961  1
  Al0+  Al88  1  0.57151667  0.67854722  0.32199882  1
  Al0+  Al89  1  0.57147128  0.67857368  0.98386120  1
  Al0+  Al90  1  0.81847637  0.07125021  0.34686257  1
  Al0+  Al91  1  0.42729144  0.32000280  0.31804908  1
  Al0+  Al92  1  0.57094302  0.17849872  0.31745534  1
  Al0+  Al93  1  0.93063290  0.82215854  0.31789618  1
  Al0+  Al94  1  0.67704574  0.42922675  0.68191594  1
  Al0+  Al95  1  0.42650339  0.32228973  0.65300811  1
  Si0+  Si96  1  0.67831565  0.43012406  0.01749851  1
  Si0+  Si97  1  0.67833585  0.92475917  0.34962255  1
  Si0+  Si98  1  0.67550857  0.92865847  0.68386632  1
  Si0+  Si99  1  0.07106406  0.67623781  0.98361161  1
  Si0+  Si100  1  0.32283389  0.06934292  0.68019957  1
  Si0+  Si101  1  0.32248453  0.56895876  0.34780504  1
  Si0+  Si102  1  0.18124583  0.92751794  0.68105368  1
  Si0+  Si103  1  0.32239604  0.56826764  0.01504710  1
  Si0+  Si104  1  0.93098263  0.82194635  0.98437031  1
  Si0+  Si105  1  0.17674760  0.43104226  0.34704910  1
  Si0+  Si106  1  0.81931814  0.07283987  0.01479240  1
  Si0+  Si107  1  0.42794769  0.31953215  0.98461408  1
  Si0+  Si108  1  0.42850029  0.82149185  0.98499976  1
  Si0+  Si109  1  0.92780589  0.32273019  0.98293814  1
  Si0+  Si110  1  0.57303595  0.67732374  0.65246309  1
  Si0+  Si111  1  0.06911750  0.18054832  0.98404427  1
  Si0+  Si112  1  0.68143472  0.92712850  0.01393316  1
  Si0+  Si113  1  0.07424879  0.17598802  0.65268801  1
  Si0+  Si114  1  0.82154275  0.57095141  0.34740554  1
  Si0+  Si115  1  0.67804101  0.43100822  0.34754322  1
  Si0+  Si116  1  0.17654735  0.43000166  0.01636755  1
  Si0+  Si117  1  0.32146100  0.57407228  0.68381208  1
  Si0+  Si118  1  0.82008803  0.57172632  0.01721983  1
  Si0+  Si119  1  0.57309785  0.17902300  0.98402204  1
  O2-  O120  1  0.25459699  -0.00444437  0.06317525  1
  O2-  O121  1  0.25337960  -0.00210131  0.40276977  1
  O2-  O122  1  0.25244186  -0.00178220  0.72358029  1
  O2-  O123  1  0.24953971  0.49904209  0.05819809  1
  O2-  O124  1  0.24804599  0.50137110  0.38933041  1
  O2-  O125  1  0.25524877  0.50200202  0.72750816  1
  O2-  O126  1  0.74978661  0.00053763  0.05650953  1
  O2-  O127  1  0.74430676  -0.00392615  0.39345797  1
  O2-  O128  1  0.74764597  -0.00496516  0.72766257  1
  O2-  O129  1  0.74804238  0.50215852  0.06048682  1
  O2-  O130  1  0.74987914  0.50099326  0.38886268  1
  O2-  O131  1  0.74603049  0.50463241  0.73288585  1
  O2-  O132  1  -0.00350884  0.24858019  0.26769225  1
  O2-  O133  1  0.00445505  0.24357189  0.60970760  1
  O2-  O134  1  -0.00153307  0.25131481  0.94067938  1
  O2-  O135  1  0.00588193  0.75478321  0.26529692  1
  O2-  O136  1  -0.00473334  0.74786673  0.60396466  1
  O2-  O137  1  0.00538283  0.75331450  0.94377382  1
  O2-  O138  1  0.49335006  0.24366864  0.26584752  1
  O2-  O139  1  0.50181205  0.25430920  0.60410930  1
  O2-  O140  1  0.49513309  0.24394052  0.94414324  1
  O2-  O141  1  0.50332237  0.75234650  0.26912083  1
  O2-  O142  1  0.50402720  0.74553867  0.60967718  1
  O2-  O143  1  0.49670132  0.75358824  0.93817677  1
  O2-  O144  1  0.06762816  0.18099503  0.08838917  1
  O2-  O145  1  0.07029897  0.18257604  0.43271433  1
  O2-  O146  1  0.07354011  0.17730200  0.75936975  1
  O2-  O147  1  0.06775318  0.66937949  0.08774735  1
  O2-  O148  1  0.06638631  0.67222243  0.42966071  1
  O2-  O149  1  0.07162411  0.68210403  0.76732458  1
  O2-  O150  1  0.57959364  0.18212509  0.08814286  1
  O2-  O151  1  0.57565397  0.18533263  0.43010006  1
  O2-  O152  1  0.56846792  0.17840761  0.76681149  1
  O2-  O153  1  0.57052475  0.67924903  0.09642695  1
  O2-  O154  1  0.56936451  0.67700042  0.43534102  1
  O2-  O155  1  0.57067755  0.67956771  0.75873760  1
  O2-  O156  1  0.17722088  0.43351615  0.24107832  1
  O2-  O157  1  0.17933242  0.42838833  0.56612798  1
  O2-  O158  1  0.17625997  0.42948303  0.91145365  1
  O2-  O159  1  0.18070588  0.93056107  0.23869991  1
  O2-  O160  1  0.18064612  0.92730600  0.57688908  1
  O2-  O161  1  0.17848964  0.92893663  0.90042020  1
  O2-  O162  1  0.67811476  0.43292358  0.24165932  1
  O2-  O163  1  0.67867212  0.43023133  0.56836075  1
  O2-  O164  1  0.67926219  0.42870075  0.91300153  1
  O2-  O165  1  0.68238921  0.92349974  0.24305415  1
  O2-  O166  1  0.67115224  0.92835481  0.57928160  1
  O2-  O167  1  0.68216675  0.92693049  0.90903458  1
  O2-  O168  1  0.42950180  0.32266635  0.08918855  1
  O2-  O169  1  0.43076649  0.32442685  0.43076551  1
  O2-  O170  1  0.42482696  0.31593747  0.76766738  1
  O2-  O171  1  0.43089198  0.81953588  0.08969489  1
  O2-  O172  1  0.42927932  0.81848654  0.43061515  1
  O2-  O173  1  0.42909769  0.82020885  0.76892353  1
  O2-  O174  1  0.92798927  0.32413973  0.08743098  1
  O2-  O175  1  0.92808996  0.32452191  0.43157408  1
  O2-  O176  1  0.93304307  0.31735311  0.76958647  1
  O2-  O177  1  0.92856885  0.82168784  0.08889921  1
  O2-  O178  1  0.92833481  0.81849630  0.43064997  1
  O2-  O179  1  0.93367397  0.82528462  0.76676796  1
  O2-  O180  1  0.31820801  0.07178387  0.23846981  1
  O2-  O181  1  0.32197892  0.07051169  0.57604388  1
  O2-  O182  1  0.32143203  0.07126655  0.90002225  1
  O2-  O183  1  0.32368825  0.56521521  0.24195993  1
  O2-  O184  1  0.32106315  0.57635783  0.57862451  1
  O2-  O185  1  0.32224212  0.56773578  0.91016175  1
  O2-  O186  1  0.81649968  0.06931039  0.23253845  1
  O2-  O187  1  0.82231671  0.07144219  0.56779054  1
  O2-  O188  1  0.81965444  0.07313141  0.90980487  1
  O2-  O189  1  0.82114352  0.56950127  0.24155895  1
  O2-  O190  1  0.82058837  0.57069692  0.56752490  1
  O2-  O191  1  0.82134273  0.57086241  0.91266876  1
  O2-  O192  1  0.04110228  0.08170301  0.26448950  1
  O2-  O193  1  0.05059748  0.08222518  0.60882167  1
  O2-  O194  1  0.04130150  0.08865823  0.93599957  1
  O2-  O195  1  0.03669469  0.58423393  0.25834120  1
  O2-  O196  1  0.04387328  0.57887081  0.60340867  1
  O2-  O197  1  0.03712679  0.58658295  0.93435384  1
  O2-  O198  1  0.55335238  0.07781466  0.26584884  1
  O2-  O199  1  0.54549239  0.08265782  0.59860718  1
  O2-  O200  1  0.55314218  0.08421680  0.93866427  1
  O2-  O201  1  0.53857973  0.58308713  0.26493914  1
  O2-  O202  1  0.54890910  0.58305340  0.60899271  1
  O2-  O203  1  0.53996617  0.58179139  0.93033592  1
  O2-  O204  1  0.16535530  0.21157325  0.26219534  1
  O2-  O205  1  0.16724777  0.20197123  0.60814873  1
  O2-  O206  1  0.16137406  0.20912808  0.93716771  1
  O2-  O207  1  0.17288749  0.69666373  0.26623202  1
  O2-  O208  1  0.16724201  0.70572572  0.59934230  1
  O2-  O209  1  0.16603902  0.69648214  0.93897707  1
  O2-  O210  1  0.66465860  0.21565207  0.25945712  1
  O2-  O211  1  0.67133960  0.20779276  0.60311968  1
  O2-  O212  1  0.66234645  0.21405415  0.93461151  1
  O2-  O213  1  0.66968341  0.70308921  0.26631153  1
  O2-  O214  1  0.66695748  0.70183513  0.60848338  1
  O2-  O215  1  0.66851009  0.70939827  0.93043409  1
  O2-  O216  1  0.08507003  0.46045259  0.06298189  1
  O2-  O217  1  0.08437982  0.46088685  0.39193033  1
  O2-  O218  1  0.08576492  0.45943483  0.73819459  1
  O2-  O219  1  0.08073973  0.96093663  0.06657764  1
  O2-  O220  1  0.08084315  0.95706855  0.40311795  1
  O2-  O221  1  0.09072261  0.95572286  0.73150579  1
  O2-  O222  1  0.58543337  0.45703903  0.06327790  1
  O2-  O223  1  0.58644532  0.45953911  0.39414478  1
  O2-  O224  1  0.57747347  0.45352740  0.73675545  1
  O2-  O225  1  0.58880815  0.95125812  0.06114446  1
  O2-  O226  1  0.58288952  0.94629931  0.39191258  1
  O2-  O227  1  0.58378650  0.95862536  0.73354596  1
  O2-  O228  1  0.20204033  0.33784978  0.06381387  1
  O2-  O229  1  0.20179341  0.33874445  0.39271451  1
  O2-  O230  1  0.21058153  0.33198378  0.73775852  1
  O2-  O231  1  0.19799754  0.82557007  0.06534210  1
  O2-  O232  1  0.20625536  0.82566780  0.40048239  1
  O2-  O233  1  0.20980043  0.83557892  0.72857639  1
  O2-  O234  1  0.70868498  0.33899127  0.06562193  1
  O2-  O235  1  0.70546409  0.33926915  0.39328876  1
  O2-  O236  1  0.71031525  0.33334334  0.73839531  1
  O2-  O237  1  0.71233413  0.83607074  0.06132425  1
  O2-  O238  1  0.70587272  0.83144554  0.39511712  1
  O2-  O239  1  0.69843663  0.83521204  0.73255492  1
  O2-  O240  1  0.46217753  0.41517300  0.26107988  1
  O2-  O241  1  0.44641158  0.42427064  0.60534155  1
  O2-  O242  1  0.45933346  0.40924529  0.93551014  1
  O2-  O243  1  0.45372159  0.92068840  0.26358494  1
  O2-  O244  1  0.46011824  0.91511328  0.59893080  1
  O2-  O245  1  0.45489224  0.91589823  0.93993128  1
  O2-  O246  1  0.95856890  0.41736892  0.26057771  1
  O2-  O247  1  0.96157463  0.41503743  0.60310915  1
  O2-  O248  1  0.95668546  0.41487290  0.93658854  1
  O2-  O249  1  0.95532690  0.92124791  0.26482849  1
  O2-  O250  1  0.96122305  0.92105317  0.60058349  1
  O2-  O251  1  0.95562073  0.91553418  0.93798585  1
  O2-  O252  1  0.32763080  0.29896981  0.26460273  1
  O2-  O253  1  0.32912940  0.29148806  0.60075179  1
  O2-  O254  1  0.33294248  0.29728444  0.94024951  1
  O2-  O255  1  0.33273906  0.78923352  0.26230580  1
  O2-  O256  1  0.33479088  0.78916683  0.59901277  1
  O2-  O257  1  0.33396734  0.79412769  0.94079367  1
  O2-  O258  1  0.82911604  0.29624419  0.26305079  1
  O2-  O259  1  0.83418172  0.29086158  0.60361914  1
  O2-  O260  1  0.83517529  0.29444788  0.93734774  1
  O2-  O261  1  0.83433569  0.78973109  0.26188054  1
  O2-  O262  1  0.82562264  0.80592393  0.60407955  1
  O2-  O263  1  0.84074023  0.79136970  0.93567112  1
  O2-  O264  1  0.42443816  0.05127059  0.06469520  1
  O2-  O265  1  0.42438027  0.04845992  0.39995052  1
  O2-  O266  1  0.41500351  0.04083450  0.72711663  1
  O2-  O267  1  0.41352651  0.53686324  0.06194400  1
  O2-  O268  1  0.41265458  0.53725025  0.39566375  1
  O2-  O269  1  0.41514068  0.55233970  0.73203181  1
  O2-  O270  1  0.91190518  0.04639855  0.06070682  1
  O2-  O271  1  0.91578630  0.04417051  0.39950675  1
  O2-  O272  1  0.91852842  0.03977652  0.73795275  1
  O2-  O273  1  0.91133375  0.54136281  0.06504547  1
  O2-  O274  1  0.91331436  0.54099232  0.39264733  1
  O2-  O275  1  0.91720489  0.53996676  0.73740193  1
  O2-  O276  1  0.29047574  0.16954099  0.06650082  1
  O2-  O277  1  0.29053733  0.17247114  0.40148779  1
  O2-  O278  1  0.29484605  0.15998976  0.73062058  1
  O2-  O279  1  0.29670751  0.66017107  0.06312877  1
  O2-  O280  1  0.29969288  0.66210801  0.39336817  1
  O2-  O281  1  0.29131913  0.66579251  0.73284488  1
  O2-  O282  1  0.78985733  0.16473342  0.06105488  1
  O2-  O283  1  0.78692952  0.16977985  0.39664804  1
  O2-  O284  1  0.79052909  0.16494236  0.73863274  1
  O2-  O285  1  0.79362773  0.66464084  0.06311109  1
  O2-  O286  1  0.79544695  0.66318583  0.39367852  1
  O2-  O287  1  0.79711066  0.67330483  0.73505203  1
