# generated using pymatgen
data_Ca2Al2SiO7
_symmetry_space_group_name_H-M   'P 1'
_cell_length_a   15.46351943
_cell_length_b   15.46453358
_cell_length_c   15.28747765
_cell_angle_alpha   89.97544377
_cell_angle_beta   89.99325580
_cell_angle_gamma   90.02201767
_symmetry_Int_Tables_number   1
_chemical_formula_structural   Ca2Al2SiO7
_chemical_formula_sum   'Ca48 Al48 Si24 O168'
_cell_volume   3655.78738761
_cell_formula_units_Z   24
loop_
 _symmetry_equiv_pos_site_id
 _symmetry_equiv_pos_as_xyz
  1  'x, y, z'
loop_
 _atom_type_symbol
 _atom_type_oxidation_number
  Ca2+  2.0
  Al0+  0.0
  Si0+  0.0
  O2-  -2.0
loop_
 _atom_site_type_symbol
 _atom_site_label
 _atom_site_symmetry_multiplicity
 _atom_site_fract_x
 _atom_site_fract_y
 _atom_site_fract_z
 _atom_site_occupancy
  Ca2+  Ca0  1  0.17605190  0.08551786  0.17707399  1
  Ca2+  Ca1  1  0.17489132  0.08227062  0.50218418  1
  Ca2+  Ca2  1  0.17902981  0.07996357  0.83650476  1
  Ca2+  Ca3  1  0.16563961  0.58373056  0.17042655  1
  Ca2+  Ca4  1  0.16041983  0.57705702  0.50665864  1
  Ca2+  Ca5  1  0.17344549  0.58986179  0.83528949  1
  Ca2+  Ca6  1  0.66836367  0.07860388  0.17033914  1
  Ca2+  Ca7  1  0.68097544  0.07569065  0.50628436  1
  Ca2+  Ca8  1  0.66442874  0.07152627  0.83688481  1
  Ca2+  Ca9  1  0.67535784  0.58232443  0.17810346  1
  Ca2+  Ca10  1  0.67605988  0.59368158  0.49893141  1
  Ca2+  Ca11  1  0.68210981  0.59070911  0.83834854  1
  Ca2+  Ca12  1  0.08811231  0.33067670  0.16966022  1
  Ca2+  Ca13  1  0.08864625  0.33109982  0.49302914  1
  Ca2+  Ca14  1  0.08519880  0.33463067  0.82783107  1
  Ca2+  Ca15  1  0.07334876  0.82433224  0.16594813  1
  Ca2+  Ca16  1  0.07872553  0.81916578  0.49076239  1
  Ca2+  Ca17  1  0.08435667  0.81972624  0.82773000  1
  Ca2+  Ca18  1  0.58895587  0.32627034  0.16121980  1
  Ca2+  Ca19  1  0.58352656  0.33327720  0.49257995  1
  Ca2+  Ca20  1  0.58254575  0.32481846  0.83088577  1
  Ca2+  Ca21  1  0.58160457  0.83294409  0.16886985  1
  Ca2+  Ca22  1  0.57561922  0.83379086  0.49710269  1
  Ca2+  Ca23  1  0.58064324  0.83862476  0.82798523  1
  Ca2+  Ca24  1  0.32869776  0.42455602  0.17199759  1
  Ca2+  Ca25  1  0.32095183  0.42607755  0.50460892  1
  Ca2+  Ca26  1  0.32831433  0.42997553  0.83331341  1
  Ca2+  Ca27  1  0.33770456  0.92768906  0.17192258  1
  Ca2+  Ca28  1  0.34366012  0.92323802  0.50321192  1
  Ca2+  Ca29  1  0.34035850  0.92356687  0.83542937  1
  Ca2+  Ca30  1  0.82791441  0.42610257  0.17405464  1
  Ca2+  Ca31  1  0.82880735  0.42822927  0.49888580  1
  Ca2+  Ca32  1  0.83523563  0.42724500  0.83428223  1
  Ca2+  Ca33  1  0.82981154  0.91711445  0.17511725  1
  Ca2+  Ca34  1  0.83680655  0.92190861  0.50499388  1
  Ca2+  Ca35  1  0.81901463  0.91382538  0.83587291  1
  Ca2+  Ca36  1  0.41857358  0.16591737  0.15989942  1
  Ca2+  Ca37  1  0.41288796  0.16583756  0.49443091  1
  Ca2+  Ca38  1  0.41971242  0.15812320  0.83066220  1
  Ca2+  Ca39  1  0.42028416  0.66912329  0.16348260  1
  Ca2+  Ca40  1  0.41821543  0.67778505  0.49165541  1
  Ca2+  Ca41  1  0.41344963  0.67174583  0.82204575  1
  Ca2+  Ca42  1  0.92106281  0.16352639  0.16749026  1
  Ca2+  Ca43  1  0.92153063  0.16303139  0.48908256  1
  Ca2+  Ca44  1  0.91468678  0.17013991  0.82574339  1
  Ca2+  Ca45  1  0.92387423  0.65670778  0.16543521  1
  Ca2+  Ca46  1  0.92177086  0.66546944  0.49230723  1
  Ca2+  Ca47  1  0.92587334  0.65731312  0.82789777  1
  Al0+  Al48  1  -0.00091603  -0.00057549  -0.00447135  1
  Al0+  Al49  1  0.00345157  -0.00041956  0.32754634  1
  Al0+  Al50  1  0.00223837  0.00131278  0.67153453  1
  Al0+  Al51  1  0.00024403  0.49872349  -0.00111222  1
  Al0+  Al52  1  -0.00192955  0.49724094  0.33621774  1
  Al0+  Al53  1  -0.00214077  0.49585558  0.66838326  1
  Al0+  Al54  1  0.50115306  0.00033724  0.00471533  1
  Al0+  Al55  1  0.50123162  0.00240369  0.33368282  1
  Al0+  Al56  1  0.50236971  0.00016860  0.66791060  1
  Al0+  Al57  1  0.49945896  0.49941632  0.00069628  1
  Al0+  Al58  1  0.49782414  0.49909888  0.33256925  1
  Al0+  Al59  1  0.49980942  0.49786910  0.66781876  1
  Al0+  Al60  1  0.25046580  0.25141538  0.00066936  1
  Al0+  Al61  1  0.25110184  0.25101541  0.33607514  1
  Al0+  Al62  1  0.25085993  0.25010681  0.67497607  1
  Al0+  Al63  1  0.24884146  0.75106484  0.00088171  1
  Al0+  Al64  1  0.24947853  0.75336201  0.32259431  1
  Al0+  Al65  1  0.24953904  0.75073827  0.65775644  1
  Al0+  Al66  1  0.75020895  0.24839938  -0.00815159  1
  Al0+  Al67  1  0.75055314  0.24953960  0.33958083  1
  Al0+  Al68  1  0.75071042  0.25079894  0.66773306  1
  Al0+  Al69  1  0.74932003  0.75129053  0.00983659  1
  Al0+  Al70  1  0.74734393  0.75119883  0.33184056  1
  Al0+  Al71  1  0.75037893  0.75069913  0.67512304  1
  Al0+  Al72  1  0.43026618  0.82133078  0.65397449  1
  Al0+  Al73  1  0.32080492  0.57409657  0.67771571  1
  Al0+  Al74  1  0.17838231  0.42927380  0.68255024  1
  Al0+  Al75  1  0.18013078  0.43132406  0.34538326  1
  Al0+  Al76  1  0.56931621  0.67725924  0.31832562  1
  Al0+  Al77  1  0.67571772  0.42784006  0.34712923  1
  Al0+  Al78  1  0.06916203  0.67745269  0.65239995  1
  Al0+  Al79  1  0.67943879  0.93034768  0.01802285  1
  Al0+  Al80  1  0.06911437  0.67460719  0.31737788  1
  Al0+  Al81  1  0.31876177  0.06983913  0.01461240  1
  Al0+  Al82  1  0.82477575  0.07294347  0.68246954  1
  Al0+  Al83  1  0.32136645  0.06993591  0.34735282  1
  Al0+  Al84  1  0.82122110  0.56917697  0.01483793  1
  Al0+  Al85  1  0.42941499  0.82452823  0.31541958  1
  Al0+  Al86  1  0.81872070  0.56960925  0.68035855  1
  Al0+  Al87  1  0.07280392  0.18035980  0.32089290  1
  Al0+  Al88  1  0.32176436  0.57347914  0.01415084  1
  Al0+  Al89  1  0.81920255  0.57282597  0.34903082  1
  Al0+  Al90  1  0.06914983  0.67956139  0.98433263  1
  Al0+  Al91  1  0.68082704  0.93024806  0.68130444  1
  Al0+  Al92  1  0.56917357  0.17871507  0.98531936  1
  Al0+  Al93  1  0.82339450  0.06856071  0.34446935  1
  Al0+  Al94  1  0.92785222  0.82214266  0.31998749  1
  Al0+  Al95  1  0.32069251  0.06919077  0.68040514  1
  Si0+  Si96  1  0.17848644  0.92750280  0.34912021  1
  Si0+  Si97  1  0.92631439  0.31945409  0.31656885  1
  Si0+  Si98  1  0.92739848  0.82226986  0.65352491  1
  Si0+  Si99  1  0.67578031  0.42575902  0.68514082  1
  Si0+  Si100  1  0.43086554  0.81970939  0.98542251  1
  Si0+  Si101  1  0.17521809  0.92803793  0.01732601  1
  Si0+  Si102  1  0.32136357  0.57595784  0.34775423  1
  Si0+  Si103  1  0.92498820  0.82298329  0.98150501  1
  Si0+  Si104  1  0.07361600  0.17776912  0.98334427  1
  Si0+  Si105  1  0.93051165  0.31893696  0.98392404  1
  Si0+  Si106  1  0.67740509  0.92901977  0.35117413  1
  Si0+  Si107  1  0.17706454  0.92652935  0.68238324  1
  Si0+  Si108  1  0.57411846  0.67619686  0.65329012  1
  Si0+  Si109  1  0.82303805  0.07388773  0.01622087  1
  Si0+  Si110  1  0.17843253  0.42895579  0.01740118  1
  Si0+  Si111  1  0.42762950  0.32021530  0.31888756  1
  Si0+  Si112  1  0.42607233  0.32367222  0.98088355  1
  Si0+  Si113  1  0.57247324  0.18174774  0.31984554  1
  Si0+  Si114  1  0.42830666  0.32060444  0.65091814  1
  Si0+  Si115  1  0.57195151  0.67762004  0.98561541  1
  Si0+  Si116  1  0.07265221  0.17966802  0.65298252  1
  Si0+  Si117  1  0.67851906  0.42599843  0.01345733  1
  Si0+  Si118  1  0.92788861  0.31968055  0.64913655  1
  Si0+  Si119  1  0.57078376  0.17970360  0.64978938  1
  O2-  O120  1  0.24053261  -0.00008578  0.06191644  1
  O2-  O121  1  0.25101355  -0.00816577  0.39441629  1
  O2-  O122  1  0.24845155  -0.00748619  0.72730769  1
  O2-  O123  1  0.24723810  0.49792997  0.05994760  1
  O2-  O124  1  0.24718604  0.51307451  0.39143527  1
  O2-  O125  1  0.24639368  0.50585215  0.73070534  1
  O2-  O126  1  0.75762601  0.00335593  0.06116246  1
  O2-  O127  1  0.75321780  -0.00899896  0.39311640  1
  O2-  O128  1  0.75368957  0.00094843  0.73277250  1
  O2-  O129  1  0.74249537  0.49746336  0.05880102  1
  O2-  O130  1  0.74245901  0.50424326  0.39742592  1
  O2-  O131  1  0.74030197  0.49860402  0.72821794  1
  O2-  O132  1  -0.00387680  0.25193911  0.27174930  1
  O2-  O133  1  -0.00226876  0.24593397  0.60980661  1
  O2-  O134  1  0.00089946  0.24692684  0.94117087  1
  O2-  O135  1  -0.00626062  0.74459224  0.26887472  1
  O2-  O136  1  -0.00556728  0.75326887  0.60812452  1
  O2-  O137  1  -0.00664281  0.75380923  0.93745083  1
  O2-  O138  1  0.50355916  0.25432599  0.27684280  1
  O2-  O139  1  0.50033576  0.25103210  0.60705094  1
  O2-  O140  1  0.49390183  0.25311660  0.93751646  1
  O2-  O141  1  0.49752177  0.74852692  0.26584306  1
  O2-  O142  1  0.50135612  0.74127233  0.61045980  1
  O2-  O143  1  0.49828989  0.74545984  0.94230995  1
  O2-  O144  1  0.07471041  0.17898229  0.08825685  1
  O2-  O145  1  0.07356477  0.18217860  0.43417468  1
  O2-  O146  1  0.07291487  0.18206282  0.75850135  1
  O2-  O147  1  0.06742762  0.67837121  0.09687372  1
  O2-  O148  1  0.06834107  0.67485667  0.43114628  1
  O2-  O149  1  0.06918118  0.67900978  0.76593824  1
  O2-  O150  1  0.57023770  0.18155904  0.09867506  1
  O2-  O151  1  0.57158318  0.18186539  0.42504607  1
  O2-  O152  1  0.56893861  0.18043728  0.75512908  1
  O2-  O153  1  0.57066222  0.67746759  0.09014999  1
  O2-  O154  1  0.56753393  0.67863961  0.43235933  1
  O2-  O155  1  0.57495744  0.67746349  0.75938435  1
  O2-  O156  1  0.18480390  0.42790913  0.23217605  1
  O2-  O157  1  0.18085461  0.42666457  0.56908719  1
  O2-  O158  1  0.17862760  0.42761163  0.91200292  1
  O2-  O159  1  0.17758745  0.93208936  0.24346503  1
  O2-  O160  1  0.17322481  0.93055134  0.57731308  1
  O2-  O161  1  0.17735962  0.92880921  0.91135887  1
  O2-  O162  1  0.68056508  0.42329661  0.23328349  1
  O2-  O163  1  0.67710042  0.42149790  0.58013940  1
  O2-  O164  1  0.68066668  0.42553774  0.90778170  1
  O2-  O165  1  0.67463262  0.93438974  0.24553185  1
  O2-  O166  1  0.68080359  0.93198180  0.56808265  1
  O2-  O167  1  0.67781354  0.93107046  0.90501859  1
  O2-  O168  1  0.42581760  0.32347462  0.08656949  1
  O2-  O169  1  0.42586113  0.31701053  0.42411399  1
  O2-  O170  1  0.43013769  0.32030778  0.75601535  1
  O2-  O171  1  0.43296857  0.82042131  0.09004657  1
  O2-  O172  1  0.43312083  0.82651482  0.42911050  1
  O2-  O173  1  0.43250842  0.82288111  0.76772871  1
  O2-  O174  1  0.92921665  0.31786250  0.08867752  1
  O2-  O175  1  0.92586299  0.31743438  0.42211527  1
  O2-  O176  1  0.92794499  0.31976342  0.75486036  1
  O2-  O177  1  0.92725297  0.82619399  0.08660549  1
  O2-  O178  1  0.93277428  0.82422131  0.43396264  1
  O2-  O179  1  0.92844745  0.82067740  0.75926190  1
  O2-  O180  1  0.32085459  0.07188043  0.23415334  1
  O2-  O181  1  0.31928296  0.07137856  0.56757087  1
  O2-  O182  1  0.31936213  0.06692022  0.90132228  1
  O2-  O183  1  0.32328398  0.57059880  0.24187230  1
  O2-  O184  1  0.32212136  0.57128211  0.56451047  1
  O2-  O185  1  0.32174382  0.57377045  0.90108075  1
  O2-  O186  1  0.81922156  0.07086905  0.23118289  1
  O2-  O187  1  0.82494339  0.07221510  0.56877359  1
  O2-  O188  1  0.82189254  0.07478391  0.91083169  1
  O2-  O189  1  0.82051247  0.56695775  0.23542993  1
  O2-  O190  1  0.81830385  0.56958589  0.56794817  1
  O2-  O191  1  0.82165281  0.56651237  0.90139249  1
  O2-  O192  1  0.04562472  0.08494042  0.26339521  1
  O2-  O193  1  0.05030094  0.08560787  0.60738578  1
  O2-  O194  1  0.04889998  0.08518579  0.93544900  1
  O2-  O195  1  0.04141808  0.57510941  0.26527282  1
  O2-  O196  1  0.03679964  0.57961089  0.60236265  1
  O2-  O197  1  0.03922020  0.58164081  0.93150197  1
  O2-  O198  1  0.54308691  0.09120081  0.27166643  1
  O2-  O199  1  0.54283094  0.08852645  0.60261975  1
  O2-  O200  1  0.53537463  0.08246152  0.93197143  1
  O2-  O201  1  0.54316160  0.57764809  0.26491984  1
  O2-  O202  1  0.55527090  0.58006243  0.60966541  1
  O2-  O203  1  0.54985616  0.58383739  0.93886786  1
  O2-  O204  1  0.16762755  0.21638339  0.26559778  1
  O2-  O205  1  0.16418727  0.21133358  0.60729863  1
  O2-  O206  1  0.16474414  0.20823604  0.93526612  1
  O2-  O207  1  0.16680418  0.70410764  0.26341891  1
  O2-  O208  1  0.16468851  0.70674822  0.59599371  1
  O2-  O209  1  0.16631589  0.71331977  0.93143354  1
  O2-  O210  1  0.66441811  0.20875982  0.27198412  1
  O2-  O211  1  0.66362271  0.20782588  0.60436671  1
  O2-  O212  1  0.66505310  0.20868906  0.92806376  1
  O2-  O213  1  0.66768163  0.70500217  0.26505447  1
  O2-  O214  1  0.66656019  0.70760955  0.60791748  1
  O2-  O215  1  0.66393844  0.70976415  0.94059739  1
  O2-  O216  1  0.08473725  0.45331768  0.06283251  1
  O2-  O217  1  0.08117058  0.45109887  0.39880049  1
  O2-  O218  1  0.07810895  0.44995988  0.73397408  1
  O2-  O219  1  0.07963467  0.95115703  0.06022943  1
  O2-  O220  1  0.08731324  0.95779025  0.39641882  1
  O2-  O221  1  0.08639207  0.95408873  0.73380803  1
  O2-  O222  1  0.58282790  0.44465189  0.05736842  1
  O2-  O223  1  0.57436518  0.44780334  0.39789613  1
  O2-  O224  1  0.58048890  0.44430715  0.73032158  1
  O2-  O225  1  0.58540439  0.96586626  0.07295528  1
  O2-  O226  1  0.58781522  0.96410670  0.39900954  1
  O2-  O227  1  0.58467130  0.96346999  0.73649751  1
  O2-  O228  1  0.20421589  0.33516767  0.06350664  1
  O2-  O229  1  0.21804436  0.33805834  0.40133593  1
  O2-  O230  1  0.21187633  0.33406745  0.73953806  1
  O2-  O231  1  0.20310258  0.83602100  0.06377559  1
  O2-  O232  1  0.19991412  0.83164528  0.39201618  1
  O2-  O233  1  0.20169157  0.83212782  0.72594587  1
  O2-  O234  1  0.70894337  0.33283740  0.05806179  1
  O2-  O235  1  0.70847645  0.33224003  0.40394260  1
  O2-  O236  1  0.70687057  0.33445381  0.73334761  1
  O2-  O237  1  0.70690071  0.83443643  0.07409060  1
  O2-  O238  1  0.69315151  0.83296364  0.39401464  1
  O2-  O239  1  0.70603309  0.83293771  0.73895531  1
  O2-  O240  1  0.44849419  0.41328346  0.27107829  1
  O2-  O241  1  0.45405992  0.41268124  0.60236003  1
  O2-  O242  1  0.45393557  0.41651302  0.93357770  1
  O2-  O243  1  0.46366781  0.92233413  0.26294309  1
  O2-  O244  1  0.46639834  0.91667918  0.59967954  1
  O2-  O245  1  0.46318067  0.91092199  0.93929664  1
  O2-  O246  1  0.95227294  0.41239446  0.27021671  1
  O2-  O247  1  0.95731072  0.40979480  0.60043697  1
  O2-  O248  1  0.96089800  0.40924211  0.93474032  1
  O2-  O249  1  0.96198131  0.91693071  0.26175477  1
  O2-  O250  1  0.95353056  0.91736495  0.61018754  1
  O2-  O251  1  0.94876091  0.91711903  0.93378140  1
  O2-  O252  1  0.33963697  0.28625586  0.26835705  1
  O2-  O253  1  0.33648310  0.28906359  0.60599087  1
  O2-  O254  1  0.33200124  0.29899856  0.93521977  1
  O2-  O255  1  0.32983392  0.80444561  0.26145006  1
  O2-  O256  1  0.33342657  0.79812201  0.59708757  1
  O2-  O257  1  0.33706694  0.79697545  0.93952479  1
  O2-  O258  1  0.83351816  0.29127462  0.26983399  1
  O2-  O259  1  0.83491163  0.29496521  0.60250562  1
  O2-  O260  1  0.83984152  0.29229312  0.93270141  1
  O2-  O261  1  0.82618572  0.80409759  0.27066221  1
  O2-  O262  1  0.83242873  0.79876747  0.60971990  1
  O2-  O263  1  0.82977555  0.79650177  0.93947178  1
  O2-  O264  1  0.41422692  0.03737936  0.06843059  1
  O2-  O265  1  0.41935336  0.04343897  0.40092989  1
  O2-  O266  1  0.41764776  0.03927863  0.73356424  1
  O2-  O267  1  0.41866169  0.54159826  0.06765114  1
  O2-  O268  1  0.41232975  0.54479187  0.39501939  1
  O2-  O269  1  0.41882812  0.54299860  0.73192121  1
  O2-  O270  1  0.91935464  0.05214545  0.05869939  1
  O2-  O271  1  0.92237747  0.04250794  0.39583288  1
  O2-  O272  1  0.92427283  0.05041019  0.73602842  1
  O2-  O273  1  0.91624797  0.53229824  0.06720380  1
  O2-  O274  1  0.91519315  0.53804441  0.40242106  1
  O2-  O275  1  0.91234729  0.53158414  0.73528159  1
  O2-  O276  1  0.29267119  0.16927670  0.06532659  1
  O2-  O277  1  0.28730942  0.16499581  0.40168147  1
  O2-  O278  1  0.28902487  0.16353710  0.73773878  1
  O2-  O279  1  0.29111615  0.66973465  0.06791696  1
  O2-  O280  1  0.30288536  0.67351054  0.38695100  1
  O2-  O281  1  0.29463804  0.67393901  0.72900020  1
  O2-  O282  1  0.79492153  0.16753563  0.06047401  1
  O2-  O283  1  0.79060501  0.16314493  0.40087436  1
  O2-  O284  1  0.79466300  0.17164666  0.73404378  1
  O2-  O285  1  0.79415074  0.66587288  0.06838857  1
  O2-  O286  1  0.79333722  0.67261958  0.40063888  1
  O2-  O287  1  0.79237869  0.66561228  0.73795002  1
