# generated using pymatgen
data_Ca2Al2SiO7
_symmetry_space_group_name_H-M   'P 1'
_cell_length_a   15.46705647
_cell_length_b   15.46947547
_cell_length_c   15.29077775
_cell_angle_alpha   90.02761316
_cell_angle_beta   90.01045495
_cell_angle_gamma   89.98366932
_symmetry_Int_Tables_number   1
_chemical_formula_structural   Ca2Al2SiO7
_chemical_formula_sum   'Ca48 Al48 Si24 O168'
_cell_volume   3658.58171820
_cell_formula_units_Z   24
loop_
 _symmetry_equiv_pos_site_id
 _symmetry_equiv_pos_as_xyz
  1  'x, y, z'
loop_
 _atom_type_symbol
 _atom_type_oxidation_number
  Ca2+  2.0
  Al0+  0.0
  Si0+  0.0
  O2-  -2.0
loop_
 _atom_site_type_symbol
 _atom_site_label
 _atom_site_symmetry_multiplicity
 _atom_site_fract_x
 _atom_site_fract_y
 _atom_site_fract_z
 _atom_site_occupancy
  Ca2+  Ca0  1  0.16358358  0.07959956  0.16452926  1
  Ca2+  Ca1  1  0.17551893  0.08017895  0.51376888  1
  Ca2+  Ca2  1  0.16321792  0.07808056  0.83332243  1
  Ca2+  Ca3  1  0.16908372  0.56812675  0.17079626  1
  Ca2+  Ca4  1  0.16958308  0.57186877  0.50477293  1
  Ca2+  Ca5  1  0.16446019  0.57196734  0.83858019  1
  Ca2+  Ca6  1  0.66640996  0.08216515  0.16984651  1
  Ca2+  Ca7  1  0.66616603  0.07455172  0.51136429  1
  Ca2+  Ca8  1  0.66540812  0.07444244  0.83363335  1
  Ca2+  Ca9  1  0.67351994  0.58699042  0.17194904  1
  Ca2+  Ca10  1  0.66096721  0.57973649  0.50270512  1
  Ca2+  Ca11  1  0.66900779  0.58594763  0.83530973  1
  Ca2+  Ca12  1  0.08239557  0.33067540  0.15406707  1
  Ca2+  Ca13  1  0.08576532  0.33414057  0.50049031  1
  Ca2+  Ca14  1  0.07650235  0.33309319  0.82565139  1
  Ca2+  Ca15  1  0.08351507  0.83017373  0.15915180  1
  Ca2+  Ca16  1  0.07801818  0.84133447  0.50170565  1
  Ca2+  Ca17  1  0.08040169  0.83893171  0.82474266  1
  Ca2+  Ca18  1  0.57213123  0.34572806  0.16570858  1
  Ca2+  Ca19  1  0.57974151  0.33929143  0.49339028  1
  Ca2+  Ca20  1  0.57732535  0.33817780  0.82787439  1
  Ca2+  Ca21  1  0.57267624  0.82189188  0.16034402  1
  Ca2+  Ca22  1  0.57749013  0.82654247  0.49669759  1
  Ca2+  Ca23  1  0.57808867  0.82320827  0.82329572  1
  Ca2+  Ca24  1  0.32557143  0.40450099  0.17028246  1
  Ca2+  Ca25  1  0.32538190  0.41151941  0.50515155  1
  Ca2+  Ca26  1  0.32168889  0.41145930  0.83842794  1
  Ca2+  Ca27  1  0.33372332  0.90987425  0.16704836  1
  Ca2+  Ca28  1  0.33573516  0.92097033  0.51279053  1
  Ca2+  Ca29  1  0.32982868  0.91677882  0.83743880  1
  Ca2+  Ca30  1  0.83102769  0.42805125  0.17345314  1
  Ca2+  Ca31  1  0.82213555  0.42146244  0.50641443  1
  Ca2+  Ca32  1  0.83142108  0.41684680  0.83909308  1
  Ca2+  Ca33  1  0.83199425  0.92109380  0.16998123  1
  Ca2+  Ca34  1  0.82743060  0.91552249  0.51079542  1
  Ca2+  Ca35  1  0.82775584  0.90813881  0.83307767  1
  Ca2+  Ca36  1  0.41787529  0.17797856  0.16487009  1
  Ca2+  Ca37  1  0.41420038  0.16968428  0.49853792  1
  Ca2+  Ca38  1  0.41069075  0.16957588  0.83306941  1
  Ca2+  Ca39  1  0.42858853  0.66874990  0.15865743  1
  Ca2+  Ca40  1  0.42559468  0.67565223  0.49463732  1
  Ca2+  Ca41  1  0.42470171  0.67512368  0.82671272  1
  Ca2+  Ca42  1  0.92378568  0.17860477  0.15443501  1
  Ca2+  Ca43  1  0.92205997  0.17338558  0.50359371  1
  Ca2+  Ca44  1  0.92926493  0.17696865  0.82725948  1
  Ca2+  Ca45  1  0.91316446  0.66052678  0.16325457  1
  Ca2+  Ca46  1  0.91426390  0.66829810  0.50072881  1
  Ca2+  Ca47  1  0.91729174  0.66799794  0.82897617  1
  Al0+  Al48  1  -0.00052884  0.00008111  0.00201866  1
  Al0+  Al49  1  0.00036157  0.00098190  0.33279387  1
  Al0+  Al50  1  0.00094265  0.00276938  0.66018219  1
  Al0+  Al51  1  -0.00138974  0.50052783  0.00468467  1
  Al0+  Al52  1  -0.00033273  0.50077078  0.34230444  1
  Al0+  Al53  1  -0.00187884  0.50081896  0.66472354  1
  Al0+  Al54  1  0.49802902  0.00015680  0.00062768  1
  Al0+  Al55  1  0.49933152  0.00088179  0.32928444  1
  Al0+  Al56  1  0.50108001  0.00125603  0.67398461  1
  Al0+  Al57  1  0.50002327  0.50042670  -0.01029955  1
  Al0+  Al58  1  0.49871886  0.50157166  0.32719800  1
  Al0+  Al59  1  0.50043821  0.50024711  0.66677205  1
  Al0+  Al60  1  0.25168955  0.24472394  -0.00218027  1
  Al0+  Al61  1  0.24988472  0.24552842  0.33372272  1
  Al0+  Al62  1  0.24982163  0.24923853  0.67186368  1
  Al0+  Al63  1  0.24925200  0.74855010  0.00187615  1
  Al0+  Al64  1  0.24546574  0.74921680  0.33130713  1
  Al0+  Al65  1  0.25050117  0.74953241  0.66542816  1
  Al0+  Al66  1  0.74925630  0.24913056  -0.00146286  1
  Al0+  Al67  1  0.75280153  0.25046409  0.33584571  1
  Al0+  Al68  1  0.74986143  0.25109721  0.66751931  1
  Al0+  Al69  1  0.74949576  0.74928580  0.00293332  1
  Al0+  Al70  1  0.75129838  0.75332749  0.33251873  1
  Al0+  Al71  1  0.75124539  0.74911619  0.66249642  1
  Al0+  Al72  1  0.92682467  0.32393400  0.64894928  1
  Al0+  Al73  1  0.67782443  0.42849715  0.68161262  1
  Al0+  Al74  1  0.81921953  0.57032394  0.01290075  1
  Al0+  Al75  1  0.42851269  0.82331784  0.65210485  1
  Al0+  Al76  1  0.17896045  0.43075537  0.68115708  1
  Al0+  Al77  1  0.82094823  0.57421844  0.35167335  1
  Al0+  Al78  1  0.93129638  0.82079394  0.65431524  1
  Al0+  Al79  1  0.42623851  0.82305980  0.31779105  1
  Al0+  Al80  1  0.57131660  0.67793173  0.64915675  1
  Al0+  Al81  1  0.57359675  0.67982664  0.98195650  1
  Al0+  Al82  1  0.18153395  0.42623432  0.34716309  1
  Al0+  Al83  1  0.18095821  0.42719908  0.01258112  1
  Al0+  Al84  1  0.07103716  0.17666516  0.98466759  1
  Al0+  Al85  1  0.57205212  0.67957915  0.31626642  1
  Al0+  Al86  1  0.32282844  0.07118507  0.68398109  1
  Al0+  Al87  1  0.17851577  0.92849620  0.01487047  1
  Al0+  Al88  1  0.67719391  0.42997909  0.34702252  1
  Al0+  Al89  1  0.68126250  0.92775595  0.68019875  1
  Al0+  Al90  1  0.92929772  0.32401872  0.98632818  1
  Al0+  Al91  1  0.07243945  0.18171304  0.64949866  1
  Al0+  Al92  1  0.42635630  0.82063157  0.98303831  1
  Al0+  Al93  1  0.42877969  0.31970755  0.32245143  1
  Al0+  Al94  1  0.43010170  0.31987290  0.98493035  1
  Al0+  Al95  1  0.17828878  0.92794320  0.67997821  1
  Si0+  Si96  1  0.93074891  0.82311883  0.31674470  1
  Si0+  Si97  1  0.07352239  0.67626309  0.64978372  1
  Si0+  Si98  1  0.92958757  0.32211664  0.31869010  1
  Si0+  Si99  1  0.32092760  0.57382692  0.34835606  1
  Si0+  Si100  1  0.57330157  0.17618721  0.98286443  1
  Si0+  Si101  1  0.57504343  0.17807863  0.31884710  1
  Si0+  Si102  1  0.82076000  0.57162980  0.68376894  1
  Si0+  Si103  1  0.92957132  0.82131879  0.98762995  1
  Si0+  Si104  1  0.82394173  0.07186606  0.34908837  1
  Si0+  Si105  1  0.67591460  0.42605600  0.01544459  1
  Si0+  Si106  1  0.67969767  0.93351911  0.34701048  1
  Si0+  Si107  1  0.67840015  0.92909332  0.01645559  1
  Si0+  Si108  1  0.07013802  0.17922721  0.31723213  1
  Si0+  Si109  1  0.32033382  0.06783889  0.34729483  1
  Si0+  Si110  1  0.32404613  0.07042523  0.02218592  1
  Si0+  Si111  1  0.57195734  0.17897076  0.65376339  1
  Si0+  Si112  1  0.82006760  0.07068226  0.01498042  1
  Si0+  Si113  1  0.82249613  0.07282846  0.68374073  1
  Si0+  Si114  1  0.32239949  0.57054632  0.01565654  1
  Si0+  Si115  1  0.06887213  0.67726001  0.31754932  1
  Si0+  Si116  1  0.32288324  0.57214466  0.68274759  1
  Si0+  Si117  1  0.17704850  0.92783302  0.34808896  1
  Si0+  Si118  1  0.07002357  0.67822369  0.98750981  1
  Si0+  Si119  1  0.42957626  0.31982325  0.65279951  1
  O2-  O120  1  0.25487322  0.00049052  0.06433465  1
  O2-  O121  1  0.25485131  -0.00855796  0.38816071  1
  O2-  O122  1  0.25232594  -0.00367753  0.73155845  1
  O2-  O123  1  0.25869560  0.49767837  0.06162972  1
  O2-  O124  1  0.25820971  0.49953314  0.39317755  1
  O2-  O125  1  0.25152612  0.50683802  0.72813749  1
  O2-  O126  1  0.74726301  0.00231784  0.05954847  1
  O2-  O127  1  0.74887795  0.00555530  0.39083013  1
  O2-  O128  1  0.75763605  0.00065777  0.72854086  1
  O2-  O129  1  0.74536969  0.49417878  0.05877964  1
  O2-  O130  1  0.74588146  0.50411637  0.39912548  1
  O2-  O131  1  0.75406057  0.50149224  0.72779729  1
  O2-  O132  1  0.00222908  0.25309729  0.27527126  1
  O2-  O133  1  0.00230835  0.25527114  0.59837088  1
  O2-  O134  1  0.00463843  0.25498019  0.93719179  1
  O2-  O135  1  -0.00186139  0.74907077  0.27454697  1
  O2-  O136  1  0.00921763  0.75009263  0.60629168  1
  O2-  O137  1  0.00160651  0.75192918  0.94576701  1
  O2-  O138  1  0.51098208  0.25173577  0.27617805  1
  O2-  O139  1  0.50215015  0.25036175  0.61050924  1
  O2-  O140  1  0.50786772  0.24763502  0.93901296  1
  O2-  O141  1  0.49600590  0.74889429  0.26808474  1
  O2-  O142  1  0.49951485  0.75125728  0.60134227  1
  O2-  O143  1  0.50053186  0.75135204  0.93385493  1
  O2-  O144  1  0.06638028  0.17622287  0.09947498  1
  O2-  O145  1  0.06948765  0.17699817  0.42168042  1
  O2-  O146  1  0.07002047  0.18158481  0.76260052  1
  O2-  O147  1  0.06795256  0.67858917  0.09296672  1
  O2-  O148  1  0.07023838  0.67943619  0.42228387  1
  O2-  O149  1  0.06991162  0.67324622  0.75552864  1
  O2-  O150  1  0.57336331  0.17400562  0.08880222  1
  O2-  O151  1  0.57306714  0.17251262  0.42410109  1
  O2-  O152  1  0.57311363  0.17963615  0.75867106  1
  O2-  O153  1  0.57495433  0.68209240  0.09567742  1
  O2-  O154  1  0.57173893  0.68281709  0.42941940  1
  O2-  O155  1  0.57144630  0.67948700  0.76244367  1
  O2-  O156  1  0.18090256  0.42566153  0.23385920  1
  O2-  O157  1  0.18270824  0.43074809  0.56761756  1
  O2-  O158  1  0.17915856  0.43134968  0.89988391  1
  O2-  O159  1  0.17188024  0.93078787  0.24311694  1
  O2-  O160  1  0.17838458  0.93182419  0.56568085  1
  O2-  O161  1  0.17458100  0.92969104  0.90284582  1
  O2-  O162  1  0.68125752  0.42684218  0.23341775  1
  O2-  O163  1  0.67621342  0.42827529  0.56866814  1
  O2-  O164  1  0.67799877  0.42481897  0.91000217  1
  O2-  O165  1  0.68257351  0.93647412  0.24156385  1
  O2-  O166  1  0.68183834  0.93165385  0.56652760  1
  O2-  O167  1  0.68128074  0.92891200  0.91165869  1
  O2-  O168  1  0.43050751  0.31744280  0.09854325  1
  O2-  O169  1  0.42571023  0.31409374  0.43542755  1
  O2-  O170  1  0.43041533  0.31886458  0.75774297  1
  O2-  O171  1  0.42864196  0.81747676  0.09699925  1
  O2-  O172  1  0.42937918  0.82655894  0.43088183  1
  O2-  O173  1  0.42980419  0.82160983  0.76525128  1
  O2-  O174  1  0.92967714  0.32178915  0.10088155  1
  O2-  O175  1  0.92837024  0.31847968  0.42321935  1
  O2-  O176  1  0.92690631  0.32225851  0.76246623  1
  O2-  O177  1  0.93002037  0.82262404  0.09320535  1
  O2-  O178  1  0.93288457  0.82814447  0.42131374  1
  O2-  O179  1  0.92987408  0.81785940  0.76782029  1
  O2-  O180  1  0.31821364  0.07115528  0.24261465  1
  O2-  O181  1  0.32270743  0.07240448  0.56929573  1
  O2-  O182  1  0.32712405  0.07079411  0.91745412  1
  O2-  O183  1  0.31589299  0.57568744  0.24290733  1
  O2-  O184  1  0.32253261  0.56884309  0.57679587  1
  O2-  O185  1  0.31740693  0.57150149  0.91032025  1
  O2-  O186  1  0.82571661  0.06928509  0.24366351  1
  O2-  O187  1  0.81833449  0.07189563  0.57739448  1
  O2-  O188  1  0.81982469  0.06797589  0.91057603  1
  O2-  O189  1  0.82269289  0.57102598  0.23787146  1
  O2-  O190  1  0.82001528  0.57222095  0.57836242  1
  O2-  O191  1  0.82042886  0.57349890  0.90037720  1
  O2-  O192  1  0.03820616  0.08832925  0.26916556  1
  O2-  O193  1  0.04235254  0.08493336  0.59333908  1
  O2-  O194  1  0.03408157  0.08092100  0.93239980  1
  O2-  O195  1  0.04007154  0.58498064  0.27122139  1
  O2-  O196  1  0.04176373  0.58635362  0.59974120  1
  O2-  O197  1  0.03853322  0.58861771  0.93897386  1
  O2-  O198  1  0.54412654  0.08791657  0.26799498  1
  O2-  O199  1  0.54347755  0.08761218  0.60588384  1
  O2-  O200  1  0.54478095  0.08355106  0.93681232  1
  O2-  O201  1  0.54738399  0.58078654  0.26205599  1
  O2-  O202  1  0.54001293  0.57967598  0.59695883  1
  O2-  O203  1  0.54872483  0.58133720  0.92908331  1
  O2-  O204  1  0.16266254  0.20319791  0.26994317  1
  O2-  O205  1  0.17197769  0.21006969  0.59814703  1
  O2-  O206  1  0.17257419  0.19308825  0.93695942  1
  O2-  O207  1  0.15944901  0.70447400  0.26741579  1
  O2-  O208  1  0.16845178  0.69499176  0.60418959  1
  O2-  O209  1  0.16231569  0.70166351  0.94072222  1
  O2-  O210  1  0.67115004  0.19675973  0.27415613  1
  O2-  O211  1  0.66372798  0.20335916  0.60488009  1
  O2-  O212  1  0.66805976  0.19593648  0.93720005  1
  O2-  O213  1  0.67028913  0.71369482  0.26489986  1
  O2-  O214  1  0.66962012  0.70640041  0.59721275  1
  O2-  O215  1  0.67172798  0.71238582  0.93080233  1
  O2-  O216  1  0.08607862  0.46216388  0.06792441  1
  O2-  O217  1  0.08668197  0.45960337  0.40202121  1
  O2-  O218  1  0.08086653  0.46128830  0.73178569  1
  O2-  O219  1  0.08186595  0.96095570  0.07092453  1
  O2-  O220  1  0.08750310  0.96294327  0.39620600  1
  O2-  O221  1  0.07894238  0.95907751  0.73014342  1
  O2-  O222  1  0.58117157  0.45344587  0.05812599  1
  O2-  O223  1  0.57556642  0.45365664  0.39629557  1
  O2-  O224  1  0.58110408  0.45901714  0.73540815  1
  O2-  O225  1  0.58654398  0.95727048  0.06363427  1
  O2-  O226  1  0.58733685  0.96103533  0.39301605  1
  O2-  O227  1  0.58809998  0.96202012  0.73724400  1
  O2-  O228  1  0.20947720  0.32840740  0.06403797  1
  O2-  O229  1  0.21169152  0.32891576  0.40026387  1
  O2-  O230  1  0.21172413  0.33579483  0.73518625  1
  O2-  O231  1  0.20564143  0.83023258  0.06952888  1
  O2-  O232  1  0.19404078  0.83288481  0.39283066  1
  O2-  O233  1  0.19810460  0.82629244  0.72985267  1
  O2-  O234  1  0.69719907  0.33074118  0.06081734  1
  O2-  O235  1  0.70608039  0.33022675  0.39936509  1
  O2-  O236  1  0.70580374  0.33083872  0.73516645  1
  O2-  O237  1  0.71076837  0.83999435  0.06588966  1
  O2-  O238  1  0.71012328  0.84294958  0.39351509  1
  O2-  O239  1  0.71466898  0.83189969  0.73343754  1
  O2-  O240  1  0.45019691  0.41732096  0.26635392  1
  O2-  O241  1  0.45546519  0.41169915  0.60544961  1
  O2-  O242  1  0.45537345  0.41594522  0.92829435  1
  O2-  O243  1  0.45720714  0.92072804  0.26310356  1
  O2-  O244  1  0.45949306  0.92305891  0.60302899  1
  O2-  O245  1  0.45183115  0.92179404  0.93621620  1
  O2-  O246  1  0.95624344  0.41588847  0.27566570  1
  O2-  O247  1  0.95219264  0.42306369  0.59676365  1
  O2-  O248  1  0.95531058  0.42298981  0.93467791  1
  O2-  O249  1  0.96189943  0.91391470  0.26738165  1
  O2-  O250  1  0.95662647  0.91768672  0.59722832  1
  O2-  O251  1  0.95495839  0.91290531  0.94030190  1
  O2-  O252  1  0.33539578  0.27944682  0.26674380  1
  O2-  O253  1  0.33854808  0.28955884  0.60611429  1
  O2-  O254  1  0.33508939  0.28514651  0.93123866  1
  O2-  O255  1  0.32453239  0.79886120  0.26917928  1
  O2-  O256  1  0.32900907  0.79712379  0.59940996  1
  O2-  O257  1  0.32715031  0.79155042  0.93303529  1
  O2-  O258  1  0.83862579  0.29214281  0.27025903  1
  O2-  O259  1  0.82954868  0.28942963  0.59634057  1
  O2-  O260  1  0.83084652  0.29280248  0.93545439  1
  O2-  O261  1  0.83795929  0.80066680  0.26909860  1
  O2-  O262  1  0.83699516  0.78820849  0.59691195  1
  O2-  O263  1  0.83803169  0.79247750  0.94161587  1
  O2-  O264  1  0.41793900  0.04639555  0.07022281  1
  O2-  O265  1  0.41468066  0.04652737  0.39330094  1
  O2-  O266  1  0.42137241  0.04854471  0.73870148  1
  O2-  O267  1  0.41873204  0.54798329  0.05709846  1
  O2-  O268  1  0.41682699  0.55426428  0.39041253  1
  O2-  O269  1  0.41456923  0.54333353  0.72982690  1
  O2-  O270  1  0.90927930  0.03927950  0.06584239  1
  O2-  O271  1  0.91347706  0.03835142  0.39744358  1
  O2-  O272  1  0.91751646  0.04991400  0.72555699  1
  O2-  O273  1  0.91512961  0.54156712  0.07060247  1
  O2-  O274  1  0.91828037  0.54531416  0.40607380  1
  O2-  O275  1  0.91547577  0.54912936  0.72874194  1
  O2-  O276  1  0.29633773  0.16329303  0.06921940  1
  O2-  O277  1  0.28715771  0.15639058  0.39768152  1
  O2-  O278  1  0.29181241  0.16789609  0.73823777  1
  O2-  O279  1  0.29283938  0.66160231  0.06470312  1
  O2-  O280  1  0.28811244  0.66472336  0.39679101  1
  O2-  O281  1  0.30064003  0.66670004  0.72766117  1
  O2-  O282  1  0.79339923  0.16267456  0.06414055  1
  O2-  O283  1  0.80202733  0.16471928  0.39603275  1
  O2-  O284  1  0.79274774  0.16410917  0.73083137  1
  O2-  O285  1  0.78989457  0.66712395  0.06982439  1
  O2-  O286  1  0.79942251  0.67667422  0.39961762  1
  O2-  O287  1  0.79473225  0.66509953  0.72951347  1
