# generated using pymatgen
data_Ca2Al2SiO7
_symmetry_space_group_name_H-M   'P 1'
_cell_length_a   15.45890358
_cell_length_b   15.45778682
_cell_length_c   15.28312422
_cell_angle_alpha   90.00254461
_cell_angle_beta   89.99645410
_cell_angle_gamma   90.01479408
_symmetry_Int_Tables_number   1
_chemical_formula_structural   Ca2Al2SiO7
_chemical_formula_sum   'Ca48 Al48 Si24 O168'
_cell_volume   3652.06189367
_cell_formula_units_Z   24
loop_
 _symmetry_equiv_pos_site_id
 _symmetry_equiv_pos_as_xyz
  1  'x, y, z'
loop_
 _atom_type_symbol
 _atom_type_oxidation_number
  Ca2+  2.0
  Al0+  0.0
  Si0+  0.0
  O2-  -2.0
loop_
 _atom_site_type_symbol
 _atom_site_label
 _atom_site_symmetry_multiplicity
 _atom_site_fract_x
 _atom_site_fract_y
 _atom_site_fract_z
 _atom_site_occupancy
  Ca2+  Ca0  1  0.17415840  0.08130888  0.16390026  1
  Ca2+  Ca1  1  0.17388078  0.07966127  0.51162638  1
  Ca2+  Ca2  1  0.17259279  0.07715717  0.83546536  1
  Ca2+  Ca3  1  0.17531540  0.57793416  0.16991851  1
  Ca2+  Ca4  1  0.17365241  0.57590746  0.50383404  1
  Ca2+  Ca5  1  0.18207667  0.58538060  0.83697401  1
  Ca2+  Ca6  1  0.66058923  0.07419050  0.16969284  1
  Ca2+  Ca7  1  0.65776710  0.07517492  0.50456239  1
  Ca2+  Ca8  1  0.66293360  0.07437041  0.83748512  1
  Ca2+  Ca9  1  0.67155304  0.58424966  0.16709323  1
  Ca2+  Ca10  1  0.66955628  0.57620073  0.51399307  1
  Ca2+  Ca11  1  0.67128113  0.58355133  0.83238685  1
  Ca2+  Ca12  1  0.08152587  0.33762447  0.16618183  1
  Ca2+  Ca13  1  0.08157499  0.33031362  0.49366824  1
  Ca2+  Ca14  1  0.07998835  0.32441704  0.82619299  1
  Ca2+  Ca15  1  0.07755155  0.83883443  0.16075504  1
  Ca2+  Ca16  1  0.07700161  0.83456910  0.49519642  1
  Ca2+  Ca17  1  0.08433334  0.84062963  0.82925986  1
  Ca2+  Ca18  1  0.57385320  0.32711111  0.16218279  1
  Ca2+  Ca19  1  0.58312344  0.32168066  0.49409114  1
  Ca2+  Ca20  1  0.58022752  0.32770883  0.82550702  1
  Ca2+  Ca21  1  0.57527907  0.84020259  0.16332206  1
  Ca2+  Ca22  1  0.58392165  0.82985217  0.49495862  1
  Ca2+  Ca23  1  0.58156214  0.83382597  0.82856029  1
  Ca2+  Ca24  1  0.33688023  0.41773377  0.17169801  1
  Ca2+  Ca25  1  0.33358406  0.41661980  0.50290610  1
  Ca2+  Ca26  1  0.34236652  0.42772345  0.83819754  1
  Ca2+  Ca27  1  0.33738625  0.91688984  0.16778000  1
  Ca2+  Ca28  1  0.33109439  0.92158061  0.50890303  1
  Ca2+  Ca29  1  0.32923609  0.92817752  0.84153305  1
  Ca2+  Ca30  1  0.83848542  0.42200752  0.17186639  1
  Ca2+  Ca31  1  0.82905878  0.41980773  0.50735572  1
  Ca2+  Ca32  1  0.82652391  0.42501184  0.83507387  1
  Ca2+  Ca33  1  0.82216332  0.92005955  0.17099601  1
  Ca2+  Ca34  1  0.82215241  0.91212512  0.50332316  1
  Ca2+  Ca35  1  0.81907299  0.92174025  0.83944391  1
  Ca2+  Ca36  1  0.41675969  0.17391955  0.16257813  1
  Ca2+  Ca37  1  0.42672515  0.16495641  0.49546363  1
  Ca2+  Ca38  1  0.41356312  0.16888672  0.82846179  1
  Ca2+  Ca39  1  0.41396039  0.67767594  0.15851798  1
  Ca2+  Ca40  1  0.42060765  0.67052589  0.49886866  1
  Ca2+  Ca41  1  0.41799187  0.67030678  0.82799616  1
  Ca2+  Ca42  1  0.91421038  0.16935637  0.16188722  1
  Ca2+  Ca43  1  0.92413748  0.17140723  0.49518108  1
  Ca2+  Ca44  1  0.92194457  0.15827544  0.82740597  1
  Ca2+  Ca45  1  0.91617414  0.67171070  0.16276221  1
  Ca2+  Ca46  1  0.91475656  0.67110681  0.49547986  1
  Ca2+  Ca47  1  0.91388552  0.66398330  0.82915849  1
  Al0+  Al48  1  -0.00132099  0.00035368  0.00552166  1
  Al0+  Al49  1  -0.00020730  0.00034938  0.32867522  1
  Al0+  Al50  1  -0.00078256  -0.00022449  0.66191530  1
  Al0+  Al51  1  -0.00064415  0.50084433  0.00088211  1
  Al0+  Al52  1  0.00337796  0.49949527  0.33469236  1
  Al0+  Al53  1  0.00042124  0.50163412  0.66870989  1
  Al0+  Al54  1  0.49802547  0.00066123  0.00272899  1
  Al0+  Al55  1  0.50098589  -0.00220917  0.33149719  1
  Al0+  Al56  1  0.49770303  0.00144233  0.67096862  1
  Al0+  Al57  1  0.50059370  0.50055801  0.00129853  1
  Al0+  Al58  1  0.50283523  0.50042220  0.33155808  1
  Al0+  Al59  1  0.50059371  0.50111367  0.66942352  1
  Al0+  Al60  1  0.24779235  0.24953997  -0.00259162  1
  Al0+  Al61  1  0.25041008  0.24995295  0.33509757  1
  Al0+  Al62  1  0.24819039  0.25002531  0.66463620  1
  Al0+  Al63  1  0.24888219  0.74869237  0.00314202  1
  Al0+  Al64  1  0.25062298  0.74909047  0.33165187  1
  Al0+  Al65  1  0.24685696  0.74859842  0.67052378  1
  Al0+  Al66  1  0.74959565  0.25146120  0.00053271  1
  Al0+  Al67  1  0.75291402  0.24923735  0.32477894  1
  Al0+  Al68  1  0.74936312  0.25034812  0.66565298  1
  Al0+  Al69  1  0.75061300  0.74926311  0.00728923  1
  Al0+  Al70  1  0.75175004  0.75118921  0.33247342  1
  Al0+  Al71  1  0.74903146  0.75033163  0.67015722  1
  Al0+  Al72  1  0.32108940  0.07227629  0.68087206  1
  Al0+  Al73  1  0.82168354  0.56911524  0.01617269  1
  Al0+  Al74  1  0.67770995  0.92926360  0.01639621  1
  Al0+  Al75  1  0.32275503  0.57014654  0.01480602  1
  Al0+  Al76  1  0.92914790  0.82093049  0.31841280  1
  Al0+  Al77  1  0.67972866  0.93059039  0.34983827  1
  Al0+  Al78  1  0.17937511  0.92812365  0.01667672  1
  Al0+  Al79  1  0.57177787  0.17722761  0.31683815  1
  Al0+  Al80  1  0.32042962  0.07323241  0.01697121  1
  Al0+  Al81  1  0.42804296  0.82125401  0.98441435  1
  Al0+  Al82  1  0.42897230  0.81848999  0.32138807  1
  Al0+  Al83  1  0.82166660  0.57193052  0.68042067  1
  Al0+  Al84  1  0.17616861  0.92866376  0.67918033  1
  Al0+  Al85  1  0.32114496  0.56980844  0.67904961  1
  Al0+  Al86  1  0.42777421  0.32130447  0.98482339  1
  Al0+  Al87  1  0.18104059  0.42876502  0.34751152  1
  Al0+  Al88  1  0.67784326  0.92947004  0.67918662  1
  Al0+  Al89  1  0.82121907  0.07280963  0.01446990  1
  Al0+  Al90  1  0.67826584  0.42596390  0.68074501  1
  Al0+  Al91  1  0.07062270  0.17844349  0.65243562  1
  Al0+  Al92  1  0.57067105  0.17793092  0.65408285  1
  Al0+  Al93  1  0.57122007  0.68015391  0.65422428  1
  Al0+  Al94  1  0.42864461  0.32170692  0.31948685  1
  Al0+  Al95  1  0.93145403  0.32131740  0.31965846  1
  Si0+  Si96  1  0.06928602  0.67827618  0.98392269  1
  Si0+  Si97  1  0.07205755  0.67816136  0.31605888  1
  Si0+  Si98  1  0.82143829  0.57028836  0.34825575  1
  Si0+  Si99  1  0.17800570  0.42848471  0.01447091  1
  Si0+  Si100  1  0.57371409  0.67879210  0.98331914  1
  Si0+  Si101  1  0.92883846  0.81965781  0.65298825  1
  Si0+  Si102  1  0.82385110  0.07358191  0.35119632  1
  Si0+  Si103  1  0.67785712  0.42794337  0.01898413  1
  Si0+  Si104  1  0.92811154  0.32385753  0.98326916  1
  Si0+  Si105  1  0.17719838  0.42747803  0.68374907  1
  Si0+  Si106  1  0.82193008  0.07212460  0.67874080  1
  Si0+  Si107  1  0.42801892  0.32361073  0.65063576  1
  Si0+  Si108  1  0.32039068  0.06962954  0.34850846  1
  Si0+  Si109  1  0.57415851  0.67715359  0.31682263  1
  Si0+  Si110  1  0.57180203  0.17891506  0.98235643  1
  Si0+  Si111  1  0.92892126  0.32379780  0.65091899  1
  Si0+  Si112  1  0.17729498  0.92799177  0.34793069  1
  Si0+  Si113  1  0.92887301  0.82103658  0.98424251  1
  Si0+  Si114  1  0.06806426  0.17857922  0.98421336  1
  Si0+  Si115  1  0.07255618  0.67735785  0.65100437  1
  Si0+  Si116  1  0.07331548  0.17753547  0.31430756  1
  Si0+  Si117  1  0.32429074  0.57326741  0.35045443  1
  Si0+  Si118  1  0.67989499  0.42772286  0.34664843  1
  Si0+  Si119  1  0.42624729  0.82118422  0.65242394  1
  O2-  O120  1  0.25386917  -0.00364398  0.06826271  1
  O2-  O121  1  0.24850091  -0.00158993  0.39025675  1
  O2-  O122  1  0.24932081  -0.00119604  0.72884143  1
  O2-  O123  1  0.25085145  0.49188581  0.05977555  1
  O2-  O124  1  0.25906871  0.50053717  0.39369271  1
  O2-  O125  1  0.24853168  0.49326725  0.72719394  1
  O2-  O126  1  0.74759317  0.00400801  0.06587788  1
  O2-  O127  1  0.75434821  0.00629793  0.39635198  1
  O2-  O128  1  0.74923430  0.00844240  0.72335579  1
  O2-  O129  1  0.74816531  0.49464461  0.06446206  1
  O2-  O130  1  0.75014685  0.49968210  0.38968142  1
  O2-  O131  1  0.74998741  0.49936185  0.72956975  1
  O2-  O132  1  0.00445542  0.24627598  0.27031134  1
  O2-  O133  1  -0.00258555  0.25511343  0.60637333  1
  O2-  O134  1  -0.00527588  0.24831795  0.94201679  1
  O2-  O135  1  0.00607562  0.74875323  0.27082727  1
  O2-  O136  1  0.00053419  0.74847573  0.61077520  1
  O2-  O137  1  0.00023131  0.75101302  0.94065401  1
  O2-  O138  1  0.50008879  0.25031517  0.26812568  1
  O2-  O139  1  0.49603805  0.25362353  0.60756887  1
  O2-  O140  1  0.50204948  0.24651124  0.93796786  1
  O2-  O141  1  0.50249317  0.74287381  0.27371812  1
  O2-  O142  1  0.49649947  0.75462748  0.60679221  1
  O2-  O143  1  0.50522075  0.74787775  0.93934348  1
  O2-  O144  1  0.06859923  0.18084323  0.08935337  1
  O2-  O145  1  0.07203192  0.17715915  0.42003034  1
  O2-  O146  1  0.06721575  0.17866113  0.76582131  1
  O2-  O147  1  0.06633781  0.67606333  0.08911000  1
  O2-  O148  1  0.07110549  0.67853680  0.42200831  1
  O2-  O149  1  0.07335384  0.67528138  0.75590640  1
  O2-  O150  1  0.57278981  0.18190688  0.08789599  1
  O2-  O151  1  0.57001065  0.17771313  0.43088501  1
  O2-  O152  1  0.57074134  0.17882572  0.76688638  1
  O2-  O153  1  0.57342888  0.67808798  0.08929915  1
  O2-  O154  1  0.57490066  0.67676035  0.42258649  1
  O2-  O155  1  0.57190430  0.68181881  0.76706888  1
  O2-  O156  1  0.17886711  0.43300202  0.23443171  1
  O2-  O157  1  0.17552726  0.42984029  0.57793729  1
  O2-  O158  1  0.17508733  0.43185683  0.90895895  1
  O2-  O159  1  0.17725768  0.92869943  0.24327407  1
  O2-  O160  1  0.17627608  0.92901542  0.56480331  1
  O2-  O161  1  0.17668852  0.93180881  0.90334057  1
  O2-  O162  1  0.68063706  0.43086510  0.24169107  1
  O2-  O163  1  0.68120635  0.42629741  0.56637099  1
  O2-  O164  1  0.67953207  0.42796224  0.91353594  1
  O2-  O165  1  0.68042198  0.92997207  0.23735071  1
  O2-  O166  1  0.68019970  0.92720191  0.56592901  1
  O2-  O167  1  0.68027056  0.92821305  0.90242352  1
  O2-  O168  1  0.42939633  0.32086297  0.09790071  1
  O2-  O169  1  0.43028627  0.32141124  0.43317318  1
  O2-  O170  1  0.42873115  0.32355371  0.75634376  1
  O2-  O171  1  0.42902385  0.81812420  0.09792033  1
  O2-  O172  1  0.42714658  0.81734424  0.43472751  1
  O2-  O173  1  0.42656783  0.81892072  0.75779666  1
  O2-  O174  1  0.93217379  0.32674589  0.08832488  1
  O2-  O175  1  0.93280031  0.32152226  0.43282381  1
  O2-  O176  1  0.93091819  0.32456502  0.75666275  1
  O2-  O177  1  0.93047294  0.81888862  0.08944896  1
  O2-  O178  1  0.92946975  0.81762049  0.43211763  1
  O2-  O179  1  0.92955114  0.82029770  0.75809464  1
  O2-  O180  1  0.31841355  0.07037926  0.24369313  1
  O2-  O181  1  0.32097035  0.06995209  0.56642556  1
  O2-  O182  1  0.31608732  0.07518003  0.90375227  1
  O2-  O183  1  0.32161267  0.57504484  0.24502786  1
  O2-  O184  1  0.31824042  0.57031704  0.56571890  1
  O2-  O185  1  0.32095605  0.57027013  0.90155270  1
  O2-  O186  1  0.82482940  0.07150900  0.24590700  1
  O2-  O187  1  0.82465768  0.06987722  0.57319954  1
  O2-  O188  1  0.82310951  0.06890628  0.90038432  1
  O2-  O189  1  0.82144008  0.56941751  0.24307324  1
  O2-  O190  1  0.82220007  0.57094350  0.56627310  1
  O2-  O191  1  0.82305837  0.56759896  0.90357758  1
  O2-  O192  1  0.04814238  0.08448938  0.26729663  1
  O2-  O193  1  0.03823646  0.08350929  0.59514894  1
  O2-  O194  1  0.03928876  0.08642213  0.93781343  1
  O2-  O195  1  0.04368322  0.58587091  0.26945865  1
  O2-  O196  1  0.04442896  0.58585005  0.60196984  1
  O2-  O197  1  0.03870508  0.58759472  0.93527223  1
  O2-  O198  1  0.54062709  0.08000773  0.26470411  1
  O2-  O199  1  0.53770383  0.08155489  0.59946882  1
  O2-  O200  1  0.54764766  0.08414671  0.93913296  1
  O2-  O201  1  0.55328428  0.58295509  0.26998327  1
  O2-  O202  1  0.54118164  0.58293249  0.59988202  1
  O2-  O203  1  0.54847906  0.58472755  0.93840193  1
  O2-  O204  1  0.16643594  0.20488953  0.26912581  1
  O2-  O205  1  0.16661743  0.20870336  0.59638460  1
  O2-  O206  1  0.15806949  0.20838353  0.93481107  1
  O2-  O207  1  0.16644010  0.70048294  0.27058694  1
  O2-  O208  1  0.16305655  0.70518978  0.60055761  1
  O2-  O209  1  0.16182232  0.70412499  0.93754882  1
  O2-  O210  1  0.67030775  0.20329072  0.26370873  1
  O2-  O211  1  0.66818042  0.20646742  0.59907668  1
  O2-  O212  1  0.66587642  0.20542271  0.93653399  1
  O2-  O213  1  0.66688958  0.70485983  0.27039316  1
  O2-  O214  1  0.66824970  0.71030442  0.59962071  1
  O2-  O215  1  0.66877296  0.70399254  0.93956735  1
  O2-  O216  1  0.08671072  0.45972529  0.06256833  1
  O2-  O217  1  0.08616086  0.46345994  0.40396583  1
  O2-  O218  1  0.08482120  0.45514696  0.73070657  1
  O2-  O219  1  0.08214737  0.96034984  0.07019542  1
  O2-  O220  1  0.08470394  0.95588032  0.39411367  1
  O2-  O221  1  0.07786091  0.95892135  0.73155373  1
  O2-  O222  1  0.58579045  0.45650321  0.06599432  1
  O2-  O223  1  0.58811581  0.45421944  0.39500840  1
  O2-  O224  1  0.58103234  0.45450859  0.73425663  1
  O2-  O225  1  0.57929051  0.95662491  0.06867241  1
  O2-  O226  1  0.58197833  0.95928040  0.40310719  1
  O2-  O227  1  0.58153520  0.95715246  0.73360524  1
  O2-  O228  1  0.19702892  0.33330872  0.05884137  1
  O2-  O229  1  0.20696025  0.33110856  0.40246894  1
  O2-  O230  1  0.19824202  0.33267740  0.72802789  1
  O2-  O231  1  0.20088615  0.82800204  0.06858257  1
  O2-  O232  1  0.20271413  0.83443567  0.39353129  1
  O2-  O233  1  0.19743544  0.82886777  0.73128527  1
  O2-  O234  1  0.70187937  0.33408452  0.06443859  1
  O2-  O235  1  0.70968758  0.33519833  0.39126410  1
  O2-  O236  1  0.70823506  0.32900228  0.73612316  1
  O2-  O237  1  0.70865619  0.83229452  0.07038401  1
  O2-  O238  1  0.71378384  0.83301346  0.40172831  1
  O2-  O239  1  0.71308365  0.83614449  0.73537801  1
  O2-  O240  1  0.45629871  0.42116750  0.26724297  1
  O2-  O241  1  0.45323709  0.41714270  0.60468105  1
  O2-  O242  1  0.46045349  0.41877682  0.93294213  1
  O2-  O243  1  0.46056393  0.91367777  0.26653321  1
  O2-  O244  1  0.44938109  0.91601724  0.60839941  1
  O2-  O245  1  0.45548165  0.92009284  0.93315686  1
  O2-  O246  1  0.96506889  0.41768779  0.26552745  1
  O2-  O247  1  0.95555608  0.41746420  0.60451549  1
  O2-  O248  1  0.96102959  0.41362122  0.93451472  1
  O2-  O249  1  0.95793770  0.91769350  0.26399481  1
  O2-  O250  1  0.95602156  0.90990060  0.60209857  1
  O2-  O251  1  0.95641420  0.91371095  0.93852970  1
  O2-  O252  1  0.32937661  0.29421661  0.26769517  1
  O2-  O253  1  0.33294842  0.30095259  0.60601909  1
  O2-  O254  1  0.32960223  0.29384633  0.93161418  1
  O2-  O255  1  0.33216589  0.78973377  0.26573485  1
  O2-  O256  1  0.33249676  0.79308663  0.60685755  1
  O2-  O257  1  0.33050050  0.78810070  0.93347130  1
  O2-  O258  1  0.83616175  0.29449977  0.26155008  1
  O2-  O259  1  0.83542293  0.29909390  0.60466494  1
  O2-  O260  1  0.83408602  0.30187658  0.93800491  1
  O2-  O261  1  0.83447579  0.78689880  0.26309229  1
  O2-  O262  1  0.83817703  0.78948903  0.60471893  1
  O2-  O263  1  0.83670919  0.79081281  0.93911718  1
  O2-  O264  1  0.41980374  0.05017690  0.06870790  1
  O2-  O265  1  0.41176217  0.03948079  0.39478404  1
  O2-  O266  1  0.41744346  0.04547305  0.73712902  1
  O2-  O267  1  0.41986017  0.54347168  0.06927121  1
  O2-  O268  1  0.42015921  0.55182554  0.39372645  1
  O2-  O269  1  0.41706934  0.54271384  0.73490867  1
  O2-  O270  1  0.91767534  0.04388737  0.07045220  1
  O2-  O271  1  0.91850061  0.04689287  0.39571902  1
  O2-  O272  1  0.91306271  0.04058058  0.72620280  1
  O2-  O273  1  0.91801271  0.53741272  0.07087484  1
  O2-  O274  1  0.91373202  0.54295280  0.39461824  1
  O2-  O275  1  0.92051932  0.54536258  0.73405352  1
  O2-  O276  1  0.28413195  0.16986037  0.06997048  1
  O2-  O277  1  0.29319433  0.16116698  0.39635440  1
  O2-  O278  1  0.29143677  0.17106799  0.73190248  1
  O2-  O279  1  0.28599145  0.66352642  0.07030794  1
  O2-  O280  1  0.29322545  0.66487987  0.39815581  1
  O2-  O281  1  0.28645458  0.66409964  0.73477840  1
  O2-  O282  1  0.79969989  0.17430367  0.06453800  1
  O2-  O283  1  0.80163829  0.16946599  0.39410823  1
  O2-  O284  1  0.80412399  0.16738776  0.72364312  1
  O2-  O285  1  0.79243228  0.66504733  0.07182636  1
  O2-  O286  1  0.79469500  0.66257336  0.39461113  1
  O2-  O287  1  0.79280452  0.66866297  0.73546810  1
