# generated using pymatgen
data_Ca2Al2SiO7
_symmetry_space_group_name_H-M   'P 1'
_cell_length_a   15.46051736
_cell_length_b   15.46056050
_cell_length_c   15.28544696
_cell_angle_alpha   90.00093913
_cell_angle_beta   90.00254194
_cell_angle_gamma   89.98813178
_symmetry_Int_Tables_number   1
_chemical_formula_structural   Ca2Al2SiO7
_chemical_formula_sum   'Ca48 Al48 Si24 O168'
_cell_volume   3653.65376863
_cell_formula_units_Z   24
loop_
 _symmetry_equiv_pos_site_id
 _symmetry_equiv_pos_as_xyz
  1  'x, y, z'
loop_
 _atom_type_symbol
 _atom_type_oxidation_number
  Ca2+  2.0
  Al0+  0.0
  Si0+  0.0
  O2-  -2.0
loop_
 _atom_site_type_symbol
 _atom_site_label
 _atom_site_symmetry_multiplicity
 _atom_site_fract_x
 _atom_site_fract_y
 _atom_site_fract_z
 _atom_site_occupancy
  Ca2+  Ca0  1  0.17720474  0.07952610  0.17514909  1
  Ca2+  Ca1  1  0.17354581  0.08104188  0.51171193  1
  Ca2+  Ca2  1  0.16895418  0.08511270  0.83239585  1
  Ca2+  Ca3  1  0.15691787  0.58156018  0.16566447  1
  Ca2+  Ca4  1  0.16792491  0.58235356  0.50957998  1
  Ca2+  Ca5  1  0.16298617  0.57564859  0.83553589  1
  Ca2+  Ca6  1  0.66738401  0.08541799  0.17453107  1
  Ca2+  Ca7  1  0.67125866  0.09061570  0.49726481  1
  Ca2+  Ca8  1  0.66803086  0.08629536  0.83874682  1
  Ca2+  Ca9  1  0.66926544  0.58053101  0.16981551  1
  Ca2+  Ca10  1  0.67932666  0.57838770  0.50775787  1
  Ca2+  Ca11  1  0.66397901  0.57121523  0.84021699  1
  Ca2+  Ca12  1  0.07713170  0.33650992  0.16437556  1
  Ca2+  Ca13  1  0.07755520  0.33493445  0.50112263  1
  Ca2+  Ca14  1  0.08132977  0.33512017  0.82183933  1
  Ca2+  Ca15  1  0.07341878  0.82283809  0.16057892  1
  Ca2+  Ca16  1  0.08742317  0.82336409  0.49597392  1
  Ca2+  Ca17  1  0.08696269  0.82399697  0.82778004  1
  Ca2+  Ca18  1  0.58040769  0.32264782  0.15698498  1
  Ca2+  Ca19  1  0.57756898  0.33285156  0.49899138  1
  Ca2+  Ca20  1  0.57501267  0.33929092  0.82934261  1
  Ca2+  Ca21  1  0.57861420  0.82680414  0.15646685  1
  Ca2+  Ca22  1  0.58090007  0.83249763  0.49757968  1
  Ca2+  Ca23  1  0.57758799  0.82680784  0.83647057  1
  Ca2+  Ca24  1  0.32819000  0.41194888  0.16367638  1
  Ca2+  Ca25  1  0.32606157  0.42223572  0.51383975  1
  Ca2+  Ca26  1  0.32496608  0.41268719  0.83678164  1
  Ca2+  Ca27  1  0.33679324  0.91965160  0.17261891  1
  Ca2+  Ca28  1  0.32740100  0.92960527  0.50893673  1
  Ca2+  Ca29  1  0.32952662  0.91893627  0.83330383  1
  Ca2+  Ca30  1  0.82793754  0.42156848  0.17401628  1
  Ca2+  Ca31  1  0.83305754  0.41413400  0.50348344  1
  Ca2+  Ca32  1  0.82232117  0.40978462  0.83664001  1
  Ca2+  Ca33  1  0.83606251  0.91821855  0.17391857  1
  Ca2+  Ca34  1  0.84064544  0.92170052  0.49935387  1
  Ca2+  Ca35  1  0.83690740  0.91801754  0.83932354  1
  Ca2+  Ca36  1  0.42719663  0.16631101  0.15992072  1
  Ca2+  Ca37  1  0.41314626  0.17038323  0.49657896  1
  Ca2+  Ca38  1  0.41745114  0.17866134  0.82859639  1
  Ca2+  Ca39  1  0.42372113  0.67395472  0.15519496  1
  Ca2+  Ca40  1  0.41405150  0.66419638  0.49994937  1
  Ca2+  Ca41  1  0.41620545  0.66364568  0.83115018  1
  Ca2+  Ca42  1  0.90996468  0.17208707  0.16744193  1
  Ca2+  Ca43  1  0.91916643  0.17670040  0.49699780  1
  Ca2+  Ca44  1  0.92573079  0.17482728  0.82277678  1
  Ca2+  Ca45  1  0.92033809  0.67144038  0.16362848  1
  Ca2+  Ca46  1  0.92985267  0.66720447  0.48957706  1
  Ca2+  Ca47  1  0.92826587  0.66839255  0.83087952  1
  Al0+  Al48  1  0.00101309  0.00066668  0.00049281  1
  Al0+  Al49  1  0.00036291  -0.00069439  0.33555947  1
  Al0+  Al50  1  0.00002568  0.00034533  0.66787302  1
  Al0+  Al51  1  -0.00125575  0.50008796  0.00109011  1
  Al0+  Al52  1  -0.00154921  0.49844817  0.32931043  1
  Al0+  Al53  1  -0.00077428  0.50340360  0.66187662  1
  Al0+  Al54  1  0.50255945  -0.00040689  -0.00706237  1
  Al0+  Al55  1  0.49988445  0.00067511  0.33570530  1
  Al0+  Al56  1  0.50176684  -0.00070614  0.67058956  1
  Al0+  Al57  1  0.49836799  0.49833493  0.00104272  1
  Al0+  Al58  1  0.49767353  0.49863524  0.33258049  1
  Al0+  Al59  1  0.50276172  0.49993891  0.66667467  1
  Al0+  Al60  1  0.25052482  0.24924078  0.00503315  1
  Al0+  Al61  1  0.24894917  0.25118092  0.33713550  1
  Al0+  Al62  1  0.25145843  0.25093571  0.66538289  1
  Al0+  Al63  1  0.24883334  0.75014394  -0.00464641  1
  Al0+  Al64  1  0.25057107  0.74807822  0.32853844  1
  Al0+  Al65  1  0.25177738  0.75270436  0.66843136  1
  Al0+  Al66  1  0.75049735  0.25011424  0.00190866  1
  Al0+  Al67  1  0.74832574  0.24814508  0.33029835  1
  Al0+  Al68  1  0.74937381  0.24940118  0.66772181  1
  Al0+  Al69  1  0.74978740  0.75165253  -0.00692764  1
  Al0+  Al70  1  0.74982690  0.74864416  0.33600725  1
  Al0+  Al71  1  0.74985840  0.75080206  0.66732873  1
  Al0+  Al72  1  0.07229661  0.17830184  0.65191003  1
  Al0+  Al73  1  0.32304296  0.07319168  0.68409590  1
  Al0+  Al74  1  0.42729129  0.31945200  0.98536125  1
  Al0+  Al75  1  0.57114636  0.67700842  0.98520604  1
  Al0+  Al76  1  0.67685849  0.42828693  0.01609868  1
  Al0+  Al77  1  0.07264005  0.67766085  0.31638241  1
  Al0+  Al78  1  0.92907294  0.31875396  0.31809088  1
  Al0+  Al79  1  0.07210118  0.68152591  0.65197228  1
  Al0+  Al80  1  0.92684966  0.32179789  0.65229150  1
  Al0+  Al81  1  0.56798323  0.18005753  0.32091867  1
  Al0+  Al82  1  0.82031046  0.57073883  0.34671427  1
  Al0+  Al83  1  0.17761102  0.42809483  0.01552490  1
  Al0+  Al84  1  0.68188286  0.42890395  0.67941825  1
  Al0+  Al85  1  0.32282404  0.57232371  0.68133661  1
  Al0+  Al86  1  0.57380241  0.17958097  0.98356102  1
  Al0+  Al87  1  0.17771354  0.43111242  0.67993124  1
  Al0+  Al88  1  0.17788893  0.93020197  0.68248615  1
  Al0+  Al89  1  0.32183981  0.07079172  0.34669375  1
  Al0+  Al90  1  0.92936647  0.82378612  0.98397628  1
  Al0+  Al91  1  0.92789219  0.82226921  0.31952471  1
  Al0+  Al92  1  0.06938741  0.67738178  0.98232673  1
  Al0+  Al93  1  0.43024850  0.32187988  0.65198532  1
  Al0+  Al94  1  0.82153936  0.07124113  0.34752932  1
  Al0+  Al95  1  0.42761661  0.82206574  0.98394821  1
  Si0+  Si96  1  0.92969653  0.32034101  0.98655555  1
  Si0+  Si97  1  0.81952411  0.06996003  0.68206841  1
  Si0+  Si98  1  0.32216800  0.57147711  0.34647172  1
  Si0+  Si99  1  0.81987286  0.57253709  0.01597492  1
  Si0+  Si100  1  0.17849487  0.92787194  0.01684693  1
  Si0+  Si101  1  0.57181990  0.17591076  0.64907022  1
  Si0+  Si102  1  0.17973044  0.92636914  0.34830218  1
  Si0+  Si103  1  0.82236292  0.57451118  0.68423668  1
  Si0+  Si104  1  0.07392666  0.17777462  0.31677151  1
  Si0+  Si105  1  0.57121334  0.67708787  0.32081429  1
  Si0+  Si106  1  0.43094529  0.81998209  0.32108086  1
  Si0+  Si107  1  0.67887899  0.92639642  0.68403570  1
  Si0+  Si108  1  0.43092898  0.82197084  0.65009541  1
  Si0+  Si109  1  0.67695374  0.42747579  0.34971611  1
  Si0+  Si110  1  0.17822486  0.43011805  0.34841370  1
  Si0+  Si111  1  0.32052412  0.57316857  0.01795526  1
  Si0+  Si112  1  0.82257278  0.07079551  0.01525379  1
  Si0+  Si113  1  0.32178531  0.06883540  0.01553131  1
  Si0+  Si114  1  0.57203061  0.67896469  0.65000044  1
  Si0+  Si115  1  0.42510607  0.32357301  0.31600401  1
  Si0+  Si116  1  0.07174369  0.17911479  0.98853140  1
  Si0+  Si117  1  0.67983637  0.92948564  0.01459291  1
  Si0+  Si118  1  0.92587793  0.82233440  0.64917376  1
  Si0+  Si119  1  0.67745145  0.92712968  0.35000774  1
  O2-  O120  1  0.25312472  -0.00437434  0.05931743  1
  O2-  O121  1  0.24464419  -0.00148888  0.39243598  1
  O2-  O122  1  0.24750249  0.00438581  0.73358409  1
  O2-  O123  1  0.25120561  0.50478494  0.06269883  1
  O2-  O124  1  0.25036134  0.50140158  0.38780918  1
  O2-  O125  1  0.25049249  0.50134392  0.73182871  1
  O2-  O126  1  0.75128881  -0.00043290  0.05713706  1
  O2-  O127  1  0.74911635  -0.00675141  0.39383244  1
  O2-  O128  1  0.75024037  -0.00241821  0.72496625  1
  O2-  O129  1  0.74920946  0.50599275  0.06136870  1
  O2-  O130  1  0.74504509  0.49652746  0.39403855  1
  O2-  O131  1  0.75781354  0.50171970  0.72769651  1
  O2-  O132  1  0.00294257  0.24297468  0.27054399  1
  O2-  O133  1  0.00166155  0.25216626  0.60264297  1
  O2-  O134  1  0.00305755  0.25173339  0.94572381  1
  O2-  O135  1  -0.00078502  0.75010244  0.26946407  1
  O2-  O136  1  -0.00381431  0.75569398  0.60567999  1
  O2-  O137  1  0.00051955  0.75259824  0.93295026  1
  O2-  O138  1  0.49299416  0.25361146  0.27345116  1
  O2-  O139  1  0.50130166  0.24279623  0.60556768  1
  O2-  O140  1  0.50330773  0.25243400  0.93418600  1
  O2-  O141  1  0.50117366  0.74877508  0.27831155  1
  O2-  O142  1  0.49980414  0.74874583  0.60687596  1
  O2-  O143  1  0.49522341  0.74510023  0.93490732  1
  O2-  O144  1  0.07000411  0.17770972  0.09392721  1
  O2-  O145  1  0.07557180  0.18069606  0.42174209  1
  O2-  O146  1  0.06746975  0.17740294  0.76626067  1
  O2-  O147  1  0.06606239  0.67849488  0.09593875  1
  O2-  O148  1  0.07608005  0.67991138  0.42989913  1
  O2-  O149  1  0.07000274  0.68114125  0.76458600  1
  O2-  O150  1  0.57193101  0.17738464  0.09755545  1
  O2-  O151  1  0.56779401  0.18129416  0.43387623  1
  O2-  O152  1  0.57370239  0.17622923  0.75436511  1
  O2-  O153  1  0.57135412  0.68154062  0.09987282  1
  O2-  O154  1  0.56936133  0.67733688  0.42608897  1
  O2-  O155  1  0.57369741  0.68112023  0.75452265  1
  O2-  O156  1  0.17978830  0.42824315  0.24301804  1
  O2-  O157  1  0.17855978  0.43359409  0.56579118  1
  O2-  O158  1  0.17595667  0.42591569  0.90328302  1
  O2-  O159  1  0.18338018  0.92654675  0.24229563  1
  O2-  O160  1  0.18203861  0.92890267  0.56830960  1
  O2-  O161  1  0.17625838  0.93138974  0.91239970  1
  O2-  O162  1  0.67666907  0.43000442  0.24410892  1
  O2-  O163  1  0.68147088  0.43144186  0.56593773  1
  O2-  O164  1  0.68124306  0.42694800  0.90305510  1
  O2-  O165  1  0.67381655  0.92731126  0.24449373  1
  O2-  O166  1  0.67775628  0.92381195  0.57886640  1
  O2-  O167  1  0.68035318  0.93060063  0.90941057  1
  O2-  O168  1  0.42587766  0.31366952  0.09948520  1
  O2-  O169  1  0.42651817  0.32651646  0.42140250  1
  O2-  O170  1  0.43223206  0.32300128  0.76458241  1
  O2-  O171  1  0.43197463  0.82335129  0.09878722  1
  O2-  O172  1  0.43159924  0.81889896  0.42623355  1
  O2-  O173  1  0.43404198  0.82321676  0.75452525  1
  O2-  O174  1  0.92872762  0.31856571  0.09191863  1
  O2-  O175  1  0.93021102  0.31883688  0.43066892  1
  O2-  O176  1  0.92428684  0.31704818  0.76636976  1
  O2-  O177  1  0.92981309  0.82556953  0.09738487  1
  O2-  O178  1  0.92953239  0.82109542  0.43302515  1
  O2-  O179  1  0.92293144  0.82028691  0.75458859  1
  O2-  O180  1  0.32286345  0.06672262  0.23297571  1
  O2-  O181  1  0.32508566  0.06844107  0.57007250  1
  O2-  O182  1  0.31842484  0.07039678  0.91119398  1
  O2-  O183  1  0.32689193  0.57243930  0.24189258  1
  O2-  O184  1  0.32178018  0.57087332  0.56659886  1
  O2-  O185  1  0.32040571  0.57270327  0.91289924  1
  O2-  O186  1  0.81747827  0.07147159  0.23425348  1
  O2-  O187  1  0.81761326  0.07001665  0.57704446  1
  O2-  O188  1  0.82310046  0.07061638  0.90998934  1
  O2-  O189  1  0.81631458  0.57076877  0.23350167  1
  O2-  O190  1  0.81830838  0.57789532  0.57855335  1
  O2-  O191  1  0.82065075  0.56951358  0.91045977  1
  O2-  O192  1  0.05298045  0.08204504  0.27347202  1
  O2-  O193  1  0.04143719  0.08008743  0.59916677  1
  O2-  O194  1  0.04245076  0.08888338  0.93984200  1
  O2-  O195  1  0.04260954  0.57995235  0.26421844  1
  O2-  O196  1  0.04141181  0.58624130  0.59562589  1
  O2-  O197  1  0.03735417  0.57937818  0.93062666  1
  O2-  O198  1  0.53887962  0.08203945  0.26722457  1
  O2-  O199  1  0.55049034  0.08025962  0.60470109  1
  O2-  O200  1  0.54771214  0.08136369  0.93056977  1
  O2-  O201  1  0.54245507  0.58585017  0.27269364  1
  O2-  O202  1  0.54657735  0.58794115  0.60075933  1
  O2-  O203  1  0.54615549  0.57751397  0.93492120  1
  O2-  O204  1  0.16655301  0.20715517  0.26920770  1
  O2-  O205  1  0.17134994  0.20279250  0.59972489  1
  O2-  O206  1  0.16427689  0.20408020  0.94310420  1
  O2-  O207  1  0.17105518  0.70552554  0.26168768  1
  O2-  O208  1  0.16945568  0.71359400  0.59911435  1
  O2-  O209  1  0.16892489  0.70251640  0.93235052  1
  O2-  O210  1  0.66369408  0.20908857  0.26494580  1
  O2-  O211  1  0.66471075  0.20451519  0.60327743  1
  O2-  O212  1  0.67380461  0.20529721  0.93276697  1
  O2-  O213  1  0.66247650  0.70412337  0.27331906  1
  O2-  O214  1  0.66288431  0.71114948  0.60187243  1
  O2-  O215  1  0.66645420  0.70937190  0.92944712  1
  O2-  O216  1  0.08032293  0.45890208  0.07002057  1
  O2-  O217  1  0.08619845  0.45738414  0.39402325  1
  O2-  O218  1  0.07806028  0.45944780  0.73104251  1
  O2-  O219  1  0.08852524  0.96070153  0.06589899  1
  O2-  O220  1  0.08501966  0.94655895  0.39315695  1
  O2-  O221  1  0.07798748  0.95395824  0.73520416  1
  O2-  O222  1  0.57896512  0.45437745  0.07020752  1
  O2-  O223  1  0.58199911  0.45256255  0.39423161  1
  O2-  O224  1  0.58733176  0.46361045  0.73372919  1
  O2-  O225  1  0.58762326  0.95734416  0.06216288  1
  O2-  O226  1  0.58597769  0.95653767  0.39920868  1
  O2-  O227  1  0.58830370  0.95434037  0.73287477  1
  O2-  O228  1  0.20982069  0.33228380  0.07265042  1
  O2-  O229  1  0.20483679  0.33866664  0.39693712  1
  O2-  O230  1  0.20350897  0.33139427  0.73043902  1
  O2-  O231  1  0.20331944  0.83469423  0.06300340  1
  O2-  O232  1  0.21061028  0.83368415  0.39368155  1
  O2-  O233  1  0.21224481  0.83455059  0.73657768  1
  O2-  O234  1  0.71235882  0.33257968  0.07030141  1
  O2-  O235  1  0.70358768  0.33411077  0.39423435  1
  O2-  O236  1  0.70970465  0.33183155  0.73448563  1
  O2-  O237  1  0.70586329  0.83671861  0.06169045  1
  O2-  O238  1  0.69858093  0.83287203  0.39704078  1
  O2-  O239  1  0.70674241  0.83518924  0.73275762  1
  O2-  O240  1  0.45056508  0.41689534  0.26849599  1
  O2-  O241  1  0.46568658  0.41707113  0.59649437  1
  O2-  O242  1  0.44887187  0.42002664  0.93639341  1
  O2-  O243  1  0.45955852  0.91123314  0.27358126  1
  O2-  O244  1  0.46412526  0.91240677  0.60210498  1
  O2-  O245  1  0.46223719  0.91650118  0.92828934  1
  O2-  O246  1  0.96024104  0.41388578  0.26211375  1
  O2-  O247  1  0.95019300  0.42147864  0.60031832  1
  O2-  O248  1  0.95369372  0.41257669  0.94014664  1
  O2-  O249  1  0.95425709  0.92189938  0.26719567  1
  O2-  O250  1  0.94883223  0.91759526  0.60622549  1
  O2-  O251  1  0.95772041  0.92303916  0.93205627  1
  O2-  O252  1  0.33064384  0.29855273  0.27180173  1
  O2-  O253  1  0.33339203  0.29467080  0.59714101  1
  O2-  O254  1  0.32966646  0.28602756  0.93371625  1
  O2-  O255  1  0.34027531  0.79319920  0.27135457  1
  O2-  O256  1  0.33928663  0.79691570  0.60184025  1
  O2-  O257  1  0.32806625  0.80026556  0.93261727  1
  O2-  O258  1  0.83269888  0.28750566  0.26379456  1
  O2-  O259  1  0.83006140  0.28776497  0.59837550  1
  O2-  O260  1  0.83940276  0.28900560  0.93920002  1
  O2-  O261  1  0.82750204  0.79520341  0.26874466  1
  O2-  O262  1  0.83176355  0.79723713  0.60291406  1
  O2-  O263  1  0.83058387  0.79926547  0.93076677  1
  O2-  O264  1  0.41563160  0.04068691  0.05948291  1
  O2-  O265  1  0.41649429  0.03757198  0.40266467  1
  O2-  O266  1  0.42076760  0.04056536  0.73641753  1
  O2-  O267  1  0.41402227  0.54776206  0.06524373  1
  O2-  O268  1  0.41359677  0.54412221  0.39635760  1
  O2-  O269  1  0.42262552  0.54635404  0.73130693  1
  O2-  O270  1  0.91428337  0.04432447  0.06409818  1
  O2-  O271  1  0.91918279  0.04451799  0.40227519  1
  O2-  O272  1  0.91130624  0.04429396  0.73035269  1
  O2-  O273  1  0.91180960  0.54368689  0.06347350  1
  O2-  O274  1  0.91725687  0.53866641  0.39890280  1
  O2-  O275  1  0.91730237  0.55323119  0.72726020  1
  O2-  O276  1  0.29165090  0.15837352  0.06635741  1
  O2-  O277  1  0.29339351  0.16856318  0.39937990  1
  O2-  O278  1  0.29753906  0.17244529  0.73495739  1
  O2-  O279  1  0.29649141  0.66834416  0.06326970  1
  O2-  O280  1  0.29612089  0.66417830  0.39379831  1
  O2-  O281  1  0.29992810  0.67238068  0.73162228  1
  O2-  O282  1  0.79446944  0.16206347  0.06351212  1
  O2-  O283  1  0.78546218  0.16626305  0.40190699  1
  O2-  O284  1  0.78978676  0.16023480  0.73121512  1
  O2-  O285  1  0.79488283  0.66796431  0.05923626  1
  O2-  O286  1  0.78947546  0.66626775  0.40349977  1
  O2-  O287  1  0.79198259  0.66650958  0.73130060  1
