# generated using pymatgen
data_Ca2Al2SiO7
_symmetry_space_group_name_H-M   'P 1'
_cell_length_a   15.45952476
_cell_length_b   15.45914968
_cell_length_c   15.28531801
_cell_angle_alpha   90.00645128
_cell_angle_beta   89.98834454
_cell_angle_gamma   89.99350790
_symmetry_Int_Tables_number   1
_chemical_formula_structural   Ca2Al2SiO7
_chemical_formula_sum   'Ca48 Al48 Si24 O168'
_cell_volume   3653.05495481
_cell_formula_units_Z   24
loop_
 _symmetry_equiv_pos_site_id
 _symmetry_equiv_pos_as_xyz
  1  'x, y, z'
loop_
 _atom_type_symbol
 _atom_type_oxidation_number
  Ca2+  2.0
  Al0+  0.0
  Si0+  0.0
  O2-  -2.0
loop_
 _atom_site_type_symbol
 _atom_site_label
 _atom_site_symmetry_multiplicity
 _atom_site_fract_x
 _atom_site_fract_y
 _atom_site_fract_z
 _atom_site_occupancy
  Ca2+  Ca0  1  0.17544964  0.07556501  0.17581604  1
  Ca2+  Ca1  1  0.16516567  0.08229744  0.49444226  1
  Ca2+  Ca2  1  0.17055566  0.07351384  0.84549378  1
  Ca2+  Ca3  1  0.16833104  0.57906525  0.17177527  1
  Ca2+  Ca4  1  0.15469859  0.58277399  0.49849851  1
  Ca2+  Ca5  1  0.16999318  0.58529000  0.83915023  1
  Ca2+  Ca6  1  0.67642645  0.09252334  0.16822011  1
  Ca2+  Ca7  1  0.67584895  0.07627962  0.50288356  1
  Ca2+  Ca8  1  0.67085882  0.07975889  0.83867307  1
  Ca2+  Ca9  1  0.66433381  0.58342678  0.16771444  1
  Ca2+  Ca10  1  0.67767814  0.57628707  0.51218384  1
  Ca2+  Ca11  1  0.67067487  0.58132981  0.83642979  1
  Ca2+  Ca12  1  0.07761829  0.32990043  0.16749732  1
  Ca2+  Ca13  1  0.07283928  0.33129756  0.48905341  1
  Ca2+  Ca14  1  0.07094823  0.33271440  0.82882675  1
  Ca2+  Ca15  1  0.08710652  0.83855813  0.16804012  1
  Ca2+  Ca16  1  0.07601888  0.82435150  0.49182741  1
  Ca2+  Ca17  1  0.08011069  0.83035439  0.82663218  1
  Ca2+  Ca18  1  0.57421848  0.32553679  0.15480703  1
  Ca2+  Ca19  1  0.58504239  0.33464697  0.49825555  1
  Ca2+  Ca20  1  0.58146887  0.32946652  0.83538607  1
  Ca2+  Ca21  1  0.56905192  0.83063781  0.15905581  1
  Ca2+  Ca22  1  0.58006057  0.83871340  0.49450674  1
  Ca2+  Ca23  1  0.57962554  0.83452873  0.83252414  1
  Ca2+  Ca24  1  0.33279864  0.42109641  0.17126190  1
  Ca2+  Ca25  1  0.32094164  0.41624973  0.50099830  1
  Ca2+  Ca26  1  0.33296265  0.42289783  0.84408460  1
  Ca2+  Ca27  1  0.32817953  0.91823154  0.17216799  1
  Ca2+  Ca28  1  0.32884036  0.91592973  0.49542239  1
  Ca2+  Ca29  1  0.32493609  0.91830428  0.84715911  1
  Ca2+  Ca30  1  0.83638285  0.41283524  0.17084128  1
  Ca2+  Ca31  1  0.83523270  0.41896099  0.50914880  1
  Ca2+  Ca32  1  0.83498685  0.41710208  0.83375934  1
  Ca2+  Ca33  1  0.83546368  0.92988499  0.17438362  1
  Ca2+  Ca34  1  0.83946747  0.91856439  0.50404517  1
  Ca2+  Ca35  1  0.82931544  0.91701069  0.83923379  1
  Ca2+  Ca36  1  0.41797672  0.16505743  0.15646973  1
  Ca2+  Ca37  1  0.41864191  0.16333429  0.49314406  1
  Ca2+  Ca38  1  0.41739559  0.16469311  0.83632456  1
  Ca2+  Ca39  1  0.41503624  0.67598474  0.15753427  1
  Ca2+  Ca40  1  0.42166223  0.67510045  0.49193937  1
  Ca2+  Ca41  1  0.41863437  0.66760889  0.83780447  1
  Ca2+  Ca42  1  0.91619858  0.17123908  0.16211443  1
  Ca2+  Ca43  1  0.91888763  0.17602931  0.48927003  1
  Ca2+  Ca44  1  0.90811184  0.17513231  0.83376318  1
  Ca2+  Ca45  1  0.92393125  0.67382388  0.16850670  1
  Ca2+  Ca46  1  0.91995269  0.67381331  0.49648943  1
  Ca2+  Ca47  1  0.92341240  0.67215478  0.82040463  1
  Al0+  Al48  1  -0.00183721  0.00007621  0.00669683  1
  Al0+  Al49  1  0.00160658  0.00145560  0.33676127  1
  Al0+  Al50  1  0.00290366  0.00155983  0.66545325  1
  Al0+  Al51  1  -0.00157372  0.50080256  -0.00352208  1
  Al0+  Al52  1  -0.00094445  0.50154598  0.32936902  1
  Al0+  Al53  1  0.00076953  0.49843202  0.66525117  1
  Al0+  Al54  1  0.50010879  -0.00137859  -0.00624496  1
  Al0+  Al55  1  0.50118317  0.00011013  0.33162117  1
  Al0+  Al56  1  0.50192372  0.00132194  0.66964607  1
  Al0+  Al57  1  0.50049925  0.50000150  -0.00222773  1
  Al0+  Al58  1  0.50067938  0.49949482  0.33612363  1
  Al0+  Al59  1  0.49928358  0.49946138  0.66855147  1
  Al0+  Al60  1  0.24678034  0.24910143  -0.00172409  1
  Al0+  Al61  1  0.24965578  0.25262560  0.33910587  1
  Al0+  Al62  1  0.25182764  0.25132054  0.66819317  1
  Al0+  Al63  1  0.24958694  0.74684717  0.00386159  1
  Al0+  Al64  1  0.25216565  0.75028708  0.33084173  1
  Al0+  Al65  1  0.25123013  0.75049328  0.66234175  1
  Al0+  Al66  1  0.74847464  0.25125789  -0.00448638  1
  Al0+  Al67  1  0.74850711  0.24987703  0.33597654  1
  Al0+  Al68  1  0.74725952  0.24922636  0.66573701  1
  Al0+  Al69  1  0.75067096  0.74867318  -0.00069339  1
  Al0+  Al70  1  0.75061705  0.74868290  0.32946085  1
  Al0+  Al71  1  0.74905955  0.75038665  0.67137422  1
  Al0+  Al72  1  0.32334302  0.07187343  0.34893022  1
  Al0+  Al73  1  0.92676230  0.82299473  0.65360375  1
  Al0+  Al74  1  0.42515442  0.32054026  0.98594592  1
  Al0+  Al75  1  0.43143656  0.82133265  0.31967466  1
  Al0+  Al76  1  0.17923446  0.92706935  0.35183267  1
  Al0+  Al77  1  0.92853095  0.31759297  0.65263865  1
  Al0+  Al78  1  0.67709628  0.42718863  0.68459582  1
  Al0+  Al79  1  0.17818668  0.43148883  0.34639283  1
  Al0+  Al80  1  0.92763103  0.82317180  0.31715818  1
  Al0+  Al81  1  0.57099883  0.17786795  0.98372235  1
  Al0+  Al82  1  0.17810203  0.92710925  0.01555702  1
  Al0+  Al83  1  0.92690342  0.32032113  0.31775557  1
  Al0+  Al84  1  0.92968497  0.32109734  0.98470092  1
  Al0+  Al85  1  0.82170736  0.07199864  0.34800921  1
  Al0+  Al86  1  0.57305245  0.67845359  0.98357743  1
  Al0+  Al87  1  0.82283486  0.56965984  0.68257500  1
  Al0+  Al88  1  0.07308911  0.67937714  0.65201538  1
  Al0+  Al89  1  0.07348529  0.17924853  0.31809433  1
  Al0+  Al90  1  0.81725456  0.07182654  0.01330695  1
  Al0+  Al91  1  0.42700535  0.81962814  0.98339640  1
  Al0+  Al92  1  0.07118517  0.67950572  0.31587441  1
  Al0+  Al93  1  0.32209217  0.07195223  0.01372142  1
  Al0+  Al94  1  0.32158107  0.56768240  0.01390491  1
  Al0+  Al95  1  0.67908470  0.92909610  0.68067558  1
  Si0+  Si96  1  0.82278197  0.57219445  0.01699100  1
  Si0+  Si97  1  0.81990928  0.57146059  0.34714008  1
  Si0+  Si98  1  0.56958791  0.18016313  0.32006543  1
  Si0+  Si99  1  0.67995681  0.92743711  0.34700925  1
  Si0+  Si100  1  0.67809763  0.92519360  0.01751891  1
  Si0+  Si101  1  0.92942528  0.82251688  0.98630094  1
  Si0+  Si102  1  0.18108487  0.92874170  0.68068540  1
  Si0+  Si103  1  0.32410373  0.57166802  0.35142994  1
  Si0+  Si104  1  0.42902170  0.32280339  0.32115779  1
  Si0+  Si105  1  0.07657208  0.17894185  0.65023508  1
  Si0+  Si106  1  0.32114210  0.57229692  0.68079987  1
  Si0+  Si107  1  0.42832849  0.32249325  0.64969583  1
  Si0+  Si108  1  0.43077836  0.82249972  0.65113006  1
  Si0+  Si109  1  0.17434734  0.42805343  0.01508876  1
  Si0+  Si110  1  0.57019961  0.67764495  0.65189458  1
  Si0+  Si111  1  0.82372444  0.07137802  0.68241388  1
  Si0+  Si112  1  0.68056635  0.43056480  0.01573764  1
  Si0+  Si113  1  0.67804840  0.42913097  0.34756010  1
  Si0+  Si114  1  0.06940934  0.67897011  0.98525409  1
  Si0+  Si115  1  0.32212861  0.07155474  0.68226861  1
  Si0+  Si116  1  0.57235986  0.67530320  0.31832853  1
  Si0+  Si117  1  0.17994660  0.42873912  0.68252853  1
  Si0+  Si118  1  0.56842474  0.17849798  0.64907566  1
  Si0+  Si119  1  0.06981979  0.17544960  0.98344745  1
  O2-  O120  1  0.25216879  -0.00159587  0.06328828  1
  O2-  O121  1  0.25063385  0.00145287  0.40092927  1
  O2-  O122  1  0.24980927  0.00178681  0.72316656  1
  O2-  O123  1  0.24967769  0.48957457  0.05894379  1
  O2-  O124  1  0.25188303  0.50696302  0.39589321  1
  O2-  O125  1  0.24863757  0.50266877  0.72313625  1
  O2-  O126  1  0.74251048  -0.00235244  0.06161840  1
  O2-  O127  1  0.75249694  -0.00909162  0.39320098  1
  O2-  O128  1  0.76028266  -0.00248438  0.72609112  1
  O2-  O129  1  0.75101491  0.50157248  0.05928675  1
  O2-  O130  1  0.74940305  0.49951199  0.38874377  1
  O2-  O131  1  0.75090005  0.49768563  0.73412375  1
  O2-  O132  1  -0.00280433  0.24689710  0.26782508  1
  O2-  O133  1  0.00336911  0.24313925  0.60699105  1
  O2-  O134  1  0.00333744  0.24563043  0.93756350  1
  O2-  O135  1  0.00397850  0.75613553  0.26571740  1
  O2-  O136  1  -0.00226795  0.74932852  0.60467536  1
  O2-  O137  1  0.00106113  0.75249884  0.94380090  1
  O2-  O138  1  0.49574485  0.24848540  0.27907619  1
  O2-  O139  1  0.49912842  0.25157352  0.60661149  1
  O2-  O140  1  0.49396363  0.24586831  0.93449461  1
  O2-  O141  1  0.50427203  0.74398175  0.27495179  1
  O2-  O142  1  0.50250873  0.75160855  0.60892475  1
  O2-  O143  1  0.50191258  0.75072852  0.93228136  1
  O2-  O144  1  0.06868698  0.17602352  0.08842158  1
  O2-  O145  1  0.07184593  0.18463295  0.43235899  1
  O2-  O146  1  0.08040501  0.18102528  0.75583863  1
  O2-  O147  1  0.06672782  0.67485873  0.08970110  1
  O2-  O148  1  0.06534253  0.67779280  0.42932708  1
  O2-  O149  1  0.07695967  0.68326643  0.76621816  1
  O2-  O150  1  0.57447969  0.18408291  0.09765755  1
  O2-  O151  1  0.57002094  0.18178028  0.42563649  1
  O2-  O152  1  0.56628783  0.17688143  0.75355062  1
  O2-  O153  1  0.57278429  0.67984275  0.09751907  1
  O2-  O154  1  0.57138066  0.67332054  0.42431607  1
  O2-  O155  1  0.56661523  0.67573572  0.75634792  1
  O2-  O156  1  0.18165416  0.43179588  0.23338161  1
  O2-  O157  1  0.18200007  0.42608948  0.57762633  1
  O2-  O158  1  0.17203422  0.43305857  0.90898154  1
  O2-  O159  1  0.18394091  0.92719476  0.23873421  1
  O2-  O160  1  0.18286591  0.92739368  0.57630714  1
  O2-  O161  1  0.17688820  0.92799512  0.90056074  1
  O2-  O162  1  0.67425918  0.42972247  0.24261409  1
  O2-  O163  1  0.67507123  0.43047630  0.57032025  1
  O2-  O164  1  0.68170701  0.43057563  0.91096871  1
  O2-  O165  1  0.67844537  0.92999691  0.24182223  1
  O2-  O166  1  0.67228459  0.93436031  0.56769836  1
  O2-  O167  1  0.68291623  0.92372713  0.91162930  1
  O2-  O168  1  0.42975526  0.32294810  0.09997404  1
  O2-  O169  1  0.43324129  0.32580690  0.42664583  1
  O2-  O170  1  0.42563510  0.32167683  0.75419362  1
  O2-  O171  1  0.42802533  0.81752006  0.09678581  1
  O2-  O172  1  0.43542616  0.82036881  0.43384107  1
  O2-  O173  1  0.42882437  0.82161814  0.75566447  1
  O2-  O174  1  0.93025484  0.32236552  0.09723333  1
  O2-  O175  1  0.92612263  0.32094039  0.43152254  1
  O2-  O176  1  0.93026666  0.31654338  0.76594647  1
  O2-  O177  1  0.92809675  0.82104048  0.09094529  1
  O2-  O178  1  0.92311338  0.81702884  0.43051950  1
  O2-  O179  1  0.93101645  0.82384625  0.76791640  1
  O2-  O180  1  0.32675250  0.07142991  0.23621097  1
  O2-  O181  1  0.32408055  0.07175995  0.57746828  1
  O2-  O182  1  0.31723330  0.07048034  0.89910062  1
  O2-  O183  1  0.32948286  0.56652057  0.24634397  1
  O2-  O184  1  0.32439898  0.57046448  0.57586714  1
  O2-  O185  1  0.31754563  0.56865785  0.89997659  1
  O2-  O186  1  0.81520228  0.07665907  0.23520036  1
  O2-  O187  1  0.82033919  0.07272049  0.57689814  1
  O2-  O188  1  0.81739160  0.06910784  0.89982633  1
  O2-  O189  1  0.81720420  0.57203765  0.24175436  1
  O2-  O190  1  0.81986212  0.56836365  0.56840583  1
  O2-  O191  1  0.82425172  0.57190676  0.91225698  1
  O2-  O192  1  0.05242343  0.07834682  0.26974843  1
  O2-  O193  1  0.05619310  0.08358183  0.60624109  1
  O2-  O194  1  0.04097354  0.08245757  0.93675536  1
  O2-  O195  1  0.03746511  0.58376569  0.26077928  1
  O2-  O196  1  0.04789141  0.57928942  0.60210971  1
  O2-  O197  1  0.03876355  0.58938251  0.93463992  1
  O2-  O198  1  0.54640437  0.08828834  0.27196740  1
  O2-  O199  1  0.53736983  0.08797554  0.60040402  1
  O2-  O200  1  0.55026415  0.07836215  0.92980696  1
  O2-  O201  1  0.54605163  0.58157750  0.27209208  1
  O2-  O202  1  0.53919547  0.58688230  0.60303508  1
  O2-  O203  1  0.54398051  0.58065424  0.93050477  1
  O2-  O204  1  0.17147624  0.21281408  0.26723694  1
  O2-  O205  1  0.16885775  0.20865864  0.60322239  1
  O2-  O206  1  0.16358952  0.19816504  0.93619228  1
  O2-  O207  1  0.17286059  0.69983924  0.26729936  1
  O2-  O208  1  0.17064502  0.70830491  0.59677720  1
  O2-  O209  1  0.16220927  0.70348132  0.93904915  1
  O2-  O210  1  0.65926456  0.21267857  0.27235526  1
  O2-  O211  1  0.66038192  0.20481419  0.60127244  1
  O2-  O212  1  0.66556904  0.21365831  0.92730979  1
  O2-  O213  1  0.66557687  0.69803578  0.27140016  1
  O2-  O214  1  0.66331532  0.70225897  0.60640449  1
  O2-  O215  1  0.67256163  0.70501375  0.93095827  1
  O2-  O216  1  0.08398865  0.46222559  0.06247821  1
  O2-  O217  1  0.08103390  0.46291956  0.39992809  1
  O2-  O218  1  0.08782823  0.45352326  0.72993302  1
  O2-  O219  1  0.08049678  0.95579812  0.06883018  1
  O2-  O220  1  0.08040144  0.95314387  0.40492765  1
  O2-  O221  1  0.08864148  0.95474950  0.72861456  1
  O2-  O222  1  0.58883154  0.45823492  0.06343035  1
  O2-  O223  1  0.58720292  0.45704389  0.39844176  1
  O2-  O224  1  0.57825490  0.45682419  0.73618578  1
  O2-  O225  1  0.58177370  0.94659986  0.05797008  1
  O2-  O226  1  0.58885215  0.95887447  0.39536971  1
  O2-  O227  1  0.58518340  0.96636731  0.73731848  1
  O2-  O228  1  0.19107154  0.33147902  0.05681052  1
  O2-  O229  1  0.21085405  0.33803290  0.40560085  1
  O2-  O230  1  0.21148854  0.33856931  0.73166051  1
  O2-  O231  1  0.20422777  0.82830674  0.06712290  1
  O2-  O232  1  0.21230749  0.82870671  0.40384051  1
  O2-  O233  1  0.21188778  0.83741065  0.72801843  1
  O2-  O234  1  0.70906718  0.33911299  0.06291536  1
  O2-  O235  1  0.70403641  0.33801804  0.39704335  1
  O2-  O236  1  0.70226822  0.32692699  0.73458973  1
  O2-  O237  1  0.70632226  0.83258446  0.06417034  1
  O2-  O238  1  0.69880063  0.83101858  0.39119798  1
  O2-  O239  1  0.70059014  0.83116353  0.73566659  1
  O2-  O240  1  0.46111732  0.41301476  0.27263847  1
  O2-  O241  1  0.45586044  0.41436431  0.60193100  1
  O2-  O242  1  0.45862927  0.41702916  0.93194179  1
  O2-  O243  1  0.46494692  0.91632894  0.26477443  1
  O2-  O244  1  0.46024253  0.91454179  0.60512967  1
  O2-  O245  1  0.45221000  0.91801878  0.92902870  1
  O2-  O246  1  0.95500807  0.41858302  0.26563290  1
  O2-  O247  1  0.95985612  0.41442363  0.60030633  1
  O2-  O248  1  0.96128511  0.41745559  0.92966932  1
  O2-  O249  1  0.95056333  0.92431018  0.26926910  1
  O2-  O250  1  0.95644592  0.92177857  0.60175902  1
  O2-  O251  1  0.95532084  0.91484490  0.93923948  1
  O2-  O252  1  0.33557237  0.30154727  0.27678161  1
  O2-  O253  1  0.33666261  0.29341666  0.60183159  1
  O2-  O254  1  0.32499727  0.29873092  0.93219340  1
  O2-  O255  1  0.33580338  0.79155782  0.26583425  1
  O2-  O256  1  0.34038499  0.79306462  0.60204471  1
  O2-  O257  1  0.32923996  0.78556870  0.93118186  1
  O2-  O258  1  0.82663259  0.29329693  0.26717087  1
  O2-  O259  1  0.83018441  0.29010542  0.60011611  1
  O2-  O260  1  0.83353170  0.29055237  0.93051148  1
  O2-  O261  1  0.83070582  0.79012876  0.26208413  1
  O2-  O262  1  0.82625233  0.79809553  0.60307718  1
  O2-  O263  1  0.83823143  0.79292745  0.93887554  1
  O2-  O264  1  0.42406923  0.04874718  0.06092512  1
  O2-  O265  1  0.42219054  0.04088494  0.40259746  1
  O2-  O266  1  0.41316683  0.04286445  0.72979199  1
  O2-  O267  1  0.41936135  0.54042658  0.06751267  1
  O2-  O268  1  0.41617533  0.54174213  0.40075567  1
  O2-  O269  1  0.41137985  0.54216695  0.72958566  1
  O2-  O270  1  0.91281668  0.04177121  0.06841496  1
  O2-  O271  1  0.91931875  0.04907641  0.40230098  1
  O2-  O272  1  0.92025931  0.05442709  0.72644006  1
  O2-  O273  1  0.91381602  0.54183511  0.06425794  1
  O2-  O274  1  0.91137041  0.54401614  0.39369290  1
  O2-  O275  1  0.92187102  0.54131952  0.73522809  1
  O2-  O276  1  0.29493510  0.17175192  0.06480401  1
  O2-  O277  1  0.29792893  0.17120376  0.40302430  1
  O2-  O278  1  0.29680100  0.16483303  0.72848190  1
  O2-  O279  1  0.28791508  0.66169073  0.06962633  1
  O2-  O280  1  0.30358224  0.66674587  0.39517671  1
  O2-  O281  1  0.29476695  0.66505790  0.72735300  1
  O2-  O282  1  0.78536155  0.16917666  0.06562846  1
  O2-  O283  1  0.78269680  0.16569628  0.40440294  1
  O2-  O284  1  0.78968716  0.16227961  0.72872120  1
  O2-  O285  1  0.79508769  0.66377560  0.06513982  1
  O2-  O286  1  0.79058379  0.66242946  0.39595196  1
  O2-  O287  1  0.79461578  0.66817048  0.73531526  1
