# generated using pymatgen
data_Ca2Al2SiO7
_symmetry_space_group_name_H-M   'P 1'
_cell_length_a   15.46177555
_cell_length_b   15.46392118
_cell_length_c   15.28690308
_cell_angle_alpha   89.98620591
_cell_angle_beta   90.00865223
_cell_angle_gamma   90.01653007
_symmetry_Int_Tables_number   1
_chemical_formula_structural   Ca2Al2SiO7
_chemical_formula_sum   'Ca48 Al48 Si24 O168'
_cell_volume   3655.09331281
_cell_formula_units_Z   24
loop_
 _symmetry_equiv_pos_site_id
 _symmetry_equiv_pos_as_xyz
  1  'x, y, z'
loop_
 _atom_type_symbol
 _atom_type_oxidation_number
  Ca2+  2.0
  Al0+  0.0
  Si0+  0.0
  O2-  -2.0
loop_
 _atom_site_type_symbol
 _atom_site_label
 _atom_site_symmetry_multiplicity
 _atom_site_fract_x
 _atom_site_fract_y
 _atom_site_fract_z
 _atom_site_occupancy
  Ca2+  Ca0  1  0.16322994  0.07170999  0.17051288  1
  Ca2+  Ca1  1  0.16290461  0.07970619  0.50546541  1
  Ca2+  Ca2  1  0.17417630  0.08205228  0.83756243  1
  Ca2+  Ca3  1  0.17417034  0.59707687  0.16397688  1
  Ca2+  Ca4  1  0.17304210  0.58435931  0.51171057  1
  Ca2+  Ca5  1  0.17609860  0.59443927  0.83890328  1
  Ca2+  Ca6  1  0.67305014  0.07178611  0.17179941  1
  Ca2+  Ca7  1  0.68051817  0.07581989  0.51157322  1
  Ca2+  Ca8  1  0.66644061  0.06825874  0.83661425  1
  Ca2+  Ca9  1  0.66998483  0.58729865  0.16920681  1
  Ca2+  Ca10  1  0.66623809  0.57925940  0.50871002  1
  Ca2+  Ca11  1  0.67612632  0.59103427  0.83419064  1
  Ca2+  Ca12  1  0.08496758  0.32431689  0.16400633  1
  Ca2+  Ca13  1  0.08047415  0.31939029  0.49749645  1
  Ca2+  Ca14  1  0.08195028  0.32699844  0.82455103  1
  Ca2+  Ca15  1  0.07387269  0.83782072  0.15981825  1
  Ca2+  Ca16  1  0.07882592  0.83097340  0.49448815  1
  Ca2+  Ca17  1  0.08237052  0.82753744  0.83338486  1
  Ca2+  Ca18  1  0.58748420  0.33268018  0.16536395  1
  Ca2+  Ca19  1  0.57984915  0.34352778  0.49840501  1
  Ca2+  Ca20  1  0.57685251  0.33377872  0.82391219  1
  Ca2+  Ca21  1  0.58760486  0.82259799  0.15813573  1
  Ca2+  Ca22  1  0.59096263  0.82240479  0.49999408  1
  Ca2+  Ca23  1  0.58962891  0.82634226  0.82908283  1
  Ca2+  Ca24  1  0.33258570  0.42370960  0.16485774  1
  Ca2+  Ca25  1  0.33315249  0.42083217  0.50887693  1
  Ca2+  Ca26  1  0.33631020  0.42618105  0.83179934  1
  Ca2+  Ca27  1  0.31834123  0.91406175  0.16777282  1
  Ca2+  Ca28  1  0.32436237  0.92065993  0.50681819  1
  Ca2+  Ca29  1  0.32834371  0.92753552  0.84192769  1
  Ca2+  Ca30  1  0.82845676  0.42670432  0.17140412  1
  Ca2+  Ca31  1  0.81978147  0.42237045  0.50917257  1
  Ca2+  Ca32  1  0.83157438  0.42967257  0.83415445  1
  Ca2+  Ca33  1  0.83433263  0.91164624  0.16946924  1
  Ca2+  Ca34  1  0.83537567  0.92209812  0.50296960  1
  Ca2+  Ca35  1  0.82543980  0.91137916  0.83300686  1
  Ca2+  Ca36  1  0.41523791  0.16771978  0.16024509  1
  Ca2+  Ca37  1  0.41421749  0.17097812  0.50220869  1
  Ca2+  Ca38  1  0.40996106  0.17080386  0.82330988  1
  Ca2+  Ca39  1  0.42827861  0.66441952  0.15940739  1
  Ca2+  Ca40  1  0.42809028  0.66149146  0.49943850  1
  Ca2+  Ca41  1  0.42585424  0.66013800  0.82676456  1
  Ca2+  Ca42  1  0.91839771  0.16174195  0.16851482  1
  Ca2+  Ca43  1  0.92312568  0.15431100  0.49555565  1
  Ca2+  Ca44  1  0.92206220  0.16438218  0.82498299  1
  Ca2+  Ca45  1  0.91946490  0.67886515  0.15378215  1
  Ca2+  Ca46  1  0.91759905  0.67067374  0.49838680  1
  Ca2+  Ca47  1  0.92167937  0.66670403  0.82949599  1
  Al0+  Al48  1  -0.00041445  0.00154333  -0.00395989  1
  Al0+  Al49  1  0.00138668  -0.00190158  0.33239575  1
  Al0+  Al50  1  -0.00022473  -0.00165769  0.66784204  1
  Al0+  Al51  1  -0.00013622  0.49876393  0.00195647  1
  Al0+  Al52  1  0.00222578  0.49851617  0.33301197  1
  Al0+  Al53  1  -0.00064870  0.49774196  0.66305084  1
  Al0+  Al54  1  0.50295215  0.00042904  0.00962032  1
  Al0+  Al55  1  0.49847151  0.00043012  0.33292808  1
  Al0+  Al56  1  0.49811298  0.00071467  0.67170301  1
  Al0+  Al57  1  0.49888364  0.49775335  -0.00001575  1
  Al0+  Al58  1  0.49958218  0.50004396  0.32982862  1
  Al0+  Al59  1  0.49786439  0.49919149  0.66493713  1
  Al0+  Al60  1  0.25097285  0.25215678  0.00274924  1
  Al0+  Al61  1  0.25035374  0.25137763  0.32729649  1
  Al0+  Al62  1  0.24894719  0.25021475  0.66002825  1
  Al0+  Al63  1  0.25163676  0.75234610  0.00674153  1
  Al0+  Al64  1  0.25206454  0.75171808  0.34017919  1
  Al0+  Al65  1  0.25045163  0.75012833  0.66644418  1
  Al0+  Al66  1  0.74942252  0.25002570  -0.00229827  1
  Al0+  Al67  1  0.74960519  0.25098645  0.34044013  1
  Al0+  Al68  1  0.74949008  0.24982576  0.67440073  1
  Al0+  Al69  1  0.75073213  0.74984945  0.00015335  1
  Al0+  Al70  1  0.75090921  0.74936596  0.32604770  1
  Al0+  Al71  1  0.75063762  0.74964701  0.66686811  1
  Al0+  Al72  1  0.67811944  0.92841504  0.68042075  1
  Al0+  Al73  1  0.82260267  0.57104070  0.68056171  1
  Al0+  Al74  1  0.18001473  0.93057710  0.34959409  1
  Al0+  Al75  1  0.56844024  0.67988653  0.31860859  1
  Al0+  Al76  1  0.07298085  0.67853491  0.98604642  1
  Al0+  Al77  1  0.32180208  0.07403331  0.01625532  1
  Al0+  Al78  1  0.82405529  0.07049382  0.68306239  1
  Al0+  Al79  1  0.06960101  0.17958094  0.31782469  1
  Al0+  Al80  1  0.06845428  0.17888281  0.65369041  1
  Al0+  Al81  1  0.92851672  0.82291067  0.98137479  1
  Al0+  Al82  1  0.67930856  0.43142156  0.34648068  1
  Al0+  Al83  1  0.56923292  0.67826562  0.98454433  1
  Al0+  Al84  1  0.81963974  0.06863410  0.34561399  1
  Al0+  Al85  1  0.93191000  0.81828422  0.32024177  1
  Al0+  Al86  1  0.68156945  0.92809181  0.01588569  1
  Al0+  Al87  1  0.32148774  0.57085934  0.01378809  1
  Al0+  Al88  1  0.07284188  0.67766537  0.65292857  1
  Al0+  Al89  1  0.82172420  0.57047227  0.01459292  1
  Al0+  Al90  1  0.31927448  0.57146008  0.67894786  1
  Al0+  Al91  1  0.57020402  0.68100793  0.65341600  1
  Al0+  Al92  1  0.31798932  0.07211895  0.67793894  1
  Al0+  Al93  1  0.67583105  0.42929140  0.68296255  1
  Al0+  Al94  1  0.17795296  0.93051682  0.01498403  1
  Al0+  Al95  1  0.43069687  0.31976731  0.65221539  1
  Si0+  Si96  1  0.07136002  0.18135847  0.98467775  1
  Si0+  Si97  1  0.67586461  0.92548985  0.34927176  1
  Si0+  Si98  1  0.43016752  0.32059844  0.31533642  1
  Si0+  Si99  1  0.92472669  0.32191075  0.64913938  1
  Si0+  Si100  1  0.42596817  0.82415106  0.31636629  1
  Si0+  Si101  1  0.82131353  0.07511537  0.01647275  1
  Si0+  Si102  1  0.17807052  0.42760133  0.68040205  1
  Si0+  Si103  1  0.07570611  0.67550486  0.31832002  1
  Si0+  Si104  1  0.82382639  0.57378853  0.34871950  1
  Si0+  Si105  1  0.92884647  0.81998736  0.64875945  1
  Si0+  Si106  1  0.42855131  0.31908277  0.98400452  1
  Si0+  Si107  1  0.42688811  0.82541136  0.65106052  1
  Si0+  Si108  1  0.57277698  0.17825245  0.31968431  1
  Si0+  Si109  1  0.92596577  0.32301731  0.31645539  1
  Si0+  Si110  1  0.31958726  0.56892400  0.34851992  1
  Si0+  Si111  1  0.92730400  0.32139676  0.98503199  1
  Si0+  Si112  1  0.67833991  0.42696200  0.01631530  1
  Si0+  Si113  1  0.57167731  0.17811791  0.98589444  1
  Si0+  Si114  1  0.57291346  0.17588491  0.65075590  1
  Si0+  Si115  1  0.32279355  0.07536741  0.35086859  1
  Si0+  Si116  1  0.42913500  0.82394822  0.98516892  1
  Si0+  Si117  1  0.17718650  0.42746048  0.01691889  1
  Si0+  Si118  1  0.17756088  0.92667940  0.68415122  1
  Si0+  Si119  1  0.17891907  0.42592742  0.34859547  1
  O2-  O120  1  0.25003550  0.00253850  0.06624353  1
  O2-  O121  1  0.25526409  0.00587110  0.39479069  1
  O2-  O122  1  0.24616332  -0.00363175  0.72624540  1
  O2-  O123  1  0.24111357  0.50143974  0.06058659  1
  O2-  O124  1  0.24426612  0.50224795  0.39013327  1
  O2-  O125  1  0.23995587  0.50152044  0.72564498  1
  O2-  O126  1  0.75747282  0.00253258  0.06115585  1
  O2-  O127  1  0.74272902  -0.00387428  0.39224961  1
  O2-  O128  1  0.74878022  0.00161952  0.73141846  1
  O2-  O129  1  0.74498541  0.49705635  0.06087158  1
  O2-  O130  1  0.75531624  0.50482005  0.39227602  1
  O2-  O131  1  0.74868569  0.50085706  0.73134827  1
  O2-  O132  1  -0.00527165  0.25467464  0.27080036  1
  O2-  O133  1  -0.01112859  0.24825462  0.60571781  1
  O2-  O134  1  -0.00088456  0.25101166  0.94290439  1
  O2-  O135  1  0.00356853  0.73985156  0.27459342  1
  O2-  O136  1  -0.00209637  0.75105239  0.60508006  1
  O2-  O137  1  0.00074651  0.74907599  0.93439141  1
  O2-  O138  1  0.50011619  0.24743481  0.27511138  1
  O2-  O139  1  0.50782701  0.24752414  0.60466827  1
  O2-  O140  1  0.49668604  0.24486988  0.94358406  1
  O2-  O141  1  0.49765847  0.75861367  0.27212246  1
  O2-  O142  1  0.49677835  0.75754676  0.60661016  1
  O2-  O143  1  0.49451682  0.75364343  0.93867338  1
  O2-  O144  1  0.07097308  0.18282676  0.08996336  1
  O2-  O145  1  0.06982419  0.18128901  0.43071382  1
  O2-  O146  1  0.07068283  0.18323705  0.76711410  1
  O2-  O147  1  0.07083814  0.67987929  0.10015437  1
  O2-  O148  1  0.07634796  0.67578042  0.42400643  1
  O2-  O149  1  0.07516624  0.68052982  0.76545615  1
  O2-  O150  1  0.57405160  0.18226706  0.09146843  1
  O2-  O151  1  0.57127655  0.17810515  0.42424180  1
  O2-  O152  1  0.56869311  0.17538622  0.75653002  1
  O2-  O153  1  0.56752410  0.67785240  0.09819414  1
  O2-  O154  1  0.56681163  0.67813947  0.43168879  1
  O2-  O155  1  0.56899237  0.68099564  0.76621109  1
  O2-  O156  1  0.18165275  0.42233071  0.24364456  1
  O2-  O157  1  0.18161319  0.42699293  0.57439885  1
  O2-  O158  1  0.17998726  0.42041911  0.91192468  1
  O2-  O159  1  0.17990828  0.93079880  0.23688517  1
  O2-  O160  1  0.17777854  0.92746602  0.57817027  1
  O2-  O161  1  0.17962518  0.93285863  0.90138579  1
  O2-  O162  1  0.67991350  0.43098809  0.23310309  1
  O2-  O163  1  0.67640225  0.43288922  0.56883344  1
  O2-  O164  1  0.67946574  0.42383547  0.91151918  1
  O2-  O165  1  0.67608807  0.92679976  0.24364880  1
  O2-  O166  1  0.67962179  0.92874062  0.56629985  1
  O2-  O167  1  0.67861759  0.93057420  0.90331933  1
  O2-  O168  1  0.42927377  0.32027702  0.08959830  1
  O2-  O169  1  0.42903828  0.32256101  0.42008183  1
  O2-  O170  1  0.42854367  0.31778620  0.76537994  1
  O2-  O171  1  0.43139913  0.82151374  0.09117742  1
  O2-  O172  1  0.42369604  0.82297260  0.42184888  1
  O2-  O173  1  0.42520136  0.82545299  0.75637253  1
  O2-  O174  1  0.92615658  0.31968238  0.09030663  1
  O2-  O175  1  0.92786166  0.32463866  0.42147806  1
  O2-  O176  1  0.92973460  0.32451956  0.75497336  1
  O2-  O177  1  0.93034496  0.82272557  0.09537570  1
  O2-  O178  1  0.93255005  0.81766725  0.43344035  1
  O2-  O179  1  0.92904074  0.82041388  0.75392854  1
  O2-  O180  1  0.32249305  0.07605535  0.24554034  1
  O2-  O181  1  0.31638616  0.07129331  0.56467052  1
  O2-  O182  1  0.31836756  0.07639364  0.90260328  1
  O2-  O183  1  0.32004846  0.56702077  0.24323533  1
  O2-  O184  1  0.31960959  0.56818426  0.56521387  1
  O2-  O185  1  0.32362829  0.56650203  0.90119083  1
  O2-  O186  1  0.81734825  0.06883632  0.23232528  1
  O2-  O187  1  0.82464217  0.06625924  0.56907774  1
  O2-  O188  1  0.81716799  0.08035947  0.91162190  1
  O2-  O189  1  0.82323913  0.57200649  0.24301863  1
  O2-  O190  1  0.82206372  0.57011182  0.56642062  1
  O2-  O191  1  0.82308558  0.56776908  0.90202071  1
  O2-  O192  1  0.03704831  0.08416609  0.26379861  1
  O2-  O193  1  0.04169570  0.08037326  0.60069829  1
  O2-  O194  1  0.04605545  0.09016420  0.93622224  1
  O2-  O195  1  0.05819658  0.57909395  0.27405932  1
  O2-  O196  1  0.04564929  0.57954868  0.59877670  1
  O2-  O197  1  0.04924490  0.57688789  0.93708423  1
  O2-  O198  1  0.54715219  0.08570354  0.27115930  1
  O2-  O199  1  0.54372836  0.08370682  0.60349373  1
  O2-  O200  1  0.54796616  0.08409116  0.94189594  1
  O2-  O201  1  0.53311671  0.58507557  0.26304409  1
  O2-  O202  1  0.53511809  0.58567907  0.59924813  1
  O2-  O203  1  0.53767907  0.58051128  0.93356040  1
  O2-  O204  1  0.16562214  0.21271787  0.26290361  1
  O2-  O205  1  0.16161000  0.21435836  0.59582959  1
  O2-  O206  1  0.16317972  0.21266531  0.93917609  1
  O2-  O207  1  0.16952604  0.70531334  0.27505875  1
  O2-  O208  1  0.16941355  0.70896573  0.59770883  1
  O2-  O209  1  0.17348419  0.70781026  0.93733247  1
  O2-  O210  1  0.66356907  0.20947130  0.27187058  1
  O2-  O211  1  0.66908771  0.19777544  0.60853031  1
  O2-  O212  1  0.66131185  0.20893147  0.93632221  1
  O2-  O213  1  0.66596381  0.70646719  0.26440487  1
  O2-  O214  1  0.66726061  0.70998979  0.59830226  1
  O2-  O215  1  0.66629420  0.70963750  0.93391302  1
  O2-  O216  1  0.08234851  0.44484403  0.06337692  1
  O2-  O217  1  0.08470231  0.44620483  0.39473129  1
  O2-  O218  1  0.08203209  0.44422682  0.72348287  1
  O2-  O219  1  0.07945482  0.96283378  0.06661881  1
  O2-  O220  1  0.08462127  0.96287696  0.40364892  1
  O2-  O221  1  0.08445480  0.95164804  0.72950202  1
  O2-  O222  1  0.58371188  0.44946137  0.06169067  1
  O2-  O223  1  0.58150359  0.46261652  0.39801183  1
  O2-  O224  1  0.57685408  0.45582542  0.73389704  1
  O2-  O225  1  0.58729591  0.96022043  0.07431858  1
  O2-  O226  1  0.58066565  0.94812404  0.39311306  1
  O2-  O227  1  0.57991015  0.95515296  0.73456902  1
  O2-  O228  1  0.21107592  0.33812953  0.06800685  1
  O2-  O229  1  0.21292093  0.33637429  0.39674894  1
  O2-  O230  1  0.21041939  0.33677301  0.72741772  1
  O2-  O231  1  0.20643516  0.83385910  0.07184823  1
  O2-  O232  1  0.21106244  0.83449503  0.40573738  1
  O2-  O233  1  0.20493376  0.83421472  0.73002212  1
  O2-  O234  1  0.70681860  0.33390872  0.06365481  1
  O2-  O235  1  0.70616820  0.33506709  0.40257612  1
  O2-  O236  1  0.69966337  0.32996205  0.73581869  1
  O2-  O237  1  0.71189446  0.83223759  0.07047624  1
  O2-  O238  1  0.70474783  0.83178908  0.39287284  1
  O2-  O239  1  0.70906485  0.83143465  0.73349422  1
  O2-  O240  1  0.46039649  0.41071655  0.26564475  1
  O2-  O241  1  0.45901783  0.41575532  0.59523612  1
  O2-  O242  1  0.45896343  0.40938958  0.93598939  1
  O2-  O243  1  0.44560743  0.91970228  0.27120366  1
  O2-  O244  1  0.45035268  0.91944749  0.60409324  1
  O2-  O245  1  0.45658262  0.91873106  0.94239186  1
  O2-  O246  1  0.95289113  0.41649489  0.26907266  1
  O2-  O247  1  0.95410892  0.41243030  0.59868679  1
  O2-  O248  1  0.95572555  0.41235189  0.93708599  1
  O2-  O249  1  0.96529341  0.91315782  0.26515298  1
  O2-  O250  1  0.95655521  0.91327870  0.60286250  1
  O2-  O251  1  0.95504332  0.92231820  0.92904482  1
  O2-  O252  1  0.33874764  0.29464311  0.26573937  1
  O2-  O253  1  0.33570899  0.28740166  0.59479768  1
  O2-  O254  1  0.33569087  0.29463212  0.93707347  1
  O2-  O255  1  0.33347197  0.79335348  0.27030430  1
  O2-  O256  1  0.33426214  0.79806659  0.60326723  1
  O2-  O257  1  0.33380141  0.80265231  0.94211941  1
  O2-  O258  1  0.83204671  0.29631765  0.27129691  1
  O2-  O259  1  0.82839267  0.30138591  0.60693063  1
  O2-  O260  1  0.83630865  0.29328627  0.93623493  1
  O2-  O261  1  0.83501137  0.79202925  0.26408273  1
  O2-  O262  1  0.83588302  0.79452927  0.60150174  1
  O2-  O263  1  0.83034874  0.79259748  0.93078467  1
  O2-  O264  1  0.42088956  0.04972597  0.06939715  1
  O2-  O265  1  0.41781095  0.05241628  0.39576949  1
  O2-  O266  1  0.41481554  0.04670628  0.73330189  1
  O2-  O267  1  0.41486562  0.53156136  0.07019877  1
  O2-  O268  1  0.40961299  0.53438119  0.39454369  1
  O2-  O269  1  0.41278674  0.53451941  0.73310532  1
  O2-  O270  1  0.91746050  0.05411949  0.05835044  1
  O2-  O271  1  0.91544918  0.03507441  0.39835441  1
  O2-  O272  1  0.92118293  0.04015782  0.73718421  1
  O2-  O273  1  0.91720337  0.53743740  0.07032156  1
  O2-  O274  1  0.91915145  0.54985233  0.39252187  1
  O2-  O275  1  0.92081550  0.53946324  0.73278490  1
  O2-  O276  1  0.29398072  0.17290481  0.06942114  1
  O2-  O277  1  0.29647316  0.17017127  0.39395714  1
  O2-  O278  1  0.28442953  0.16837954  0.73086043  1
  O2-  O279  1  0.29663622  0.66758881  0.07069184  1
  O2-  O280  1  0.29845247  0.66181004  0.39617786  1
  O2-  O281  1  0.29414883  0.66913972  0.73279753  1
  O2-  O282  1  0.79163859  0.16712030  0.06487923  1
  O2-  O283  1  0.79288669  0.16566197  0.40063333  1
  O2-  O284  1  0.80281597  0.17082234  0.73406966  1
  O2-  O285  1  0.79042596  0.66624602  0.06854432  1
  O2-  O286  1  0.79706241  0.66750307  0.39310580  1
  O2-  O287  1  0.79517118  0.66903589  0.73299730  1
