# generated using pymatgen
data_Ca2Al2SiO7
_symmetry_space_group_name_H-M   'P 1'
_cell_length_a   15.46284120
_cell_length_b   15.46217287
_cell_length_c   15.28659505
_cell_angle_alpha   90.00028767
_cell_angle_beta   89.97357507
_cell_angle_gamma   89.99811789
_symmetry_Int_Tables_number   1
_chemical_formula_structural   Ca2Al2SiO7
_chemical_formula_sum   'Ca48 Al48 Si24 O168'
_cell_volume   3654.85822399
_cell_formula_units_Z   24
loop_
 _symmetry_equiv_pos_site_id
 _symmetry_equiv_pos_as_xyz
  1  'x, y, z'
loop_
 _atom_type_symbol
 _atom_type_oxidation_number
  Ca2+  2.0
  Al0+  0.0
  Si0+  0.0
  O2-  -2.0
loop_
 _atom_site_type_symbol
 _atom_site_label
 _atom_site_symmetry_multiplicity
 _atom_site_fract_x
 _atom_site_fract_y
 _atom_site_fract_z
 _atom_site_occupancy
  Ca2+  Ca0  1  0.17644047  0.07595061  0.16612471  1
  Ca2+  Ca1  1  0.18097595  0.08265961  0.50706410  1
  Ca2+  Ca2  1  0.17836210  0.07575612  0.84138374  1
  Ca2+  Ca3  1  0.16432024  0.58559501  0.16582184  1
  Ca2+  Ca4  1  0.17402599  0.58253200  0.50689404  1
  Ca2+  Ca5  1  0.17027950  0.58893346  0.83592623  1
  Ca2+  Ca6  1  0.66124323  0.07693189  0.16325981  1
  Ca2+  Ca7  1  0.66442961  0.07670159  0.50100099  1
  Ca2+  Ca8  1  0.67449973  0.07844609  0.84256182  1
  Ca2+  Ca9  1  0.67103612  0.57615986  0.16924364  1
  Ca2+  Ca10  1  0.67355068  0.58615143  0.50763557  1
  Ca2+  Ca11  1  0.66695910  0.58022349  0.83661109  1
  Ca2+  Ca12  1  0.07595922  0.32912205  0.15776638  1
  Ca2+  Ca13  1  0.07715913  0.33465301  0.50089815  1
  Ca2+  Ca14  1  0.07035130  0.33037936  0.83038064  1
  Ca2+  Ca15  1  0.07910931  0.82797901  0.15264377  1
  Ca2+  Ca16  1  0.07470923  0.83637412  0.50179031  1
  Ca2+  Ca17  1  0.07621721  0.83735736  0.83542041  1
  Ca2+  Ca18  1  0.58247700  0.32129944  0.15469863  1
  Ca2+  Ca19  1  0.58191509  0.32312436  0.49512880  1
  Ca2+  Ca20  1  0.58517474  0.32870014  0.83753486  1
  Ca2+  Ca21  1  0.57760099  0.84385830  0.16340499  1
  Ca2+  Ca22  1  0.57574093  0.83372048  0.49791856  1
  Ca2+  Ca23  1  0.57530499  0.83669166  0.82967245  1
  Ca2+  Ca24  1  0.33530004  0.41455749  0.16599111  1
  Ca2+  Ca25  1  0.33084492  0.42295283  0.50991753  1
  Ca2+  Ca26  1  0.34002126  0.42478327  0.83939025  1
  Ca2+  Ca27  1  0.34288097  0.92559290  0.16685392  1
  Ca2+  Ca28  1  0.34203658  0.92250456  0.50329406  1
  Ca2+  Ca29  1  0.33557449  0.92086062  0.84241788  1
  Ca2+  Ca30  1  0.82906415  0.41782592  0.16613507  1
  Ca2+  Ca31  1  0.83459264  0.42847105  0.50815876  1
  Ca2+  Ca32  1  0.83220986  0.41868551  0.83909027  1
  Ca2+  Ca33  1  0.82155970  0.91377338  0.16756437  1
  Ca2+  Ca34  1  0.82493344  0.91930916  0.50999128  1
  Ca2+  Ca35  1  0.83295141  0.92257163  0.84428468  1
  Ca2+  Ca36  1  0.42481577  0.16379619  0.15843749  1
  Ca2+  Ca37  1  0.42057312  0.15911315  0.49167388  1
  Ca2+  Ca38  1  0.42121315  0.16009660  0.83340432  1
  Ca2+  Ca39  1  0.41717381  0.68191452  0.15826726  1
  Ca2+  Ca40  1  0.41879282  0.67505490  0.49989944  1
  Ca2+  Ca41  1  0.42226239  0.67794004  0.82413444  1
  Ca2+  Ca42  1  0.91298144  0.17168383  0.15462756  1
  Ca2+  Ca43  1  0.91096558  0.17052421  0.50246742  1
  Ca2+  Ca44  1  0.90322499  0.17435490  0.82838753  1
  Ca2+  Ca45  1  0.92082698  0.67062984  0.15780474  1
  Ca2+  Ca46  1  0.90673080  0.67069963  0.49982826  1
  Ca2+  Ca47  1  0.91549729  0.67943211  0.82931198  1
  Al0+  Al48  1  0.00338285  0.00093851  0.00512191  1
  Al0+  Al49  1  0.00059574  0.00079244  0.33290105  1
  Al0+  Al50  1  0.00108726  0.00194583  0.66390843  1
  Al0+  Al51  1  0.00304855  0.49918341  -0.00728298  1
  Al0+  Al52  1  0.00026024  0.50018299  0.33762725  1
  Al0+  Al53  1  -0.00140297  0.49943027  0.66636159  1
  Al0+  Al54  1  0.50261232  0.00119469  -0.00269908  1
  Al0+  Al55  1  0.50131029  0.00033095  0.33411079  1
  Al0+  Al56  1  0.50073698  0.00025648  0.66661120  1
  Al0+  Al57  1  0.50103236  0.49959244  0.00425453  1
  Al0+  Al58  1  0.49984121  0.50025531  0.33476271  1
  Al0+  Al59  1  0.49956220  0.49870613  0.66584936  1
  Al0+  Al60  1  0.24987896  0.25331284  0.00018751  1
  Al0+  Al61  1  0.24795806  0.25020368  0.33787283  1
  Al0+  Al62  1  0.24906255  0.24892467  0.67115849  1
  Al0+  Al63  1  0.25081751  0.74952253  -0.00418293  1
  Al0+  Al64  1  0.24796435  0.75057297  0.33036520  1
  Al0+  Al65  1  0.24858026  0.75017269  0.66553647  1
  Al0+  Al66  1  0.74845662  0.25154959  -0.00025207  1
  Al0+  Al67  1  0.74950384  0.25038961  0.32881771  1
  Al0+  Al68  1  0.74886413  0.25027171  0.66182263  1
  Al0+  Al69  1  0.75122932  0.74941464  0.00170626  1
  Al0+  Al70  1  0.74836034  0.74992097  0.34033826  1
  Al0+  Al71  1  0.74903160  0.74842389  0.66445401  1
  Al0+  Al72  1  0.82016072  0.56835086  0.34669935  1
  Al0+  Al73  1  0.92791520  0.82264060  0.98722712  1
  Al0+  Al74  1  0.82053549  0.57188421  0.68310786  1
  Al0+  Al75  1  0.32084632  0.57080892  0.68041768  1
  Al0+  Al76  1  0.57079148  0.67626241  0.65153582  1
  Al0+  Al77  1  0.42750578  0.32292132  0.98503963  1
  Al0+  Al78  1  0.68000450  0.93109611  0.34933894  1
  Al0+  Al79  1  0.32216415  0.07210847  0.01517828  1
  Al0+  Al80  1  0.67876906  0.43032587  0.01372466  1
  Al0+  Al81  1  0.43216309  0.82121987  0.98653009  1
  Al0+  Al82  1  0.92867330  0.31862601  0.98672751  1
  Al0+  Al83  1  0.67999883  0.92677220  0.01393564  1
  Al0+  Al84  1  0.31887738  0.06855958  0.34679832  1
  Al0+  Al85  1  0.43002810  0.81888811  0.31847924  1
  Al0+  Al86  1  0.32272243  0.06982012  0.68154925  1
  Al0+  Al87  1  0.82020172  0.07090615  0.67797627  1
  Al0+  Al88  1  0.82213473  0.07261608  0.01407982  1
  Al0+  Al89  1  0.92811977  0.32068851  0.65072712  1
  Al0+  Al90  1  0.18046887  0.92625256  0.01534879  1
  Al0+  Al91  1  0.56989899  0.17922107  0.98217224  1
  Al0+  Al92  1  0.92908676  0.82271099  0.65284714  1
  Al0+  Al93  1  0.57002066  0.18001401  0.31860847  1
  Al0+  Al94  1  0.07226514  0.67822534  0.98360333  1
  Al0+  Al95  1  0.42815677  0.82236723  0.65069417  1
  Si0+  Si96  1  0.17675038  0.92808111  0.68254834  1
  Si0+  Si97  1  0.67787362  0.42678438  0.68259450  1
  Si0+  Si98  1  0.17930493  0.42974435  0.34908144  1
  Si0+  Si99  1  0.06932356  0.67886112  0.31987620  1
  Si0+  Si100  1  0.67900154  0.92776298  0.68314437  1
  Si0+  Si101  1  0.17747050  0.42775628  0.68521412  1
  Si0+  Si102  1  0.07392494  0.17787681  0.98388548  1
  Si0+  Si103  1  0.42655926  0.32047738  0.65195611  1
  Si0+  Si104  1  0.17514508  0.92584935  0.35161833  1
  Si0+  Si105  1  0.92687489  0.82144458  0.31997960  1
  Si0+  Si106  1  0.32072686  0.57312816  0.34700047  1
  Si0+  Si107  1  0.82479155  0.57071421  0.01495554  1
  Si0+  Si108  1  0.93179540  0.32135739  0.31862245  1
  Si0+  Si109  1  0.57367477  0.67614700  0.31571265  1
  Si0+  Si110  1  0.42552602  0.32389003  0.31912642  1
  Si0+  Si111  1  0.56970195  0.18005034  0.65020546  1
  Si0+  Si112  1  0.07376604  0.17899432  0.64854813  1
  Si0+  Si113  1  0.82528223  0.07403610  0.35008356  1
  Si0+  Si114  1  0.57302170  0.67570874  0.98621556  1
  Si0+  Si115  1  0.07300632  0.17914600  0.31832148  1
  Si0+  Si116  1  0.67699817  0.42596006  0.35088705  1
  Si0+  Si117  1  0.07076567  0.67756021  0.64795809  1
  Si0+  Si118  1  0.32155633  0.57091230  0.01571861  1
  Si0+  Si119  1  0.17782703  0.43022885  0.01514970  1
  O2-  O120  1  0.25341896  -0.00295884  0.06603162  1
  O2-  O121  1  0.24480784  -0.00625179  0.39532334  1
  O2-  O122  1  0.25038901  -0.00788640  0.72519524  1
  O2-  O123  1  0.25000811  0.49987798  0.05825677  1
  O2-  O124  1  0.25411201  0.49759349  0.38954533  1
  O2-  O125  1  0.24627595  0.49643050  0.72863571  1
  O2-  O126  1  0.75422976  -0.00293756  0.06437403  1
  O2-  O127  1  0.75781249  0.00428809  0.39407518  1
  O2-  O128  1  0.75218148  -0.00812931  0.72588416  1
  O2-  O129  1  0.75472932  0.50406525  0.06021080  1
  O2-  O130  1  0.74365016  0.49599180  0.39536683  1
  O2-  O131  1  0.74462393  0.49735012  0.72668005  1
  O2-  O132  1  -0.00283814  0.24535515  0.27622470  1
  O2-  O133  1  0.00326172  0.24620695  0.60345817  1
  O2-  O134  1  -0.00177250  0.23902509  0.93987810  1
  O2-  O135  1  -0.00074821  0.75094561  0.27881198  1
  O2-  O136  1  0.00102492  0.74523291  0.60345726  1
  O2-  O137  1  -0.00017764  0.75071649  0.93639781  1
  O2-  O138  1  0.49563142  0.25733164  0.27560157  1
  O2-  O139  1  0.49431722  0.24737397  0.60826292  1
  O2-  O140  1  0.49493035  0.24885860  0.93235521  1
  O2-  O141  1  0.50333074  0.74250767  0.27135540  1
  O2-  O142  1  0.49928011  0.74886883  0.60121520  1
  O2-  O143  1  0.50921125  0.74826369  0.94182269  1
  O2-  O144  1  0.07584157  0.18415171  0.09010743  1
  O2-  O145  1  0.07553835  0.18252770  0.42324448  1
  O2-  O146  1  0.07644605  0.18109861  0.75343511  1
  O2-  O147  1  0.06898469  0.67523207  0.09837942  1
  O2-  O148  1  0.07097294  0.67712510  0.42469630  1
  O2-  O149  1  0.07122720  0.67749544  0.75281166  1
  O2-  O150  1  0.56898573  0.18070970  0.09595765  1
  O2-  O151  1  0.56856532  0.18155712  0.43261244  1
  O2-  O152  1  0.57185686  0.18118200  0.75445998  1
  O2-  O153  1  0.56893212  0.67218304  0.09206227  1
  O2-  O154  1  0.57205971  0.67469327  0.42102673  1
  O2-  O155  1  0.56852684  0.67493695  0.76507842  1
  O2-  O156  1  0.17614711  0.43003312  0.24425026  1
  O2-  O157  1  0.17943295  0.42819484  0.57855123  1
  O2-  O158  1  0.17615596  0.43073257  0.91064039  1
  O2-  O159  1  0.17206229  0.92602710  0.24685256  1
  O2-  O160  1  0.17449048  0.93132611  0.57641666  1
  O2-  O161  1  0.18145113  0.92813540  0.90159674  1
  O2-  O162  1  0.67858097  0.42619792  0.24559670  1
  O2-  O163  1  0.67964074  0.42496894  0.57648046  1
  O2-  O164  1  0.67887656  0.43268553  0.90068550  1
  O2-  O165  1  0.68089248  0.93043571  0.23682842  1
  O2-  O166  1  0.67769434  0.93141869  0.57698408  1
  O2-  O167  1  0.67983912  0.92703232  0.90040512  1
  O2-  O168  1  0.42969645  0.32392623  0.09922120  1
  O2-  O169  1  0.42485161  0.32492158  0.42516864  1
  O2-  O170  1  0.42744131  0.32228412  0.75620908  1
  O2-  O171  1  0.43195456  0.81937900  0.10004804  1
  O2-  O172  1  0.42943962  0.81656694  0.43134667  1
  O2-  O173  1  0.43030111  0.82265132  0.76396390  1
  O2-  O174  1  0.93298053  0.32160194  0.10072532  1
  O2-  O175  1  0.93429381  0.32247527  0.42367765  1
  O2-  O176  1  0.92823012  0.31940128  0.76329980  1
  O2-  O177  1  0.92724306  0.81736358  0.10164489  1
  O2-  O178  1  0.92842091  0.82085624  0.42522661  1
  O2-  O179  1  0.93134850  0.82415685  0.76509299  1
  O2-  O180  1  0.31710463  0.07070393  0.23458169  1
  O2-  O181  1  0.32157978  0.07142874  0.56778492  1
  O2-  O182  1  0.31965443  0.07078936  0.90157682  1
  O2-  O183  1  0.31828401  0.57342943  0.24204494  1
  O2-  O184  1  0.31816848  0.56744513  0.56625326  1
  O2-  O185  1  0.32196068  0.56951562  0.91086501  1
  O2-  O186  1  0.82886364  0.07404441  0.24520511  1
  O2-  O187  1  0.81554937  0.07114353  0.56431850  1
  O2-  O188  1  0.81863208  0.07275023  0.90026998  1
  O2-  O189  1  0.82330362  0.56479266  0.23372646  1
  O2-  O190  1  0.82025717  0.56877748  0.56937881  1
  O2-  O191  1  0.82410796  0.56980144  0.90969358  1
  O2-  O192  1  0.05087024  0.08518594  0.27262229  1
  O2-  O193  1  0.05020019  0.08620634  0.60014920  1
  O2-  O194  1  0.05877210  0.08136874  0.94209473  1
  O2-  O195  1  0.04091357  0.58650666  0.27282094  1
  O2-  O196  1  0.04758694  0.58288893  0.60233990  1
  O2-  O197  1  0.04748393  0.58020050  0.92900772  1
  O2-  O198  1  0.53724464  0.08456938  0.26579409  1
  O2-  O199  1  0.54369180  0.08773269  0.60284641  1
  O2-  O200  1  0.54465556  0.08143508  0.92770649  1
  O2-  O201  1  0.55029029  0.58061899  0.27122328  1
  O2-  O202  1  0.54233852  0.57755136  0.59689312  1
  O2-  O203  1  0.54256935  0.58451754  0.93898102  1
  O2-  O204  1  0.16210290  0.21350653  0.26958885  1
  O2-  O205  1  0.16630120  0.20918983  0.60045633  1
  O2-  O206  1  0.16338219  0.21243443  0.93552396  1
  O2-  O207  1  0.16064574  0.70442901  0.27018562  1
  O2-  O208  1  0.16378986  0.70405852  0.59997218  1
  O2-  O209  1  0.17029275  0.70487294  0.92999979  1
  O2-  O210  1  0.66722559  0.20884472  0.26439862  1
  O2-  O211  1  0.65836141  0.21235281  0.59894399  1
  O2-  O212  1  0.66652731  0.21342505  0.92985374  1
  O2-  O213  1  0.66772488  0.70277936  0.27159957  1
  O2-  O214  1  0.66889139  0.70376885  0.59753340  1
  O2-  O215  1  0.66890141  0.69459811  0.94322300  1
  O2-  O216  1  0.08730440  0.46033151  0.06522169  1
  O2-  O217  1  0.09032535  0.46200092  0.39993002  1
  O2-  O218  1  0.08361125  0.45332678  0.72918143  1
  O2-  O219  1  0.08349788  0.95506209  0.07183869  1
  O2-  O220  1  0.08182740  0.95345018  0.39878110  1
  O2-  O221  1  0.08565051  0.95969945  0.72960898  1
  O2-  O222  1  0.58402018  0.46140967  0.07225733  1
  O2-  O223  1  0.58155141  0.44804586  0.39615969  1
  O2-  O224  1  0.58336369  0.44933695  0.72723907  1
  O2-  O225  1  0.58333011  0.96038831  0.06727796  1
  O2-  O226  1  0.58542840  0.96579664  0.40474975  1
  O2-  O227  1  0.58747273  0.95920030  0.72895606  1
  O2-  O228  1  0.20381281  0.33940775  0.06594735  1
  O2-  O229  1  0.20352038  0.33836681  0.39942043  1
  O2-  O230  1  0.20131518  0.33422159  0.73069033  1
  O2-  O231  1  0.20547028  0.82583735  0.06651416  1
  O2-  O232  1  0.19921651  0.83117490  0.39670543  1
  O2-  O233  1  0.19524499  0.83219772  0.72523668  1
  O2-  O234  1  0.71101775  0.33547547  0.06927884  1
  O2-  O235  1  0.70479213  0.33258901  0.39665337  1
  O2-  O236  1  0.70701654  0.33439481  0.72804035  1
  O2-  O237  1  0.70495530  0.82762811  0.06944818  1
  O2-  O238  1  0.70773579  0.83416246  0.40448470  1
  O2-  O239  1  0.69809832  0.83207610  0.72514382  1
  O2-  O240  1  0.44728668  0.41913485  0.27401637  1
  O2-  O241  1  0.45587791  0.41070047  0.60171739  1
  O2-  O242  1  0.46046309  0.42099362  0.93361563  1
  O2-  O243  1  0.46404267  0.91512626  0.26727759  1
  O2-  O244  1  0.46102121  0.92002097  0.59717883  1
  O2-  O245  1  0.46085444  0.91714856  0.93219778  1
  O2-  O246  1  0.96663414  0.41125056  0.27179834  1
  O2-  O247  1  0.96209272  0.41652704  0.59583137  1
  O2-  O248  1  0.96498434  0.41220266  0.93116611  1
  O2-  O249  1  0.95243353  0.91456110  0.27436071  1
  O2-  O250  1  0.96198710  0.91813414  0.59584584  1
  O2-  O251  1  0.95733548  0.92211712  0.93729334  1
  O2-  O252  1  0.33071879  0.29883526  0.27520329  1
  O2-  O253  1  0.33272360  0.29641111  0.60582131  1
  O2-  O254  1  0.32613226  0.30452655  0.93457480  1
  O2-  O255  1  0.33196916  0.78917143  0.26584097  1
  O2-  O256  1  0.32838061  0.79556797  0.59894705  1
  O2-  O257  1  0.33710678  0.78766315  0.93297357  1
  O2-  O258  1  0.83794895  0.29990429  0.27283332  1
  O2-  O259  1  0.83265144  0.28921994  0.59393606  1
  O2-  O260  1  0.83157693  0.29379090  0.93275562  1
  O2-  O261  1  0.83518210  0.79125055  0.27467828  1
  O2-  O262  1  0.83235866  0.79237631  0.59870040  1
  O2-  O263  1  0.82998715  0.79349871  0.93341708  1
  O2-  O264  1  0.42125193  0.04396096  0.06568581  1
  O2-  O265  1  0.41508548  0.03739366  0.40059625  1
  O2-  O266  1  0.42025617  0.04206622  0.73383813  1
  O2-  O267  1  0.41152397  0.54260849  0.06629305  1
  O2-  O268  1  0.41401627  0.54965688  0.39398267  1
  O2-  O269  1  0.41676532  0.53796175  0.73356752  1
  O2-  O270  1  0.92335731  0.05397558  0.06520498  1
  O2-  O271  1  0.91996227  0.05147449  0.39669031  1
  O2-  O272  1  0.92069576  0.04993109  0.72721934  1
  O2-  O273  1  0.91830417  0.54141286  0.05954109  1
  O2-  O274  1  0.91578287  0.53562648  0.40299281  1
  O2-  O275  1  0.91761202  0.53979859  0.73415635  1
  O2-  O276  1  0.29193983  0.17143599  0.06614855  1
  O2-  O277  1  0.28776128  0.16592928  0.40170786  1
  O2-  O278  1  0.29091207  0.16632267  0.73465085  1
  O2-  O279  1  0.29145183  0.66155790  0.06361171  1
  O2-  O280  1  0.28666185  0.66229869  0.39564760  1
  O2-  O281  1  0.28991643  0.66781499  0.73278329  1
  O2-  O282  1  0.79037527  0.16997235  0.06746707  1
  O2-  O283  1  0.79802194  0.16881949  0.39377661  1
  O2-  O284  1  0.78496285  0.16710802  0.72925016  1
  O2-  O285  1  0.80117747  0.66393828  0.06245519  1
  O2-  O286  1  0.79144449  0.66483034  0.40173644  1
  O2-  O287  1  0.79128709  0.66926461  0.73536710  1
