# generated using pymatgen
data_Ca2Al2SiO7
_symmetry_space_group_name_H-M   'P 1'
_cell_length_a   15.46886987
_cell_length_b   15.47037242
_cell_length_c   15.29265054
_cell_angle_alpha   90.00493372
_cell_angle_beta   89.99255778
_cell_angle_gamma   89.99319691
_symmetry_Int_Tables_number   1
_chemical_formula_structural   Ca2Al2SiO7
_chemical_formula_sum   'Ca48 Al48 Si24 O168'
_cell_volume   3659.67155904
_cell_formula_units_Z   24
loop_
 _symmetry_equiv_pos_site_id
 _symmetry_equiv_pos_as_xyz
  1  'x, y, z'
loop_
 _atom_type_symbol
 _atom_type_oxidation_number
  Ca2+  2.0
  Al0+  0.0
  Si0+  0.0
  O2-  -2.0
loop_
 _atom_site_type_symbol
 _atom_site_label
 _atom_site_symmetry_multiplicity
 _atom_site_fract_x
 _atom_site_fract_y
 _atom_site_fract_z
 _atom_site_occupancy
  Ca2+  Ca0  1  0.17515283  0.09028933  0.16794935  1
  Ca2+  Ca1  1  0.17467216  0.08563840  0.49688716  1
  Ca2+  Ca2  1  0.17316048  0.08550900  0.84660631  1
  Ca2+  Ca3  1  0.15690989  0.57573418  0.17046741  1
  Ca2+  Ca4  1  0.17161619  0.58592964  0.50397472  1
  Ca2+  Ca5  1  0.17022174  0.57799335  0.83968181  1
  Ca2+  Ca6  1  0.67362315  0.08011259  0.17173690  1
  Ca2+  Ca7  1  0.67385888  0.07810906  0.49969305  1
  Ca2+  Ca8  1  0.67594001  0.07741061  0.83967524  1
  Ca2+  Ca9  1  0.66497282  0.58084753  0.17168923  1
  Ca2+  Ca10  1  0.66222070  0.57655168  0.50293814  1
  Ca2+  Ca11  1  0.66694989  0.57248807  0.83520429  1
  Ca2+  Ca12  1  0.07500629  0.32711123  0.15832909  1
  Ca2+  Ca13  1  0.06953845  0.33220948  0.49461373  1
  Ca2+  Ca14  1  0.07581867  0.33096482  0.83563202  1
  Ca2+  Ca15  1  0.07388983  0.83809420  0.16197420  1
  Ca2+  Ca16  1  0.07619024  0.82530132  0.48865446  1
  Ca2+  Ca17  1  0.07329683  0.84924974  0.83715499  1
  Ca2+  Ca18  1  0.57706108  0.31551178  0.16525832  1
  Ca2+  Ca19  1  0.58064869  0.32781816  0.49022615  1
  Ca2+  Ca20  1  0.58907542  0.32456065  0.83100529  1
  Ca2+  Ca21  1  0.58390223  0.84231322  0.16510590  1
  Ca2+  Ca22  1  0.58440473  0.83108727  0.48746298  1
  Ca2+  Ca23  1  0.58625134  0.83937716  0.83147312  1
  Ca2+  Ca24  1  0.32684110  0.41003569  0.17143781  1
  Ca2+  Ca25  1  0.33681724  0.42333026  0.50442846  1
  Ca2+  Ca26  1  0.32742421  0.42395609  0.84059791  1
  Ca2+  Ca27  1  0.32966547  0.92507607  0.16979567  1
  Ca2+  Ca28  1  0.34178536  0.92128392  0.49645172  1
  Ca2+  Ca29  1  0.32315987  0.92303591  0.84451741  1
  Ca2+  Ca30  1  0.84061956  0.41510062  0.17272077  1
  Ca2+  Ca31  1  0.82937713  0.41253410  0.50536186  1
  Ca2+  Ca32  1  0.83461215  0.40996687  0.83488280  1
  Ca2+  Ca33  1  0.83146945  0.92585712  0.17445190  1
  Ca2+  Ca34  1  0.82484363  0.92220320  0.50367231  1
  Ca2+  Ca35  1  0.82633141  0.92590757  0.84469851  1
  Ca2+  Ca36  1  0.42758938  0.15078184  0.16482080  1
  Ca2+  Ca37  1  0.42541326  0.17139120  0.48498089  1
  Ca2+  Ca38  1  0.42386084  0.15809945  0.83534896  1
  Ca2+  Ca39  1  0.42364666  0.67373636  0.17003842  1
  Ca2+  Ca40  1  0.42229125  0.67237209  0.48997825  1
  Ca2+  Ca41  1  0.41518970  0.66728568  0.82857736  1
  Ca2+  Ca42  1  0.91240936  0.17271297  0.15714622  1
  Ca2+  Ca43  1  0.90415126  0.17329074  0.49690517  1
  Ca2+  Ca44  1  0.91424646  0.16815932  0.83266499  1
  Ca2+  Ca45  1  0.91692050  0.68270684  0.16787152  1
  Ca2+  Ca46  1  0.92208038  0.67362859  0.48855406  1
  Ca2+  Ca47  1  0.91639881  0.67502504  0.83500333  1
  Al0+  Al48  1  -0.00059071  0.00160951  -0.00231553  1
  Al0+  Al49  1  0.00214970  0.00213913  0.33783675  1
  Al0+  Al50  1  0.00195769  0.00143270  0.66451576  1
  Al0+  Al51  1  0.00038371  0.50161806  -0.00045261  1
  Al0+  Al52  1  -0.00078100  0.49860585  0.32989421  1
  Al0+  Al53  1  0.00027312  0.49972706  0.66277252  1
  Al0+  Al54  1  0.49950467  -0.00170495  -0.00205855  1
  Al0+  Al55  1  0.49953547  -0.00109729  0.33460684  1
  Al0+  Al56  1  0.49966830  -0.00020061  0.66769207  1
  Al0+  Al57  1  0.50084733  0.50114007  -0.00016587  1
  Al0+  Al58  1  0.49785289  0.50000887  0.32546697  1
  Al0+  Al59  1  0.49980980  0.50069682  0.67642884  1
  Al0+  Al60  1  0.25045526  0.25422502  0.00415562  1
  Al0+  Al61  1  0.24670388  0.25230996  0.34016404  1
  Al0+  Al62  1  0.24917178  0.25115906  0.66640072  1
  Al0+  Al63  1  0.25219153  0.74957970  0.00384316  1
  Al0+  Al64  1  0.25168612  0.74584921  0.32557903  1
  Al0+  Al65  1  0.25161550  0.75047345  0.67079403  1
  Al0+  Al66  1  0.74541665  0.25053546  -0.00512317  1
  Al0+  Al67  1  0.74734305  0.25073750  0.32897888  1
  Al0+  Al68  1  0.74950609  0.24936227  0.66956033  1
  Al0+  Al69  1  0.74947825  0.74662283  -0.00313704  1
  Al0+  Al70  1  0.75248295  0.74684523  0.33061005  1
  Al0+  Al71  1  0.74912341  0.74771714  0.66858958  1
  Al0+  Al72  1  0.56960090  0.17780453  0.31913295  1
  Al0+  Al73  1  0.92993282  0.82414416  0.32034348  1
  Al0+  Al74  1  0.42976583  0.82223722  0.31702682  1
  Al0+  Al75  1  0.67804711  0.92672412  0.68155271  1
  Al0+  Al76  1  0.31974747  0.57118638  0.67991045  1
  Al0+  Al77  1  0.68059972  0.92666195  0.34737689  1
  Al0+  Al78  1  0.17932201  0.43229007  0.01495086  1
  Al0+  Al79  1  0.57307808  0.67833184  0.31891172  1
  Al0+  Al80  1  0.56792430  0.17736329  0.98321990  1
  Al0+  Al81  1  0.82197023  0.07060569  0.68286022  1
  Al0+  Al82  1  0.82290755  0.07430435  0.34829726  1
  Al0+  Al83  1  0.07252183  0.17958533  0.98602094  1
  Al0+  Al84  1  0.17680980  0.92837490  0.01540663  1
  Al0+  Al85  1  0.92774265  0.32248338  0.98387172  1
  Al0+  Al86  1  0.67987866  0.92644926  0.01537418  1
  Al0+  Al87  1  0.92818139  0.31746582  0.32067304  1
  Al0+  Al88  1  0.92876516  0.82168409  0.98599127  1
  Al0+  Al89  1  0.68003667  0.42966439  0.67936386  1
  Al0+  Al90  1  0.81984354  0.07309482  0.01487195  1
  Al0+  Al91  1  0.42589159  0.32171594  0.32020863  1
  Al0+  Al92  1  0.32029593  0.07049142  0.34808110  1
  Al0+  Al93  1  0.07186729  0.67755000  0.31885981  1
  Al0+  Al94  1  0.92936465  0.31874062  0.65171177  1
  Al0+  Al95  1  0.32054652  0.07231590  0.01432557  1
  Si0+  Si96  1  0.82240749  0.56867422  0.34818242  1
  Si0+  Si97  1  0.32077855  0.07294809  0.68035865  1
  Si0+  Si98  1  0.42881710  0.32523688  0.98149600  1
  Si0+  Si99  1  0.07322479  0.67944892  0.98259843  1
  Si0+  Si100  1  0.07209291  0.68013937  0.65401899  1
  Si0+  Si101  1  0.67743188  0.43082068  0.34542140  1
  Si0+  Si102  1  0.32162279  0.56938644  0.34796736  1
  Si0+  Si103  1  0.57104824  0.67659149  0.98066979  1
  Si0+  Si104  1  0.42913217  0.81996264  0.65301282  1
  Si0+  Si105  1  0.82493659  0.57224798  0.68309894  1
  Si0+  Si106  1  0.57035016  0.67682357  0.65362893  1
  Si0+  Si107  1  0.17613483  0.43037789  0.35174233  1
  Si0+  Si108  1  0.32462249  0.57278084  0.02097590  1
  Si0+  Si109  1  0.67762955  0.42914997  0.01662280  1
  Si0+  Si110  1  0.18121458  0.92870714  0.67900541  1
  Si0+  Si111  1  0.42960654  0.81918901  0.98246276  1
  Si0+  Si112  1  0.17929702  0.92429366  0.35023281  1
  Si0+  Si113  1  0.07578999  0.17674899  0.64692505  1
  Si0+  Si114  1  0.56881022  0.17898368  0.65108298  1
  Si0+  Si115  1  0.42837907  0.32261407  0.65442990  1
  Si0+  Si116  1  0.07359139  0.17846645  0.31891266  1
  Si0+  Si117  1  0.17623554  0.42832707  0.68327051  1
  Si0+  Si118  1  0.92828573  0.82147475  0.65222799  1
  Si0+  Si119  1  0.82059877  0.56945685  0.01543107  1
  O2-  O120  1  0.24457828  0.00449061  0.06417984  1
  O2-  O121  1  0.24835149  -0.00737631  0.39592266  1
  O2-  O122  1  0.24752777  0.00415480  0.72093946  1
  O2-  O123  1  0.25433983  0.50581905  0.06413428  1
  O2-  O124  1  0.24943774  0.50034287  0.39217056  1
  O2-  O125  1  0.24577606  0.49644874  0.72692589  1
  O2-  O126  1  0.75234424  -0.00279773  0.06477379  1
  O2-  O127  1  0.75336702  -0.00163352  0.39708819  1
  O2-  O128  1  0.75305244  -0.00512119  0.73127028  1
  O2-  O129  1  0.75371591  0.49468259  0.05802812  1
  O2-  O130  1  0.74882174  0.50029714  0.39004639  1
  O2-  O131  1  0.75771326  0.50172454  0.72654009  1
  O2-  O132  1  -0.00251115  0.23836640  0.27546222  1
  O2-  O133  1  0.00338640  0.24300599  0.60506856  1
  O2-  O134  1  -0.00255002  0.24793604  0.93422976  1
  O2-  O135  1  0.00631169  0.75578810  0.27092669  1
  O2-  O136  1  -0.00057592  0.74912543  0.61145112  1
  O2-  O137  1  0.00895662  0.75174428  0.93738334  1
  O2-  O138  1  0.49071633  0.24396663  0.27030142  1
  O2-  O139  1  0.49672664  0.25037269  0.61039608  1
  O2-  O140  1  0.49290184  0.25306965  0.93607782  1
  O2-  O141  1  0.50861635  0.75652970  0.26800041  1
  O2-  O142  1  0.50461685  0.75286029  0.61200220  1
  O2-  O143  1  0.50103805  0.74875485  0.93912476  1
  O2-  O144  1  0.07474131  0.18391249  0.09931792  1
  O2-  O145  1  0.07833642  0.18424094  0.42471834  1
  O2-  O146  1  0.08267327  0.17752925  0.75167582  1
  O2-  O147  1  0.06951036  0.67738150  0.08761363  1
  O2-  O148  1  0.07036116  0.67740466  0.43375304  1
  O2-  O149  1  0.07230558  0.67957474  0.75876279  1
  O2-  O150  1  0.56725250  0.17834083  0.09565147  1
  O2-  O151  1  0.57045310  0.18260323  0.43361730  1
  O2-  O152  1  0.56605235  0.17850663  0.75611367  1
  O2-  O153  1  0.56991491  0.67196618  0.08511258  1
  O2-  O154  1  0.56770315  0.67308045  0.43312556  1
  O2-  O155  1  0.56755107  0.67440599  0.75857243  1
  O2-  O156  1  0.17445492  0.43137099  0.24700835  1
  O2-  O157  1  0.17651777  0.42987611  0.57769340  1
  O2-  O158  1  0.18058600  0.43606341  0.90120371  1
  O2-  O159  1  0.17912151  0.92543163  0.24537293  1
  O2-  O160  1  0.18415619  0.92450922  0.57424770  1
  O2-  O161  1  0.18242012  0.92707138  0.90063720  1
  O2-  O162  1  0.67860556  0.43286721  0.24042313  1
  O2-  O163  1  0.67704331  0.43236847  0.56605019  1
  O2-  O164  1  0.67533144  0.43288512  0.91124741  1
  O2-  O165  1  0.68241100  0.92786563  0.23445841  1
  O2-  O166  1  0.67677638  0.92515217  0.56843173  1
  O2-  O167  1  0.68105479  0.92761287  0.90140491  1
  O2-  O168  1  0.43338188  0.33099445  0.08629193  1
  O2-  O169  1  0.43112460  0.32468850  0.43495227  1
  O2-  O170  1  0.42760191  0.32155555  0.75920563  1
  O2-  O171  1  0.42969927  0.81814923  0.08688734  1
  O2-  O172  1  0.42765913  0.81747849  0.43176610  1
  O2-  O173  1  0.42620336  0.81832851  0.75798600  1
  O2-  O174  1  0.93038128  0.32451482  0.09728178  1
  O2-  O175  1  0.92917908  0.32100672  0.43411800  1
  O2-  O176  1  0.93275908  0.32114524  0.76399036  1
  O2-  O177  1  0.92657737  0.81771127  0.09823323  1
  O2-  O178  1  0.93052867  0.81852346  0.43498304  1
  O2-  O179  1  0.92966102  0.82082242  0.75723987  1
  O2-  O180  1  0.31735982  0.07171975  0.23602086  1
  O2-  O181  1  0.32240008  0.07288947  0.57548286  1
  O2-  O182  1  0.32109406  0.06802255  0.89951338  1
  O2-  O183  1  0.32316634  0.56715678  0.24346770  1
  O2-  O184  1  0.31953551  0.57127384  0.56681747  1
  O2-  O185  1  0.32447543  0.57165442  0.91461385  1
  O2-  O186  1  0.82150504  0.07699905  0.23544043  1
  O2-  O187  1  0.81840271  0.07055510  0.56939360  1
  O2-  O188  1  0.81779706  0.07200274  0.90104443  1
  O2-  O189  1  0.82431905  0.56641658  0.24310424  1
  O2-  O190  1  0.82468304  0.57422980  0.57759048  1
  O2-  O191  1  0.81830236  0.57081856  0.90991650  1
  O2-  O192  1  0.06087768  0.08106983  0.27855965  1
  O2-  O193  1  0.05495231  0.08178562  0.60084575  1
  O2-  O194  1  0.05057917  0.08013018  0.93178802  1
  O2-  O195  1  0.03565456  0.58271122  0.26475133  1
  O2-  O196  1  0.04831305  0.58790510  0.60524196  1
  O2-  O197  1  0.04178262  0.58854735  0.93387277  1
  O2-  O198  1  0.54454311  0.07904324  0.26801312  1
  O2-  O199  1  0.53972557  0.08735258  0.60397234  1
  O2-  O200  1  0.53525603  0.08171422  0.92727941  1
  O2-  O201  1  0.53616115  0.58469814  0.26156765  1
  O2-  O202  1  0.53692644  0.58631725  0.60668531  1
  O2-  O203  1  0.53964184  0.58600601  0.93136912  1
  O2-  O204  1  0.16333218  0.21341728  0.27187368  1
  O2-  O205  1  0.16813307  0.20698991  0.59860629  1
  O2-  O206  1  0.17094553  0.21321562  0.93303233  1
  O2-  O207  1  0.17199100  0.69324117  0.26640061  1
  O2-  O208  1  0.16370549  0.71088003  0.60692549  1
  O2-  O209  1  0.17026406  0.69829699  0.94026046  1
  O2-  O210  1  0.66318050  0.21388964  0.26318915  1
  O2-  O211  1  0.66027029  0.20871835  0.60584134  1
  O2-  O212  1  0.66172994  0.21235588  0.92640181  1
  O2-  O213  1  0.67438598  0.69337872  0.26835460  1
  O2-  O214  1  0.66494063  0.69619301  0.60759762  1
  O2-  O215  1  0.66300182  0.70064549  0.93204428  1
  O2-  O216  1  0.08306800  0.46532598  0.06865469  1
  O2-  O217  1  0.08570727  0.46272763  0.39997794  1
  O2-  O218  1  0.08361176  0.45656733  0.72919227  1
  O2-  O219  1  0.07614346  0.94962957  0.06377001  1
  O2-  O220  1  0.08706752  0.95011195  0.39972267  1
  O2-  O221  1  0.08766929  0.95254552  0.72419518  1
  O2-  O222  1  0.58849357  0.46467305  0.06392440  1
  O2-  O223  1  0.58558857  0.46085337  0.39223574  1
  O2-  O224  1  0.58672969  0.46329894  0.73858415  1
  O2-  O225  1  0.58008120  0.95445009  0.06318827  1
  O2-  O226  1  0.58078097  0.95231337  0.39945198  1
  O2-  O227  1  0.57921695  0.95726384  0.73387892  1
  O2-  O228  1  0.20933851  0.33740852  0.07126957  1
  O2-  O229  1  0.20111643  0.34001162  0.40307096  1
  O2-  O230  1  0.20242732  0.33480433  0.72880872  1
  O2-  O231  1  0.20860465  0.83061059  0.06749236  1
  O2-  O232  1  0.20524007  0.82880392  0.39335109  1
  O2-  O233  1  0.21265013  0.84021897  0.73042297  1
  O2-  O234  1  0.69809434  0.33529708  0.06076841  1
  O2-  O235  1  0.70400989  0.33940730  0.39334554  1
  O2-  O236  1  0.70848149  0.33382070  0.73476195  1
  O2-  O237  1  0.70214025  0.82422700  0.06242295  1
  O2-  O238  1  0.70742415  0.82576078  0.39867888  1
  O2-  O239  1  0.69990619  0.82529071  0.73219817  1
  O2-  O240  1  0.45675770  0.41632120  0.26308996  1
  O2-  O241  1  0.45839437  0.41522510  0.60967258  1
  O2-  O242  1  0.45912307  0.41761613  0.93339412  1
  O2-  O243  1  0.45002150  0.92221450  0.26626580  1
  O2-  O244  1  0.45247411  0.91352336  0.60660533  1
  O2-  O245  1  0.45608391  0.90994565  0.93258284  1
  O2-  O246  1  0.96344989  0.41231079  0.26695861  1
  O2-  O247  1  0.95915181  0.41686662  0.59758236  1
  O2-  O248  1  0.95941384  0.42112430  0.93123877  1
  O2-  O249  1  0.95574607  0.92409658  0.27061254  1
  O2-  O250  1  0.95714351  0.91262590  0.60465814  1
  O2-  O251  1  0.95662394  0.91775576  0.92912959  1
  O2-  O252  1  0.32324943  0.30200356  0.27485125  1
  O2-  O253  1  0.33502611  0.29952038  0.60715621  1
  O2-  O254  1  0.33298154  0.30554182  0.93865636  1
  O2-  O255  1  0.33521881  0.78656526  0.26180327  1
  O2-  O256  1  0.33896626  0.78773359  0.60486862  1
  O2-  O257  1  0.33776780  0.78914098  0.93464918  1
  O2-  O258  1  0.83040072  0.29616429  0.26646180  1
  O2-  O259  1  0.83064712  0.29026200  0.59972516  1
  O2-  O260  1  0.82727668  0.29932214  0.93313012  1
  O2-  O261  1  0.83548447  0.78835320  0.26584640  1
  O2-  O262  1  0.83623945  0.79178475  0.60647956  1
  O2-  O263  1  0.83524011  0.78176269  0.92991117  1
  O2-  O264  1  0.41624900  0.03521139  0.06521567  1
  O2-  O265  1  0.41661069  0.04145984  0.40415501  1
  O2-  O266  1  0.41129205  0.04264157  0.72833416  1
  O2-  O267  1  0.41843368  0.54555601  0.06469431  1
  O2-  O268  1  0.41276209  0.53894668  0.39638083  1
  O2-  O269  1  0.41390904  0.54100404  0.73864435  1
  O2-  O270  1  0.92086656  0.05087175  0.06300297  1
  O2-  O271  1  0.92366753  0.05349243  0.40146116  1
  O2-  O272  1  0.92434992  0.04776334  0.73049252  1
  O2-  O273  1  0.91332743  0.54609950  0.06181228  1
  O2-  O274  1  0.91253984  0.53738712  0.39762820  1
  O2-  O275  1  0.91929934  0.54853066  0.72844945  1
  O2-  O276  1  0.30101659  0.17305008  0.06486149  1
  O2-  O277  1  0.28664301  0.16639259  0.40469363  1
  O2-  O278  1  0.29577122  0.16567813  0.72735152  1
  O2-  O279  1  0.30241498  0.66695336  0.06543330  1
  O2-  O280  1  0.29545828  0.66188273  0.39556994  1
  O2-  O281  1  0.28830954  0.66644017  0.73716166  1
  O2-  O282  1  0.78696647  0.17181695  0.06424994  1
  O2-  O283  1  0.78649340  0.17177110  0.40092144  1
  O2-  O284  1  0.79053041  0.16766010  0.73539854  1
  O2-  O285  1  0.78737377  0.65877366  0.06337693  1
  O2-  O286  1  0.79834306  0.66052314  0.39670188  1
  O2-  O287  1  0.79682105  0.66395578  0.73178111  1
