# generated using pymatgen
data_Ca2Al2SiO7
_symmetry_space_group_name_H-M   'P 1'
_cell_length_a   15.46108075
_cell_length_b   15.46364669
_cell_length_c   15.28733047
_cell_angle_alpha   90.01003432
_cell_angle_beta   90.00023259
_cell_angle_gamma   89.98529992
_symmetry_Int_Tables_number   1
_chemical_formula_structural   Ca2Al2SiO7
_chemical_formula_sum   'Ca48 Al48 Si24 O168'
_cell_volume   3654.96649078
_cell_formula_units_Z   24
loop_
 _symmetry_equiv_pos_site_id
 _symmetry_equiv_pos_as_xyz
  1  'x, y, z'
loop_
 _atom_type_symbol
 _atom_type_oxidation_number
  Ca2+  2.0
  Al0+  0.0
  Si0+  0.0
  O2-  -2.0
loop_
 _atom_site_type_symbol
 _atom_site_label
 _atom_site_symmetry_multiplicity
 _atom_site_fract_x
 _atom_site_fract_y
 _atom_site_fract_z
 _atom_site_occupancy
  Ca2+  Ca0  1  0.17550754  0.09323018  0.16617043  1
  Ca2+  Ca1  1  0.16758145  0.07627867  0.51025480  1
  Ca2+  Ca2  1  0.16707458  0.08550780  0.83693215  1
  Ca2+  Ca3  1  0.16544104  0.57042943  0.17302692  1
  Ca2+  Ca4  1  0.17038447  0.58052830  0.50332210  1
  Ca2+  Ca5  1  0.17586024  0.57692421  0.83555048  1
  Ca2+  Ca6  1  0.67403899  0.09262860  0.17188965  1
  Ca2+  Ca7  1  0.67060356  0.08641855  0.50454473  1
  Ca2+  Ca8  1  0.66067296  0.08808616  0.83705981  1
  Ca2+  Ca9  1  0.66389759  0.57221114  0.17230985  1
  Ca2+  Ca10  1  0.66431203  0.57583634  0.50700590  1
  Ca2+  Ca11  1  0.67151957  0.56793709  0.83379895  1
  Ca2+  Ca12  1  0.07800834  0.33463993  0.15398068  1
  Ca2+  Ca13  1  0.08015673  0.33432909  0.49770848  1
  Ca2+  Ca14  1  0.08049702  0.32717788  0.82930301  1
  Ca2+  Ca15  1  0.08573786  0.82443378  0.16740771  1
  Ca2+  Ca16  1  0.08244007  0.82694295  0.49960394  1
  Ca2+  Ca17  1  0.07936610  0.83394321  0.82289781  1
  Ca2+  Ca18  1  0.57416647  0.33611541  0.15913843  1
  Ca2+  Ca19  1  0.57487979  0.34371949  0.49811096  1
  Ca2+  Ca20  1  0.58148339  0.32682406  0.82723282  1
  Ca2+  Ca21  1  0.58298647  0.82724906  0.16726815  1
  Ca2+  Ca22  1  0.57058775  0.82440744  0.49311979  1
  Ca2+  Ca23  1  0.57471633  0.83033814  0.82405683  1
  Ca2+  Ca24  1  0.32265303  0.40356928  0.17057082  1
  Ca2+  Ca25  1  0.33306742  0.41797984  0.50533301  1
  Ca2+  Ca26  1  0.33431684  0.41295894  0.83651465  1
  Ca2+  Ca27  1  0.33800344  0.92533831  0.16952720  1
  Ca2+  Ca28  1  0.32989471  0.91123663  0.51022939  1
  Ca2+  Ca29  1  0.32917519  0.92284218  0.83559890  1
  Ca2+  Ca30  1  0.81941905  0.40573564  0.16998798  1
  Ca2+  Ca31  1  0.82067954  0.42052137  0.51092520  1
  Ca2+  Ca32  1  0.82601825  0.40405715  0.83341081  1
  Ca2+  Ca33  1  0.83112327  0.92840945  0.17481937  1
  Ca2+  Ca34  1  0.83828954  0.92261905  0.50597682  1
  Ca2+  Ca35  1  0.83347534  0.91741057  0.83501182  1
  Ca2+  Ca36  1  0.42020065  0.17678660  0.15667514  1
  Ca2+  Ca37  1  0.42312873  0.17874570  0.49965691  1
  Ca2+  Ca38  1  0.42161875  0.17614082  0.83012000  1
  Ca2+  Ca39  1  0.41962439  0.66982507  0.17097305  1
  Ca2+  Ca40  1  0.41322491  0.67356015  0.49434540  1
  Ca2+  Ca41  1  0.41394676  0.66949802  0.82377988  1
  Ca2+  Ca42  1  0.92284369  0.17146934  0.15849286  1
  Ca2+  Ca43  1  0.91969176  0.16984537  0.50193371  1
  Ca2+  Ca44  1  0.92659183  0.17871442  0.82866562  1
  Ca2+  Ca45  1  0.92404978  0.66096417  0.16638772  1
  Ca2+  Ca46  1  0.91544857  0.66857071  0.49755674  1
  Ca2+  Ca47  1  0.91531356  0.67101610  0.82359344  1
  Al0+  Al48  1  -0.00071692  -0.00270405  -0.00010983  1
  Al0+  Al49  1  0.00120655  0.00106020  0.33671715  1
  Al0+  Al50  1  0.00016710  -0.00234922  0.66457109  1
  Al0+  Al51  1  0.00065959  0.50285713  -0.00320668  1
  Al0+  Al52  1  -0.00106428  0.49922123  0.33304168  1
  Al0+  Al53  1  0.00108923  0.50029705  0.66703279  1
  Al0+  Al54  1  0.49876493  -0.00217594  0.00252880  1
  Al0+  Al55  1  0.50149674  0.00182715  0.33124348  1
  Al0+  Al56  1  0.49951139  0.00007146  0.65873939  1
  Al0+  Al57  1  0.50111486  0.50382398  0.00092563  1
  Al0+  Al58  1  0.49691139  0.50122667  0.32740025  1
  Al0+  Al59  1  0.50088560  0.49966164  0.67372003  1
  Al0+  Al60  1  0.25070614  0.24880898  0.00057436  1
  Al0+  Al61  1  0.24958979  0.24831835  0.33764835  1
  Al0+  Al62  1  0.25212707  0.24799020  0.65913956  1
  Al0+  Al63  1  0.24947858  0.75001834  0.00187791  1
  Al0+  Al64  1  0.24803368  0.75067683  0.32282376  1
  Al0+  Al65  1  0.24834874  0.75026284  0.67298445  1
  Al0+  Al66  1  0.75020325  0.24893872  -0.00090823  1
  Al0+  Al67  1  0.75126712  0.25081420  0.34539867  1
  Al0+  Al68  1  0.75314634  0.24729240  0.66466009  1
  Al0+  Al69  1  0.74994410  0.74909388  0.00208248  1
  Al0+  Al70  1  0.74932492  0.75196267  0.32800570  1
  Al0+  Al71  1  0.74990566  0.75135400  0.66572536  1
  Al0+  Al72  1  0.67651868  0.43162334  0.34727518  1
  Al0+  Al73  1  0.68075027  0.42812286  0.01458137  1
  Al0+  Al74  1  0.17891853  0.92979518  0.68019819  1
  Al0+  Al75  1  0.82182410  0.07028621  0.34949956  1
  Al0+  Al76  1  0.92760068  0.81949985  0.65310128  1
  Al0+  Al77  1  0.93023211  0.32314223  0.64901227  1
  Al0+  Al78  1  0.43078970  0.32378257  0.65093493  1
  Al0+  Al79  1  0.68017798  0.42661321  0.68361243  1
  Al0+  Al80  1  0.17724048  0.42723048  0.34770686  1
  Al0+  Al81  1  0.57168669  0.67840806  0.31779979  1
  Al0+  Al82  1  0.57107182  0.17772935  0.98759639  1
  Al0+  Al83  1  0.18103045  0.43048309  0.01109906  1
  Al0+  Al84  1  0.06875773  0.67763964  0.31954733  1
  Al0+  Al85  1  0.82265632  0.57311775  0.68036742  1
  Al0+  Al86  1  0.92847044  0.32306859  0.98629964  1
  Al0+  Al87  1  0.32032051  0.06948320  0.01318890  1
  Al0+  Al88  1  0.07176446  0.17838907  0.65027843  1
  Al0+  Al89  1  0.42732203  0.82394254  0.31618498  1
  Al0+  Al90  1  0.42851985  0.32357394  0.98536503  1
  Al0+  Al91  1  0.07226605  0.17720644  0.98666071  1
  Al0+  Al92  1  0.32027889  0.57029490  0.67824683  1
  Al0+  Al93  1  0.57254409  0.17774055  0.65022044  1
  Al0+  Al94  1  0.42788070  0.32023750  0.31860355  1
  Al0+  Al95  1  0.42692523  0.81908750  0.65553034  1
  Si0+  Si96  1  0.82143366  0.57506113  0.01802461  1
  Si0+  Si97  1  0.57443273  0.18073451  0.31802193  1
  Si0+  Si98  1  0.67838719  0.92637762  0.01522673  1
  Si0+  Si99  1  0.07021356  0.17751755  0.31849141  1
  Si0+  Si100  1  0.92896631  0.82461037  0.31583705  1
  Si0+  Si101  1  0.82217001  0.06873690  0.68437265  1
  Si0+  Si102  1  0.92856565  0.81945361  0.98633938  1
  Si0+  Si103  1  0.17584950  0.92656202  0.01934094  1
  Si0+  Si104  1  0.07196295  0.67975805  0.98269461  1
  Si0+  Si105  1  0.67748833  0.92698875  0.35120931  1
  Si0+  Si106  1  0.82067635  0.06870607  0.01374392  1
  Si0+  Si107  1  0.92915924  0.31982861  0.31951250  1
  Si0+  Si108  1  0.18131886  0.92859155  0.34762298  1
  Si0+  Si109  1  0.57275232  0.68056255  0.98261473  1
  Si0+  Si110  1  0.42884290  0.81999595  0.98397579  1
  Si0+  Si111  1  0.32342354  0.07167131  0.68232562  1
  Si0+  Si112  1  0.07275725  0.67829000  0.65189768  1
  Si0+  Si113  1  0.82192281  0.57354826  0.34770761  1
  Si0+  Si114  1  0.31832808  0.57296102  0.34738438  1
  Si0+  Si115  1  0.57145436  0.67888183  0.65284669  1
  Si0+  Si116  1  0.67749419  0.93037001  0.68057242  1
  Si0+  Si117  1  0.32284703  0.57575075  0.01957875  1
  Si0+  Si118  1  0.32293415  0.07110566  0.35021002  1
  Si0+  Si119  1  0.17889037  0.42490602  0.68244651  1
  O2-  O120  1  0.24260017  -0.00256455  0.06246778  1
  O2-  O121  1  0.25594587  -0.00492932  0.39043488  1
  O2-  O122  1  0.25176085  0.00586594  0.72676165  1
  O2-  O123  1  0.25865825  0.50153258  0.06108355  1
  O2-  O124  1  0.25221602  0.50254671  0.39239170  1
  O2-  O125  1  0.24953166  0.49216912  0.72578773  1
  O2-  O126  1  0.74613883  0.00104783  0.05660073  1
  O2-  O127  1  0.74709479  -0.00547890  0.39549521  1
  O2-  O128  1  0.74651252  0.00177817  0.72596969  1
  O2-  O129  1  0.75801777  0.50140918  0.06143827  1
  O2-  O130  1  0.74871446  0.51040459  0.39139058  1
  O2-  O131  1  0.75667359  0.49636334  0.73158754  1
  O2-  O132  1  0.00164576  0.25065025  0.27619003  1
  O2-  O133  1  0.00425055  0.25336431  0.59810666  1
  O2-  O134  1  0.00382367  0.25312298  0.93849036  1
  O2-  O135  1  -0.00739914  0.75153505  0.27119627  1
  O2-  O136  1  -0.00177851  0.74081745  0.60763450  1
  O2-  O137  1  0.00032279  0.75080473  0.94234940  1
  O2-  O138  1  0.50523004  0.24751094  0.27277153  1
  O2-  O139  1  0.50606942  0.25488636  0.60079662  1
  O2-  O140  1  0.50266069  0.25253399  0.93741396  1
  O2-  O141  1  0.50177104  0.75342791  0.26748195  1
  O2-  O142  1  0.49873079  0.74280927  0.60820507  1
  O2-  O143  1  0.49802532  0.74804746  0.94080918  1
  O2-  O144  1  0.06851103  0.17615033  0.10101734  1
  O2-  O145  1  0.06848740  0.17463769  0.42300897  1
  O2-  O146  1  0.06981188  0.17786610  0.76381873  1
  O2-  O147  1  0.07127030  0.68026225  0.08801884  1
  O2-  O148  1  0.06974428  0.68077007  0.43229054  1
  O2-  O149  1  0.07438744  0.68280750  0.75770792  1
  O2-  O150  1  0.57181512  0.17767911  0.10142379  1
  O2-  O151  1  0.57268213  0.17975131  0.42313478  1
  O2-  O152  1  0.56778896  0.17436595  0.76370482  1
  O2-  O153  1  0.57483023  0.68360898  0.08752676  1
  O2-  O154  1  0.56991714  0.67991257  0.43136496  1
  O2-  O155  1  0.57200974  0.68401067  0.75882495  1
  O2-  O156  1  0.17597599  0.42742295  0.23435624  1
  O2-  O157  1  0.17851423  0.42789115  0.57664946  1
  O2-  O158  1  0.18043731  0.43453770  0.89829575  1
  O2-  O159  1  0.17897722  0.93073236  0.24235628  1
  O2-  O160  1  0.18085114  0.92777289  0.56662293  1
  O2-  O161  1  0.17592561  0.92320530  0.91416030  1
  O2-  O162  1  0.67968842  0.42882338  0.23386061  1
  O2-  O163  1  0.67746210  0.43237002  0.56991767  1
  O2-  O164  1  0.68161457  0.42902255  0.90220666  1
  O2-  O165  1  0.67946284  0.92787111  0.24502261  1
  O2-  O166  1  0.67913414  0.93009029  0.57578341  1
  O2-  O167  1  0.68029055  0.92282386  0.91014303  1
  O2-  O168  1  0.42848501  0.31980579  0.09930933  1
  O2-  O169  1  0.42759872  0.32001126  0.43125297  1
  O2-  O170  1  0.42912285  0.32133490  0.76420962  1
  O2-  O171  1  0.43064085  0.82013812  0.08890533  1
  O2-  O172  1  0.42481883  0.82051312  0.42971516  1
  O2-  O173  1  0.42985177  0.81956640  0.76906509  1
  O2-  O174  1  0.92730058  0.31898158  0.10081958  1
  O2-  O175  1  0.93073752  0.31930491  0.42402124  1
  O2-  O176  1  0.93080800  0.31895949  0.76253124  1
  O2-  O177  1  0.92881236  0.81952014  0.09148135  1
  O2-  O178  1  0.93115373  0.82566454  0.42107191  1
  O2-  O179  1  0.92864668  0.82037405  0.76682963  1
  O2-  O180  1  0.32035372  0.07220107  0.24482059  1
  O2-  O181  1  0.32289855  0.06805700  0.57643365  1
  O2-  O182  1  0.32201560  0.06440027  0.90061448  1
  O2-  O183  1  0.31547082  0.57411779  0.24173909  1
  O2-  O184  1  0.31650662  0.57431756  0.56514044  1
  O2-  O185  1  0.31891426  0.58282051  0.91426411  1
  O2-  O186  1  0.82218587  0.06963124  0.23549831  1
  O2-  O187  1  0.82364308  0.06516846  0.57917240  1
  O2-  O188  1  0.82289431  0.06426693  0.90912215  1
  O2-  O189  1  0.82438970  0.57009306  0.24191901  1
  O2-  O190  1  0.81734035  0.57631642  0.56660198  1
  O2-  O191  1  0.81672035  0.58491723  0.91354567  1
  O2-  O192  1  0.04062604  0.08654546  0.27002945  1
  O2-  O193  1  0.03833570  0.08097386  0.59784263  1
  O2-  O194  1  0.04158348  0.07823116  0.93547731  1
  O2-  O195  1  0.03675952  0.58191029  0.26311194  1
  O2-  O196  1  0.05595501  0.58289236  0.60740633  1
  O2-  O197  1  0.04556469  0.58949302  0.93309440  1
  O2-  O198  1  0.55327867  0.08551464  0.27278476  1
  O2-  O199  1  0.54097299  0.08175980  0.59314010  1
  O2-  O200  1  0.54307216  0.07759870  0.93684896  1
  O2-  O201  1  0.53898587  0.58360780  0.26028871  1
  O2-  O202  1  0.54983760  0.58382909  0.61083721  1
  O2-  O203  1  0.54802335  0.58844303  0.93579749  1
  O2-  O204  1  0.16358675  0.20318841  0.27396016  1
  O2-  O205  1  0.17137972  0.19924340  0.59680782  1
  O2-  O206  1  0.17113942  0.20096220  0.93494251  1
  O2-  O207  1  0.16170191  0.71092940  0.26003223  1
  O2-  O208  1  0.16256587  0.71284076  0.60436635  1
  O2-  O209  1  0.16392073  0.70947869  0.93678026  1
  O2-  O210  1  0.66973513  0.20700691  0.27564646  1
  O2-  O211  1  0.67444489  0.19611238  0.60204554  1
  O2-  O212  1  0.67052255  0.20076850  0.93524896  1
  O2-  O213  1  0.67027777  0.70589803  0.26203860  1
  O2-  O214  1  0.66200556  0.70981533  0.60471808  1
  O2-  O215  1  0.66313916  0.71367908  0.93576167  1
  O2-  O216  1  0.08402299  0.46493328  0.06472193  1
  O2-  O217  1  0.08097159  0.46018634  0.40107350  1
  O2-  O218  1  0.08591576  0.45154897  0.72878906  1
  O2-  O219  1  0.08070695  0.94763549  0.06497085  1
  O2-  O220  1  0.09072016  0.95900160  0.39574365  1
  O2-  O221  1  0.08168829  0.95853698  0.73436502  1
  O2-  O222  1  0.58444369  0.46366319  0.06744776  1
  O2-  O223  1  0.57824703  0.46242239  0.39755920  1
  O2-  O224  1  0.58393306  0.45783254  0.73916550  1
  O2-  O225  1  0.58569276  0.94866961  0.06269088  1
  O2-  O226  1  0.58330681  0.95265998  0.39592768  1
  O2-  O227  1  0.58472544  0.95706416  0.72749212  1
  O2-  O228  1  0.20623736  0.33257127  0.06575480  1
  O2-  O229  1  0.20673325  0.33081801  0.40229919  1
  O2-  O230  1  0.20420534  0.33004147  0.72548259  1
  O2-  O231  1  0.20550797  0.83397764  0.06650307  1
  O2-  O232  1  0.20556637  0.83454071  0.39194854  1
  O2-  O233  1  0.21011678  0.83565041  0.73850988  1
  O2-  O234  1  0.71067667  0.33078851  0.06902205  1
  O2-  O235  1  0.70995434  0.33784900  0.40414051  1
  O2-  O236  1  0.70885077  0.32639159  0.73329521  1
  O2-  O237  1  0.71178390  0.83746966  0.06586156  1
  O2-  O238  1  0.70140385  0.83226589  0.39548341  1
  O2-  O239  1  0.70631038  0.83947284  0.72967167  1
  O2-  O240  1  0.45211566  0.41769672  0.26423704  1
  O2-  O241  1  0.45715588  0.42419806  0.60036075  1
  O2-  O242  1  0.45109569  0.42554256  0.93766073  1
  O2-  O243  1  0.45680454  0.92294149  0.26388341  1
  O2-  O244  1  0.45833978  0.91319748  0.59865040  1
  O2-  O245  1  0.45832030  0.91071581  0.93657370  1
  O2-  O246  1  0.95355107  0.41191420  0.27160422  1
  O2-  O247  1  0.95461104  0.42353360  0.59784808  1
  O2-  O248  1  0.95104140  0.42328104  0.93501312  1
  O2-  O249  1  0.96148027  0.91610518  0.26860565  1
  O2-  O250  1  0.96268204  0.91307186  0.59724543  1
  O2-  O251  1  0.95406944  0.91115590  0.93793895  1
  O2-  O252  1  0.33124145  0.28366130  0.26713419  1
  O2-  O253  1  0.33382674  0.29362175  0.59596499  1
  O2-  O254  1  0.33124358  0.29236188  0.93327789  1
  O2-  O255  1  0.33081129  0.79514640  0.25955121  1
  O2-  O256  1  0.32989910  0.78848806  0.60307921  1
  O2-  O257  1  0.33516876  0.79384605  0.93942247  1
  O2-  O258  1  0.83697016  0.28792752  0.27506009  1
  O2-  O259  1  0.83319991  0.29065343  0.59645414  1
  O2-  O260  1  0.83314126  0.28783371  0.93294496  1
  O2-  O261  1  0.83347861  0.80676039  0.27051750  1
  O2-  O262  1  0.83039269  0.79431419  0.59740375  1
  O2-  O263  1  0.83646003  0.79157583  0.93939630  1
  O2-  O264  1  0.41489657  0.03418051  0.07042158  1
  O2-  O265  1  0.41722029  0.04866767  0.39465507  1
  O2-  O266  1  0.41590315  0.04102479  0.72742582  1
  O2-  O267  1  0.41934810  0.55859312  0.06208544  1
  O2-  O268  1  0.41306800  0.55079019  0.39104070  1
  O2-  O269  1  0.41701947  0.54666046  0.73544342  1
  O2-  O270  1  0.91053003  0.03619545  0.06384658  1
  O2-  O271  1  0.91780291  0.03700669  0.40392438  1
  O2-  O272  1  0.91114453  0.03360110  0.73191993  1
  O2-  O273  1  0.91836744  0.55531602  0.05913988  1
  O2-  O274  1  0.91378037  0.54534022  0.39515401  1
  O2-  O275  1  0.92461857  0.55418690  0.73063471  1
  O2-  O276  1  0.29109677  0.16535888  0.06995525  1
  O2-  O277  1  0.28980437  0.15936596  0.40029226  1
  O2-  O278  1  0.29966521  0.16633326  0.72638778  1
  O2-  O279  1  0.29084400  0.66693525  0.06837224  1
  O2-  O280  1  0.28916604  0.66709769  0.39117952  1
  O2-  O281  1  0.28503795  0.66365820  0.73735622  1
  O2-  O282  1  0.79548809  0.16035283  0.06245316  1
  O2-  O283  1  0.79204959  0.16460175  0.40725898  1
  O2-  O284  1  0.79949382  0.16154170  0.73087591  1
  O2-  O285  1  0.79157752  0.66614595  0.06912722  1
  O2-  O286  1  0.80331112  0.67125664  0.38850348  1
  O2-  O287  1  0.79077217  0.67123855  0.73432806  1
