# generated using pymatgen
data_Ca2Al2SiO7
_symmetry_space_group_name_H-M   'P 1'
_cell_length_a   15.45393331
_cell_length_b   15.45444284
_cell_length_c   15.28088748
_cell_angle_alpha   89.99312404
_cell_angle_beta   89.99152695
_cell_angle_gamma   90.00911955
_symmetry_Int_Tables_number   1
_chemical_formula_structural   Ca2Al2SiO7
_chemical_formula_sum   'Ca48 Al48 Si24 O168'
_cell_volume   3649.56372135
_cell_formula_units_Z   24
loop_
 _symmetry_equiv_pos_site_id
 _symmetry_equiv_pos_as_xyz
  1  'x, y, z'
loop_
 _atom_type_symbol
 _atom_type_oxidation_number
  Ca2+  2.0
  Al0+  0.0
  Si0+  0.0
  O2-  -2.0
loop_
 _atom_site_type_symbol
 _atom_site_label
 _atom_site_symmetry_multiplicity
 _atom_site_fract_x
 _atom_site_fract_y
 _atom_site_fract_z
 _atom_site_occupancy
  Ca2+  Ca0  1  0.17224685  0.07816836  0.16993705  1
  Ca2+  Ca1  1  0.16618071  0.07853859  0.50748841  1
  Ca2+  Ca2  1  0.18051664  0.09215317  0.83277396  1
  Ca2+  Ca3  1  0.17533415  0.58556172  0.17139274  1
  Ca2+  Ca4  1  0.17280362  0.58297906  0.50561815  1
  Ca2+  Ca5  1  0.17654177  0.57261040  0.83822119  1
  Ca2+  Ca6  1  0.66609797  0.07940620  0.16416403  1
  Ca2+  Ca7  1  0.67463147  0.08455805  0.50874638  1
  Ca2+  Ca8  1  0.67207457  0.08368746  0.84035514  1
  Ca2+  Ca9  1  0.67580515  0.58135310  0.17849202  1
  Ca2+  Ca10  1  0.66629940  0.58220946  0.49563495  1
  Ca2+  Ca11  1  0.67279611  0.58234115  0.83889210  1
  Ca2+  Ca12  1  0.07659503  0.34240844  0.16434870  1
  Ca2+  Ca13  1  0.08388858  0.32934610  0.49908494  1
  Ca2+  Ca14  1  0.08800852  0.33183422  0.82702129  1
  Ca2+  Ca15  1  0.08388258  0.82974062  0.17180939  1
  Ca2+  Ca16  1  0.07407065  0.83299662  0.48989734  1
  Ca2+  Ca17  1  0.07503281  0.83211325  0.82518023  1
  Ca2+  Ca18  1  0.58514709  0.32973357  0.16153927  1
  Ca2+  Ca19  1  0.58169745  0.33219042  0.49836653  1
  Ca2+  Ca20  1  0.57622273  0.32068668  0.82540206  1
  Ca2+  Ca21  1  0.58768651  0.82781320  0.16374987  1
  Ca2+  Ca22  1  0.57346867  0.82697804  0.49676516  1
  Ca2+  Ca23  1  0.57962389  0.83466834  0.82852651  1
  Ca2+  Ca24  1  0.32841557  0.42474942  0.17035940  1
  Ca2+  Ca25  1  0.33198384  0.42779895  0.51063209  1
  Ca2+  Ca26  1  0.32618352  0.41646391  0.83465988  1
  Ca2+  Ca27  1  0.32925352  0.92304267  0.17045684  1
  Ca2+  Ca28  1  0.32552255  0.91642445  0.50654190  1
  Ca2+  Ca29  1  0.34282575  0.92777224  0.83380504  1
  Ca2+  Ca30  1  0.83008234  0.42548040  0.17671578  1
  Ca2+  Ca31  1  0.83270450  0.41676384  0.49660116  1
  Ca2+  Ca32  1  0.83241026  0.42331149  0.83980870  1
  Ca2+  Ca33  1  0.83318110  0.92042132  0.16800905  1
  Ca2+  Ca34  1  0.83668884  0.91670478  0.50685314  1
  Ca2+  Ca35  1  0.82936691  0.92637485  0.83759395  1
  Ca2+  Ca36  1  0.42183386  0.16693666  0.15622276  1
  Ca2+  Ca37  1  0.41541728  0.17160611  0.50356725  1
  Ca2+  Ca38  1  0.42460631  0.16402843  0.82232550  1
  Ca2+  Ca39  1  0.41959176  0.65898715  0.16551133  1
  Ca2+  Ca40  1  0.41367576  0.66645589  0.49381362  1
  Ca2+  Ca41  1  0.41166511  0.67036719  0.82691909  1
  Ca2+  Ca42  1  0.91383221  0.17321924  0.16340320  1
  Ca2+  Ca43  1  0.92181996  0.16854543  0.49743053  1
  Ca2+  Ca44  1  0.92212720  0.16107224  0.82491618  1
  Ca2+  Ca45  1  0.91634397  0.66452783  0.16545509  1
  Ca2+  Ca46  1  0.92193966  0.67647154  0.48756756  1
  Ca2+  Ca47  1  0.91520457  0.67242656  0.82737350  1
  Al0+  Al48  1  -0.00076515  0.00062325  0.00250411  1
  Al0+  Al49  1  0.00118525  0.00022433  0.33104981  1
  Al0+  Al50  1  -0.00148033  0.00054291  0.66291837  1
  Al0+  Al51  1  0.00020407  0.50097838  0.00363871  1
  Al0+  Al52  1  0.00068386  0.49982429  0.33009902  1
  Al0+  Al53  1  -0.00030150  0.50000010  0.67035624  1
  Al0+  Al54  1  0.50078860  -0.00076426  0.00513629  1
  Al0+  Al55  1  0.50152875  0.00128039  0.33407240  1
  Al0+  Al56  1  0.50048135  -0.00372759  0.65832039  1
  Al0+  Al57  1  0.49933938  0.49948332  -0.00115773  1
  Al0+  Al58  1  0.49963774  0.49923913  0.33604746  1
  Al0+  Al59  1  0.50186181  0.49924232  0.66945263  1
  Al0+  Al60  1  0.24805368  0.25044257  0.01026039  1
  Al0+  Al61  1  0.25255387  0.25022767  0.33100042  1
  Al0+  Al62  1  0.24983437  0.24890918  0.66370962  1
  Al0+  Al63  1  0.24965382  0.74921286  0.00017620  1
  Al0+  Al64  1  0.24823285  0.75396752  0.33696857  1
  Al0+  Al65  1  0.24905540  0.74942867  0.66766859  1
  Al0+  Al66  1  0.75066232  0.24987870  -0.00297597  1
  Al0+  Al67  1  0.75052983  0.24947044  0.33236535  1
  Al0+  Al68  1  0.75099097  0.25012770  0.66834770  1
  Al0+  Al69  1  0.74972510  0.75080319  0.00431462  1
  Al0+  Al70  1  0.74837336  0.75177325  0.33029900  1
  Al0+  Al71  1  0.74934903  0.75028742  0.66268538  1
  Al0+  Al72  1  0.42778277  0.81915621  0.65325991  1
  Al0+  Al73  1  0.07232539  0.67906138  0.31798970  1
  Al0+  Al74  1  0.31917388  0.57025862  0.34758209  1
  Al0+  Al75  1  0.17892928  0.42853334  0.01779165  1
  Al0+  Al76  1  0.81952593  0.57115933  0.01296071  1
  Al0+  Al77  1  0.17983068  0.93261911  0.34768569  1
  Al0+  Al78  1  0.92744391  0.82266151  0.31483612  1
  Al0+  Al79  1  0.42890750  0.32096674  0.65176278  1
  Al0+  Al80  1  0.67875095  0.92981051  0.01515085  1
  Al0+  Al81  1  0.92908268  0.82030142  0.65422936  1
  Al0+  Al82  1  0.17818906  0.42825702  0.68039089  1
  Al0+  Al83  1  0.57302322  0.17738674  0.65022428  1
  Al0+  Al84  1  0.82253867  0.57277366  0.35007567  1
  Al0+  Al85  1  0.32097189  0.06809124  0.67750561  1
  Al0+  Al86  1  0.67926082  0.42724953  0.34886916  1
  Al0+  Al87  1  0.82097750  0.07109211  0.67880289  1
  Al0+  Al88  1  0.56737688  0.67903913  0.31947505  1
  Al0+  Al89  1  0.82287902  0.07284408  0.01625699  1
  Al0+  Al90  1  0.32208110  0.57265708  0.01619200  1
  Al0+  Al91  1  0.07082216  0.18027363  0.65439215  1
  Al0+  Al92  1  0.92986901  0.31919361  0.31976416  1
  Al0+  Al93  1  0.56994738  0.17840077  0.98591864  1
  Al0+  Al94  1  0.32129091  0.07012234  0.01256306  1
  Al0+  Al95  1  0.32331024  0.57285751  0.68284819  1
  Si0+  Si96  1  0.81968978  0.57202412  0.68031801  1
  Si0+  Si97  1  0.57174152  0.17868990  0.31692872  1
  Si0+  Si98  1  0.42849190  0.82001641  0.98671227  1
  Si0+  Si99  1  0.93021530  0.32214349  0.98424709  1
  Si0+  Si100  1  0.81989684  0.07017937  0.34818243  1
  Si0+  Si101  1  0.32474394  0.07378062  0.35153495  1
  Si0+  Si102  1  0.57228155  0.67838625  0.98548328  1
  Si0+  Si103  1  0.57323743  0.67642531  0.65062511  1
  Si0+  Si104  1  0.17603171  0.92801800  0.68353924  1
  Si0+  Si105  1  0.67925539  0.42771592  0.68380251  1
  Si0+  Si106  1  0.42757737  0.82416773  0.31541237  1
  Si0+  Si107  1  0.67748882  0.92875468  0.35070724  1
  Si0+  Si108  1  0.07096366  0.17816686  0.98594578  1
  Si0+  Si109  1  0.67848152  0.92666572  0.68088948  1
  Si0+  Si110  1  0.17616740  0.92670120  0.01482948  1
  Si0+  Si111  1  0.17734309  0.42584134  0.35097951  1
  Si0+  Si112  1  0.67811308  0.42779368  0.01399874  1
  Si0+  Si113  1  0.07398736  0.17803878  0.31463499  1
  Si0+  Si114  1  0.07131661  0.67870180  0.98311678  1
  Si0+  Si115  1  0.42589171  0.32170882  0.98404258  1
  Si0+  Si116  1  0.42951087  0.32101500  0.31695622  1
  Si0+  Si117  1  0.07049644  0.67672378  0.65191800  1
  Si0+  Si118  1  0.92820005  0.82108842  0.98407727  1
  Si0+  Si119  1  0.92702390  0.32513043  0.65133449  1
  O2-  O120  1  0.24568599  -0.00432258  0.05762368  1
  O2-  O121  1  0.25410908  0.00719872  0.39468198  1
  O2-  O122  1  0.24749757  -0.00641053  0.72810782  1
  O2-  O123  1  0.25117389  0.50049260  0.06671858  1
  O2-  O124  1  0.24327397  0.49706072  0.39462973  1
  O2-  O125  1  0.25200360  0.49876264  0.73035684  1
  O2-  O126  1  0.75064000  0.00147650  0.06647619  1
  O2-  O127  1  0.75170281  -0.00298858  0.39144794  1
  O2-  O128  1  0.74398764  -0.00164532  0.72479263  1
  O2-  O129  1  0.74398011  0.49784463  0.05926933  1
  O2-  O130  1  0.75095750  0.49974259  0.39972730  1
  O2-  O131  1  0.75038432  0.49998466  0.72411100  1
  O2-  O132  1  0.00779231  0.24892068  0.27026560  1
  O2-  O133  1  -0.00360068  0.25614065  0.60907585  1
  O2-  O134  1  -0.00000194  0.24936918  0.94299465  1
  O2-  O135  1  -0.00406682  0.74634406  0.26584723  1
  O2-  O136  1  0.00357588  0.74643224  0.60736697  1
  O2-  O137  1  -0.00005825  0.75048983  0.94156844  1
  O2-  O138  1  0.49945846  0.24848371  0.27489903  1
  O2-  O139  1  0.50172695  0.25001193  0.59984609  1
  O2-  O140  1  0.49333578  0.25156326  0.94002847  1
  O2-  O141  1  0.49323128  0.75333105  0.26998369  1
  O2-  O142  1  0.49824665  0.73947531  0.60852153  1
  O2-  O143  1  0.49835631  0.74706761  0.94445782  1
  O2-  O144  1  0.06982725  0.17712378  0.09104179  1
  O2-  O145  1  0.07285222  0.17729378  0.42024550  1
  O2-  O146  1  0.07016664  0.17991041  0.76797244  1
  O2-  O147  1  0.07247716  0.67985298  0.08777899  1
  O2-  O148  1  0.07234310  0.68274342  0.43181881  1
  O2-  O149  1  0.06707509  0.67734614  0.75809533  1
  O2-  O150  1  0.56858503  0.18099896  0.09964951  1
  O2-  O151  1  0.57237288  0.17763901  0.42160212  1
  O2-  O152  1  0.57263244  0.17827627  0.76408389  1
  O2-  O153  1  0.57301562  0.67854680  0.09031119  1
  O2-  O154  1  0.56538743  0.68126388  0.43267798  1
  O2-  O155  1  0.57892224  0.67984521  0.75657691  1
  O2-  O156  1  0.18126420  0.42389635  0.24544085  1
  O2-  O157  1  0.17577785  0.43138477  0.56692859  1
  O2-  O158  1  0.17922020  0.42777177  0.90430756  1
  O2-  O159  1  0.18247043  0.93481532  0.23397912  1
  O2-  O160  1  0.17592725  0.93023900  0.57800626  1
  O2-  O161  1  0.17417704  0.92608493  0.90935678  1
  O2-  O162  1  0.68048886  0.42625687  0.23484828  1
  O2-  O163  1  0.67923145  0.42685514  0.57904749  1
  O2-  O164  1  0.68040830  0.42956407  0.90802496  1
  O2-  O165  1  0.67384916  0.93201241  0.24591031  1
  O2-  O166  1  0.68134841  0.92441575  0.57518106  1
  O2-  O167  1  0.67958980  0.92865170  0.90127241  1
  O2-  O168  1  0.42911781  0.32191641  0.09005231  1
  O2-  O169  1  0.42795093  0.31969641  0.42156599  1
  O2-  O170  1  0.43080398  0.31883454  0.76570575  1
  O2-  O171  1  0.42801359  0.82039489  0.09173375  1
  O2-  O172  1  0.43043639  0.82552902  0.42097235  1
  O2-  O173  1  0.43224597  0.82179624  0.76697930  1
  O2-  O174  1  0.93000045  0.32164681  0.08929500  1
  O2-  O175  1  0.92883328  0.31427171  0.43288248  1
  O2-  O176  1  0.92602716  0.32686820  0.75720219  1
  O2-  O177  1  0.92866645  0.82110740  0.08863824  1
  O2-  O178  1  0.93002028  0.82451687  0.42862607  1
  O2-  O179  1  0.92834410  0.81827085  0.76813825  1
  O2-  O180  1  0.32564118  0.07258248  0.24542611  1
  O2-  O181  1  0.31816510  0.06643858  0.56469511  1
  O2-  O182  1  0.32247362  0.06982699  0.89943311  1
  O2-  O183  1  0.32036694  0.56699422  0.23451677  1
  O2-  O184  1  0.32074804  0.57328830  0.56919057  1
  O2-  O185  1  0.32013376  0.57484964  0.90310847  1
  O2-  O186  1  0.81716609  0.07134768  0.24320173  1
  O2-  O187  1  0.82122234  0.06958634  0.56531011  1
  O2-  O188  1  0.82505993  0.07011330  0.90271646  1
  O2-  O189  1  0.81932152  0.57034635  0.23627057  1
  O2-  O190  1  0.81955581  0.57271017  0.57591467  1
  O2-  O191  1  0.81833735  0.57092571  0.89884567  1
  O2-  O192  1  0.04538310  0.08621501  0.26718622  1
  O2-  O193  1  0.03750523  0.08557816  0.59782064  1
  O2-  O194  1  0.04414335  0.08612778  0.93811816  1
  O2-  O195  1  0.05123559  0.57878230  0.26575711  1
  O2-  O196  1  0.04353885  0.58369248  0.60602218  1
  O2-  O197  1  0.04115302  0.58717718  0.93623243  1
  O2-  O198  1  0.54389014  0.08645847  0.26938300  1
  O2-  O199  1  0.54716667  0.07914521  0.59641488  1
  O2-  O200  1  0.54043663  0.08008237  0.93495993  1
  O2-  O201  1  0.53846948  0.58144915  0.26583508  1
  O2-  O202  1  0.55509369  0.58063340  0.60751272  1
  O2-  O203  1  0.54866728  0.58534196  0.93739733  1
  O2-  O204  1  0.16948620  0.20011821  0.26985146  1
  O2-  O205  1  0.16574755  0.20799950  0.59641102  1
  O2-  O206  1  0.16409698  0.20710683  0.94133828  1
  O2-  O207  1  0.16866290  0.71608741  0.26424857  1
  O2-  O208  1  0.16490662  0.69985993  0.60771924  1
  O2-  O209  1  0.16281898  0.70707486  0.93477776  1
  O2-  O210  1  0.66270372  0.20716032  0.26861165  1
  O2-  O211  1  0.67186978  0.20837515  0.59892657  1
  O2-  O212  1  0.66702053  0.20913739  0.93187634  1
  O2-  O213  1  0.66344793  0.71103681  0.26520289  1
  O2-  O214  1  0.66311287  0.70817445  0.60040508  1
  O2-  O215  1  0.66313956  0.70927364  0.93678190  1
  O2-  O216  1  0.08106563  0.45940101  0.06956542  1
  O2-  O217  1  0.08177950  0.44593366  0.39367250  1
  O2-  O218  1  0.07978692  0.45627250  0.73616970  1
  O2-  O219  1  0.08422519  0.95355851  0.06306542  1
  O2-  O220  1  0.08289078  0.96389312  0.40135218  1
  O2-  O221  1  0.08326281  0.95638446  0.72932342  1
  O2-  O222  1  0.58323882  0.44938899  0.05833623  1
  O2-  O223  1  0.58162327  0.45621206  0.40239594  1
  O2-  O224  1  0.58873558  0.45491417  0.73373998  1
  O2-  O225  1  0.58210904  0.95727775  0.07213820  1
  O2-  O226  1  0.58676657  0.95988574  0.39918722  1
  O2-  O227  1  0.58342262  0.94873139  0.72443034  1
  O2-  O228  1  0.20318855  0.33110876  0.07481229  1
  O2-  O229  1  0.20572623  0.33176497  0.39526859  1
  O2-  O230  1  0.20604076  0.32922384  0.73226743  1
  O2-  O231  1  0.20319516  0.83416279  0.06163964  1
  O2-  O232  1  0.20932818  0.83762208  0.40456104  1
  O2-  O233  1  0.19728149  0.83311007  0.72831142  1
  O2-  O234  1  0.70510005  0.33485352  0.05959380  1
  O2-  O235  1  0.70969237  0.32902362  0.40193172  1
  O2-  O236  1  0.70865574  0.33726483  0.73297980  1
  O2-  O237  1  0.70759272  0.83233833  0.06929295  1
  O2-  O238  1  0.70156468  0.83621523  0.39717784  1
  O2-  O239  1  0.70648669  0.83406461  0.72884311  1
  O2-  O240  1  0.45906993  0.41171276  0.26901269  1
  O2-  O241  1  0.45891248  0.42022563  0.60078714  1
  O2-  O242  1  0.45203253  0.41494485  0.93674486  1
  O2-  O243  1  0.45731549  0.91747109  0.26953141  1
  O2-  O244  1  0.46123860  0.91128912  0.59268923  1
  O2-  O245  1  0.45984546  0.91106647  0.93977921  1
  O2-  O246  1  0.95620348  0.41648238  0.26474208  1
  O2-  O247  1  0.95222003  0.41855501  0.60454161  1
  O2-  O248  1  0.95910504  0.41404066  0.93664836  1
  O2-  O249  1  0.96129958  0.92001494  0.26165906  1
  O2-  O250  1  0.95909903  0.91570068  0.59859587  1
  O2-  O251  1  0.95647541  0.91371680  0.93768160  1
  O2-  O252  1  0.33797399  0.29391342  0.26721795  1
  O2-  O253  1  0.33199705  0.29193827  0.59686706  1
  O2-  O254  1  0.33012514  0.29657992  0.94325728  1
  O2-  O255  1  0.33244203  0.80317924  0.27212552  1
  O2-  O256  1  0.32907081  0.79360471  0.60020098  1
  O2-  O257  1  0.33629001  0.79525668  0.93798497  1
  O2-  O258  1  0.83467560  0.28454176  0.26403954  1
  O2-  O259  1  0.83423079  0.29854950  0.60512085  1
  O2-  O260  1  0.83777236  0.29762459  0.93617719  1
  O2-  O261  1  0.82690531  0.80059587  0.26417123  1
  O2-  O262  1  0.83300986  0.79013261  0.59911686  1
  O2-  O263  1  0.83632911  0.79167222  0.93722721  1
  O2-  O264  1  0.41513676  0.03774273  0.07019571  1
  O2-  O265  1  0.41835056  0.04758420  0.39670478  1
  O2-  O266  1  0.41881184  0.03537925  0.72893681  1
  O2-  O267  1  0.42221239  0.54509765  0.06645809  1
  O2-  O268  1  0.41480904  0.53775344  0.40152111  1
  O2-  O269  1  0.42364105  0.54848272  0.73432511  1
  O2-  O270  1  0.92051184  0.04387620  0.07063978  1
  O2-  O271  1  0.91373958  0.04572151  0.39246418  1
  O2-  O272  1  0.91651482  0.03732005  0.73339419  1
  O2-  O273  1  0.91530162  0.54066208  0.06644004  1
  O2-  O274  1  0.92218774  0.54460878  0.40014945  1
  O2-  O275  1  0.91115215  0.54614370  0.72975612  1
  O2-  O276  1  0.29111352  0.16448914  0.07081296  1
  O2-  O277  1  0.30081203  0.16877053  0.39480231  1
  O2-  O278  1  0.29000060  0.16430716  0.73136341  1
  O2-  O279  1  0.29309770  0.67125967  0.06878819  1
  O2-  O280  1  0.29243574  0.66911725  0.39846698  1
  O2-  O281  1  0.29291314  0.67108384  0.73619927  1
  O2-  O282  1  0.79460306  0.17231227  0.06680723  1
  O2-  O283  1  0.78888969  0.16025019  0.39634298  1
  O2-  O284  1  0.79512832  0.16865982  0.73370489  1
  O2-  O285  1  0.79045012  0.66687056  0.06739956  1
  O2-  O286  1  0.79167903  0.67221364  0.39965262  1
  O2-  O287  1  0.78901228  0.66316830  0.72857859  1
