# generated using pymatgen
data_Ca2Al2SiO7
_symmetry_space_group_name_H-M   'P 1'
_cell_length_a   15.45911322
_cell_length_b   15.45786267
_cell_length_c   15.28337144
_cell_angle_alpha   89.99900012
_cell_angle_beta   90.01103313
_cell_angle_gamma   90.01582462
_symmetry_Int_Tables_number   1
_chemical_formula_structural   Ca2Al2SiO7
_chemical_formula_sum   'Ca48 Al48 Si24 O168'
_cell_volume   3652.18834273
_cell_formula_units_Z   24
loop_
 _symmetry_equiv_pos_site_id
 _symmetry_equiv_pos_as_xyz
  1  'x, y, z'
loop_
 _atom_type_symbol
 _atom_type_oxidation_number
  Ca2+  2.0
  Al0+  0.0
  Si0+  0.0
  O2-  -2.0
loop_
 _atom_site_type_symbol
 _atom_site_label
 _atom_site_symmetry_multiplicity
 _atom_site_fract_x
 _atom_site_fract_y
 _atom_site_fract_z
 _atom_site_occupancy
  Ca2+  Ca0  1  0.16205319  0.07310125  0.17425570  1
  Ca2+  Ca1  1  0.15621741  0.07636420  0.50400250  1
  Ca2+  Ca2  1  0.15560469  0.07372740  0.83447981  1
  Ca2+  Ca3  1  0.16770147  0.57125100  0.17714802  1
  Ca2+  Ca4  1  0.17157958  0.57505459  0.50101652  1
  Ca2+  Ca5  1  0.17144410  0.56968366  0.83481135  1
  Ca2+  Ca6  1  0.67630728  0.08671407  0.17723033  1
  Ca2+  Ca7  1  0.66485022  0.07870161  0.50185316  1
  Ca2+  Ca8  1  0.66755667  0.08266399  0.83499851  1
  Ca2+  Ca9  1  0.67437539  0.58126581  0.16816039  1
  Ca2+  Ca10  1  0.67245675  0.58532849  0.50862786  1
  Ca2+  Ca11  1  0.67696690  0.58916076  0.83426813  1
  Ca2+  Ca12  1  0.07755742  0.33479504  0.16351423  1
  Ca2+  Ca13  1  0.08384445  0.32768324  0.49203500  1
  Ca2+  Ca14  1  0.08171659  0.33381592  0.82810294  1
  Ca2+  Ca15  1  0.09392654  0.82721409  0.16591120  1
  Ca2+  Ca16  1  0.09039577  0.82781667  0.49107257  1
  Ca2+  Ca17  1  0.08321342  0.83598536  0.82808702  1
  Ca2+  Ca18  1  0.57681738  0.32924532  0.16267436  1
  Ca2+  Ca19  1  0.58537244  0.32114038  0.49407948  1
  Ca2+  Ca20  1  0.57606775  0.32940431  0.82770009  1
  Ca2+  Ca21  1  0.57857850  0.83883920  0.16959611  1
  Ca2+  Ca22  1  0.58064529  0.83296333  0.49374196  1
  Ca2+  Ca23  1  0.58344363  0.82940622  0.82200863  1
  Ca2+  Ca24  1  0.32434857  0.41685388  0.17389668  1
  Ca2+  Ca25  1  0.32361414  0.42425795  0.50585004  1
  Ca2+  Ca26  1  0.32486436  0.41233000  0.83753293  1
  Ca2+  Ca27  1  0.32648745  0.91485704  0.17431374  1
  Ca2+  Ca28  1  0.32469522  0.91326268  0.49963036  1
  Ca2+  Ca29  1  0.32132940  0.91825178  0.83486701  1
  Ca2+  Ca30  1  0.84352020  0.41702929  0.16888161  1
  Ca2+  Ca31  1  0.83785825  0.42054861  0.50181953  1
  Ca2+  Ca32  1  0.83839664  0.42754646  0.83910215  1
  Ca2+  Ca33  1  0.82832141  0.93292873  0.17504550  1
  Ca2+  Ca34  1  0.82379045  0.92268107  0.50163815  1
  Ca2+  Ca35  1  0.82620887  0.92486091  0.83826937  1
  Ca2+  Ca36  1  0.42358595  0.16803871  0.16375608  1
  Ca2+  Ca37  1  0.42854171  0.16003809  0.49633758  1
  Ca2+  Ca38  1  0.41871102  0.17259163  0.82841963  1
  Ca2+  Ca39  1  0.40947131  0.67093071  0.16839805  1
  Ca2+  Ca40  1  0.41190621  0.66910547  0.49376491  1
  Ca2+  Ca41  1  0.42241248  0.66609629  0.82360275  1
  Ca2+  Ca42  1  0.91552041  0.17373563  0.16558644  1
  Ca2+  Ca43  1  0.92606662  0.17110178  0.48985874  1
  Ca2+  Ca44  1  0.91882869  0.17138555  0.83041853  1
  Ca2+  Ca45  1  0.92439313  0.66540958  0.16400641  1
  Ca2+  Ca46  1  0.92249607  0.66801527  0.49420202  1
  Ca2+  Ca47  1  0.91384004  0.66564978  0.82788832  1
  Al0+  Al48  1  -0.00233981  -0.00267958  0.00858913  1
  Al0+  Al49  1  -0.00234217  0.00022363  0.33807462  1
  Al0+  Al50  1  -0.00323545  0.00113699  0.66708657  1
  Al0+  Al51  1  0.00182514  0.49999367  0.00244169  1
  Al0+  Al52  1  0.00133987  0.50115755  0.33054133  1
  Al0+  Al53  1  0.00040311  0.50245967  0.67361949  1
  Al0+  Al54  1  0.49826815  -0.00237756  -0.00330387  1
  Al0+  Al55  1  0.49954019  -0.00190703  0.32617313  1
  Al0+  Al56  1  0.49808187  -0.00060261  0.66800251  1
  Al0+  Al57  1  0.50117246  0.50045447  -0.00559254  1
  Al0+  Al58  1  0.50237362  0.50116680  0.33600449  1
  Al0+  Al59  1  0.50147350  0.50103701  0.66442951  1
  Al0+  Al60  1  0.25089579  0.24708536  -0.00042470  1
  Al0+  Al61  1  0.25062766  0.24796838  0.33391532  1
  Al0+  Al62  1  0.24888788  0.24878235  0.66507920  1
  Al0+  Al63  1  0.25087700  0.74874224  -0.00110705  1
  Al0+  Al64  1  0.25156068  0.74987539  0.33090083  1
  Al0+  Al65  1  0.24934197  0.74997085  0.67538370  1
  Al0+  Al66  1  0.75109848  0.25129462  -0.00296634  1
  Al0+  Al67  1  0.75137029  0.25158375  0.32986330  1
  Al0+  Al68  1  0.74962216  0.25150785  0.66268953  1
  Al0+  Al69  1  0.75127165  0.75002664  0.00582652  1
  Al0+  Al70  1  0.74948650  0.75032336  0.33384666  1
  Al0+  Al71  1  0.74880871  0.75166191  0.66958428  1
  Al0+  Al72  1  0.06957349  0.17840021  0.65394321  1
  Al0+  Al73  1  0.67715560  0.92978139  0.34800980  1
  Al0+  Al74  1  0.32218345  0.57075001  0.34703798  1
  Al0+  Al75  1  0.07339770  0.17568425  0.31723089  1
  Al0+  Al76  1  0.17973204  0.92854266  0.01506967  1
  Al0+  Al77  1  0.07091596  0.68157089  0.32047080  1
  Al0+  Al78  1  0.93130177  0.32163859  0.31836465  1
  Al0+  Al79  1  0.42793648  0.32051964  0.98670278  1
  Al0+  Al80  1  0.18081181  0.42710099  0.01490587  1
  Al0+  Al81  1  0.43034370  0.81843657  0.31945343  1
  Al0+  Al82  1  0.57023007  0.17911866  0.31875662  1
  Al0+  Al83  1  0.82142455  0.57097688  0.01595033  1
  Al0+  Al84  1  0.17763440  0.42660105  0.34868172  1
  Al0+  Al85  1  0.81856547  0.07269627  0.01338094  1
  Al0+  Al86  1  0.81966063  0.57072348  0.67897248  1
  Al0+  Al87  1  0.17968703  0.42696989  0.68254275  1
  Al0+  Al88  1  0.32303815  0.57114673  0.68281710  1
  Al0+  Al89  1  0.17950099  0.93026996  0.34649633  1
  Al0+  Al90  1  0.17696408  0.93024124  0.67993450  1
  Al0+  Al91  1  0.67775831  0.93106173  0.68031152  1
  Al0+  Al92  1  0.57197760  0.67983124  0.65271678  1
  Al0+  Al93  1  0.82042511  0.07490334  0.35120730  1
  Al0+  Al94  1  0.57020059  0.17891577  0.65289595  1
  Al0+  Al95  1  0.93066518  0.32168093  0.98352511  1
  Si0+  Si96  1  0.82052364  0.07391156  0.68372465  1
  Si0+  Si97  1  0.07067336  0.17452674  0.98454226  1
  Si0+  Si98  1  0.07156350  0.67932921  0.98298508  1
  Si0+  Si99  1  0.42910190  0.32433970  0.31874241  1
  Si0+  Si100  1  0.07075510  0.68066573  0.65392689  1
  Si0+  Si101  1  0.32465958  0.57069512  0.01598172  1
  Si0+  Si102  1  0.42787494  0.82006683  0.98182691  1
  Si0+  Si103  1  0.92785376  0.82164773  0.65288726  1
  Si0+  Si104  1  0.57522137  0.67587133  0.31464562  1
  Si0+  Si105  1  0.67808453  0.42557747  0.68268152  1
  Si0+  Si106  1  0.67614113  0.92785619  0.01678501  1
  Si0+  Si107  1  0.57319492  0.68074197  0.98479712  1
  Si0+  Si108  1  0.82131786  0.57123147  0.34756013  1
  Si0+  Si109  1  0.42614592  0.82040791  0.65043454  1
  Si0+  Si110  1  0.32248413  0.07155147  0.68306324  1
  Si0+  Si111  1  0.92958071  0.32534886  0.65127393  1
  Si0+  Si112  1  0.92504667  0.82170685  0.31651552  1
  Si0+  Si113  1  0.42687771  0.32271382  0.64820567  1
  Si0+  Si114  1  0.32408485  0.07046906  0.01692106  1
  Si0+  Si115  1  0.67709243  0.42905556  0.01530954  1
  Si0+  Si116  1  0.92882598  0.82019169  0.98567963  1
  Si0+  Si117  1  0.57223616  0.17754384  0.98279507  1
  Si0+  Si118  1  0.67867400  0.42963250  0.34758985  1
  Si0+  Si119  1  0.32356377  0.07194630  0.34872519  1
  O2-  O120  1  0.25401930  0.00342114  0.06085171  1
  O2-  O121  1  0.24914736  0.00954901  0.39334593  1
  O2-  O122  1  0.24902521  0.00729900  0.72711426  1
  O2-  O123  1  0.25816453  0.50028636  0.05970442  1
  O2-  O124  1  0.25263508  0.49671541  0.39651720  1
  O2-  O125  1  0.25547588  0.49530170  0.73307878  1
  O2-  O126  1  0.73919728  0.00203580  0.05894231  1
  O2-  O127  1  0.74767107  0.00219490  0.39919577  1
  O2-  O128  1  0.74888683  0.00822678  0.72828379  1
  O2-  O129  1  0.74872159  0.49382180  0.06153751  1
  O2-  O130  1  0.74975801  0.50106024  0.38934370  1
  O2-  O131  1  0.74575585  0.49554895  0.72675758  1
  O2-  O132  1  0.00355007  0.24998985  0.26760028  1
  O2-  O133  1  -0.00190662  0.25652154  0.60821163  1
  O2-  O134  1  0.00565504  0.24615011  0.93848098  1
  O2-  O135  1  -0.00228124  0.75740888  0.27168636  1
  O2-  O136  1  0.00159946  0.75330571  0.61096373  1
  O2-  O137  1  -0.00010666  0.75031749  0.94072217  1
  O2-  O138  1  0.49498544  0.25359486  0.27289559  1
  O2-  O139  1  0.49653577  0.25419851  0.60495164  1
  O2-  O140  1  0.50267993  0.24559914  0.93917724  1
  O2-  O141  1  0.50541162  0.74382975  0.27126242  1
  O2-  O142  1  0.49375166  0.75065202  0.60654401  1
  O2-  O143  1  0.50175521  0.75118544  0.94159484  1
  O2-  O144  1  0.06905415  0.17345171  0.08954547  1
  O2-  O145  1  0.07035705  0.17649173  0.43107306  1
  O2-  O146  1  0.06473300  0.17529209  0.76743539  1
  O2-  O147  1  0.07205605  0.68091932  0.08796152  1
  O2-  O148  1  0.06837281  0.68185256  0.43413044  1
  O2-  O149  1  0.06822241  0.68129748  0.75945185  1
  O2-  O150  1  0.57125675  0.17758094  0.08820585  1
  O2-  O151  1  0.56863839  0.17946725  0.43200028  1
  O2-  O152  1  0.56842987  0.18065959  0.76640919  1
  O2-  O153  1  0.57358275  0.68068675  0.08966357  1
  O2-  O154  1  0.57831042  0.67594222  0.41991337  1
  O2-  O155  1  0.57368968  0.68455138  0.76653819  1
  O2-  O156  1  0.17795155  0.42920292  0.23477779  1
  O2-  O157  1  0.17754020  0.42939745  0.56956452  1
  O2-  O158  1  0.18078028  0.42919647  0.90177546  1
  O2-  O159  1  0.18413876  0.92835519  0.23330932  1
  O2-  O160  1  0.17864734  0.92785037  0.56742059  1
  O2-  O161  1  0.17940696  0.92946920  0.90157783  1
  O2-  O162  1  0.67563532  0.43185641  0.24240305  1
  O2-  O163  1  0.68069286  0.42417446  0.57696835  1
  O2-  O164  1  0.67586036  0.43218604  0.90971498  1
  O2-  O165  1  0.67955242  0.93099393  0.23392372  1
  O2-  O166  1  0.67926206  0.93021670  0.56800230  1
  O2-  O167  1  0.67752375  0.92566851  0.91082601  1
  O2-  O168  1  0.43134466  0.32003987  0.09973209  1
  O2-  O169  1  0.43368226  0.32537561  0.42414426  1
  O2-  O170  1  0.42822883  0.32052842  0.75435092  1
  O2-  O171  1  0.42677142  0.82020833  0.08656575  1
  O2-  O172  1  0.42945251  0.81760849  0.43244268  1
  O2-  O173  1  0.42748244  0.82046630  0.75665055  1
  O2-  O174  1  0.93132670  0.32177721  0.09582547  1
  O2-  O175  1  0.93085771  0.32391966  0.43226004  1
  O2-  O176  1  0.92917052  0.32489942  0.75716459  1
  O2-  O177  1  0.92827567  0.81810077  0.09025835  1
  O2-  O178  1  0.92201638  0.81656037  0.42244272  1
  O2-  O179  1  0.92842123  0.82114473  0.75866220  1
  O2-  O180  1  0.32597908  0.06887927  0.24289982  1
  O2-  O181  1  0.32683401  0.06820774  0.57793547  1
  O2-  O182  1  0.32757390  0.06793739  0.91124643  1
  O2-  O183  1  0.32130854  0.56874583  0.23286126  1
  O2-  O184  1  0.31872561  0.57295203  0.56972384  1
  O2-  O185  1  0.32375763  0.57189393  0.91044785  1
  O2-  O186  1  0.81783438  0.07453013  0.23716936  1
  O2-  O187  1  0.82158312  0.07198465  0.57887677  1
  O2-  O188  1  0.81829538  0.06922315  0.89976879  1
  O2-  O189  1  0.82004285  0.57161485  0.24236112  1
  O2-  O190  1  0.82090672  0.57043333  0.56575803  1
  O2-  O191  1  0.81836609  0.57377603  0.90281384  1
  O2-  O192  1  0.04233649  0.07651375  0.26655924  1
  O2-  O193  1  0.03538178  0.08274445  0.59946804  1
  O2-  O194  1  0.03923586  0.08105176  0.93976018  1
  O2-  O195  1  0.03722275  0.58729509  0.26410832  1
  O2-  O196  1  0.04019370  0.58944384  0.60736935  1
  O2-  O197  1  0.04239553  0.58801818  0.93611282  1
  O2-  O198  1  0.53961411  0.08413865  0.26201283  1
  O2-  O199  1  0.53695564  0.08219607  0.60034792  1
  O2-  O200  1  0.54642257  0.08292454  0.93743046  1
  O2-  O201  1  0.55115986  0.58174896  0.26845054  1
  O2-  O202  1  0.55062139  0.58044625  0.59983493  1
  O2-  O203  1  0.54790579  0.58906185  0.93589969  1
  O2-  O204  1  0.17507927  0.19649455  0.26688377  1
  O2-  O205  1  0.16858602  0.20111847  0.60124637  1
  O2-  O206  1  0.16672909  0.19353099  0.94053094  1
  O2-  O207  1  0.16624047  0.71163597  0.26407586  1
  O2-  O208  1  0.16324389  0.70870099  0.60900325  1
  O2-  O209  1  0.16340861  0.70755943  0.93534892  1
  O2-  O210  1  0.66516835  0.21341870  0.26463314  1
  O2-  O211  1  0.66706719  0.20846676  0.59834246  1
  O2-  O212  1  0.66484791  0.20369199  0.93549385  1
  O2-  O213  1  0.66793594  0.70342681  0.26668440  1
  O2-  O214  1  0.66769042  0.71409739  0.59883893  1
  O2-  O215  1  0.66547552  0.71060234  0.93856946  1
  O2-  O216  1  0.08611338  0.46253746  0.06838388  1
  O2-  O217  1  0.08079958  0.46157358  0.40088054  1
  O2-  O218  1  0.08370851  0.46130834  0.73754263  1
  O2-  O219  1  0.08278962  0.95416491  0.06962082  1
  O2-  O220  1  0.08063285  0.95162273  0.39967919  1
  O2-  O221  1  0.07930717  0.95981385  0.73423874  1
  O2-  O222  1  0.58503148  0.45917037  0.06255681  1
  O2-  O223  1  0.58863093  0.45634953  0.39852369  1
  O2-  O224  1  0.58375010  0.44946684  0.72735900  1
  O2-  O225  1  0.57956730  0.94758659  0.05880415  1
  O2-  O226  1  0.57737773  0.95640295  0.39791924  1
  O2-  O227  1  0.58041075  0.95833052  0.73542650  1
  O2-  O228  1  0.20849298  0.32854185  0.06595100  1
  O2-  O229  1  0.20368307  0.32692036  0.39985475  1
  O2-  O230  1  0.20458078  0.32681537  0.73452259  1
  O2-  O231  1  0.21356669  0.83129079  0.06598840  1
  O2-  O232  1  0.21590870  0.83507244  0.39933498  1
  O2-  O233  1  0.20848157  0.83587715  0.73799362  1
  O2-  O234  1  0.69828298  0.33372230  0.05865838  1
  O2-  O235  1  0.70771323  0.33869232  0.39502458  1
  O2-  O236  1  0.70346495  0.33262708  0.73069694  1
  O2-  O237  1  0.70606068  0.83686870  0.06471361  1
  O2-  O238  1  0.70547991  0.83014158  0.39932055  1
  O2-  O239  1  0.71276865  0.83692351  0.73677083  1
  O2-  O240  1  0.45866904  0.41659818  0.27122622  1
  O2-  O241  1  0.45208036  0.41660195  0.60356106  1
  O2-  O242  1  0.45945780  0.41648330  0.93047188  1
  O2-  O243  1  0.46039153  0.91294236  0.26011602  1
  O2-  O244  1  0.45184752  0.91401224  0.60557840  1
  O2-  O245  1  0.45284414  0.91248434  0.93325214  1
  O2-  O246  1  0.95864107  0.42014390  0.26426746  1
  O2-  O247  1  0.95481483  0.41999208  0.60713845  1
  O2-  O248  1  0.96205830  0.41957270  0.93121221  1
  O2-  O249  1  0.94623667  0.91739418  0.27468151  1
  O2-  O250  1  0.95157694  0.91405633  0.60588670  1
  O2-  O251  1  0.95650300  0.91234470  0.93831332  1
  O2-  O252  1  0.33461423  0.30101150  0.27426328  1
  O2-  O253  1  0.33354093  0.29688565  0.60280613  1
  O2-  O254  1  0.33275414  0.28735281  0.93027586  1
  O2-  O255  1  0.33607680  0.78589425  0.26135763  1
  O2-  O256  1  0.33136975  0.79445117  0.60689589  1
  O2-  O257  1  0.33714877  0.78992540  0.93295683  1
  O2-  O258  1  0.83233091  0.29612988  0.26419095  1
  O2-  O259  1  0.83527250  0.30193827  0.60578820  1
  O2-  O260  1  0.83243482  0.29418831  0.92950423  1
  O2-  O261  1  0.83378815  0.79174581  0.26759324  1
  O2-  O262  1  0.83791848  0.79001373  0.60513183  1
  O2-  O263  1  0.83630479  0.79183541  0.93852582  1
  O2-  O264  1  0.41723379  0.04206783  0.06362086  1
  O2-  O265  1  0.41456236  0.03820049  0.39491681  1
  O2-  O266  1  0.41268578  0.04142320  0.73414225  1
  O2-  O267  1  0.42014014  0.54941159  0.05960135  1
  O2-  O268  1  0.42266793  0.54812146  0.39898865  1
  O2-  O269  1  0.42472333  0.54854994  0.73238615  1
  O2-  O270  1  0.91144058  0.03647794  0.07002393  1
  O2-  O271  1  0.91729242  0.04424861  0.40512043  1
  O2-  O272  1  0.91134535  0.04314949  0.73255328  1
  O2-  O273  1  0.91862004  0.54241558  0.06844595  1
  O2-  O274  1  0.91262655  0.54320660  0.39493540  1
  O2-  O275  1  0.91499676  0.54272208  0.73713461  1
  O2-  O276  1  0.30230364  0.16456256  0.06230051  1
  O2-  O277  1  0.30825388  0.16753969  0.39406966  1
  O2-  O278  1  0.30135921  0.16662086  0.72742232  1
  O2-  O279  1  0.29658178  0.66429383  0.06063650  1
  O2-  O280  1  0.29105872  0.66815745  0.39904560  1
  O2-  O281  1  0.29221416  0.66750133  0.73932700  1
  O2-  O282  1  0.79127465  0.17075728  0.06574907  1
  O2-  O283  1  0.79197690  0.17384557  0.40216340  1
  O2-  O284  1  0.79693034  0.16904935  0.72785960  1
  O2-  O285  1  0.78878111  0.66619972  0.07190504  1
  O2-  O286  1  0.79403625  0.66289331  0.39503701  1
  O2-  O287  1  0.78770393  0.66634447  0.73503209  1
