# generated using pymatgen
data_Ca2Al2SiO7
_symmetry_space_group_name_H-M   'P 1'
_cell_length_a   15.45942319
_cell_length_b   15.45922315
_cell_length_c   15.28483797
_cell_angle_alpha   90.00515641
_cell_angle_beta   89.99452799
_cell_angle_gamma   89.97387775
_symmetry_Int_Tables_number   1
_chemical_formula_structural   Ca2Al2SiO7
_chemical_formula_sum   'Ca48 Al48 Si24 O168'
_cell_volume   3652.93330089
_cell_formula_units_Z   24
loop_
 _symmetry_equiv_pos_site_id
 _symmetry_equiv_pos_as_xyz
  1  'x, y, z'
loop_
 _atom_type_symbol
 _atom_type_oxidation_number
  Ca2+  2.0
  Al0+  0.0
  Si0+  0.0
  O2-  -2.0
loop_
 _atom_site_type_symbol
 _atom_site_label
 _atom_site_symmetry_multiplicity
 _atom_site_fract_x
 _atom_site_fract_y
 _atom_site_fract_z
 _atom_site_occupancy
  Ca2+  Ca0  1  0.17762201  0.08194260  0.17277390  1
  Ca2+  Ca1  1  0.16893815  0.07794278  0.50312498  1
  Ca2+  Ca2  1  0.17025409  0.08741461  0.84233669  1
  Ca2+  Ca3  1  0.16531527  0.58444926  0.17192258  1
  Ca2+  Ca4  1  0.16153072  0.58096842  0.50595953  1
  Ca2+  Ca5  1  0.16369996  0.57823136  0.83151761  1
  Ca2+  Ca6  1  0.66266762  0.08732127  0.17207920  1
  Ca2+  Ca7  1  0.66623212  0.08523755  0.49860479  1
  Ca2+  Ca8  1  0.66452558  0.08233466  0.83946483  1
  Ca2+  Ca9  1  0.67755721  0.57027047  0.17294948  1
  Ca2+  Ca10  1  0.67134094  0.58491559  0.50210051  1
  Ca2+  Ca11  1  0.66865096  0.58049663  0.84448857  1
  Ca2+  Ca12  1  0.07054577  0.33146027  0.16012856  1
  Ca2+  Ca13  1  0.08205117  0.33090918  0.49720215  1
  Ca2+  Ca14  1  0.08681721  0.32341424  0.82984852  1
  Ca2+  Ca15  1  0.07704267  0.83267955  0.16728240  1
  Ca2+  Ca16  1  0.08339502  0.82249314  0.48886111  1
  Ca2+  Ca17  1  0.07711240  0.82687396  0.83004790  1
  Ca2+  Ca18  1  0.58527655  0.32606889  0.15991303  1
  Ca2+  Ca19  1  0.58005374  0.33106767  0.49279644  1
  Ca2+  Ca20  1  0.57433075  0.33713255  0.83431744  1
  Ca2+  Ca21  1  0.57029607  0.83693837  0.16218270  1
  Ca2+  Ca22  1  0.57366309  0.82964578  0.49809796  1
  Ca2+  Ca23  1  0.57239562  0.82889944  0.82850835  1
  Ca2+  Ca24  1  0.33331513  0.41516182  0.16848241  1
  Ca2+  Ca25  1  0.32735000  0.41633604  0.51034380  1
  Ca2+  Ca26  1  0.33121995  0.40865419  0.83681213  1
  Ca2+  Ca27  1  0.33314389  0.92523235  0.17618886  1
  Ca2+  Ca28  1  0.33553156  0.91737835  0.49793978  1
  Ca2+  Ca29  1  0.33561264  0.92079099  0.84214499  1
  Ca2+  Ca30  1  0.82967883  0.41731487  0.17459268  1
  Ca2+  Ca31  1  0.83138420  0.41694743  0.49717580  1
  Ca2+  Ca32  1  0.82633703  0.42375680  0.84795741  1
  Ca2+  Ca33  1  0.83664561  0.91492092  0.17150873  1
  Ca2+  Ca34  1  0.83575728  0.91448815  0.50117326  1
  Ca2+  Ca35  1  0.83212704  0.91564761  0.84145486  1
  Ca2+  Ca36  1  0.42407620  0.16436744  0.15929444  1
  Ca2+  Ca37  1  0.41933968  0.17058252  0.49455086  1
  Ca2+  Ca38  1  0.41594869  0.17513232  0.83682423  1
  Ca2+  Ca39  1  0.41269137  0.68070789  0.16259687  1
  Ca2+  Ca40  1  0.41870013  0.67548464  0.49648158  1
  Ca2+  Ca41  1  0.42066773  0.67798988  0.82444199  1
  Ca2+  Ca42  1  0.91962209  0.17972787  0.15933694  1
  Ca2+  Ca43  1  0.92408709  0.17221586  0.49361065  1
  Ca2+  Ca44  1  0.92779801  0.17225112  0.83295751  1
  Ca2+  Ca45  1  0.91339328  0.66944007  0.16667492  1
  Ca2+  Ca46  1  0.92688827  0.66610381  0.48999968  1
  Ca2+  Ca47  1  0.91578830  0.66758216  0.83277991  1
  Al0+  Al48  1  -0.00061738  -0.00274319  -0.00661721  1
  Al0+  Al49  1  0.00202010  -0.00153566  0.33523682  1
  Al0+  Al50  1  0.00092145  0.00202058  0.66534711  1
  Al0+  Al51  1  0.00038090  0.50160536  0.00056810  1
  Al0+  Al52  1  -0.00013617  0.49968434  0.32963312  1
  Al0+  Al53  1  -0.00096016  0.49961378  0.67005146  1
  Al0+  Al54  1  0.49905070  0.00065376  -0.00439342  1
  Al0+  Al55  1  0.50093404  0.00132923  0.33255313  1
  Al0+  Al56  1  0.50070926  0.00121847  0.66537514  1
  Al0+  Al57  1  0.49956479  0.49991544  0.00362175  1
  Al0+  Al58  1  0.49973259  0.49956914  0.33768732  1
  Al0+  Al59  1  0.50032071  0.50111939  0.65967799  1
  Al0+  Al60  1  0.25138426  0.24900143  0.00136302  1
  Al0+  Al61  1  0.25211633  0.24994890  0.33841977  1
  Al0+  Al62  1  0.24971851  0.24915317  0.66249792  1
  Al0+  Al63  1  0.24766011  0.74992085  -0.00458809  1
  Al0+  Al64  1  0.24996010  0.75000501  0.32900482  1
  Al0+  Al65  1  0.24818110  0.75118459  0.66163446  1
  Al0+  Al66  1  0.75047212  0.24819767  -0.00549559  1
  Al0+  Al67  1  0.74952501  0.24938446  0.33223821  1
  Al0+  Al68  1  0.75064753  0.25070843  0.67031905  1
  Al0+  Al69  1  0.74998096  0.75024694  0.00184183  1
  Al0+  Al70  1  0.75032915  0.74866256  0.33569081  1
  Al0+  Al71  1  0.74820934  0.75143292  0.66592186  1
  Al0+  Al72  1  0.56915247  0.18116065  0.32091275  1
  Al0+  Al73  1  0.92828662  0.32387350  0.98390338  1
  Al0+  Al74  1  0.82165231  0.57060507  0.35136660  1
  Al0+  Al75  1  0.42957675  0.31994874  0.65239194  1
  Al0+  Al76  1  0.57222627  0.17797985  0.98388512  1
  Al0+  Al77  1  0.82241194  0.57260227  0.01672953  1
  Al0+  Al78  1  0.92743386  0.82205078  0.31930838  1
  Al0+  Al79  1  0.42718198  0.82140903  0.98641611  1
  Al0+  Al80  1  0.92796389  0.81909594  0.98592547  1
  Al0+  Al81  1  0.57240146  0.67858791  0.65155116  1
  Al0+  Al82  1  0.17919000  0.92855385  0.34900282  1
  Al0+  Al83  1  0.17976995  0.42878139  0.68100286  1
  Al0+  Al84  1  0.31999137  0.06986948  0.01342887  1
  Al0+  Al85  1  0.42918419  0.32314849  0.98714997  1
  Al0+  Al86  1  0.67789871  0.42681402  0.01545603  1
  Al0+  Al87  1  0.32336331  0.07133700  0.35117818  1
  Al0+  Al88  1  0.67887145  0.42655592  0.35107365  1
  Al0+  Al89  1  0.07123869  0.17960027  0.98779053  1
  Al0+  Al90  1  0.93088822  0.31863442  0.32122652  1
  Al0+  Al91  1  0.43138119  0.81951324  0.31858475  1
  Al0+  Al92  1  0.07137797  0.67784115  0.31656599  1
  Al0+  Al93  1  0.06787188  0.67830214  0.65395042  1
  Al0+  Al94  1  0.07122621  0.17913269  0.65073146  1
  Al0+  Al95  1  0.42793801  0.82349034  0.65021669  1
  Si0+  Si96  1  0.81960574  0.57135373  0.68231557  1
  Si0+  Si97  1  0.32100187  0.57199173  0.34811048  1
  Si0+  Si98  1  0.07494507  0.17688823  0.31773276  1
  Si0+  Si99  1  0.67962407  0.93048490  0.68229556  1
  Si0+  Si100  1  0.32090455  0.06993381  0.68292778  1
  Si0+  Si101  1  0.07322904  0.67684239  0.98069947  1
  Si0+  Si102  1  0.67883697  0.93017276  0.01466562  1
  Si0+  Si103  1  0.67733599  0.42854062  0.68263751  1
  Si0+  Si104  1  0.32045235  0.57352698  0.01361586  1
  Si0+  Si105  1  0.18042929  0.42875812  0.01516800  1
  Si0+  Si106  1  0.32250023  0.57317351  0.68234669  1
  Si0+  Si107  1  0.57002100  0.67972762  0.98730051  1
  Si0+  Si108  1  0.57437898  0.17913269  0.64952715  1
  Si0+  Si109  1  0.67860974  0.92854841  0.34801733  1
  Si0+  Si110  1  0.82258662  0.06920979  0.01389258  1
  Si0+  Si111  1  0.42610338  0.32416168  0.31759844  1
  Si0+  Si112  1  0.57287522  0.67543393  0.31537493  1
  Si0+  Si113  1  0.17601942  0.92579117  0.01562261  1
  Si0+  Si114  1  0.92707158  0.32161299  0.65043135  1
  Si0+  Si115  1  0.82187555  0.07088147  0.34702421  1
  Si0+  Si116  1  0.92755720  0.82272675  0.65086975  1
  Si0+  Si117  1  0.82276612  0.07187224  0.68294129  1
  Si0+  Si118  1  0.17928516  0.42941765  0.34730032  1
  Si0+  Si119  1  0.17778075  0.92810746  0.68312695  1
  O2-  O120  1  0.24556857  -0.00593154  0.05861334  1
  O2-  O121  1  0.24989574  0.00082508  0.40161538  1
  O2-  O122  1  0.25097413  -0.00276107  0.72515149  1
  O2-  O123  1  0.25051982  0.50138567  0.05645557  1
  O2-  O124  1  0.25148169  0.49921103  0.38962873  1
  O2-  O125  1  0.25610495  0.50271768  0.72812904  1
  O2-  O126  1  0.74909951  0.00150116  0.05755102  1
  O2-  O127  1  0.75447538  -0.00422642  0.38941311  1
  O2-  O128  1  0.75173039  0.00036954  0.72494811  1
  O2-  O129  1  0.75504537  0.49458741  0.06412034  1
  O2-  O130  1  0.74812720  0.50059101  0.40274904  1
  O2-  O131  1  0.74683925  0.50163417  0.72395027  1
  O2-  O132  1  0.00584563  0.24468430  0.27390970  1
  O2-  O133  1  -0.00406442  0.25356136  0.60534824  1
  O2-  O134  1  0.00204515  0.25309155  0.93483087  1
  O2-  O135  1  -0.00172053  0.74970093  0.26862484  1
  O2-  O136  1  -0.00489900  0.75394965  0.60675504  1
  O2-  O137  1  0.00096871  0.74339849  0.93896262  1
  O2-  O138  1  0.49530650  0.25603980  0.27469918  1
  O2-  O139  1  0.50695709  0.24844869  0.60549527  1
  O2-  O140  1  0.50313221  0.25365396  0.93599467  1
  O2-  O141  1  0.50521197  0.74464349  0.27034668  1
  O2-  O142  1  0.49799752  0.74850750  0.60217661  1
  O2-  O143  1  0.49977042  0.74500824  0.94016864  1
  O2-  O144  1  0.06929014  0.18116629  0.10133472  1
  O2-  O145  1  0.07286732  0.17895654  0.42372632  1
  O2-  O146  1  0.07041669  0.17838457  0.76362891  1
  O2-  O147  1  0.07874305  0.67800204  0.08552304  1
  O2-  O148  1  0.07089052  0.67696979  0.43046764  1
  O2-  O149  1  0.06565238  0.67947983  0.76709057  1
  O2-  O150  1  0.56963524  0.17504713  0.09727571  1
  O2-  O151  1  0.56961705  0.18136604  0.43450933  1
  O2-  O152  1  0.57518125  0.17781501  0.75466271  1
  O2-  O153  1  0.56782177  0.68344970  0.09259047  1
  O2-  O154  1  0.57048583  0.67787173  0.42116181  1
  O2-  O155  1  0.57300241  0.68129472  0.76563804  1
  O2-  O156  1  0.18123088  0.42854968  0.24194325  1
  O2-  O157  1  0.17991790  0.43050142  0.56764708  1
  O2-  O158  1  0.18122135  0.42860756  0.90989076  1
  O2-  O159  1  0.17957564  0.93077829  0.23526337  1
  O2-  O160  1  0.17556241  0.92942324  0.57858550  1
  O2-  O161  1  0.17689059  0.92496894  0.90941405  1
  O2-  O162  1  0.68041564  0.42515896  0.23797647  1
  O2-  O163  1  0.68017227  0.42459822  0.57803090  1
  O2-  O164  1  0.67567004  0.43303368  0.90100276  1
  O2-  O165  1  0.67628517  0.93072003  0.24285130  1
  O2-  O166  1  0.68037397  0.93127220  0.57720099  1
  O2-  O167  1  0.68060108  0.92988879  0.90905044  1
  O2-  O168  1  0.42729944  0.32229737  0.10039084  1
  O2-  O169  1  0.42532615  0.32340436  0.42345360  1
  O2-  O170  1  0.42982564  0.31834189  0.76521619  1
  O2-  O171  1  0.42837914  0.82136951  0.09939591  1
  O2-  O172  1  0.43344361  0.81815693  0.43148712  1
  O2-  O173  1  0.43032380  0.82381870  0.76413071  1
  O2-  O174  1  0.92984059  0.32134180  0.09768008  1
  O2-  O175  1  0.93274103  0.31641730  0.43481251  1
  O2-  O176  1  0.92617605  0.31948695  0.75566734  1
  O2-  O177  1  0.92889269  0.82194646  0.09809681  1
  O2-  O178  1  0.92878453  0.82192643  0.43328546  1
  O2-  O179  1  0.92697600  0.82207401  0.75672969  1
  O2-  O180  1  0.32332818  0.07067692  0.23757753  1
  O2-  O181  1  0.32124058  0.06909071  0.57808471  1
  O2-  O182  1  0.31869822  0.06901947  0.89965190  1
  O2-  O183  1  0.32123980  0.57123682  0.24256087  1
  O2-  O184  1  0.32042867  0.57224095  0.57663913  1
  O2-  O185  1  0.31920408  0.57582748  0.90859218  1
  O2-  O186  1  0.82054558  0.07204490  0.24196891  1
  O2-  O187  1  0.82226912  0.07216104  0.57768599  1
  O2-  O188  1  0.82282877  0.06534920  0.90836647  1
  O2-  O189  1  0.82042602  0.56914985  0.23832408  1
  O2-  O190  1  0.82055096  0.57066809  0.57770258  1
  O2-  O191  1  0.81754026  0.57463899  0.90205996  1
  O2-  O192  1  0.05087169  0.08283557  0.27413390  1
  O2-  O193  1  0.03863681  0.08308202  0.59638131  1
  O2-  O194  1  0.04214474  0.08223738  0.93263706  1
  O2-  O195  1  0.04469412  0.57976071  0.26295848  1
  O2-  O196  1  0.03679047  0.58143856  0.60085593  1
  O2-  O197  1  0.05012096  0.58272618  0.93514022  1
  O2-  O198  1  0.54077597  0.08458443  0.26632559  1
  O2-  O199  1  0.54834864  0.08565971  0.60380849  1
  O2-  O200  1  0.54016125  0.08179307  0.92794846  1
  O2-  O201  1  0.54591665  0.58145701  0.27159734  1
  O2-  O202  1  0.54857750  0.58077907  0.59626557  1
  O2-  O203  1  0.54679588  0.58543745  0.94247893  1
  O2-  O204  1  0.16908980  0.20386684  0.27438749  1
  O2-  O205  1  0.16629621  0.20977981  0.59548936  1
  O2-  O206  1  0.16898014  0.20880075  0.93423441  1
  O2-  O207  1  0.16918543  0.70586783  0.26261197  1
  O2-  O208  1  0.16485337  0.70588762  0.60011786  1
  O2-  O209  1  0.16416974  0.70543470  0.93030617  1
  O2-  O210  1  0.66621793  0.20844382  0.26678316  1
  O2-  O211  1  0.66922145  0.20349259  0.60488979  1
  O2-  O212  1  0.67172798  0.19829588  0.93013440  1
  O2-  O213  1  0.66709355  0.70023134  0.27220433  1
  O2-  O214  1  0.66899636  0.71185623  0.59702533  1
  O2-  O215  1  0.66221623  0.70816310  0.94024492  1
  O2-  O216  1  0.08856525  0.45656663  0.06236342  1
  O2-  O217  1  0.08807863  0.45759685  0.39480252  1
  O2-  O218  1  0.08346370  0.46010912  0.73622433  1
  O2-  O219  1  0.08178973  0.95172847  0.05969207  1
  O2-  O220  1  0.08038499  0.95467263  0.40417548  1
  O2-  O221  1  0.08581296  0.95780142  0.73060014  1
  O2-  O222  1  0.58025740  0.45680783  0.07000550  1
  O2-  O223  1  0.57871764  0.45274427  0.40291717  1
  O2-  O224  1  0.58400970  0.45590103  0.72724014  1
  O2-  O225  1  0.58682986  0.95852594  0.06095654  1
  O2-  O226  1  0.59046513  0.96267663  0.39849530  1
  O2-  O227  1  0.58828923  0.96001588  0.73047788  1
  O2-  O228  1  0.20939371  0.33861785  0.06460977  1
  O2-  O229  1  0.20531393  0.33784704  0.39676228  1
  O2-  O230  1  0.21176593  0.33132383  0.73326054  1
  O2-  O231  1  0.20047013  0.83147278  0.06038279  1
  O2-  O232  1  0.20953775  0.82930649  0.39982525  1
  O2-  O233  1  0.20287524  0.83494266  0.72977507  1
  O2-  O234  1  0.70257212  0.32493091  0.06258075  1
  O2-  O235  1  0.71119516  0.32878099  0.40471736  1
  O2-  O236  1  0.70565218  0.33704864  0.73135681  1
  O2-  O237  1  0.70598622  0.83914861  0.06301761  1
  O2-  O238  1  0.70186937  0.83626046  0.39659318  1
  O2-  O239  1  0.70610427  0.83859948  0.73100133  1
  O2-  O240  1  0.44879106  0.41912533  0.27347958  1
  O2-  O241  1  0.45489150  0.41750919  0.59828495  1
  O2-  O242  1  0.45335094  0.42313658  0.93383189  1
  O2-  O243  1  0.46494156  0.91568236  0.26635443  1
  O2-  O244  1  0.46197281  0.92042167  0.59766031  1
  O2-  O245  1  0.46171242  0.91499035  0.93039619  1
  O2-  O246  1  0.96173967  0.41355507  0.26605646  1
  O2-  O247  1  0.95288795  0.41532715  0.60617846  1
  O2-  O248  1  0.95440002  0.42351420  0.93316229  1
  O2-  O249  1  0.95529111  0.92139791  0.26712341  1
  O2-  O250  1  0.95220617  0.91695851  0.60660044  1
  O2-  O251  1  0.95853164  0.91371302  0.92732243  1
  O2-  O252  1  0.33199494  0.29896273  0.27250777  1
  O2-  O253  1  0.33481771  0.28716012  0.59701780  1
  O2-  O254  1  0.33231819  0.29076176  0.93327047  1
  O2-  O255  1  0.33572023  0.78858322  0.26421911  1
  O2-  O256  1  0.32904045  0.79784741  0.59846995  1
  O2-  O257  1  0.33068840  0.79227002  0.93172428  1
  O2-  O258  1  0.83569482  0.28525974  0.26753594  1
  O2-  O259  1  0.83365351  0.29382821  0.60461204  1
  O2-  O260  1  0.83172120  0.29360724  0.92960653  1
  O2-  O261  1  0.82718461  0.79707119  0.26840252  1
  O2-  O262  1  0.83296374  0.80015578  0.60661377  1
  O2-  O263  1  0.83034273  0.79067965  0.93123449  1
  O2-  O264  1  0.41731616  0.03792506  0.06532702  1
  O2-  O265  1  0.42138698  0.04024766  0.40417350  1
  O2-  O266  1  0.41432452  0.04440041  0.72904260  1
  O2-  O267  1  0.41163204  0.54859529  0.06334053  1
  O2-  O268  1  0.41281148  0.54730491  0.39723186  1
  O2-  O269  1  0.41816526  0.55062724  0.72570996  1
  O2-  O270  1  0.91330435  0.03792487  0.06107958  1
  O2-  O271  1  0.91418072  0.04679007  0.39578915  1
  O2-  O272  1  0.91444172  0.04377031  0.73086519  1
  O2-  O273  1  0.92426733  0.55253969  0.06582429  1
  O2-  O274  1  0.92061483  0.53858187  0.40216033  1
  O2-  O275  1  0.91014434  0.54257581  0.73159892  1
  O2-  O276  1  0.29039229  0.16610408  0.06902392  1
  O2-  O277  1  0.29681347  0.17064368  0.40455537  1
  O2-  O278  1  0.29001493  0.16138859  0.72861553  1
  O2-  O279  1  0.28946772  0.66454911  0.06197174  1
  O2-  O280  1  0.29174268  0.66288742  0.39557825  1
  O2-  O281  1  0.29414792  0.66689705  0.72782840  1
  O2-  O282  1  0.79822843  0.16247042  0.05928377  1
  O2-  O283  1  0.78922202  0.15944931  0.39786312  1
  O2-  O284  1  0.79468815  0.16320070  0.73154853  1
  O2-  O285  1  0.78940953  0.66974718  0.06997990  1
  O2-  O286  1  0.79499093  0.67021445  0.40458766  1
  O2-  O287  1  0.79311026  0.66492637  0.72818242  1
