# generated using pymatgen
data_Ca2Al2SiO7
_symmetry_space_group_name_H-M   'P 1'
_cell_length_a   15.46893645
_cell_length_b   15.47322444
_cell_length_c   15.29386778
_cell_angle_alpha   90.00399210
_cell_angle_beta   89.98701731
_cell_angle_gamma   89.98897904
_symmetry_Int_Tables_number   1
_chemical_formula_structural   Ca2Al2SiO7
_chemical_formula_sum   'Ca48 Al48 Si24 O168'
_cell_volume   3660.65323519
_cell_formula_units_Z   24
loop_
 _symmetry_equiv_pos_site_id
 _symmetry_equiv_pos_as_xyz
  1  'x, y, z'
loop_
 _atom_type_symbol
 _atom_type_oxidation_number
  Ca2+  2.0
  Al0+  0.0
  Si0+  0.0
  O2-  -2.0
loop_
 _atom_site_type_symbol
 _atom_site_label
 _atom_site_symmetry_multiplicity
 _atom_site_fract_x
 _atom_site_fract_y
 _atom_site_fract_z
 _atom_site_occupancy
  Ca2+  Ca0  1  0.16641375  0.07927074  0.17003166  1
  Ca2+  Ca1  1  0.16690681  0.07349843  0.50821217  1
  Ca2+  Ca2  1  0.16292409  0.07225730  0.83501341  1
  Ca2+  Ca3  1  0.17270276  0.58240691  0.16962688  1
  Ca2+  Ca4  1  0.17227509  0.58813922  0.50218785  1
  Ca2+  Ca5  1  0.17385630  0.58720935  0.83859485  1
  Ca2+  Ca6  1  0.67353265  0.07863552  0.17288027  1
  Ca2+  Ca7  1  0.66998110  0.08519186  0.50510671  1
  Ca2+  Ca8  1  0.66042662  0.08230093  0.83441431  1
  Ca2+  Ca9  1  0.66945365  0.58082497  0.16639561  1
  Ca2+  Ca10  1  0.67274518  0.58145405  0.50925096  1
  Ca2+  Ca11  1  0.67641137  0.57614218  0.83825020  1
  Ca2+  Ca12  1  0.07676544  0.34313781  0.16214857  1
  Ca2+  Ca13  1  0.07547282  0.33968208  0.49088034  1
  Ca2+  Ca14  1  0.07813122  0.34502710  0.83561022  1
  Ca2+  Ca15  1  0.08084696  0.81806999  0.15941836  1
  Ca2+  Ca16  1  0.08391947  0.82249824  0.50317903  1
  Ca2+  Ca17  1  0.07630419  0.81939071  0.82731440  1
  Ca2+  Ca18  1  0.57825375  0.33507844  0.15757534  1
  Ca2+  Ca19  1  0.57976144  0.34016718  0.50430970  1
  Ca2+  Ca20  1  0.57808008  0.34003733  0.82726118  1
  Ca2+  Ca21  1  0.57853161  0.82279352  0.16255986  1
  Ca2+  Ca22  1  0.57704248  0.82366613  0.49640820  1
  Ca2+  Ca23  1  0.57063995  0.83055985  0.82931919  1
  Ca2+  Ca24  1  0.32299213  0.42365670  0.17016441  1
  Ca2+  Ca25  1  0.33025157  0.42869560  0.50669848  1
  Ca2+  Ca26  1  0.33372535  0.42597750  0.84243501  1
  Ca2+  Ca27  1  0.33635695  0.91473780  0.16687762  1
  Ca2+  Ca28  1  0.32694345  0.91272074  0.51173954  1
  Ca2+  Ca29  1  0.32945038  0.90834408  0.83591921  1
  Ca2+  Ca30  1  0.83504953  0.41684397  0.16456893  1
  Ca2+  Ca31  1  0.82865517  0.42234376  0.50858367  1
  Ca2+  Ca32  1  0.82592959  0.42498419  0.83964149  1
  Ca2+  Ca33  1  0.84208362  0.92289963  0.17080950  1
  Ca2+  Ca34  1  0.84005666  0.92313188  0.50621915  1
  Ca2+  Ca35  1  0.84173640  0.91493191  0.83774309  1
  Ca2+  Ca36  1  0.41813197  0.17608713  0.15696856  1
  Ca2+  Ca37  1  0.42146778  0.17381957  0.50295791  1
  Ca2+  Ca38  1  0.42211656  0.18401309  0.82564378  1
  Ca2+  Ca39  1  0.41818547  0.66031587  0.16278347  1
  Ca2+  Ca40  1  0.41567531  0.66375702  0.49753497  1
  Ca2+  Ca41  1  0.40712600  0.67081244  0.82819092  1
  Ca2+  Ca42  1  0.91357475  0.17764831  0.16550116  1
  Ca2+  Ca43  1  0.91480538  0.17407739  0.49259579  1
  Ca2+  Ca44  1  0.91651667  0.17519837  0.83314171  1
  Ca2+  Ca45  1  0.92930327  0.66264313  0.15546689  1
  Ca2+  Ca46  1  0.92984085  0.65946689  0.49708485  1
  Ca2+  Ca47  1  0.92448316  0.66170593  0.82763257  1
  Al0+  Al48  1  0.00122821  -0.00048890  0.00040428  1
  Al0+  Al49  1  0.00025283  0.00268508  0.33901228  1
  Al0+  Al50  1  0.00054649  -0.00023356  0.66917698  1
  Al0+  Al51  1  -0.00022914  0.49798842  -0.00439649  1
  Al0+  Al52  1  -0.00122957  0.50012648  0.32695877  1
  Al0+  Al53  1  0.00125511  0.50010657  0.66397045  1
  Al0+  Al54  1  0.50082961  -0.00160972  -0.00111303  1
  Al0+  Al55  1  0.50079228  0.00070780  0.33421626  1
  Al0+  Al56  1  0.50039917  0.00236286  0.65895112  1
  Al0+  Al57  1  0.50165418  0.49955815  0.00289116  1
  Al0+  Al58  1  0.49937980  0.50050030  0.33186394  1
  Al0+  Al59  1  0.49915230  0.50111620  0.66944364  1
  Al0+  Al60  1  0.25190669  0.24759661  -0.00122509  1
  Al0+  Al61  1  0.24851840  0.24858913  0.33760862  1
  Al0+  Al62  1  0.25040475  0.24932656  0.66188963  1
  Al0+  Al63  1  0.24913550  0.75061442  -0.00070882  1
  Al0+  Al64  1  0.24892833  0.75171782  0.33215005  1
  Al0+  Al65  1  0.24689352  0.75051828  0.66715675  1
  Al0+  Al66  1  0.75210823  0.24687595  -0.00023616  1
  Al0+  Al67  1  0.74938347  0.24867078  0.33383148  1
  Al0+  Al68  1  0.75027216  0.24860631  0.66740279  1
  Al0+  Al69  1  0.74865013  0.75205594  0.00191316  1
  Al0+  Al70  1  0.74684195  0.75106297  0.32923264  1
  Al0+  Al71  1  0.75023762  0.75487155  0.66783203  1
  Al0+  Al72  1  0.42814044  0.81974788  0.65346644  1
  Al0+  Al73  1  0.82110501  0.57240911  0.01554661  1
  Al0+  Al74  1  0.81928849  0.07011439  0.34818640  1
  Al0+  Al75  1  0.17625294  0.42918732  0.34885461  1
  Al0+  Al76  1  0.42975983  0.32184451  0.98801582  1
  Al0+  Al77  1  0.17967886  0.42559884  0.01353164  1
  Al0+  Al78  1  0.57103474  0.67739570  0.31924838  1
  Al0+  Al79  1  0.42771815  0.32530830  0.64978754  1
  Al0+  Al80  1  0.82331355  0.57387898  0.67938132  1
  Al0+  Al81  1  0.92730946  0.82316775  0.65057689  1
  Al0+  Al82  1  0.68016950  0.42668826  0.01618110  1
  Al0+  Al83  1  0.07006090  0.67689068  0.98375797  1
  Al0+  Al84  1  0.07068797  0.68023587  0.31715263  1
  Al0+  Al85  1  0.43052384  0.81973716  0.98714370  1
  Al0+  Al86  1  0.67994068  0.42868026  0.68093661  1
  Al0+  Al87  1  0.92957558  0.31930288  0.98453764  1
  Al0+  Al88  1  0.17987492  0.93036113  0.68243884  1
  Al0+  Al89  1  0.32090126  0.57124451  0.34954057  1
  Al0+  Al90  1  0.31879925  0.57045467  0.68018851  1
  Al0+  Al91  1  0.06924529  0.67754044  0.64945315  1
  Al0+  Al92  1  0.32050089  0.57348985  0.01546725  1
  Al0+  Al93  1  0.92788325  0.82247362  0.98725074  1
  Al0+  Al94  1  0.57243548  0.18067706  0.65048844  1
  Al0+  Al95  1  0.92815010  0.32030965  0.31984307  1
  Si0+  Si96  1  0.57287880  0.67681222  0.98212456  1
  Si0+  Si97  1  0.32360068  0.07214658  0.34955016  1
  Si0+  Si98  1  0.82275199  0.06857184  0.01554232  1
  Si0+  Si99  1  0.67581208  0.92995444  0.01580243  1
  Si0+  Si100  1  0.67837443  0.42837780  0.34755458  1
  Si0+  Si101  1  0.93079633  0.31922530  0.65204045  1
  Si0+  Si102  1  0.42805063  0.31980708  0.31834188  1
  Si0+  Si103  1  0.57008589  0.17839575  0.31698366  1
  Si0+  Si104  1  0.67618893  0.93074600  0.68208170  1
  Si0+  Si105  1  0.17782037  0.42424524  0.68184498  1
  Si0+  Si106  1  0.32286352  0.06913328  0.01415873  1
  Si0+  Si107  1  0.07066564  0.17699207  0.65226033  1
  Si0+  Si108  1  0.57234282  0.17730173  0.98567619  1
  Si0+  Si109  1  0.92803895  0.82405650  0.31877913  1
  Si0+  Si110  1  0.07373267  0.17608218  0.98340032  1
  Si0+  Si111  1  0.07244282  0.17661524  0.31757913  1
  Si0+  Si112  1  0.18027791  0.93087562  0.34857831  1
  Si0+  Si113  1  0.42819927  0.82315765  0.31752558  1
  Si0+  Si114  1  0.81964286  0.57218510  0.34550641  1
  Si0+  Si115  1  0.57278838  0.67912903  0.65235565  1
  Si0+  Si116  1  0.82101808  0.07033170  0.68402221  1
  Si0+  Si117  1  0.32367201  0.07299191  0.68402856  1
  Si0+  Si118  1  0.17921593  0.93021431  0.01674267  1
  Si0+  Si119  1  0.67661307  0.92767694  0.35199019  1
  O2-  O120  1  0.25177166  -0.00025253  0.05940899  1
  O2-  O121  1  0.25386208  -0.00025232  0.39074008  1
  O2-  O122  1  0.25652760  0.00374525  0.72954683  1
  O2-  O123  1  0.24878896  0.50015406  0.06396921  1
  O2-  O124  1  0.24795992  0.50035745  0.40002366  1
  O2-  O125  1  0.24858684  0.49067617  0.72466938  1
  O2-  O126  1  0.75290220  -0.00433719  0.05678399  1
  O2-  O127  1  0.74814222  -0.00689320  0.39657260  1
  O2-  O128  1  0.74978762  -0.00074467  0.72526163  1
  O2-  O129  1  0.75072815  0.49928620  0.06770306  1
  O2-  O130  1  0.74852259  0.50109541  0.38820866  1
  O2-  O131  1  0.75077313  0.50228949  0.72890018  1
  O2-  O132  1  0.00730187  0.24845398  0.27437582  1
  O2-  O133  1  0.00460865  0.25160169  0.60911223  1
  O2-  O134  1  0.00931069  0.24844519  0.93908305  1
  O2-  O135  1  -0.00751415  0.75326240  0.27309628  1
  O2-  O136  1  -0.00716337  0.74625119  0.60002232  1
  O2-  O137  1  -0.00762931  0.74503461  0.93672222  1
  O2-  O138  1  0.49853027  0.24804662  0.27494015  1
  O2-  O139  1  0.50221729  0.25436240  0.60034717  1
  O2-  O140  1  0.50956594  0.25119595  0.94299070  1
  O2-  O141  1  0.49404221  0.75164065  0.27452247  1
  O2-  O142  1  0.50160284  0.74471521  0.60642119  1
  O2-  O143  1  0.49964990  0.74130240  0.93892057  1
  O2-  O144  1  0.07106984  0.17063439  0.08892450  1
  O2-  O145  1  0.07052541  0.17267323  0.42308501  1
  O2-  O146  1  0.06763577  0.17413368  0.75714083  1
  O2-  O147  1  0.07210803  0.68113858  0.09783104  1
  O2-  O148  1  0.07190063  0.68233413  0.42987640  1
  O2-  O149  1  0.07076958  0.67822154  0.76230813  1
  O2-  O150  1  0.56950178  0.17380191  0.09179514  1
  O2-  O151  1  0.56976009  0.17689973  0.42142309  1
  O2-  O152  1  0.57052407  0.17812448  0.76405086  1
  O2-  O153  1  0.57357306  0.68047417  0.08812281  1
  O2-  O154  1  0.57376913  0.67982161  0.43230720  1
  O2-  O155  1  0.57374148  0.68253599  0.75757408  1
  O2-  O156  1  0.17886836  0.42749184  0.23580090  1
  O2-  O157  1  0.17653121  0.42358627  0.57622855  1
  O2-  O158  1  0.18447736  0.42299361  0.90003066  1
  O2-  O159  1  0.18004143  0.93368370  0.24325267  1
  O2-  O160  1  0.18129057  0.93326439  0.56866747  1
  O2-  O161  1  0.17832373  0.93324639  0.91214174  1
  O2-  O162  1  0.67813282  0.42606918  0.24285010  1
  O2-  O163  1  0.68312020  0.42913392  0.56631866  1
  O2-  O164  1  0.68159182  0.42629156  0.90309221  1
  O2-  O165  1  0.67359417  0.93137239  0.24636838  1
  O2-  O166  1  0.67514432  0.93295533  0.57703578  1
  O2-  O167  1  0.66980506  0.93475884  0.91121640  1
  O2-  O168  1  0.42923235  0.31574731  0.10175509  1
  O2-  O169  1  0.43023031  0.31848782  0.42309926  1
  O2-  O170  1  0.42693820  0.32252540  0.76312551  1
  O2-  O171  1  0.43537429  0.82571343  0.10027036  1
  O2-  O172  1  0.42978633  0.82645077  0.42290348  1
  O2-  O173  1  0.43038626  0.82038462  0.76645258  1
  O2-  O174  1  0.92685123  0.31392173  0.09753995  1
  O2-  O175  1  0.92669462  0.31724018  0.43341196  1
  O2-  O176  1  0.93063582  0.31649492  0.75685393  1
  O2-  O177  1  0.93507341  0.82857323  0.10098227  1
  O2-  O178  1  0.92991002  0.82507062  0.42393391  1
  O2-  O179  1  0.93199670  0.82685484  0.76341537  1
  O2-  O180  1  0.32431212  0.07245788  0.24413274  1
  O2-  O181  1  0.32051351  0.07195013  0.57784544  1
  O2-  O182  1  0.32327707  0.06744208  0.90975626  1
  O2-  O183  1  0.32223275  0.56915127  0.23643448  1
  O2-  O184  1  0.31811185  0.57121217  0.56702868  1
  O2-  O185  1  0.31888723  0.57444009  0.90197614  1
  O2-  O186  1  0.81770666  0.06900142  0.23483738  1
  O2-  O187  1  0.82153001  0.07114634  0.57880751  1
  O2-  O188  1  0.82357430  0.06933580  0.91055854  1
  O2-  O189  1  0.81866538  0.57152693  0.24082830  1
  O2-  O190  1  0.82269212  0.56960849  0.56469738  1
  O2-  O191  1  0.81862868  0.57161543  0.90223220  1
  O2-  O192  1  0.04252306  0.08461379  0.26950600  1
  O2-  O193  1  0.03790830  0.08793479  0.60272411  1
  O2-  O194  1  0.04136406  0.08527021  0.93521163  1
  O2-  O195  1  0.04031764  0.58430339  0.26314006  1
  O2-  O196  1  0.04396680  0.57855302  0.59436098  1
  O2-  O197  1  0.04804365  0.57790956  0.93095073  1
  O2-  O198  1  0.54349550  0.08584285  0.26916941  1
  O2-  O199  1  0.54220697  0.08448191  0.59311504  1
  O2-  O200  1  0.54052990  0.08656879  0.93780682  1
  O2-  O201  1  0.54191887  0.58111193  0.26372275  1
  O2-  O202  1  0.54986676  0.58506027  0.60699634  1
  O2-  O203  1  0.55350404  0.58143945  0.93929504  1
  O2-  O204  1  0.16843127  0.19567008  0.27315231  1
  O2-  O205  1  0.16424215  0.19682360  0.60487168  1
  O2-  O206  1  0.16897872  0.19384095  0.93843402  1
  O2-  O207  1  0.16614812  0.71584076  0.26339921  1
  O2-  O208  1  0.16474753  0.71464837  0.59632652  1
  O2-  O209  1  0.16616161  0.71358274  0.93218861  1
  O2-  O210  1  0.66160086  0.20634568  0.26963465  1
  O2-  O211  1  0.67225998  0.20566146  0.59745249  1
  O2-  O212  1  0.66806866  0.19399826  0.94170165  1
  O2-  O213  1  0.66518946  0.71164122  0.26108278  1
  O2-  O214  1  0.66472334  0.70877015  0.60461053  1
  O2-  O215  1  0.66414962  0.70883262  0.93591377  1
  O2-  O216  1  0.07837185  0.44878129  0.06138883  1
  O2-  O217  1  0.07589743  0.45705277  0.39850243  1
  O2-  O218  1  0.08432454  0.45166801  0.72659758  1
  O2-  O219  1  0.08949138  0.96242542  0.06617000  1
  O2-  O220  1  0.09049457  0.96212827  0.39770711  1
  O2-  O221  1  0.08547980  0.96697954  0.73701020  1
  O2-  O222  1  0.58186185  0.45411561  0.06999257  1
  O2-  O223  1  0.58658372  0.45586857  0.39446951  1
  O2-  O224  1  0.58110826  0.45502468  0.73231782  1
  O2-  O225  1  0.58808104  0.96482587  0.06788514  1
  O2-  O226  1  0.58428197  0.95741399  0.39902982  1
  O2-  O227  1  0.58543122  0.96349394  0.72939384  1
  O2-  O228  1  0.20759191  0.32596439  0.06665574  1
  O2-  O229  1  0.20010005  0.32792131  0.40014422  1
  O2-  O230  1  0.19802145  0.32842017  0.72575213  1
  O2-  O231  1  0.20754827  0.83961272  0.06488460  1
  O2-  O232  1  0.20684136  0.83944755  0.39600054  1
  O2-  O233  1  0.21005257  0.83485180  0.73655919  1
  O2-  O234  1  0.70811410  0.32627118  0.06734094  1
  O2-  O235  1  0.70698281  0.33695481  0.39496907  1
  O2-  O236  1  0.70904265  0.32996436  0.73257791  1
  O2-  O237  1  0.69669347  0.83711248  0.06349631  1
  O2-  O238  1  0.69823002  0.83249473  0.39573947  1
  O2-  O239  1  0.69878200  0.83893221  0.73092403  1
  O2-  O240  1  0.45702723  0.41070166  0.27140110  1
  O2-  O241  1  0.45747853  0.42322222  0.59631235  1
  O2-  O242  1  0.45784376  0.41903944  0.93527757  1
  O2-  O243  1  0.45694526  0.91650877  0.27076509  1
  O2-  O244  1  0.45797082  0.91618465  0.59863763  1
  O2-  O245  1  0.46521585  0.91504375  0.93209530  1
  O2-  O246  1  0.95476871  0.41613839  0.26372965  1
  O2-  O247  1  0.95572628  0.41098658  0.60372971  1
  O2-  O248  1  0.95598144  0.41500242  0.92815671  1
  O2-  O249  1  0.95749382  0.91811035  0.27476454  1
  O2-  O250  1  0.96267531  0.92070933  0.59791079  1
  O2-  O251  1  0.96141639  0.91947544  0.93361134  1
  O2-  O252  1  0.33575530  0.28947566  0.27343455  1
  O2-  O253  1  0.33072589  0.29231468  0.59503919  1
  O2-  O254  1  0.33641419  0.28412076  0.93276302  1
  O2-  O255  1  0.33349651  0.80309857  0.27228396  1
  O2-  O256  1  0.33150196  0.79081654  0.60001205  1
  O2-  O257  1  0.33184520  0.79606120  0.93557351  1
  O2-  O258  1  0.83327409  0.28317872  0.26595644  1
  O2-  O259  1  0.84037909  0.28729018  0.60480845  1
  O2-  O260  1  0.83555517  0.28044704  0.93001409  1
  O2-  O261  1  0.83174161  0.80614928  0.27526955  1
  O2-  O262  1  0.82455265  0.80823987  0.60123106  1
  O2-  O263  1  0.82440190  0.80795918  0.94028737  1
  O2-  O264  1  0.41367562  0.03954707  0.06385153  1
  O2-  O265  1  0.41599940  0.04592476  0.39655022  1
  O2-  O266  1  0.41860470  0.04904127  0.72641237  1
  O2-  O267  1  0.42031412  0.54685122  0.06590468  1
  O2-  O268  1  0.42012759  0.54164563  0.40119933  1
  O2-  O269  1  0.41715423  0.54664231  0.73324783  1
  O2-  O270  1  0.91431225  0.04165018  0.06468350  1
  O2-  O271  1  0.91690524  0.04417827  0.40357918  1
  O2-  O272  1  0.91226604  0.04283983  0.73209722  1
  O2-  O273  1  0.92013204  0.54195096  0.06526956  1
  O2-  O274  1  0.91120013  0.54300500  0.39159600  1
  O2-  O275  1  0.92096694  0.54160368  0.73078462  1
  O2-  O276  1  0.29537294  0.15978254  0.06389303  1
  O2-  O277  1  0.29493689  0.16213492  0.39933537  1
  O2-  O278  1  0.29649163  0.16679346  0.72848531  1
  O2-  O279  1  0.29252532  0.67244056  0.06914328  1
  O2-  O280  1  0.29450777  0.67248617  0.39833049  1
  O2-  O281  1  0.28474200  0.66590293  0.73348830  1
  O2-  O282  1  0.79272412  0.15848152  0.06481103  1
  O2-  O283  1  0.78474980  0.16522201  0.40312886  1
  O2-  O284  1  0.79312823  0.16151775  0.73217831  1
  O2-  O285  1  0.79370929  0.67202205  0.06836996  1
  O2-  O286  1  0.79217507  0.66488840  0.39130009  1
  O2-  O287  1  0.79804661  0.67392814  0.72983051  1
