# generated using pymatgen
data_Ca2Al2SiO7
_symmetry_space_group_name_H-M   'P 1'
_cell_length_a   15.46459066
_cell_length_b   15.46337949
_cell_length_c   15.28814576
_cell_angle_alpha   89.99390301
_cell_angle_beta   90.00720766
_cell_angle_gamma   90.00690856
_symmetry_Int_Tables_number   1
_chemical_formula_structural   Ca2Al2SiO7
_chemical_formula_sum   'Ca48 Al48 Si24 O168'
_cell_volume   3655.92812296
_cell_formula_units_Z   24
loop_
 _symmetry_equiv_pos_site_id
 _symmetry_equiv_pos_as_xyz
  1  'x, y, z'
loop_
 _atom_type_symbol
 _atom_type_oxidation_number
  Ca2+  2.0
  Al0+  0.0
  Si0+  0.0
  O2-  -2.0
loop_
 _atom_site_type_symbol
 _atom_site_label
 _atom_site_symmetry_multiplicity
 _atom_site_fract_x
 _atom_site_fract_y
 _atom_site_fract_z
 _atom_site_occupancy
  Ca2+  Ca0  1  0.17234294  0.08528176  0.17176918  1
  Ca2+  Ca1  1  0.17443515  0.08252433  0.50129330  1
  Ca2+  Ca2  1  0.16490926  0.08024746  0.83952911  1
  Ca2+  Ca3  1  0.16629735  0.57874577  0.16406883  1
  Ca2+  Ca4  1  0.17024015  0.57466697  0.50957369  1
  Ca2+  Ca5  1  0.17288673  0.57839435  0.84202047  1
  Ca2+  Ca6  1  0.67041067  0.07741473  0.17466865  1
  Ca2+  Ca7  1  0.66857261  0.07719983  0.50177340  1
  Ca2+  Ca8  1  0.66254734  0.08512346  0.83708037  1
  Ca2+  Ca9  1  0.66464546  0.57823240  0.16625376  1
  Ca2+  Ca10  1  0.66813566  0.57260853  0.51164091  1
  Ca2+  Ca11  1  0.67270878  0.58406821  0.84008137  1
  Ca2+  Ca12  1  0.08720385  0.33197553  0.15892125  1
  Ca2+  Ca13  1  0.07799395  0.34465776  0.49849573  1
  Ca2+  Ca14  1  0.08562654  0.33449103  0.82864897  1
  Ca2+  Ca15  1  0.07520061  0.82783988  0.16058332  1
  Ca2+  Ca16  1  0.07115147  0.83017797  0.49609577  1
  Ca2+  Ca17  1  0.07811195  0.82179538  0.82968867  1
  Ca2+  Ca18  1  0.58948503  0.32894884  0.15936850  1
  Ca2+  Ca19  1  0.59210263  0.33114028  0.49787375  1
  Ca2+  Ca20  1  0.59825377  0.32545049  0.82805549  1
  Ca2+  Ca21  1  0.58003689  0.82971954  0.15853561  1
  Ca2+  Ca22  1  0.58525522  0.82468317  0.50062299  1
  Ca2+  Ca23  1  0.57394875  0.81684227  0.83013211  1
  Ca2+  Ca24  1  0.32422740  0.42138263  0.16815779  1
  Ca2+  Ca25  1  0.32082760  0.42074836  0.50767447  1
  Ca2+  Ca26  1  0.32678870  0.42854686  0.83709871  1
  Ca2+  Ca27  1  0.33702629  0.92288914  0.17050241  1
  Ca2+  Ca28  1  0.34028346  0.92122976  0.50453793  1
  Ca2+  Ca29  1  0.34315582  0.91351479  0.83601888  1
  Ca2+  Ca30  1  0.82255824  0.42176924  0.16581646  1
  Ca2+  Ca31  1  0.82658578  0.42116218  0.51042772  1
  Ca2+  Ca32  1  0.82703546  0.42451118  0.83425115  1
  Ca2+  Ca33  1  0.82764749  0.92249892  0.17857260  1
  Ca2+  Ca34  1  0.83531884  0.91723476  0.50132917  1
  Ca2+  Ca35  1  0.83454403  0.91627566  0.83527840  1
  Ca2+  Ca36  1  0.42108240  0.16860621  0.15910931  1
  Ca2+  Ca37  1  0.42173029  0.16671958  0.49778594  1
  Ca2+  Ca38  1  0.42921131  0.17301269  0.82937079  1
  Ca2+  Ca39  1  0.42189341  0.67280859  0.15277443  1
  Ca2+  Ca40  1  0.41878004  0.66222287  0.50287556  1
  Ca2+  Ca41  1  0.41852470  0.66610348  0.82616593  1
  Ca2+  Ca42  1  0.92094451  0.16767928  0.16028341  1
  Ca2+  Ca43  1  0.91471377  0.17367785  0.49683418  1
  Ca2+  Ca44  1  0.92236054  0.17897910  0.82809799  1
  Ca2+  Ca45  1  0.91780399  0.66887824  0.16065895  1
  Ca2+  Ca46  1  0.90502229  0.67622416  0.49993368  1
  Ca2+  Ca47  1  0.91765779  0.65968042  0.82838423  1
  Al0+  Al48  1  0.00090684  0.00208709  -0.00299598  1
  Al0+  Al49  1  0.00120261  0.00075517  0.33263927  1
  Al0+  Al50  1  0.00167272  -0.00027273  0.66349569  1
  Al0+  Al51  1  -0.00250541  0.50125738  0.00468133  1
  Al0+  Al52  1  -0.00071781  0.50037673  0.33390285  1
  Al0+  Al53  1  -0.00131921  0.49789739  0.66814390  1
  Al0+  Al54  1  0.50035620  0.00176184  -0.00632588  1
  Al0+  Al55  1  0.50154172  -0.00002062  0.34083994  1
  Al0+  Al56  1  0.50186654  0.00049371  0.66055473  1
  Al0+  Al57  1  0.49886188  0.49920745  0.00470083  1
  Al0+  Al58  1  0.49880052  0.49838343  0.33513660  1
  Al0+  Al59  1  0.49759736  0.49534576  0.66952222  1
  Al0+  Al60  1  0.25116527  0.24807200  -0.00287242  1
  Al0+  Al61  1  0.25087095  0.25079358  0.34171834  1
  Al0+  Al62  1  0.25299450  0.24599904  0.67035710  1
  Al0+  Al63  1  0.24529503  0.75292470  -0.00188566  1
  Al0+  Al64  1  0.25061902  0.75021651  0.33162640  1
  Al0+  Al65  1  0.24908703  0.75244036  0.66372440  1
  Al0+  Al66  1  0.75228617  0.24958895  -0.00046841  1
  Al0+  Al67  1  0.75173963  0.24954112  0.33693370  1
  Al0+  Al68  1  0.75482904  0.24727488  0.66020172  1
  Al0+  Al69  1  0.74716152  0.75289222  0.00159557  1
  Al0+  Al70  1  0.74876809  0.75063259  0.32972017  1
  Al0+  Al71  1  0.74819314  0.75145933  0.66351032  1
  Al0+  Al72  1  0.82394606  0.07081884  0.34907381  1
  Al0+  Al73  1  0.06756759  0.67842617  0.98688637  1
  Al0+  Al74  1  0.92887437  0.82134255  0.31800418  1
  Al0+  Al75  1  0.92868039  0.82160102  0.65364248  1
  Al0+  Al76  1  0.17859608  0.43052606  0.34732518  1
  Al0+  Al77  1  0.32059875  0.57508703  0.01574670  1
  Al0+  Al78  1  0.67912920  0.92736179  0.34981997  1
  Al0+  Al79  1  0.67843743  0.42684270  0.01435230  1
  Al0+  Al80  1  0.42736757  0.82168878  0.98743469  1
  Al0+  Al81  1  0.42812084  0.81977199  0.64892317  1
  Al0+  Al82  1  0.56988045  0.67466453  0.65135649  1
  Al0+  Al83  1  0.32102265  0.07038578  0.34676915  1
  Al0+  Al84  1  0.81796950  0.57385904  0.68073680  1
  Al0+  Al85  1  0.57270415  0.18069215  0.64991004  1
  Al0+  Al86  1  0.57208596  0.18181555  0.98853822  1
  Al0+  Al87  1  0.17771849  0.42722243  0.68274063  1
  Al0+  Al88  1  0.93309953  0.32078356  0.65226552  1
  Al0+  Al89  1  0.81976538  0.57483554  0.01676912  1
  Al0+  Al90  1  0.17927358  0.42755969  0.01485278  1
  Al0+  Al91  1  0.67845513  0.42964665  0.34734500  1
  Al0+  Al92  1  0.67901476  0.42509481  0.68090710  1
  Al0+  Al93  1  0.07269231  0.17973588  0.98726365  1
  Al0+  Al94  1  0.31990901  0.57312024  0.68141631  1
  Al0+  Al95  1  0.57066830  0.67639039  0.98644264  1
  Si0+  Si96  1  0.07312731  0.18118731  0.31959565  1
  Si0+  Si97  1  0.42939856  0.82266998  0.31841343  1
  Si0+  Si98  1  0.82282209  0.07029753  0.01302871  1
  Si0+  Si99  1  0.42770810  0.31963541  0.31881885  1
  Si0+  Si100  1  0.92851024  0.32186100  0.98442421  1
  Si0+  Si101  1  0.32141159  0.06846241  0.01278693  1
  Si0+  Si102  1  0.57109240  0.17930777  0.31847761  1
  Si0+  Si103  1  0.82119019  0.57195776  0.34907988  1
  Si0+  Si104  1  0.07308907  0.67753342  0.31605653  1
  Si0+  Si105  1  0.17795457  0.93110732  0.68192575  1
  Si0+  Si106  1  0.42669268  0.32215085  0.98430137  1
  Si0+  Si107  1  0.92678748  0.82363159  0.98461417  1
  Si0+  Si108  1  0.56890531  0.67694873  0.31802186  1
  Si0+  Si109  1  0.07458534  0.17678507  0.64823405  1
  Si0+  Si110  1  0.17866421  0.92655892  0.34970652  1
  Si0+  Si111  1  0.17504880  0.93032282  0.01544511  1
  Si0+  Si112  1  0.32212649  0.57360585  0.34939783  1
  Si0+  Si113  1  0.82361954  0.06913566  0.68289550  1
  Si0+  Si114  1  0.42578000  0.31963062  0.64862138  1
  Si0+  Si115  1  0.32387784  0.06833896  0.68462297  1
  Si0+  Si116  1  0.92873410  0.32167318  0.31641684  1
  Si0+  Si117  1  0.07074190  0.67761361  0.65029108  1
  Si0+  Si118  1  0.67786369  0.93255303  0.01294528  1
  Si0+  Si119  1  0.67857186  0.93056861  0.68367461  1
  O2-  O120  1  0.24968622  -0.00123060  0.05621289  1
  O2-  O121  1  0.24923456  -0.00696578  0.39444186  1
  O2-  O122  1  0.25236827  -0.00225153  0.72623050  1
  O2-  O123  1  0.24987555  0.50085393  0.06561683  1
  O2-  O124  1  0.25002242  0.50839717  0.39261760  1
  O2-  O125  1  0.24645081  0.50252793  0.73107508  1
  O2-  O126  1  0.75160533  0.00044909  0.05583421  1
  O2-  O127  1  0.75385683  -0.00278573  0.39950757  1
  O2-  O128  1  0.75187260  -0.00027248  0.72649223  1
  O2-  O129  1  0.74532260  0.50370818  0.06487493  1
  O2-  O130  1  0.75251502  0.50422972  0.39355814  1
  O2-  O131  1  0.74309813  0.50434312  0.73010898  1
  O2-  O132  1  0.00137620  0.25080901  0.27577497  1
  O2-  O133  1  0.01186272  0.25010145  0.60376244  1
  O2-  O134  1  0.00307801  0.25850960  0.94117244  1
  O2-  O135  1  0.00407720  0.74672112  0.27269393  1
  O2-  O136  1  -0.00140505  0.74281165  0.60590427  1
  O2-  O137  1  -0.01089412  0.74978685  0.94045343  1
  O2-  O138  1  0.50130741  0.25110112  0.27551170  1
  O2-  O139  1  0.50058552  0.25771866  0.60323211  1
  O2-  O140  1  0.50396660  0.26197451  0.94134076  1
  O2-  O141  1  0.49826388  0.74973583  0.27670166  1
  O2-  O142  1  0.49639594  0.74471286  0.59881496  1
  O2-  O143  1  0.49104456  0.74193299  0.93867023  1
  O2-  O144  1  0.07074917  0.17643752  0.10081146  1
  O2-  O145  1  0.07391184  0.18159019  0.42448901  1
  O2-  O146  1  0.07121627  0.17311095  0.75379793  1
  O2-  O147  1  0.06784495  0.68309247  0.10032106  1
  O2-  O148  1  0.07523155  0.67860376  0.42154397  1
  O2-  O149  1  0.07144186  0.68113936  0.75572883  1
  O2-  O150  1  0.56916368  0.17743311  0.10202504  1
  O2-  O151  1  0.56977803  0.17984214  0.42330415  1
  O2-  O152  1  0.57055366  0.17881025  0.76332693  1
  O2-  O153  1  0.57182058  0.68328551  0.10081620  1
  O2-  O154  1  0.56757502  0.67550177  0.42274417  1
  O2-  O155  1  0.57163777  0.67895671  0.76440677  1
  O2-  O156  1  0.18096471  0.42728880  0.23463445  1
  O2-  O157  1  0.17974412  0.42899787  0.56861045  1
  O2-  O158  1  0.18224224  0.42629075  0.90197914  1
  O2-  O159  1  0.17916663  0.92820743  0.24390540  1
  O2-  O160  1  0.17620967  0.93518650  0.57687564  1
  O2-  O161  1  0.16976387  0.93364791  0.91060997  1
  O2-  O162  1  0.67872100  0.42906749  0.23449535  1
  O2-  O163  1  0.68439056  0.42537134  0.56692134  1
  O2-  O164  1  0.68580112  0.42019497  0.90199178  1
  O2-  O165  1  0.67712460  0.93156570  0.23543194  1
  O2-  O166  1  0.67918903  0.93218591  0.57878496  1
  O2-  O167  1  0.67837609  0.93474840  0.90801427  1
  O2-  O168  1  0.42203021  0.31474367  0.09029926  1
  O2-  O169  1  0.42693797  0.31758702  0.42355513  1
  O2-  O170  1  0.42027648  0.31343676  0.75363686  1
  O2-  O171  1  0.43287075  0.82766378  0.10162617  1
  O2-  O172  1  0.42838596  0.82247652  0.42283537  1
  O2-  O173  1  0.43137517  0.82234064  0.76215009  1
  O2-  O174  1  0.92603687  0.31602024  0.09048955  1
  O2-  O175  1  0.92973673  0.32173647  0.42120001  1
  O2-  O176  1  0.93186491  0.31614376  0.76515150  1
  O2-  O177  1  0.93081924  0.82774603  0.09011179  1
  O2-  O178  1  0.93102106  0.82006477  0.43108035  1
  O2-  O179  1  0.93372750  0.82706077  0.76642039  1
  O2-  O180  1  0.32052451  0.07018024  0.23312433  1
  O2-  O181  1  0.32233606  0.06879200  0.57934610  1
  O2-  O182  1  0.32194039  0.06686953  0.90790567  1
  O2-  O183  1  0.32324342  0.57325948  0.24417514  1
  O2-  O184  1  0.31630375  0.57171448  0.56704654  1
  O2-  O185  1  0.31760306  0.57512214  0.90269510  1
  O2-  O186  1  0.82185121  0.07164026  0.23464020  1
  O2-  O187  1  0.82474631  0.06740689  0.57809496  1
  O2-  O188  1  0.82399909  0.06896557  0.90792223  1
  O2-  O189  1  0.82154570  0.57055420  0.24366085  1
  O2-  O190  1  0.81766615  0.57281404  0.56660898  1
  O2-  O191  1  0.82030835  0.57459595  0.90368118  1
  O2-  O192  1  0.04859437  0.08832406  0.27215147  1
  O2-  O193  1  0.04367483  0.08587184  0.59973828  1
  O2-  O194  1  0.03820992  0.08530099  0.93040704  1
  O2-  O195  1  0.04543298  0.58428834  0.27000151  1
  O2-  O196  1  0.04911341  0.58264917  0.60636222  1
  O2-  O197  1  0.04076705  0.58047898  0.93434030  1
  O2-  O198  1  0.54164358  0.08665969  0.27336926  1
  O2-  O199  1  0.53745521  0.08611796  0.59493951  1
  O2-  O200  1  0.53586427  0.08902399  0.93072621  1
  O2-  O201  1  0.53943972  0.58548013  0.27038160  1
  O2-  O202  1  0.54349218  0.57431171  0.60018630  1
  O2-  O203  1  0.55316967  0.57395116  0.93900681  1
  O2-  O204  1  0.16530860  0.21042727  0.27313964  1
  O2-  O205  1  0.17155635  0.19492984  0.60639254  1
  O2-  O206  1  0.17020932  0.20280711  0.93153486  1
  O2-  O207  1  0.16680440  0.70319290  0.26915476  1
  O2-  O208  1  0.16159678  0.70856145  0.60162313  1
  O2-  O209  1  0.16108594  0.71470973  0.93088263  1
  O2-  O210  1  0.66420210  0.20563973  0.27250758  1
  O2-  O211  1  0.67044600  0.20511564  0.59565253  1
  O2-  O212  1  0.67064247  0.20505167  0.93437765  1
  O2-  O213  1  0.66069087  0.70388540  0.27055615  1
  O2-  O214  1  0.66625126  0.70893715  0.59671832  1
  O2-  O215  1  0.66610337  0.71450407  0.93310557  1
  O2-  O216  1  0.07990081  0.45312745  0.06711622  1
  O2-  O217  1  0.08083013  0.45940546  0.40009991  1
  O2-  O218  1  0.07805769  0.45040417  0.73338247  1
  O2-  O219  1  0.08572103  0.96336267  0.06568632  1
  O2-  O220  1  0.08661183  0.95562144  0.39625338  1
  O2-  O221  1  0.08849623  0.96389026  0.73129269  1
  O2-  O222  1  0.57751197  0.44503966  0.06670713  1
  O2-  O223  1  0.58055686  0.45682182  0.40058227  1
  O2-  O224  1  0.57570050  0.43740562  0.72755413  1
  O2-  O225  1  0.58768228  0.96544395  0.06094296  1
  O2-  O226  1  0.58343415  0.95850662  0.40573389  1
  O2-  O227  1  0.58794351  0.96374232  0.72968552  1
  O2-  O228  1  0.20982491  0.32767518  0.06626573  1
  O2-  O229  1  0.21145228  0.33623987  0.40397371  1
  O2-  O230  1  0.20728175  0.32722054  0.73219700  1
  O2-  O231  1  0.19820127  0.83870291  0.06403504  1
  O2-  O232  1  0.20150003  0.83212215  0.39500117  1
  O2-  O233  1  0.20086403  0.83770408  0.72739774  1
  O2-  O234  1  0.71393740  0.32959877  0.06959638  1
  O2-  O235  1  0.70959352  0.33292959  0.39964671  1
  O2-  O236  1  0.71722224  0.32774333  0.73039039  1
  O2-  O237  1  0.70185403  0.84124276  0.06238963  1
  O2-  O238  1  0.70539000  0.82766386  0.40031987  1
  O2-  O239  1  0.70525728  0.83869669  0.73012141  1
  O2-  O240  1  0.45204660  0.41268796  0.27206048  1
  O2-  O241  1  0.44204582  0.41536548  0.60444405  1
  O2-  O242  1  0.44139995  0.41907920  0.94361625  1
  O2-  O243  1  0.45920556  0.91519845  0.27275705  1
  O2-  O244  1  0.46115255  0.91730757  0.59620659  1
  O2-  O245  1  0.46296149  0.91650058  0.93104778  1
  O2-  O246  1  0.95559174  0.41394913  0.26936079  1
  O2-  O247  1  0.95921795  0.41782645  0.59570140  1
  O2-  O248  1  0.94693506  0.41765685  0.94249900  1
  O2-  O249  1  0.96051233  0.91879239  0.26477514  1
  O2-  O250  1  0.96566406  0.91579431  0.59730642  1
  O2-  O251  1  0.95832073  0.91486507  0.93662320  1
  O2-  O252  1  0.33697077  0.28717822  0.27173417  1
  O2-  O253  1  0.33541622  0.28456015  0.59957742  1
  O2-  O254  1  0.33898621  0.28587202  0.93357065  1
  O2-  O255  1  0.33578193  0.79958646  0.27112153  1
  O2-  O256  1  0.32704469  0.79993944  0.59628758  1
  O2-  O257  1  0.32480502  0.80735353  0.93887954  1
  O2-  O258  1  0.83764202  0.29086244  0.26898137  1
  O2-  O259  1  0.84060246  0.28343363  0.59428505  1
  O2-  O260  1  0.83950678  0.28736107  0.93507882  1
  O2-  O261  1  0.83150472  0.79334799  0.26352410  1
  O2-  O262  1  0.83122459  0.79682426  0.59881594  1
  O2-  O263  1  0.83048099  0.80634045  0.94207672  1
  O2-  O264  1  0.41278959  0.03957028  0.06135224  1
  O2-  O265  1  0.41643302  0.04163474  0.40314055  1
  O2-  O266  1  0.41607091  0.03940866  0.73019369  1
  O2-  O267  1  0.41929371  0.54900021  0.06964011  1
  O2-  O268  1  0.41343556  0.54324869  0.39696153  1
  O2-  O269  1  0.41744371  0.54290005  0.73426040  1
  O2-  O270  1  0.91416900  0.04207614  0.06168819  1
  O2-  O271  1  0.92358533  0.04587030  0.40107523  1
  O2-  O272  1  0.91556772  0.04027107  0.72992966  1
  O2-  O273  1  0.91674789  0.54508774  0.07222849  1
  O2-  O274  1  0.91496127  0.54743099  0.39492392  1
  O2-  O275  1  0.91619430  0.54229148  0.73161531  1
  O2-  O276  1  0.29414331  0.15983382  0.06084583  1
  O2-  O277  1  0.28758817  0.16370727  0.40505993  1
  O2-  O278  1  0.29703985  0.15927897  0.73345015  1
  O2-  O279  1  0.28928788  0.67405135  0.06782195  1
  O2-  O280  1  0.30067736  0.66902271  0.39386078  1
  O2-  O281  1  0.29391917  0.67391204  0.73059766  1
  O2-  O282  1  0.79638797  0.16154797  0.06132185  1
  O2-  O283  1  0.79382670  0.16799981  0.40240380  1
  O2-  O284  1  0.79583780  0.16097104  0.72898905  1
  O2-  O285  1  0.79305867  0.67473453  0.06937793  1
  O2-  O286  1  0.79597292  0.66657810  0.39195270  1
  O2-  O287  1  0.79525042  0.67444262  0.73222827  1
