# generated using pymatgen
data_Ca2Al2SiO7
_symmetry_space_group_name_H-M   'P 1'
_cell_length_a   15.45990365
_cell_length_b   15.45899848
_cell_length_c   15.28518196
_cell_angle_alpha   90.00083157
_cell_angle_beta   89.99177261
_cell_angle_gamma   89.98615006
_symmetry_Int_Tables_number   1
_chemical_formula_structural   Ca2Al2SiO7
_chemical_formula_sum   'Ca48 Al48 Si24 O168'
_cell_volume   3653.07621729
_cell_formula_units_Z   24
loop_
 _symmetry_equiv_pos_site_id
 _symmetry_equiv_pos_as_xyz
  1  'x, y, z'
loop_
 _atom_type_symbol
 _atom_type_oxidation_number
  Ca2+  2.0
  Al0+  0.0
  Si0+  0.0
  O2-  -2.0
loop_
 _atom_site_type_symbol
 _atom_site_label
 _atom_site_symmetry_multiplicity
 _atom_site_fract_x
 _atom_site_fract_y
 _atom_site_fract_z
 _atom_site_occupancy
  Ca2+  Ca0  1  0.17157911  0.09039722  0.17046431  1
  Ca2+  Ca1  1  0.16304870  0.08066434  0.50492605  1
  Ca2+  Ca2  1  0.16941752  0.07682668  0.83840787  1
  Ca2+  Ca3  1  0.17084155  0.58420567  0.17067156  1
  Ca2+  Ca4  1  0.17252007  0.58766311  0.50475868  1
  Ca2+  Ca5  1  0.16203146  0.58649691  0.83745201  1
  Ca2+  Ca6  1  0.67918059  0.08093248  0.17620054  1
  Ca2+  Ca7  1  0.67328196  0.08759912  0.50242725  1
  Ca2+  Ca8  1  0.67486743  0.08653159  0.83647447  1
  Ca2+  Ca9  1  0.66602866  0.57442111  0.16590161  1
  Ca2+  Ca10  1  0.66789063  0.57427943  0.49985012  1
  Ca2+  Ca11  1  0.67415758  0.57649651  0.84613908  1
  Ca2+  Ca12  1  0.07645656  0.32706781  0.16233999  1
  Ca2+  Ca13  1  0.07404756  0.32646637  0.49567247  1
  Ca2+  Ca14  1  0.06751266  0.33392690  0.83128792  1
  Ca2+  Ca15  1  0.07027730  0.82707574  0.15995253  1
  Ca2+  Ca16  1  0.07244090  0.84076994  0.49914785  1
  Ca2+  Ca17  1  0.07552734  0.82664722  0.82851192  1
  Ca2+  Ca18  1  0.57879224  0.33868741  0.16445198  1
  Ca2+  Ca19  1  0.58027920  0.32220704  0.49436082  1
  Ca2+  Ca20  1  0.57556850  0.33113093  0.82786941  1
  Ca2+  Ca21  1  0.58983443  0.82738211  0.16229644  1
  Ca2+  Ca22  1  0.58564811  0.83397320  0.49298144  1
  Ca2+  Ca23  1  0.58936141  0.82465400  0.83393356  1
  Ca2+  Ca24  1  0.33772294  0.41866045  0.17353349  1
  Ca2+  Ca25  1  0.33922946  0.41620817  0.49945757  1
  Ca2+  Ca26  1  0.33296527  0.41056289  0.83847034  1
  Ca2+  Ca27  1  0.33354639  0.92520197  0.16824250  1
  Ca2+  Ca28  1  0.32331921  0.91928620  0.51001352  1
  Ca2+  Ca29  1  0.32594418  0.92289081  0.83916745  1
  Ca2+  Ca30  1  0.82469182  0.41749106  0.16663469  1
  Ca2+  Ca31  1  0.82670809  0.40808695  0.50409095  1
  Ca2+  Ca32  1  0.82928182  0.41727279  0.84665354  1
  Ca2+  Ca33  1  0.83441703  0.92089407  0.17371501  1
  Ca2+  Ca34  1  0.83705265  0.92569552  0.50177195  1
  Ca2+  Ca35  1  0.84353995  0.92632386  0.83680121  1
  Ca2+  Ca36  1  0.42341814  0.17540164  0.15991374  1
  Ca2+  Ca37  1  0.42848593  0.17378446  0.49114905  1
  Ca2+  Ca38  1  0.42172653  0.17361085  0.82757873  1
  Ca2+  Ca39  1  0.42202870  0.66449576  0.16266195  1
  Ca2+  Ca40  1  0.41521901  0.66693815  0.49431927  1
  Ca2+  Ca41  1  0.42575067  0.66422179  0.83350515  1
  Ca2+  Ca42  1  0.91721215  0.16298358  0.16358545  1
  Ca2+  Ca43  1  0.91666399  0.16263232  0.49717691  1
  Ca2+  Ca44  1  0.90184485  0.17608240  0.83114393  1
  Ca2+  Ca45  1  0.91238509  0.67683695  0.15551029  1
  Ca2+  Ca46  1  0.92009179  0.68011359  0.49655012  1
  Ca2+  Ca47  1  0.92113312  0.67431977  0.82816499  1
  Al0+  Al48  1  0.00234413  -0.00173102  0.00129348  1
  Al0+  Al49  1  0.00059152  -0.00033261  0.32698228  1
  Al0+  Al50  1  -0.00009220  0.00004617  0.67484895  1
  Al0+  Al51  1  0.00041574  0.49878568  -0.00023504  1
  Al0+  Al52  1  0.00193440  0.50055372  0.33478110  1
  Al0+  Al53  1  0.00131539  0.50071791  0.65688895  1
  Al0+  Al54  1  0.49855316  0.00076671  0.00393874  1
  Al0+  Al55  1  0.49972822  0.00057928  0.33265213  1
  Al0+  Al56  1  0.50191609  -0.00198676  0.66544859  1
  Al0+  Al57  1  0.49876553  0.50011217  -0.00573796  1
  Al0+  Al58  1  0.50008275  0.50156502  0.34028783  1
  Al0+  Al59  1  0.49958665  0.50025360  0.66436311  1
  Al0+  Al60  1  0.25043932  0.25030999  0.00030529  1
  Al0+  Al61  1  0.24875091  0.25194328  0.32869882  1
  Al0+  Al62  1  0.24971529  0.25306919  0.66496755  1
  Al0+  Al63  1  0.24960684  0.75044828  -0.00177372  1
  Al0+  Al64  1  0.25039399  0.74987685  0.33687491  1
  Al0+  Al65  1  0.25158958  0.74905557  0.67130456  1
  Al0+  Al66  1  0.74823449  0.24766489  0.00675165  1
  Al0+  Al67  1  0.75006645  0.25047432  0.33790458  1
  Al0+  Al68  1  0.74756720  0.24970701  0.66419839  1
  Al0+  Al69  1  0.74987615  0.75001252  -0.00755394  1
  Al0+  Al70  1  0.74942020  0.74989456  0.33302812  1
  Al0+  Al71  1  0.75098344  0.74955367  0.66162534  1
  Al0+  Al72  1  0.82299453  0.57179283  0.01272614  1
  Al0+  Al73  1  0.43154838  0.32203570  0.31697747  1
  Al0+  Al74  1  0.31914174  0.57010788  0.34694629  1
  Al0+  Al75  1  0.67649169  0.42856750  0.01390557  1
  Al0+  Al76  1  0.82278691  0.06970571  0.34933765  1
  Al0+  Al77  1  0.68045505  0.43039155  0.34897540  1
  Al0+  Al78  1  0.92776106  0.32111735  0.65399355  1
  Al0+  Al79  1  0.17921550  0.92918008  0.68201778  1
  Al0+  Al80  1  0.92970036  0.82342842  0.64956059  1
  Al0+  Al81  1  0.07342921  0.67923819  0.64905965  1
  Al0+  Al82  1  0.06917456  0.17929996  0.32017855  1
  Al0+  Al83  1  0.56991719  0.67944770  0.98703852  1
  Al0+  Al84  1  0.32038709  0.07238505  0.01411658  1
  Al0+  Al85  1  0.81838627  0.07036070  0.68187390  1
  Al0+  Al86  1  0.07208069  0.67755072  0.98627368  1
  Al0+  Al87  1  0.92778535  0.82242639  0.98298363  1
  Al0+  Al88  1  0.67768774  0.92725810  0.34780564  1
  Al0+  Al89  1  0.92751328  0.31733057  0.98991231  1
  Al0+  Al90  1  0.57061551  0.17721590  0.65184671  1
  Al0+  Al91  1  0.42916095  0.32065440  0.98564174  1
  Al0+  Al92  1  0.42716163  0.32208768  0.64977319  1
  Al0+  Al93  1  0.92907400  0.81891121  0.31818610  1
  Al0+  Al94  1  0.57333986  0.17714306  0.31494282  1
  Al0+  Al95  1  0.82148361  0.06965791  0.01474233  1
  Si0+  Si96  1  0.32056782  0.57138923  0.01314451  1
  Si0+  Si97  1  0.17840925  0.42855881  0.01480198  1
  Si0+  Si98  1  0.82416074  0.57310703  0.35051606  1
  Si0+  Si99  1  0.07321016  0.17814142  0.98289474  1
  Si0+  Si100  1  0.57140188  0.17595457  0.98408028  1
  Si0+  Si101  1  0.57144720  0.67868802  0.64964689  1
  Si0+  Si102  1  0.82172996  0.57120450  0.67922383  1
  Si0+  Si103  1  0.18146201  0.93043196  0.34705824  1
  Si0+  Si104  1  0.07213662  0.17849145  0.65410634  1
  Si0+  Si105  1  0.32061947  0.07384500  0.34861816  1
  Si0+  Si106  1  0.32193380  0.57024195  0.68498043  1
  Si0+  Si107  1  0.67673943  0.92707051  0.01463418  1
  Si0+  Si108  1  0.42744073  0.82397006  0.98372930  1
  Si0+  Si109  1  0.56932546  0.68023850  0.31976891  1
  Si0+  Si110  1  0.67947474  0.43066112  0.68215351  1
  Si0+  Si111  1  0.42571670  0.82173185  0.31972016  1
  Si0+  Si112  1  0.17753048  0.42939009  0.68205778  1
  Si0+  Si113  1  0.17657004  0.42637809  0.35170531  1
  Si0+  Si114  1  0.67639208  0.92423940  0.68461806  1
  Si0+  Si115  1  0.42980622  0.81941859  0.65312767  1
  Si0+  Si116  1  0.07415483  0.67819559  0.31715477  1
  Si0+  Si117  1  0.32379706  0.07279743  0.68126673  1
  Si0+  Si118  1  0.17992377  0.92691208  0.01980950  1
  Si0+  Si119  1  0.92686691  0.32476498  0.31640619  1
  O2-  O120  1  0.24628055  -0.00185811  0.06362525  1
  O2-  O121  1  0.25088272  0.00205043  0.39170406  1
  O2-  O122  1  0.25390319  0.00575032  0.72648353  1
  O2-  O123  1  0.24849270  0.50187540  0.05526438  1
  O2-  O124  1  0.24451314  0.49643304  0.39533818  1
  O2-  O125  1  0.24990847  0.49945016  0.72544446  1
  O2-  O126  1  0.74784020  -0.00736867  0.05882121  1
  O2-  O127  1  0.74743267  0.00045660  0.39907706  1
  O2-  O128  1  0.74450092  -0.00641067  0.72798984  1
  O2-  O129  1  0.75029181  0.50016466  0.06260111  1
  O2-  O130  1  0.76064834  0.50007770  0.39609342  1
  O2-  O131  1  0.75261166  0.49943614  0.72374168  1
  O2-  O132  1  -0.00599008  0.25371474  0.27390540  1
  O2-  O133  1  0.00220324  0.24524484  0.60922996  1
  O2-  O134  1  -0.00117846  0.24070190  0.93929928  1
  O2-  O135  1  -0.00015598  0.73955196  0.27273978  1
  O2-  O136  1  0.00329254  0.75266450  0.59926869  1
  O2-  O137  1  -0.00167442  0.74706910  0.93603146  1
  O2-  O138  1  0.50231616  0.25047226  0.26497305  1
  O2-  O139  1  0.49564923  0.24642172  0.60224528  1
  O2-  O140  1  0.50376284  0.24598629  0.93986843  1
  O2-  O141  1  0.50148483  0.75530852  0.27866708  1
  O2-  O142  1  0.50231034  0.75169111  0.60797000  1
  O2-  O143  1  0.49718259  0.75639251  0.93937496  1
  O2-  O144  1  0.07569836  0.18228810  0.08856055  1
  O2-  O145  1  0.07028688  0.17926160  0.43371086  1
  O2-  O146  1  0.07584917  0.18179672  0.75942815  1
  O2-  O147  1  0.07695610  0.68105742  0.09991302  1
  O2-  O148  1  0.07692495  0.68218445  0.42246933  1
  O2-  O149  1  0.07138234  0.67828109  0.76229956  1
  O2-  O150  1  0.56898616  0.17416297  0.08914610  1
  O2-  O151  1  0.56971856  0.17697561  0.42857013  1
  O2-  O152  1  0.57020852  0.17977712  0.76589479  1
  O2-  O153  1  0.56589313  0.67907098  0.10032896  1
  O2-  O154  1  0.56702065  0.68034860  0.42539426  1
  O2-  O155  1  0.56974090  0.67716064  0.75465643  1
  O2-  O156  1  0.17527697  0.42733939  0.24604725  1
  O2-  O157  1  0.17790665  0.42932856  0.57721431  1
  O2-  O158  1  0.17926014  0.42680804  0.90945757  1
  O2-  O159  1  0.18590939  0.92899506  0.24232178  1
  O2-  O160  1  0.18124876  0.93143473  0.56814471  1
  O2-  O161  1  0.18280225  0.92671519  0.91406594  1
  O2-  O162  1  0.67768041  0.43512264  0.23629367  1
  O2-  O163  1  0.67914170  0.43314257  0.57694007  1
  O2-  O164  1  0.67670721  0.42999068  0.89967488  1
  O2-  O165  1  0.68014489  0.92362908  0.23424974  1
  O2-  O166  1  0.67444283  0.92277093  0.57945355  1
  O2-  O167  1  0.67277061  0.92962588  0.90895696  1
  O2-  O168  1  0.42852569  0.32257808  0.09817544  1
  O2-  O169  1  0.43203977  0.31975523  0.43033389  1
  O2-  O170  1  0.42863585  0.32272071  0.76364937  1
  O2-  O171  1  0.42602753  0.82251499  0.08950196  1
  O2-  O172  1  0.42202101  0.81880825  0.42513255  1
  O2-  O173  1  0.43025286  0.81721143  0.75810647  1
  O2-  O174  1  0.93126826  0.31773794  0.10269102  1
  O2-  O175  1  0.93026091  0.32590304  0.42234243  1
  O2-  O176  1  0.92743674  0.32265111  0.76730800  1
  O2-  O177  1  0.92936228  0.82157434  0.09691073  1
  O2-  O178  1  0.93220725  0.82101374  0.43112145  1
  O2-  O179  1  0.92980585  0.82107381  0.76252964  1
  O2-  O180  1  0.31903418  0.07224635  0.24356206  1
  O2-  O181  1  0.32284145  0.06941131  0.57542565  1
  O2-  O182  1  0.31850712  0.06992116  0.90063304  1
  O2-  O183  1  0.31823182  0.57195408  0.23358023  1
  O2-  O184  1  0.32302565  0.57209067  0.57994800  1
  O2-  O185  1  0.32130778  0.57084848  0.90787017  1
  O2-  O186  1  0.82445617  0.06564619  0.23576638  1
  O2-  O187  1  0.81976940  0.06982335  0.56926601  1
  O2-  O188  1  0.81788247  0.07183770  0.90149957  1
  O2-  O189  1  0.82198000  0.57422655  0.24521745  1
  O2-  O190  1  0.81704848  0.57138863  0.57400687  1
  O2-  O191  1  0.82166627  0.56917102  0.89845004  1
  O2-  O192  1  0.04268238  0.08380981  0.26221457  1
  O2-  O193  1  0.04740880  0.08424584  0.61008618  1
  O2-  O194  1  0.05593989  0.08136335  0.94175886  1
  O2-  O195  1  0.05744376  0.58096113  0.27543270  1
  O2-  O196  1  0.04641119  0.58211644  0.59299668  1
  O2-  O197  1  0.04931570  0.57748915  0.93457323  1
  O2-  O198  1  0.54357080  0.07811268  0.26347649  1
  O2-  O199  1  0.54754230  0.07665858  0.60028268  1
  O2-  O200  1  0.54349921  0.08294950  0.93745458  1
  O2-  O201  1  0.53533108  0.59081498  0.27300313  1
  O2-  O202  1  0.53953549  0.58869435  0.60140333  1
  O2-  O203  1  0.53483237  0.58654546  0.92840384  1
  O2-  O204  1  0.16461342  0.21159908  0.26391869  1
  O2-  O205  1  0.16463784  0.20446725  0.60540899  1
  O2-  O206  1  0.16400132  0.20962497  0.93509684  1
  O2-  O207  1  0.16604143  0.70979239  0.27047013  1
  O2-  O208  1  0.17500152  0.70539175  0.60111090  1
  O2-  O209  1  0.17043703  0.70731642  0.93183238  1
  O2-  O210  1  0.67398080  0.20434835  0.26733666  1
  O2-  O211  1  0.66573489  0.21114625  0.59678098  1
  O2-  O212  1  0.66539378  0.20125785  0.93989817  1
  O2-  O213  1  0.66144916  0.70386695  0.27191389  1
  O2-  O214  1  0.66300736  0.70339167  0.60104827  1
  O2-  O215  1  0.66452961  0.70783244  0.92803366  1
  O2-  O216  1  0.08772575  0.45437156  0.06476587  1
  O2-  O217  1  0.08280723  0.45032687  0.39909533  1
  O2-  O218  1  0.08525023  0.45910117  0.72821385  1
  O2-  O219  1  0.08611362  0.95041044  0.06525563  1
  O2-  O220  1  0.08961638  0.95961162  0.39254580  1
  O2-  O221  1  0.08513197  0.95952305  0.73978878  1
  O2-  O222  1  0.57885885  0.46329504  0.06541987  1
  O2-  O223  1  0.58749197  0.46853349  0.40566885  1
  O2-  O224  1  0.58764436  0.46192834  0.72795237  1
  O2-  O225  1  0.58321994  0.95081769  0.06228738  1
  O2-  O226  1  0.57594427  0.94976196  0.39869147  1
  O2-  O227  1  0.58163443  0.94651186  0.73109905  1
  O2-  O228  1  0.20861370  0.33827897  0.06356880  1
  O2-  O229  1  0.20385161  0.33331823  0.39825237  1
  O2-  O230  1  0.20379053  0.33751180  0.73105530  1
  O2-  O231  1  0.20958494  0.83439727  0.06622239  1
  O2-  O232  1  0.21071809  0.84004903  0.39669610  1
  O2-  O233  1  0.21460535  0.83407884  0.73661899  1
  O2-  O234  1  0.70227573  0.33092846  0.06832432  1
  O2-  O235  1  0.70757951  0.33365301  0.40456803  1
  O2-  O236  1  0.70454142  0.33801187  0.72781228  1
  O2-  O237  1  0.69911118  0.83139639  0.05704297  1
  O2-  O238  1  0.70426028  0.82790125  0.40120127  1
  O2-  O239  1  0.70241896  0.82940786  0.72892694  1
  O2-  O240  1  0.46016691  0.42288245  0.26869915  1
  O2-  O241  1  0.45821204  0.42044650  0.59819015  1
  O2-  O242  1  0.45718583  0.41665024  0.92930578  1
  O2-  O243  1  0.44720532  0.91491203  0.27303375  1
  O2-  O244  1  0.45259663  0.91194358  0.60501145  1
  O2-  O245  1  0.45112079  0.91801360  0.93794854  1
  O2-  O246  1  0.95495426  0.41824512  0.27079262  1
  O2-  O247  1  0.95944102  0.41484021  0.59568381  1
  O2-  O248  1  0.96093589  0.41283968  0.93522141  1
  O2-  O249  1  0.96516109  0.91251647  0.26295963  1
  O2-  O250  1  0.96165358  0.92261027  0.60010051  1
  O2-  O251  1  0.96240416  0.91971659  0.93096661  1
  O2-  O252  1  0.33106140  0.29744713  0.26675598  1
  O2-  O253  1  0.32654991  0.30034085  0.59838866  1
  O2-  O254  1  0.33232757  0.28895832  0.93197949  1
  O2-  O255  1  0.33683310  0.78832107  0.26989271  1
  O2-  O256  1  0.33926309  0.78858643  0.60509372  1
  O2-  O257  1  0.33538439  0.79589483  0.93617358  1
  O2-  O258  1  0.83184614  0.30279942  0.27402967  1
  O2-  O259  1  0.83212385  0.29054955  0.59977443  1
  O2-  O260  1  0.82959948  0.28863452  0.93678124  1
  O2-  O261  1  0.83145778  0.78952563  0.26572742  1
  O2-  O262  1  0.83146137  0.79326040  0.59647266  1
  O2-  O263  1  0.82911758  0.79964382  0.92898169  1
  O2-  O264  1  0.41566812  0.04039175  0.07056690  1
  O2-  O265  1  0.41225675  0.04579567  0.39537143  1
  O2-  O266  1  0.41642304  0.04417325  0.72784907  1
  O2-  O267  1  0.41157537  0.54202168  0.06044141  1
  O2-  O268  1  0.41442360  0.54189883  0.40487088  1
  O2-  O269  1  0.41439768  0.54159057  0.73167833  1
  O2-  O270  1  0.92077255  0.04283371  0.06568645  1
  O2-  O271  1  0.92187027  0.03745507  0.40030910  1
  O2-  O272  1  0.91534651  0.04379663  0.73748978  1
  O2-  O273  1  0.92104462  0.54465615  0.06698511  1
  O2-  O274  1  0.92040667  0.55421310  0.39457514  1
  O2-  O275  1  0.91599888  0.54565665  0.72158552  1
  O2-  O276  1  0.28825757  0.16808732  0.06919448  1
  O2-  O277  1  0.29060282  0.16528038  0.39495288  1
  O2-  O278  1  0.29954700  0.16792636  0.72484638  1
  O2-  O279  1  0.29599479  0.66430807  0.06056664  1
  O2-  O280  1  0.28872086  0.66669261  0.40378575  1
  O2-  O281  1  0.29702938  0.66188599  0.73417588  1
  O2-  O282  1  0.79022318  0.16417320  0.07175763  1
  O2-  O283  1  0.80033671  0.17016650  0.40057108  1
  O2-  O284  1  0.78366902  0.16721739  0.73469606  1
  O2-  O285  1  0.79163252  0.67089129  0.06265647  1
  O2-  O286  1  0.79171676  0.66389562  0.39830721  1
  O2-  O287  1  0.79196439  0.66288254  0.72595264  1
