# generated using pymatgen
data_Ca2Al2SiO7
_symmetry_space_group_name_H-M   'P 1'
_cell_length_a   15.46027362
_cell_length_b   15.45947730
_cell_length_c   15.28556111
_cell_angle_alpha   90.00376651
_cell_angle_beta   90.00438782
_cell_angle_gamma   90.01665854
_symmetry_Int_Tables_number   1
_chemical_formula_structural   Ca2Al2SiO7
_chemical_formula_sum   'Ca48 Al48 Si24 O168'
_cell_volume   3653.36738125
_cell_formula_units_Z   24
loop_
 _symmetry_equiv_pos_site_id
 _symmetry_equiv_pos_as_xyz
  1  'x, y, z'
loop_
 _atom_type_symbol
 _atom_type_oxidation_number
  Ca2+  2.0
  Al0+  0.0
  Si0+  0.0
  O2-  -2.0
loop_
 _atom_site_type_symbol
 _atom_site_label
 _atom_site_symmetry_multiplicity
 _atom_site_fract_x
 _atom_site_fract_y
 _atom_site_fract_z
 _atom_site_occupancy
  Ca2+  Ca0  1  0.16842058  0.08205658  0.16765512  1
  Ca2+  Ca1  1  0.16391226  0.07674876  0.49905200  1
  Ca2+  Ca2  1  0.17124023  0.08785037  0.84339435  1
  Ca2+  Ca3  1  0.16571619  0.57472081  0.17429583  1
  Ca2+  Ca4  1  0.17479840  0.57576437  0.50749582  1
  Ca2+  Ca5  1  0.15396216  0.57644526  0.83424495  1
  Ca2+  Ca6  1  0.67653950  0.07458902  0.17403388  1
  Ca2+  Ca7  1  0.67522765  0.08820537  0.50083606  1
  Ca2+  Ca8  1  0.68273838  0.07571207  0.84178463  1
  Ca2+  Ca9  1  0.67176193  0.58275258  0.17442273  1
  Ca2+  Ca10  1  0.67098232  0.57188483  0.50018424  1
  Ca2+  Ca11  1  0.66427519  0.57848281  0.83683994  1
  Ca2+  Ca12  1  0.08616328  0.33186627  0.15955041  1
  Ca2+  Ca13  1  0.08073822  0.34007561  0.49830721  1
  Ca2+  Ca14  1  0.08100580  0.33140004  0.82963936  1
  Ca2+  Ca15  1  0.07825988  0.82743479  0.15734172  1
  Ca2+  Ca16  1  0.07991483  0.82983737  0.49688005  1
  Ca2+  Ca17  1  0.07276505  0.82727606  0.82614574  1
  Ca2+  Ca18  1  0.57988169  0.33340618  0.17008633  1
  Ca2+  Ca19  1  0.58240211  0.33412650  0.48764447  1
  Ca2+  Ca20  1  0.58320158  0.33254686  0.82548348  1
  Ca2+  Ca21  1  0.59108205  0.83031576  0.15923699  1
  Ca2+  Ca22  1  0.58196706  0.83378015  0.49300195  1
  Ca2+  Ca23  1  0.58770987  0.82960128  0.83586828  1
  Ca2+  Ca24  1  0.32277344  0.42031570  0.17489337  1
  Ca2+  Ca25  1  0.32780747  0.42189808  0.50312020  1
  Ca2+  Ca26  1  0.31908447  0.42252666  0.83623510  1
  Ca2+  Ca27  1  0.32722264  0.92164059  0.17042847  1
  Ca2+  Ca28  1  0.32461765  0.91329451  0.50006672  1
  Ca2+  Ca29  1  0.33047297  0.92442004  0.83972471  1
  Ca2+  Ca30  1  0.82942527  0.42781198  0.17711488  1
  Ca2+  Ca31  1  0.82502929  0.41384530  0.50456699  1
  Ca2+  Ca32  1  0.83185290  0.41239900  0.83142015  1
  Ca2+  Ca33  1  0.82987891  0.92150091  0.17082681  1
  Ca2+  Ca34  1  0.83271408  0.92731212  0.50262282  1
  Ca2+  Ca35  1  0.83849057  0.92044056  0.84010644  1
  Ca2+  Ca36  1  0.41925860  0.16965951  0.16435391  1
  Ca2+  Ca37  1  0.42739192  0.17756268  0.48522023  1
  Ca2+  Ca38  1  0.41704912  0.16658077  0.83039436  1
  Ca2+  Ca39  1  0.42243248  0.66397629  0.16417367  1
  Ca2+  Ca40  1  0.41257294  0.66017625  0.49558842  1
  Ca2+  Ca41  1  0.42158051  0.66079315  0.83084169  1
  Ca2+  Ca42  1  0.91923214  0.16360716  0.16202836  1
  Ca2+  Ca43  1  0.90878549  0.17051401  0.49833116  1
  Ca2+  Ca44  1  0.91917627  0.16501770  0.82841192  1
  Ca2+  Ca45  1  0.91837215  0.67228096  0.15610004  1
  Ca2+  Ca46  1  0.91897440  0.66682855  0.49787412  1
  Ca2+  Ca47  1  0.92500289  0.67822121  0.82840682  1
  Al0+  Al48  1  0.00200306  0.00200030  -0.00415758  1
  Al0+  Al49  1  -0.00047712  0.00002305  0.33984946  1
  Al0+  Al50  1  0.00087513  -0.00050606  0.66613644  1
  Al0+  Al51  1  -0.00261336  0.49814862  0.00037299  1
  Al0+  Al52  1  0.00121907  0.50099573  0.33853657  1
  Al0+  Al53  1  -0.00134169  0.49903319  0.66220813  1
  Al0+  Al54  1  0.50053883  0.00086551  0.00601621  1
  Al0+  Al55  1  0.49983380  -0.00004548  0.33088376  1
  Al0+  Al56  1  0.50169303  -0.00165276  0.66522336  1
  Al0+  Al57  1  0.49720011  0.49939330  -0.00449229  1
  Al0+  Al58  1  0.49961573  0.50109983  0.33287327  1
  Al0+  Al59  1  0.49915435  0.49914055  0.67344052  1
  Al0+  Al60  1  0.24957272  0.25171555  0.00356597  1
  Al0+  Al61  1  0.24947653  0.25003071  0.33301890  1
  Al0+  Al62  1  0.25124690  0.25099482  0.66760183  1
  Al0+  Al63  1  0.25271273  0.74840877  -0.00508087  1
  Al0+  Al64  1  0.24954701  0.75012351  0.33789991  1
  Al0+  Al65  1  0.25234938  0.75076555  0.66825258  1
  Al0+  Al66  1  0.74766039  0.24918253  0.00420882  1
  Al0+  Al67  1  0.75057828  0.24983713  0.33134436  1
  Al0+  Al68  1  0.75149903  0.24758545  0.67247385  1
  Al0+  Al69  1  0.74901232  0.74828013  -0.00783913  1
  Al0+  Al70  1  0.75067382  0.75252649  0.34100279  1
  Al0+  Al71  1  0.74812634  0.74966488  0.66049068  1
  Al0+  Al72  1  0.92777081  0.82289490  0.64731986  1
  Al0+  Al73  1  0.42806413  0.32321407  0.31665882  1
  Al0+  Al74  1  0.17822614  0.42582596  0.34936772  1
  Al0+  Al75  1  0.57352570  0.17783958  0.31540882  1
  Al0+  Al76  1  0.68146122  0.92688051  0.01371278  1
  Al0+  Al77  1  0.82096170  0.06855658  0.68234899  1
  Al0+  Al78  1  0.07210664  0.67921591  0.64868018  1
  Al0+  Al79  1  0.17932956  0.92950474  0.34538911  1
  Al0+  Al80  1  0.67654599  0.92875717  0.34939174  1
  Al0+  Al81  1  0.68045123  0.42905824  0.68104711  1
  Al0+  Al82  1  0.82308684  0.57398571  0.34808167  1
  Al0+  Al83  1  0.68025608  0.43020229  0.34532847  1
  Al0+  Al84  1  0.92972360  0.82147483  0.98625855  1
  Al0+  Al85  1  0.92895256  0.31806116  0.65317542  1
  Al0+  Al86  1  0.07288431  0.67550404  0.98679760  1
  Al0+  Al87  1  0.56971805  0.67822407  0.98655012  1
  Al0+  Al88  1  0.17731636  0.43216430  0.01421214  1
  Al0+  Al89  1  0.07104961  0.18147371  0.98841019  1
  Al0+  Al90  1  0.32035406  0.57103991  0.34635893  1
  Al0+  Al91  1  0.32071411  0.57251559  0.68501369  1
  Al0+  Al92  1  0.82121182  0.07109310  0.34933730  1
  Al0+  Al93  1  0.17660922  0.42858560  0.68380100  1
  Al0+  Al94  1  0.32120426  0.07224465  0.01392685  1
  Al0+  Al95  1  0.82470653  0.07175962  0.01627954  1
  Si0+  Si96  1  0.67571681  0.92648534  0.68409937  1
  Si0+  Si97  1  0.56903033  0.67620092  0.64948785  1
  Si0+  Si98  1  0.42964838  0.32053888  0.65247661  1
  Si0+  Si99  1  0.81815727  0.56848884  0.01125555  1
  Si0+  Si100  1  0.67452913  0.42796408  0.01512425  1
  Si0+  Si101  1  0.92418503  0.32173900  0.98507959  1
  Si0+  Si102  1  0.32379258  0.57227300  0.01699577  1
  Si0+  Si103  1  0.07149772  0.67985497  0.31890085  1
  Si0+  Si104  1  0.92987151  0.32261707  0.31834057  1
  Si0+  Si105  1  0.42912458  0.31966076  0.98262428  1
  Si0+  Si106  1  0.43065957  0.82253721  0.65083988  1
  Si0+  Si107  1  0.57032384  0.17903357  0.65375740  1
  Si0+  Si108  1  0.42829781  0.82475980  0.98347963  1
  Si0+  Si109  1  0.82104013  0.57378633  0.68447731  1
  Si0+  Si110  1  0.92976384  0.82160942  0.31872562  1
  Si0+  Si111  1  0.32273536  0.07049130  0.67874861  1
  Si0+  Si112  1  0.42610640  0.82136787  0.31801283  1
  Si0+  Si113  1  0.32209299  0.07243498  0.34989266  1
  Si0+  Si114  1  0.17932217  0.92634785  0.01348926  1
  Si0+  Si115  1  0.57151915  0.68168343  0.32015556  1
  Si0+  Si116  1  0.57074833  0.17826298  0.98372844  1
  Si0+  Si117  1  0.07004140  0.17743468  0.31925020  1
  Si0+  Si118  1  0.18040842  0.93001038  0.68264526  1
  Si0+  Si119  1  0.07569802  0.17806743  0.64886620  1
  O2-  O120  1  0.24793476  -0.00501240  0.05830945  1
  O2-  O121  1  0.25428429  0.00335990  0.39465521  1
  O2-  O122  1  0.24904728  0.00406211  0.72374939  1
  O2-  O123  1  0.24807154  0.51119877  0.05980615  1
  O2-  O124  1  0.25152668  0.49713341  0.39702911  1
  O2-  O125  1  0.24401843  0.50516671  0.73416710  1
  O2-  O126  1  0.75417935  -0.00263042  0.06411354  1
  O2-  O127  1  0.74517357  0.00329793  0.39951582  1
  O2-  O128  1  0.75029956  -0.01102594  0.72704804  1
  O2-  O129  1  0.74704954  0.49804665  0.05501124  1
  O2-  O130  1  0.75410116  0.49867215  0.39728168  1
  O2-  O131  1  0.75328769  0.50439400  0.72998079  1
  O2-  O132  1  0.00207133  0.25188168  0.27737566  1
  O2-  O133  1  0.00676083  0.24660741  0.60504401  1
  O2-  O134  1  -0.00825478  0.25111850  0.94214724  1
  O2-  O135  1  -0.00206660  0.74804396  0.27600367  1
  O2-  O136  1  -0.00114292  0.74965177  0.59720387  1
  O2-  O137  1  0.00555327  0.75226552  0.93756517  1
  O2-  O138  1  0.49938339  0.24956285  0.26674166  1
  O2-  O139  1  0.50046489  0.24989208  0.61025980  1
  O2-  O140  1  0.50121662  0.24986049  0.93904634  1
  O2-  O141  1  0.50126364  0.75380004  0.27722877  1
  O2-  O142  1  0.49889057  0.74885115  0.60849156  1
  O2-  O143  1  0.49587088  0.75437701  0.93974232  1
  O2-  O144  1  0.07288996  0.18320024  0.10172852  1
  O2-  O145  1  0.06931580  0.17558511  0.42431432  1
  O2-  O146  1  0.07804397  0.17847406  0.75453884  1
  O2-  O147  1  0.06956087  0.67634314  0.10107337  1
  O2-  O148  1  0.07281465  0.68275024  0.42353439  1
  O2-  O149  1  0.06978320  0.68306738  0.76248113  1
  O2-  O150  1  0.56974265  0.18012173  0.08808220  1
  O2-  O151  1  0.57118045  0.17960104  0.43009495  1
  O2-  O152  1  0.56639492  0.17875117  0.75927212  1
  O2-  O153  1  0.56917315  0.67630212  0.09978983  1
  O2-  O154  1  0.56945550  0.68168918  0.42531650  1
  O2-  O155  1  0.56869635  0.67668357  0.75481857  1
  O2-  O156  1  0.17669799  0.42849999  0.23537309  1
  O2-  O157  1  0.18260872  0.42509697  0.57089028  1
  O2-  O158  1  0.17816028  0.43007013  0.90151576  1
  O2-  O159  1  0.18045449  0.92960689  0.23223947  1
  O2-  O160  1  0.18250226  0.93021130  0.57733677  1
  O2-  O161  1  0.18204536  0.92818520  0.90763346  1
  O2-  O162  1  0.68133086  0.43437925  0.23122406  1
  O2-  O163  1  0.67904716  0.42938935  0.56846612  1
  O2-  O164  1  0.67423595  0.42775518  0.90979636  1
  O2-  O165  1  0.68136073  0.92442573  0.23617888  1
  O2-  O166  1  0.66893986  0.93123030  0.57917069  1
  O2-  O167  1  0.68035741  0.92948039  0.89979223  1
  O2-  O168  1  0.43069954  0.32049396  0.08724166  1
  O2-  O169  1  0.42982336  0.32119533  0.43095240  1
  O2-  O170  1  0.42964431  0.31730344  0.75800913  1
  O2-  O171  1  0.42614604  0.82446350  0.08894385  1
  O2-  O172  1  0.42479479  0.82030888  0.42337286  1
  O2-  O173  1  0.43329749  0.82854800  0.75563854  1
  O2-  O174  1  0.92480121  0.32497287  0.09073910  1
  O2-  O175  1  0.92865834  0.32145062  0.42333186  1
  O2-  O176  1  0.92732048  0.31381814  0.76644355  1
  O2-  O177  1  0.92925505  0.81833862  0.10054322  1
  O2-  O178  1  0.93241847  0.82233538  0.42346150  1
  O2-  O179  1  0.93035398  0.82341059  0.76098078  1
  O2-  O180  1  0.31995565  0.07146985  0.24427288  1
  O2-  O181  1  0.32381387  0.06759532  0.57406104  1
  O2-  O182  1  0.32082461  0.07130263  0.89981890  1
  O2-  O183  1  0.31786059  0.57386900  0.23256446  1
  O2-  O184  1  0.32377317  0.56841246  0.57177895  1
  O2-  O185  1  0.32966503  0.56684855  0.91202681  1
  O2-  O186  1  0.82574830  0.06729713  0.23619887  1
  O2-  O187  1  0.81627297  0.07192573  0.56977891  1
  O2-  O188  1  0.82175834  0.07333864  0.90262338  1
  O2-  O189  1  0.82134845  0.57464066  0.23345064  1
  O2-  O190  1  0.81746706  0.57316151  0.57907556  1
  O2-  O191  1  0.81709708  0.56626477  0.90632316  1
  O2-  O192  1  0.03938230  0.08621295  0.27168014  1
  O2-  O193  1  0.05061424  0.08382368  0.60453126  1
  O2-  O194  1  0.04842246  0.08423824  0.93161987  1
  O2-  O195  1  0.04646196  0.58626478  0.27345039  1
  O2-  O196  1  0.04639095  0.57955908  0.59766606  1
  O2-  O197  1  0.03649488  0.57975915  0.93321891  1
  O2-  O198  1  0.54432841  0.07878408  0.26331136  1
  O2-  O199  1  0.54220218  0.08756448  0.60583192  1
  O2-  O200  1  0.54126732  0.08650777  0.93693047  1
  O2-  O201  1  0.54388038  0.59078581  0.27107071  1
  O2-  O202  1  0.53860828  0.58429180  0.60393234  1
  O2-  O203  1  0.53676591  0.58273052  0.92961137  1
  O2-  O204  1  0.16327296  0.20072918  0.27253098  1
  O2-  O205  1  0.17002863  0.20189659  0.60241542  1
  O2-  O206  1  0.16702912  0.21497851  0.93331784  1
  O2-  O207  1  0.16241362  0.71125081  0.27153774  1
  O2-  O208  1  0.17206888  0.71048699  0.59961396  1
  O2-  O209  1  0.17403191  0.69500785  0.93564034  1
  O2-  O210  1  0.67140665  0.20699423  0.26160730  1
  O2-  O211  1  0.66237776  0.20722368  0.60909630  1
  O2-  O212  1  0.66297813  0.20647893  0.93656850  1
  O2-  O213  1  0.66432996  0.70954836  0.27409098  1
  O2-  O214  1  0.66075025  0.70119185  0.60117558  1
  O2-  O215  1  0.66422201  0.70646330  0.92717017  1
  O2-  O216  1  0.07881323  0.45693339  0.06800390  1
  O2-  O217  1  0.08111574  0.45531225  0.40245752  1
  O2-  O218  1  0.07527204  0.45216415  0.73312749  1
  O2-  O219  1  0.08634937  0.95265508  0.05905493  1
  O2-  O220  1  0.08598884  0.96212445  0.40356802  1
  O2-  O221  1  0.08824443  0.95555986  0.72913176  1
  O2-  O222  1  0.58292845  0.45825531  0.06071096  1
  O2-  O223  1  0.58288120  0.46029832  0.39833240  1
  O2-  O224  1  0.58458491  0.45922346  0.73707038  1
  O2-  O225  1  0.58284952  0.95414812  0.06635931  1
  O2-  O226  1  0.57499255  0.95095179  0.39908373  1
  O2-  O227  1  0.58433580  0.95751695  0.73292072  1
  O2-  O228  1  0.21379512  0.33789028  0.06841157  1
  O2-  O229  1  0.20321380  0.32646713  0.40138205  1
  O2-  O230  1  0.21060858  0.33039160  0.73642162  1
  O2-  O231  1  0.20514625  0.83220192  0.05876680  1
  O2-  O232  1  0.21236844  0.83580152  0.40299392  1
  O2-  O233  1  0.21232160  0.84053974  0.73091511  1
  O2-  O234  1  0.69873912  0.33578408  0.06229146  1
  O2-  O235  1  0.70583046  0.33114707  0.39659387  1
  O2-  O236  1  0.71144286  0.33342395  0.73709494  1
  O2-  O237  1  0.70658440  0.82589066  0.06317982  1
  O2-  O238  1  0.70590657  0.83287068  0.40600905  1
  O2-  O239  1  0.69474477  0.82922421  0.72463655  1
  O2-  O240  1  0.45798096  0.42116822  0.26260404  1
  O2-  O241  1  0.45864268  0.41280060  0.60785666  1
  O2-  O242  1  0.45647349  0.41076625  0.93355632  1
  O2-  O243  1  0.44782901  0.91464812  0.27103919  1
  O2-  O244  1  0.46058565  0.91263073  0.59978799  1
  O2-  O245  1  0.45567144  0.91823830  0.93695322  1
  O2-  O246  1  0.95724263  0.41544228  0.27147609  1
  O2-  O247  1  0.95219304  0.41595585  0.59865823  1
  O2-  O248  1  0.95119537  0.41372632  0.93677912  1
  O2-  O249  1  0.96134232  0.91286555  0.27248611  1
  O2-  O250  1  0.96013694  0.92108275  0.59552524  1
  O2-  O251  1  0.95680799  0.91981526  0.93287181  1
  O2-  O252  1  0.32900676  0.29326465  0.26461609  1
  O2-  O253  1  0.33846924  0.29231984  0.60450306  1
  O2-  O254  1  0.33824790  0.28862268  0.93563566  1
  O2-  O255  1  0.33577622  0.79008992  0.26926180  1
  O2-  O256  1  0.33796638  0.79806904  0.60388634  1
  O2-  O257  1  0.33531650  0.80178940  0.93431058  1
  O2-  O258  1  0.83884528  0.29589615  0.26912814  1
  O2-  O259  1  0.83259038  0.28280918  0.59984638  1
  O2-  O260  1  0.82908785  0.29874916  0.93999908  1
  O2-  O261  1  0.83617903  0.79534116  0.27417316  1
  O2-  O262  1  0.82725422  0.79787771  0.59661520  1
  O2-  O263  1  0.83398380  0.78952577  0.93001390  1
  O2-  O264  1  0.41668254  0.04314252  0.06972521  1
  O2-  O265  1  0.41583425  0.04760081  0.39484733  1
  O2-  O266  1  0.41336782  0.03909002  0.72748071  1
  O2-  O267  1  0.41463823  0.53880707  0.06481664  1
  O2-  O268  1  0.41973610  0.54662291  0.39837496  1
  O2-  O269  1  0.41701439  0.53877221  0.73964636  1
  O2-  O270  1  0.92526523  0.04732183  0.06615454  1
  O2-  O271  1  0.91713336  0.04008474  0.40546013  1
  O2-  O272  1  0.92048550  0.04286356  0.73316382  1
  O2-  O273  1  0.90837243  0.54075648  0.06157664  1
  O2-  O274  1  0.92112492  0.54853570  0.40099560  1
  O2-  O275  1  0.91508934  0.54814090  0.72797744  1
  O2-  O276  1  0.28843585  0.16680664  0.06925902  1
  O2-  O277  1  0.29571534  0.16500447  0.39665018  1
  O2-  O278  1  0.29917541  0.16318366  0.72656110  1
  O2-  O279  1  0.30916068  0.67006774  0.05769761  1
  O2-  O280  1  0.29179357  0.66808738  0.40189470  1
  O2-  O281  1  0.30281118  0.67475504  0.73473155  1
  O2-  O282  1  0.79328293  0.16984649  0.06890639  1
  O2-  O283  1  0.79501806  0.17093212  0.39965929  1
  O2-  O284  1  0.78581269  0.16197892  0.73921791  1
  O2-  O285  1  0.78981189  0.66036606  0.05745800  1
  O2-  O286  1  0.79295100  0.66946744  0.40398319  1
  O2-  O287  1  0.79253679  0.66764026  0.72881143  1
