# generated using pymatgen
data_Ca2Al2SiO7
_symmetry_space_group_name_H-M   'P 1'
_cell_length_a   15.47132147
_cell_length_b   15.47476611
_cell_length_c   15.29567416
_cell_angle_alpha   90.00115344
_cell_angle_beta   90.00856599
_cell_angle_gamma   89.99394179
_symmetry_Int_Tables_number   1
_chemical_formula_structural   Ca2Al2SiO7
_chemical_formula_sum   'Ca48 Al48 Si24 O168'
_cell_volume   3662.01500790
_cell_formula_units_Z   24
loop_
 _symmetry_equiv_pos_site_id
 _symmetry_equiv_pos_as_xyz
  1  'x, y, z'
loop_
 _atom_type_symbol
 _atom_type_oxidation_number
  Ca2+  2.0
  Al0+  0.0
  Si0+  0.0
  O2-  -2.0
loop_
 _atom_site_type_symbol
 _atom_site_label
 _atom_site_symmetry_multiplicity
 _atom_site_fract_x
 _atom_site_fract_y
 _atom_site_fract_z
 _atom_site_occupancy
  Ca2+  Ca0  1  0.16944461  0.07127795  0.17426908  1
  Ca2+  Ca1  1  0.16469211  0.07657540  0.50239162  1
  Ca2+  Ca2  1  0.16603405  0.08357742  0.83500662  1
  Ca2+  Ca3  1  0.16520076  0.57982997  0.17733401  1
  Ca2+  Ca4  1  0.17065044  0.58768826  0.49488650  1
  Ca2+  Ca5  1  0.16405191  0.57917037  0.84475651  1
  Ca2+  Ca6  1  0.66062962  0.07621890  0.16629365  1
  Ca2+  Ca7  1  0.67574495  0.07220384  0.51121327  1
  Ca2+  Ca8  1  0.66841338  0.07177386  0.84087871  1
  Ca2+  Ca9  1  0.67616324  0.60137571  0.16840852  1
  Ca2+  Ca10  1  0.67291339  0.58903310  0.50724489  1
  Ca2+  Ca11  1  0.67446867  0.59252727  0.83429531  1
  Ca2+  Ca12  1  0.08822970  0.33879261  0.16345300  1
  Ca2+  Ca13  1  0.08694796  0.32816123  0.49605029  1
  Ca2+  Ca14  1  0.08263863  0.32991059  0.82839776  1
  Ca2+  Ca15  1  0.07668879  0.82252050  0.16349575  1
  Ca2+  Ca16  1  0.06947394  0.82950746  0.48980984  1
  Ca2+  Ca17  1  0.07048864  0.82690234  0.83045527  1
  Ca2+  Ca18  1  0.57823567  0.32881581  0.16281156  1
  Ca2+  Ca19  1  0.58061148  0.33698800  0.49427721  1
  Ca2+  Ca20  1  0.59104933  0.32916306  0.82844565  1
  Ca2+  Ca21  1  0.57501843  0.82412530  0.16180981  1
  Ca2+  Ca22  1  0.58532741  0.82305391  0.49531125  1
  Ca2+  Ca23  1  0.59173420  0.82595183  0.83363750  1
  Ca2+  Ca24  1  0.32471504  0.42358360  0.17609382  1
  Ca2+  Ca25  1  0.33478658  0.42219994  0.49610350  1
  Ca2+  Ca26  1  0.32545590  0.42044169  0.83945711  1
  Ca2+  Ca27  1  0.33167316  0.90924427  0.17538533  1
  Ca2+  Ca28  1  0.32426983  0.90109712  0.49569966  1
  Ca2+  Ca29  1  0.33437794  0.91594072  0.84113224  1
  Ca2+  Ca30  1  0.83324563  0.43391792  0.17163617  1
  Ca2+  Ca31  1  0.82642091  0.43263688  0.50615795  1
  Ca2+  Ca32  1  0.82990156  0.43027466  0.83587103  1
  Ca2+  Ca33  1  0.82996913  0.90545156  0.16640198  1
  Ca2+  Ca34  1  0.83141882  0.91355890  0.51019730  1
  Ca2+  Ca35  1  0.82566371  0.90950694  0.83348971  1
  Ca2+  Ca36  1  0.41886334  0.17416670  0.16361747  1
  Ca2+  Ca37  1  0.41827218  0.17608677  0.49304401  1
  Ca2+  Ca38  1  0.42595725  0.16631214  0.83420890  1
  Ca2+  Ca39  1  0.42369212  0.66817610  0.16231389  1
  Ca2+  Ca40  1  0.43042799  0.66537072  0.48957677  1
  Ca2+  Ca41  1  0.42779062  0.67173085  0.83085709  1
  Ca2+  Ca42  1  0.91828333  0.17237169  0.16262609  1
  Ca2+  Ca43  1  0.91903492  0.16340033  0.50036937  1
  Ca2+  Ca44  1  0.92097381  0.16566664  0.82330692  1
  Ca2+  Ca45  1  0.92116022  0.66947563  0.16267541  1
  Ca2+  Ca46  1  0.91203612  0.67394359  0.49263512  1
  Ca2+  Ca47  1  0.90859720  0.67278258  0.83338397  1
  Al0+  Al48  1  0.00067103  0.00128667  -0.00264611  1
  Al0+  Al49  1  0.00078597  0.00141441  0.33200699  1
  Al0+  Al50  1  0.00217662  -0.00087282  0.66245910  1
  Al0+  Al51  1  -0.00145931  0.49814506  0.00420583  1
  Al0+  Al52  1  -0.00220422  0.49778962  0.34152272  1
  Al0+  Al53  1  0.00127007  0.49886916  0.66929371  1
  Al0+  Al54  1  0.50008824  0.00384323  -0.00123337  1
  Al0+  Al55  1  0.50197121  0.00057952  0.33411415  1
  Al0+  Al56  1  0.49679173  0.00123311  0.66800632  1
  Al0+  Al57  1  0.49866443  0.49898075  -0.00451528  1
  Al0+  Al58  1  0.50017197  0.49676726  0.32464112  1
  Al0+  Al59  1  0.49815803  0.49981043  0.66762693  1
  Al0+  Al60  1  0.25002983  0.24994619  0.00328843  1
  Al0+  Al61  1  0.25123007  0.24873934  0.33209882  1
  Al0+  Al62  1  0.25011548  0.24860795  0.66361002  1
  Al0+  Al63  1  0.24940145  0.74983093  -0.00669601  1
  Al0+  Al64  1  0.24825347  0.74887334  0.33897148  1
  Al0+  Al65  1  0.24938025  0.74929363  0.67016445  1
  Al0+  Al66  1  0.75094786  0.25034458  -0.00361180  1
  Al0+  Al67  1  0.75245402  0.24914606  0.33311516  1
  Al0+  Al68  1  0.75224758  0.25057457  0.66928741  1
  Al0+  Al69  1  0.74898694  0.75282432  0.00290279  1
  Al0+  Al70  1  0.74923577  0.75246424  0.33177003  1
  Al0+  Al71  1  0.74942187  0.75084712  0.66597968  1
  Al0+  Al72  1  0.82128086  0.57228572  0.68235788  1
  Al0+  Al73  1  0.57149839  0.67724302  0.31828010  1
  Al0+  Al74  1  0.93099840  0.81700717  0.65300441  1
  Al0+  Al75  1  0.82435879  0.06999596  0.68115922  1
  Al0+  Al76  1  0.17830872  0.42733893  0.35120197  1
  Al0+  Al77  1  0.42863194  0.32046315  0.31833670  1
  Al0+  Al78  1  0.17849990  0.92786022  0.34681322  1
  Al0+  Al79  1  0.67571002  0.42947137  0.68042052  1
  Al0+  Al80  1  0.17935435  0.42957727  0.01302824  1
  Al0+  Al81  1  0.06874365  0.67616050  0.32119430  1
  Al0+  Al82  1  0.06973716  0.67565513  0.98591998  1
  Al0+  Al83  1  0.42863252  0.82150347  0.32173415  1
  Al0+  Al84  1  0.67715441  0.92987244  0.68218241  1
  Al0+  Al85  1  0.57163337  0.18138189  0.98576984  1
  Al0+  Al86  1  0.92940981  0.82211254  0.98346823  1
  Al0+  Al87  1  0.81741465  0.57088239  0.01548874  1
  Al0+  Al88  1  0.32355138  0.57148301  0.34772528  1
  Al0+  Al89  1  0.56841845  0.68095243  0.65281173  1
  Al0+  Al90  1  0.92823243  0.82370808  0.31747393  1
  Al0+  Al91  1  0.07099695  0.17993779  0.65175499  1
  Al0+  Al92  1  0.81756303  0.57251062  0.34717302  1
  Al0+  Al93  1  0.67904824  0.93169277  0.01687702  1
  Al0+  Al94  1  0.42748522  0.82284307  0.98546021  1
  Al0+  Al95  1  0.57105460  0.67898676  0.98317961  1
  Si0+  Si96  1  0.42623603  0.32036599  0.98163654  1
  Si0+  Si97  1  0.57434725  0.17857546  0.31843580  1
  Si0+  Si98  1  0.67667143  0.42513429  0.01691846  1
  Si0+  Si99  1  0.92937498  0.31920202  0.31901798  1
  Si0+  Si100  1  0.42926818  0.31956714  0.65241625  1
  Si0+  Si101  1  0.18150619  0.42691753  0.68129152  1
  Si0+  Si102  1  0.32085368  0.57103972  0.68299516  1
  Si0+  Si103  1  0.07202323  0.17917385  0.31642516  1
  Si0+  Si104  1  0.31917542  0.07418763  0.68286924  1
  Si0+  Si105  1  0.07167601  0.17998581  0.98602350  1
  Si0+  Si106  1  0.82216231  0.07386724  0.34754103  1
  Si0+  Si107  1  0.92904455  0.32106823  0.98477118  1
  Si0+  Si108  1  0.67918746  0.42395588  0.34629735  1
  Si0+  Si109  1  0.32203507  0.57298256  0.01512628  1
  Si0+  Si110  1  0.42443941  0.82418619  0.64970926  1
  Si0+  Si111  1  0.67988474  0.93152822  0.34855484  1
  Si0+  Si112  1  0.07523062  0.67465132  0.64966147  1
  Si0+  Si113  1  0.32059881  0.07148962  0.01570032  1
  Si0+  Si114  1  0.17866657  0.92931507  0.01350196  1
  Si0+  Si115  1  0.18035256  0.92902025  0.68280409  1
  Si0+  Si116  1  0.82410663  0.07433519  0.01756028  1
  Si0+  Si117  1  0.57236753  0.17813205  0.65184228  1
  Si0+  Si118  1  0.32323789  0.07061335  0.35033113  1
  Si0+  Si119  1  0.92800015  0.32371019  0.64806183  1
  O2-  O120  1  0.25419408  -0.00414926  0.05642483  1
  O2-  O121  1  0.25773526  -0.00095384  0.39448503  1
  O2-  O122  1  0.25334394  -0.00153749  0.72515961  1
  O2-  O123  1  0.25079539  0.50679266  0.05873593  1
  O2-  O124  1  0.25007003  0.50049668  0.39958816  1
  O2-  O125  1  0.24597996  0.50303419  0.72423176  1
  O2-  O126  1  0.75672450  0.00544473  0.06287711  1
  O2-  O127  1  0.75406263  0.00041798  0.38874684  1
  O2-  O128  1  0.74913021  0.00276920  0.73223862  1
  O2-  O129  1  0.73858194  0.49889759  0.06198635  1
  O2-  O130  1  0.73885107  0.49981104  0.39055942  1
  O2-  O131  1  0.74752852  0.50073446  0.73129101  1
  O2-  O132  1  0.00372991  0.25240480  0.27453528  1
  O2-  O133  1  -0.00500008  0.25260136  0.60412997  1
  O2-  O134  1  -0.00001342  0.24923019  0.94330799  1
  O2-  O135  1  -0.00106098  0.74929216  0.27008740  1
  O2-  O136  1  0.00299157  0.73954201  0.60695189  1
  O2-  O137  1  -0.00149625  0.74692684  0.93394657  1
  O2-  O138  1  0.50535028  0.24660733  0.27411806  1
  O2-  O139  1  0.50529311  0.25324835  0.61012451  1
  O2-  O140  1  0.50029264  0.25836254  0.93654569  1
  O2-  O141  1  0.49438634  0.74542529  0.27060541  1
  O2-  O142  1  0.49540265  0.75798833  0.60706487  1
  O2-  O143  1  0.49919963  0.75207227  0.93379793  1
  O2-  O144  1  0.07154334  0.17929424  0.09106894  1
  O2-  O145  1  0.07104146  0.17799170  0.42141082  1
  O2-  O146  1  0.07416164  0.18403890  0.76529518  1
  O2-  O147  1  0.07095384  0.67652219  0.09911908  1
  O2-  O148  1  0.06605619  0.67868531  0.43506995  1
  O2-  O149  1  0.07986653  0.67697631  0.75506342  1
  O2-  O150  1  0.56833843  0.18260118  0.09910419  1
  O2-  O151  1  0.57460729  0.17950108  0.42418803  1
  O2-  O152  1  0.56852291  0.17751572  0.75676995  1
  O2-  O153  1  0.56909048  0.68015195  0.09636076  1
  O2-  O154  1  0.57356814  0.67956206  0.43219790  1
  O2-  O155  1  0.56653928  0.68083439  0.76547620  1
  O2-  O156  1  0.18038623  0.42602369  0.23769500  1
  O2-  O157  1  0.18514285  0.42270738  0.57699685  1
  O2-  O158  1  0.18250569  0.42520130  0.89924041  1
  O2-  O159  1  0.17684510  0.93318954  0.23357560  1
  O2-  O160  1  0.18178356  0.93002767  0.57792209  1
  O2-  O161  1  0.17790109  0.93461950  0.90817808  1
  O2-  O162  1  0.68645463  0.41395685  0.24163435  1
  O2-  O163  1  0.67467898  0.43046606  0.56646563  1
  O2-  O164  1  0.68191171  0.42089633  0.91174999  1
  O2-  O165  1  0.67685925  0.93474696  0.24373518  1
  O2-  O166  1  0.67721594  0.93185736  0.56805910  1
  O2-  O167  1  0.67908006  0.93345528  0.90409678  1
  O2-  O168  1  0.42372380  0.31575543  0.08678545  1
  O2-  O169  1  0.42931591  0.31763220  0.43212855  1
  O2-  O170  1  0.42507162  0.31579956  0.75729548  1
  O2-  O171  1  0.42631464  0.82167890  0.09871634  1
  O2-  O172  1  0.43498917  0.82324347  0.43537695  1
  O2-  O173  1  0.42047421  0.82272648  0.75496702  1
  O2-  O174  1  0.92892647  0.31905964  0.09014287  1
  O2-  O175  1  0.92704771  0.31405957  0.42360778  1
  O2-  O176  1  0.93189256  0.32473257  0.75384069  1
  O2-  O177  1  0.93369266  0.82400658  0.09656997  1
  O2-  O178  1  0.92810478  0.82535192  0.43119513  1
  O2-  O179  1  0.93312698  0.81820106  0.76572259  1
  O2-  O180  1  0.32121892  0.07236305  0.24458672  1
  O2-  O181  1  0.31797677  0.08011901  0.57840038  1
  O2-  O182  1  0.31705913  0.07551961  0.91031812  1
  O2-  O183  1  0.32320500  0.56905102  0.23428954  1
  O2-  O184  1  0.32276507  0.56961738  0.57838932  1
  O2-  O185  1  0.32126672  0.56894594  0.90891087  1
  O2-  O186  1  0.82045479  0.08004280  0.24278173  1
  O2-  O187  1  0.82244421  0.06810505  0.56693439  1
  O2-  O188  1  0.82446719  0.07683184  0.91249853  1
  O2-  O189  1  0.81904545  0.57013419  0.23409920  1
  O2-  O190  1  0.82040286  0.57107739  0.56876765  1
  O2-  O191  1  0.81877731  0.56781232  0.90266242  1
  O2-  O192  1  0.04113445  0.08970562  0.26673546  1
  O2-  O193  1  0.04340356  0.08348411  0.59641217  1
  O2-  O194  1  0.04608692  0.08896282  0.93635902  1
  O2-  O195  1  0.04081800  0.57599727  0.27173977  1
  O2-  O196  1  0.05606615  0.57822199  0.60760281  1
  O2-  O197  1  0.04301913  0.57570870  0.93464801  1
  O2-  O198  1  0.54742308  0.08596842  0.27181401  1
  O2-  O199  1  0.53911201  0.08853216  0.60314405  1
  O2-  O200  1  0.53563716  0.08809799  0.92953827  1
  O2-  O201  1  0.55261633  0.57722025  0.26541634  1
  O2-  O202  1  0.53516607  0.58369761  0.60086194  1
  O2-  O203  1  0.54505420  0.57886511  0.93134062  1
  O2-  O204  1  0.16446585  0.20342930  0.26909866  1
  O2-  O205  1  0.16658825  0.21283730  0.59650056  1
  O2-  O206  1  0.16327146  0.20909742  0.93850482  1
  O2-  O207  1  0.16913583  0.70187259  0.27218747  1
  O2-  O208  1  0.16814186  0.70457884  0.60402320  1
  O2-  O209  1  0.16769185  0.70303443  0.93126894  1
  O2-  O210  1  0.66735843  0.20424098  0.27122453  1
  O2-  O211  1  0.66633996  0.20065242  0.60666254  1
  O2-  O212  1  0.66906670  0.20771471  0.93114855  1
  O2-  O213  1  0.66587096  0.71550961  0.26507223  1
  O2-  O214  1  0.66493258  0.71123738  0.59942999  1
  O2-  O215  1  0.66887403  0.71134592  0.93266870  1
  O2-  O216  1  0.08174497  0.45302087  0.06735003  1
  O2-  O217  1  0.07953353  0.45030287  0.40542284  1
  O2-  O218  1  0.08771003  0.44760904  0.72775494  1
  O2-  O219  1  0.08942745  0.96376184  0.06166354  1
  O2-  O220  1  0.08430399  0.96704372  0.40147050  1
  O2-  O221  1  0.09060184  0.96154511  0.72996734  1
  O2-  O222  1  0.57849457  0.44224415  0.05639691  1
  O2-  O223  1  0.58132700  0.43966978  0.38519948  1
  O2-  O224  1  0.57583372  0.45160195  0.73373315  1
  O2-  O225  1  0.58318586  0.96905146  0.06912888  1
  O2-  O226  1  0.58993174  0.96212491  0.39844913  1
  O2-  O227  1  0.57723230  0.95777211  0.73294641  1
  O2-  O228  1  0.21188419  0.33334296  0.06788222  1
  O2-  O229  1  0.20975973  0.32776938  0.40152747  1
  O2-  O230  1  0.21529625  0.33700667  0.72981749  1
  O2-  O231  1  0.20272425  0.83565993  0.05768220  1
  O2-  O232  1  0.20354143  0.83257039  0.40580994  1
  O2-  O233  1  0.20567139  0.83694406  0.73126463  1
  O2-  O234  1  0.70718171  0.33288903  0.06386189  1
  O2-  O235  1  0.71142109  0.33386709  0.39762951  1
  O2-  O236  1  0.70446171  0.33042081  0.73234413  1
  O2-  O237  1  0.70819537  0.83580972  0.07184182  1
  O2-  O238  1  0.70693542  0.84018284  0.39593513  1
  O2-  O239  1  0.70882040  0.83289997  0.73427026  1
  O2-  O240  1  0.45596961  0.41410682  0.25875498  1
  O2-  O241  1  0.45179041  0.41239752  0.60539580  1
  O2-  O242  1  0.44390218  0.41555805  0.93668852  1
  O2-  O243  1  0.45841956  0.92038651  0.26916696  1
  O2-  O244  1  0.44300275  0.92059251  0.60659334  1
  O2-  O245  1  0.45167041  0.92372780  0.93553934  1
  O2-  O246  1  0.95453167  0.41170737  0.27325059  1
  O2-  O247  1  0.95756246  0.41597585  0.60159841  1
  O2-  O248  1  0.95906397  0.41087979  0.93638974  1
  O2-  O249  1  0.95666484  0.92261761  0.26533093  1
  O2-  O250  1  0.96509293  0.91278810  0.59907140  1
  O2-  O251  1  0.96063547  0.92053911  0.93087027  1
  O2-  O252  1  0.33397691  0.28465132  0.26332698  1
  O2-  O253  1  0.34085653  0.28481680  0.60285774  1
  O2-  O254  1  0.33506032  0.28639367  0.93439001  1
  O2-  O255  1  0.32595088  0.80243494  0.27564923  1
  O2-  O256  1  0.33115593  0.79434511  0.60469216  1
  O2-  O257  1  0.32957322  0.79693236  0.92923795  1
  O2-  O258  1  0.84038377  0.28634886  0.26853402  1
  O2-  O259  1  0.83379016  0.29979210  0.60250366  1
  O2-  O260  1  0.83846143  0.29402421  0.93544591  1
  O2-  O261  1  0.82993909  0.79618563  0.26606424  1
  O2-  O262  1  0.83345815  0.79067204  0.59928097  1
  O2-  O263  1  0.82968111  0.79547488  0.93439385  1
  O2-  O264  1  0.41370215  0.05136870  0.06246071  1
  O2-  O265  1  0.41853540  0.05134108  0.39594381  1
  O2-  O266  1  0.41197411  0.05055279  0.73044208  1
  O2-  O267  1  0.41516239  0.54432293  0.06028959  1
  O2-  O268  1  0.42231948  0.53694804  0.39870355  1
  O2-  O269  1  0.40939366  0.53815954  0.73291939  1
  O2-  O270  1  0.91940968  0.05120801  0.06241648  1
  O2-  O271  1  0.91559407  0.05034571  0.39301631  1
  O2-  O272  1  0.92404343  0.04276048  0.73214402  1
  O2-  O273  1  0.91227602  0.53396152  0.06925805  1
  O2-  O274  1  0.91079323  0.53656860  0.40374425  1
  O2-  O275  1  0.92053459  0.54252430  0.73447700  1
  O2-  O276  1  0.28707238  0.16037626  0.06571524  1
  O2-  O277  1  0.29274959  0.16235232  0.39727864  1
  O2-  O278  1  0.28575954  0.16296021  0.73349001  1
  O2-  O279  1  0.29998914  0.66839679  0.05751096  1
  O2-  O280  1  0.29755554  0.66872820  0.40461345  1
  O2-  O281  1  0.29595815  0.66351667  0.73078884  1
  O2-  O282  1  0.79769551  0.16847508  0.06333355  1
  O2-  O283  1  0.79222878  0.16355980  0.39876063  1
  O2-  O284  1  0.80324829  0.17132325  0.73073773  1
  O2-  O285  1  0.79019669  0.66831033  0.06863485  1
  O2-  O286  1  0.78816287  0.66993213  0.40003396  1
  O2-  O287  1  0.79087226  0.66963338  0.73466028  1
