# generated using pymatgen
data_Ca2Al2SiO7
_symmetry_space_group_name_H-M   'P 1'
_cell_length_a   15.46734017
_cell_length_b   15.46871179
_cell_length_c   15.29082871
_cell_angle_alpha   90.00899221
_cell_angle_beta   89.99713813
_cell_angle_gamma   90.01915346
_symmetry_Int_Tables_number   1
_chemical_formula_structural   Ca2Al2SiO7
_chemical_formula_sum   'Ca48 Al48 Si24 O168'
_cell_volume   3658.48078112
_cell_formula_units_Z   24
loop_
 _symmetry_equiv_pos_site_id
 _symmetry_equiv_pos_as_xyz
  1  'x, y, z'
loop_
 _atom_type_symbol
 _atom_type_oxidation_number
  Ca2+  2.0
  Al0+  0.0
  Si0+  0.0
  O2-  -2.0
loop_
 _atom_site_type_symbol
 _atom_site_label
 _atom_site_symmetry_multiplicity
 _atom_site_fract_x
 _atom_site_fract_y
 _atom_site_fract_z
 _atom_site_occupancy
  Ca2+  Ca0  1  0.17559847  0.08934800  0.16817760  1
  Ca2+  Ca1  1  0.18190211  0.08257156  0.50746632  1
  Ca2+  Ca2  1  0.17471673  0.08289514  0.84153165  1
  Ca2+  Ca3  1  0.16435716  0.57368163  0.16874270  1
  Ca2+  Ca4  1  0.16655027  0.58378978  0.50471839  1
  Ca2+  Ca5  1  0.16292481  0.57828001  0.83566796  1
  Ca2+  Ca6  1  0.66716512  0.07734151  0.17600565  1
  Ca2+  Ca7  1  0.66045929  0.07909372  0.50245827  1
  Ca2+  Ca8  1  0.66377652  0.07512618  0.83170455  1
  Ca2+  Ca9  1  0.67809623  0.57657961  0.17518533  1
  Ca2+  Ca10  1  0.66867904  0.56864905  0.50104035  1
  Ca2+  Ca11  1  0.67310981  0.57383921  0.83730689  1
  Ca2+  Ca12  1  0.07923060  0.32762925  0.16131229  1
  Ca2+  Ca13  1  0.06911068  0.33308969  0.49657101  1
  Ca2+  Ca14  1  0.08162090  0.32982402  0.83163090  1
  Ca2+  Ca15  1  0.08137743  0.83442858  0.15953637  1
  Ca2+  Ca16  1  0.08493455  0.83192321  0.50161990  1
  Ca2+  Ca17  1  0.08270367  0.83091575  0.82065219  1
  Ca2+  Ca18  1  0.58396136  0.32945677  0.17048497  1
  Ca2+  Ca19  1  0.58044169  0.32402874  0.49272369  1
  Ca2+  Ca20  1  0.57782884  0.32438184  0.81767960  1
  Ca2+  Ca21  1  0.57934894  0.84694064  0.16652988  1
  Ca2+  Ca22  1  0.58160587  0.83969686  0.49178341  1
  Ca2+  Ca23  1  0.58744862  0.83585925  0.82849138  1
  Ca2+  Ca24  1  0.32676640  0.40854805  0.17074633  1
  Ca2+  Ca25  1  0.33843097  0.41196543  0.50496502  1
  Ca2+  Ca26  1  0.32941002  0.41409913  0.83769347  1
  Ca2+  Ca27  1  0.33116430  0.92885285  0.17234632  1
  Ca2+  Ca28  1  0.33584512  0.92812032  0.50534407  1
  Ca2+  Ca29  1  0.32183023  0.92943893  0.83659022  1
  Ca2+  Ca30  1  0.83370635  0.42601866  0.17860046  1
  Ca2+  Ca31  1  0.82427235  0.40857206  0.50292947  1
  Ca2+  Ca32  1  0.83352739  0.41827369  0.83329276  1
  Ca2+  Ca33  1  0.82160957  0.92318860  0.17518512  1
  Ca2+  Ca34  1  0.82437197  0.92156964  0.50384617  1
  Ca2+  Ca35  1  0.82458693  0.90859650  0.83479755  1
  Ca2+  Ca36  1  0.41812076  0.16241332  0.16914134  1
  Ca2+  Ca37  1  0.42488112  0.16673383  0.49486609  1
  Ca2+  Ca38  1  0.41783629  0.16630848  0.82568828  1
  Ca2+  Ca39  1  0.41954219  0.67596110  0.16616340  1
  Ca2+  Ca40  1  0.42043368  0.67699732  0.49154761  1
  Ca2+  Ca41  1  0.41906039  0.67046120  0.82727085  1
  Ca2+  Ca42  1  0.91462383  0.17129088  0.16425617  1
  Ca2+  Ca43  1  0.91040121  0.17481433  0.49302701  1
  Ca2+  Ca44  1  0.92593877  0.16886744  0.82636800  1
  Ca2+  Ca45  1  0.90982051  0.66423513  0.16315378  1
  Ca2+  Ca46  1  0.91652242  0.67099291  0.50037118  1
  Ca2+  Ca47  1  0.92113017  0.67179750  0.82425282  1
  Al0+  Al48  1  -0.00135434  0.00071589  -0.00336453  1
  Al0+  Al49  1  0.00028884  -0.00310002  0.33548906  1
  Al0+  Al50  1  -0.00037139  -0.00141666  0.66276414  1
  Al0+  Al51  1  0.00043456  0.50161052  0.00656319  1
  Al0+  Al52  1  0.00177919  0.50044699  0.33367762  1
  Al0+  Al53  1  0.00140611  0.50052490  0.65910791  1
  Al0+  Al54  1  0.49819271  0.00113669  0.00359233  1
  Al0+  Al55  1  0.49697701  0.00071291  0.33166134  1
  Al0+  Al56  1  0.50009049  -0.00029854  0.67323580  1
  Al0+  Al57  1  0.50053751  0.50213758  -0.00074163  1
  Al0+  Al58  1  0.49917784  0.50155917  0.33052403  1
  Al0+  Al59  1  0.50087576  0.50057351  0.66947717  1
  Al0+  Al60  1  0.24879725  0.25151273  0.00375452  1
  Al0+  Al61  1  0.24912727  0.24968675  0.33721726  1
  Al0+  Al62  1  0.24965475  0.25258721  0.66817776  1
  Al0+  Al63  1  0.25057841  0.75077318  0.00068069  1
  Al0+  Al64  1  0.25041344  0.74779836  0.32626102  1
  Al0+  Al65  1  0.25188522  0.74879863  0.66618717  1
  Al0+  Al66  1  0.74711363  0.25088889  -0.00374539  1
  Al0+  Al67  1  0.75010389  0.25112301  0.32763952  1
  Al0+  Al68  1  0.74879055  0.24798026  0.66636455  1
  Al0+  Al69  1  0.74825409  0.74854707  0.00710217  1
  Al0+  Al70  1  0.75146739  0.74839653  0.34001161  1
  Al0+  Al71  1  0.75215584  0.74836440  0.66554537  1
  Al0+  Al72  1  0.82465073  0.57097379  0.35280171  1
  Al0+  Al73  1  0.31879934  0.07185732  0.01736673  1
  Al0+  Al74  1  0.42753614  0.32309556  0.65391734  1
  Al0+  Al75  1  0.92999691  0.31897817  0.65453513  1
  Al0+  Al76  1  0.57039684  0.17890192  0.31639982  1
  Al0+  Al77  1  0.67881208  0.42696077  0.68099317  1
  Al0+  Al78  1  0.92910897  0.32046929  0.31874603  1
  Al0+  Al79  1  0.17544447  0.92757450  0.01470302  1
  Al0+  Al80  1  0.42952166  0.82127680  0.31904196  1
  Al0+  Al81  1  0.82360017  0.07227373  0.34682833  1
  Al0+  Al82  1  0.81940013  0.56817696  0.01167940  1
  Al0+  Al83  1  0.17867295  0.92747832  0.67940878  1
  Al0+  Al84  1  0.67824234  0.93146923  0.34844754  1
  Al0+  Al85  1  0.32002157  0.07310508  0.68276335  1
  Al0+  Al86  1  0.07014927  0.17990654  0.98679031  1
  Al0+  Al87  1  0.92707012  0.82293857  0.64977452  1
  Al0+  Al88  1  0.31824071  0.07099796  0.34935765  1
  Al0+  Al89  1  0.18094394  0.43148292  0.01350517  1
  Al0+  Al90  1  0.42713102  0.32274519  0.31682816  1
  Al0+  Al91  1  0.07283698  0.67997798  0.65112618  1
  Al0+  Al92  1  0.68057168  0.93049393  0.01355768  1
  Al0+  Al93  1  0.68094210  0.92767859  0.68047646  1
  Al0+  Al94  1  0.67777440  0.42888264  0.34768752  1
  Al0+  Al95  1  0.56908678  0.17657515  0.65225678  1
  Si0+  Si96  1  0.18048145  0.42938629  0.35059852  1
  Si0+  Si97  1  0.32000308  0.57227405  0.34717698  1
  Si0+  Si98  1  0.57110731  0.68003004  0.98403482  1
  Si0+  Si99  1  0.57348769  0.67872945  0.31601194  1
  Si0+  Si100  1  0.32525273  0.57383863  0.01759417  1
  Si0+  Si101  1  0.07164708  0.17663248  0.31896548  1
  Si0+  Si102  1  0.82318215  0.07288035  0.68343387  1
  Si0+  Si103  1  0.57306826  0.67739136  0.65244421  1
  Si0+  Si104  1  0.17741655  0.43107194  0.68064042  1
  Si0+  Si105  1  0.43199110  0.81872929  0.65411178  1
  Si0+  Si106  1  0.67548966  0.42655714  0.01612642  1
  Si0+  Si107  1  0.42961965  0.32206877  0.98587362  1
  Si0+  Si108  1  0.92701772  0.81949278  0.98740682  1
  Si0+  Si109  1  0.57068651  0.17798652  0.98298426  1
  Si0+  Si110  1  0.32238319  0.57136678  0.68110568  1
  Si0+  Si111  1  0.82310449  0.56913928  0.68298471  1
  Si0+  Si112  1  0.07363746  0.17681427  0.65002860  1
  Si0+  Si113  1  0.17824542  0.92355110  0.34940119  1
  Si0+  Si114  1  0.82237602  0.07516280  0.01362204  1
  Si0+  Si115  1  0.42912265  0.82234937  0.98258138  1
  Si0+  Si116  1  0.92845666  0.81960406  0.31652395  1
  Si0+  Si117  1  0.07148837  0.67888690  0.98601214  1
  Si0+  Si118  1  0.92763624  0.32456814  0.98396560  1
  Si0+  Si119  1  0.07167346  0.67912472  0.31478406  1
  O2-  O120  1  0.24539115  0.00007607  0.06624569  1
  O2-  O121  1  0.24366757  -0.00522467  0.39318115  1
  O2-  O122  1  0.24274069  0.00529939  0.73106644  1
  O2-  O123  1  0.25686723  0.50490852  0.06132753  1
  O2-  O124  1  0.25478278  0.49754304  0.39175147  1
  O2-  O125  1  0.25203475  0.49914236  0.72231484  1
  O2-  O126  1  0.75376154  0.00689468  0.05801478  1
  O2-  O127  1  0.74858179  0.00451410  0.39857163  1
  O2-  O128  1  0.75824410  -0.00007819  0.72750389  1
  O2-  O129  1  0.74924687  0.48995725  0.05883864  1
  O2-  O130  1  0.75359694  0.49651041  0.39926067  1
  O2-  O131  1  0.75536591  0.50008816  0.72808160  1
  O2-  O132  1  -0.00045339  0.24113343  0.27330105  1
  O2-  O133  1  0.00096213  0.24127825  0.60653871  1
  O2-  O134  1  -0.00739464  0.25243252  0.93996222  1
  O2-  O135  1  -0.00057128  0.74871930  0.27276915  1
  O2-  O136  1  0.00309679  0.75370285  0.60102334  1
  O2-  O137  1  0.00411938  0.75398955  0.94528487  1
  O2-  O138  1  0.49900882  0.25195289  0.26535154  1
  O2-  O139  1  0.49757460  0.25006655  0.60416180  1
  O2-  O140  1  0.50181283  0.25278737  0.94348344  1
  O2-  O141  1  0.50916911  0.75155075  0.27124052  1
  O2-  O142  1  0.50604631  0.75181952  0.61027275  1
  O2-  O143  1  0.50017983  0.75067911  0.94025475  1
  O2-  O144  1  0.06992233  0.18330390  0.09978521  1
  O2-  O145  1  0.07300845  0.18091126  0.42446183  1
  O2-  O146  1  0.07413731  0.18035558  0.75597701  1
  O2-  O147  1  0.07057980  0.67695204  0.09109374  1
  O2-  O148  1  0.07637787  0.68047968  0.41931534  1
  O2-  O149  1  0.07130755  0.67725179  0.76535059  1
  O2-  O150  1  0.57324513  0.17730607  0.08745714  1
  O2-  O151  1  0.56763137  0.17694884  0.42954983  1
  O2-  O152  1  0.56795964  0.17723647  0.76689785  1
  O2-  O153  1  0.56948679  0.67801391  0.08857284  1
  O2-  O154  1  0.56849697  0.67688908  0.42174570  1
  O2-  O155  1  0.57044465  0.67648869  0.75813411  1
  O2-  O156  1  0.17946427  0.43164277  0.24526522  1
  O2-  O157  1  0.17636438  0.43311019  0.57572505  1
  O2-  O158  1  0.18072997  0.43398258  0.90010537  1
  O2-  O159  1  0.17899757  0.92225188  0.24375554  1
  O2-  O160  1  0.18602416  0.92534443  0.56599257  1
  O2-  O161  1  0.17842081  0.92539252  0.90153502  1
  O2-  O162  1  0.67836116  0.43338861  0.23347548  1
  O2-  O163  1  0.67707658  0.42939745  0.56873424  1
  O2-  O164  1  0.67336124  0.42879004  0.91047212  1
  O2-  O165  1  0.68108304  0.93166110  0.23446069  1
  O2-  O166  1  0.67845033  0.92744619  0.56835415  1
  O2-  O167  1  0.68219146  0.92807738  0.90038162  1
  O2-  O168  1  0.43091225  0.32376065  0.09049887  1
  O2-  O169  1  0.42706188  0.32253895  0.42979158  1
  O2-  O170  1  0.42890896  0.32469116  0.76834673  1
  O2-  O171  1  0.42966537  0.82048280  0.08754256  1
  O2-  O172  1  0.42743180  0.81715447  0.43247370  1
  O2-  O173  1  0.43223600  0.81442494  0.75950456  1
  O2-  O174  1  0.92923609  0.32525351  0.08930941  1
  O2-  O175  1  0.93268243  0.32209575  0.43181949  1
  O2-  O176  1  0.93432741  0.32061364  0.76825748  1
  O2-  O177  1  0.92625009  0.81621141  0.09254212  1
  O2-  O178  1  0.92994599  0.81919823  0.42094646  1
  O2-  O179  1  0.92400942  0.81623185  0.76426000  1
  O2-  O180  1  0.31613425  0.07110961  0.23637089  1
  O2-  O181  1  0.32140743  0.07061846  0.56932723  1
  O2-  O182  1  0.31948411  0.07142193  0.90395477  1
  O2-  O183  1  0.31531411  0.57478833  0.24215679  1
  O2-  O184  1  0.32274306  0.57407660  0.57616881  1
  O2-  O185  1  0.32662307  0.57359148  0.91176180  1
  O2-  O186  1  0.82567007  0.06695435  0.23263142  1
  O2-  O187  1  0.82107234  0.07456858  0.57832945  1
  O2-  O188  1  0.82189601  0.07555241  0.90809557  1
  O2-  O189  1  0.82300661  0.57018289  0.23850024  1
  O2-  O190  1  0.82200571  0.56874122  0.57809439  1
  O2-  O191  1  0.81861055  0.56858991  0.89846539  1
  O2-  O192  1  0.05282817  0.08032597  0.27535041  1
  O2-  O193  1  0.05538092  0.08165533  0.60541550  1
  O2-  O194  1  0.04236474  0.08303198  0.93047857  1
  O2-  O195  1  0.04480265  0.58672866  0.26779746  1
  O2-  O196  1  0.04381275  0.58343785  0.59518412  1
  O2-  O197  1  0.03999217  0.58792269  0.93859538  1
  O2-  O198  1  0.53829146  0.08169712  0.26251879  1
  O2-  O199  1  0.53939356  0.07774372  0.60147028  1
  O2-  O200  1  0.53895319  0.08684982  0.93634422  1
  O2-  O201  1  0.54209316  0.58857672  0.26625436  1
  O2-  O202  1  0.53980057  0.58821990  0.60428200  1
  O2-  O203  1  0.54328154  0.58830346  0.93455433  1
  O2-  O204  1  0.16264797  0.20940006  0.27194802  1
  O2-  O205  1  0.16499237  0.20860245  0.60371651  1
  O2-  O206  1  0.16569335  0.21626188  0.93311335  1
  O2-  O207  1  0.16220059  0.70603592  0.26376590  1
  O2-  O208  1  0.17262710  0.70534317  0.59799595  1
  O2-  O209  1  0.16579521  0.70007257  0.93969592  1
  O2-  O210  1  0.66862459  0.20547254  0.26131806  1
  O2-  O211  1  0.66814712  0.20271275  0.60156919  1
  O2-  O212  1  0.66308503  0.20277885  0.93378545  1
  O2-  O213  1  0.66958883  0.69978438  0.27354743  1
  O2-  O214  1  0.66570863  0.69965933  0.60622890  1
  O2-  O215  1  0.66284966  0.70922340  0.93719157  1
  O2-  O216  1  0.08649193  0.46408699  0.07055360  1
  O2-  O217  1  0.09101986  0.46283025  0.39823511  1
  O2-  O218  1  0.08761692  0.46354625  0.72940539  1
  O2-  O219  1  0.07456838  0.95159498  0.06455825  1
  O2-  O220  1  0.08335508  0.94389752  0.39400353  1
  O2-  O221  1  0.07557805  0.94491568  0.72673909  1
  O2-  O222  1  0.58409268  0.45833189  0.06263578  1
  O2-  O223  1  0.57978184  0.46227734  0.39915772  1
  O2-  O224  1  0.58415045  0.46281157  0.73723700  1
  O2-  O225  1  0.58344712  0.96026323  0.06552621  1
  O2-  O226  1  0.57817116  0.95637948  0.39808823  1
  O2-  O227  1  0.58564038  0.95870871  0.73759940  1
  O2-  O228  1  0.21100440  0.33683544  0.07013980  1
  O2-  O229  1  0.20378295  0.33765259  0.39882521  1
  O2-  O230  1  0.20150164  0.33928949  0.72960684  1
  O2-  O231  1  0.20387760  0.82816903  0.06682396  1
  O2-  O232  1  0.20741936  0.82990421  0.39301316  1
  O2-  O233  1  0.21268278  0.83032827  0.73316284  1
  O2-  O234  1  0.69508025  0.33063903  0.05900960  1
  O2-  O235  1  0.70339363  0.32908235  0.39672348  1
  O2-  O236  1  0.70854496  0.33052836  0.73580999  1
  O2-  O237  1  0.70992963  0.83473729  0.06911215  1
  O2-  O238  1  0.70526716  0.83210013  0.39912625  1
  O2-  O239  1  0.71005922  0.82927135  0.73426222  1
  O2-  O240  1  0.45096082  0.42321253  0.26412259  1
  O2-  O241  1  0.45462933  0.42294652  0.60314579  1
  O2-  O242  1  0.45368378  0.41610321  0.93940271  1
  O2-  O243  1  0.45662584  0.91706030  0.26287728  1
  O2-  O244  1  0.45747795  0.91154432  0.60955695  1
  O2-  O245  1  0.45804005  0.91403502  0.93627349  1
  O2-  O246  1  0.96679112  0.41625401  0.26579096  1
  O2-  O247  1  0.96396191  0.41305768  0.59848646  1
  O2-  O248  1  0.95909918  0.41719788  0.93890056  1
  O2-  O249  1  0.95626967  0.91132485  0.26813199  1
  O2-  O250  1  0.94915362  0.92232979  0.59625346  1
  O2-  O251  1  0.94545821  0.91331912  0.94041969  1
  O2-  O252  1  0.32702648  0.29281639  0.26688343  1
  O2-  O253  1  0.32676213  0.30169629  0.60313279  1
  O2-  O254  1  0.33719640  0.29450331  0.94005431  1
  O2-  O255  1  0.33632221  0.78320565  0.26177789  1
  O2-  O256  1  0.34283013  0.78633481  0.60537431  1
  O2-  O257  1  0.33745299  0.79253108  0.93536247  1
  O2-  O258  1  0.83286996  0.29707413  0.26127849  1
  O2-  O259  1  0.83270961  0.29054252  0.60216612  1
  O2-  O260  1  0.83167192  0.30415118  0.93951809  1
  O2-  O261  1  0.83614964  0.79043112  0.27016829  1
  O2-  O262  1  0.83085433  0.78852399  0.59552145  1
  O2-  O263  1  0.83697333  0.78422424  0.94046726  1
  O2-  O264  1  0.41622182  0.04040404  0.06981410  1
  O2-  O265  1  0.41389382  0.03736156  0.40125487  1
  O2-  O266  1  0.41532317  0.03864364  0.73801643  1
  O2-  O267  1  0.41903227  0.54977932  0.06380430  1
  O2-  O268  1  0.41385957  0.55203627  0.39266617  1
  O2-  O269  1  0.41319340  0.54599422  0.73213885  1
  O2-  O270  1  0.91601334  0.05122976  0.05898995  1
  O2-  O271  1  0.92098481  0.04171339  0.40125484  1
  O2-  O272  1  0.91917821  0.05161460  0.72686116  1
  O2-  O273  1  0.91601489  0.54342690  0.06834885  1
  O2-  O274  1  0.92533000  0.54671990  0.40178681  1
  O2-  O275  1  0.91766883  0.54296112  0.72730610  1
  O2-  O276  1  0.29090769  0.17007476  0.06995491  1
  O2-  O277  1  0.28659910  0.16664829  0.40447834  1
  O2-  O278  1  0.29452624  0.17326967  0.73468630  1
  O2-  O279  1  0.29921801  0.66720109  0.06298533  1
  O2-  O280  1  0.28679677  0.66203224  0.39583857  1
  O2-  O281  1  0.29323018  0.66131778  0.73174508  1
  O2-  O282  1  0.79684025  0.16969356  0.05857971  1
  O2-  O283  1  0.80128804  0.17378295  0.39342976  1
  O2-  O284  1  0.79482116  0.16398507  0.73319482  1
  O2-  O285  1  0.78475915  0.66162722  0.06940664  1
  O2-  O286  1  0.79537024  0.66818961  0.40591483  1
  O2-  O287  1  0.79627214  0.66217761  0.72939655  1
