# generated using pymatgen
data_Ca2Al2SiO7
_symmetry_space_group_name_H-M   'P 1'
_cell_length_a   15.46825149
_cell_length_b   15.47011434
_cell_length_c   15.29084599
_cell_angle_alpha   89.98994944
_cell_angle_beta   90.01867593
_cell_angle_gamma   90.02521236
_symmetry_Int_Tables_number   1
_chemical_formula_structural   Ca2Al2SiO7
_chemical_formula_sum   'Ca48 Al48 Si24 O168'
_cell_volume   3659.03185422
_cell_formula_units_Z   24
loop_
 _symmetry_equiv_pos_site_id
 _symmetry_equiv_pos_as_xyz
  1  'x, y, z'
loop_
 _atom_type_symbol
 _atom_type_oxidation_number
  Ca2+  2.0
  Al0+  0.0
  Si0+  0.0
  O2-  -2.0
loop_
 _atom_site_type_symbol
 _atom_site_label
 _atom_site_symmetry_multiplicity
 _atom_site_fract_x
 _atom_site_fract_y
 _atom_site_fract_z
 _atom_site_occupancy
  Ca2+  Ca0  1  0.16649401  0.07819029  0.17516965  1
  Ca2+  Ca1  1  0.17055052  0.09170931  0.49694355  1
  Ca2+  Ca2  1  0.16602637  0.07490810  0.84237553  1
  Ca2+  Ca3  1  0.16774289  0.57688859  0.17278858  1
  Ca2+  Ca4  1  0.17333944  0.58512439  0.49799626  1
  Ca2+  Ca5  1  0.17723136  0.58306913  0.84646831  1
  Ca2+  Ca6  1  0.65683668  0.07957169  0.16823768  1
  Ca2+  Ca7  1  0.66993613  0.07969575  0.50811755  1
  Ca2+  Ca8  1  0.66911687  0.07631122  0.83965788  1
  Ca2+  Ca9  1  0.67103858  0.57892459  0.17624373  1
  Ca2+  Ca10  1  0.66653170  0.57527138  0.50081027  1
  Ca2+  Ca11  1  0.67307869  0.57071737  0.84688831  1
  Ca2+  Ca12  1  0.08287221  0.33758886  0.15834184  1
  Ca2+  Ca13  1  0.07640498  0.33296373  0.49079413  1
  Ca2+  Ca14  1  0.06995492  0.34446358  0.83281762  1
  Ca2+  Ca15  1  0.08544151  0.82111139  0.16003645  1
  Ca2+  Ca16  1  0.07782365  0.82614254  0.49115898  1
  Ca2+  Ca17  1  0.08732440  0.82835820  0.83507813  1
  Ca2+  Ca18  1  0.59470544  0.32483286  0.16112250  1
  Ca2+  Ca19  1  0.58704988  0.33187027  0.49271328  1
  Ca2+  Ca20  1  0.59426370  0.33102102  0.83192859  1
  Ca2+  Ca21  1  0.58332475  0.82001391  0.15949626  1
  Ca2+  Ca22  1  0.58315792  0.82793616  0.49304284  1
  Ca2+  Ca23  1  0.59245570  0.82786942  0.83530665  1
  Ca2+  Ca24  1  0.32388741  0.42587048  0.17056566  1
  Ca2+  Ca25  1  0.32935473  0.42739163  0.49942096  1
  Ca2+  Ca26  1  0.32643362  0.42674802  0.84002859  1
  Ca2+  Ca27  1  0.33087921  0.92220312  0.16709411  1
  Ca2+  Ca28  1  0.33471998  0.92388591  0.49838655  1
  Ca2+  Ca29  1  0.32875918  0.91866691  0.84049572  1
  Ca2+  Ca30  1  0.82745628  0.42419220  0.16518269  1
  Ca2+  Ca31  1  0.82449077  0.41606245  0.50032519  1
  Ca2+  Ca32  1  0.82909352  0.41391826  0.84000250  1
  Ca2+  Ca33  1  0.82710516  0.91536876  0.16700860  1
  Ca2+  Ca34  1  0.82622535  0.92469878  0.50909864  1
  Ca2+  Ca35  1  0.82621828  0.92380436  0.83673077  1
  Ca2+  Ca36  1  0.42324844  0.16799554  0.16351631  1
  Ca2+  Ca37  1  0.42283139  0.16928455  0.48676582  1
  Ca2+  Ca38  1  0.42367605  0.16917958  0.83354972  1
  Ca2+  Ca39  1  0.42533019  0.65377500  0.16311593  1
  Ca2+  Ca40  1  0.41865536  0.66323951  0.49345284  1
  Ca2+  Ca41  1  0.42147766  0.65641465  0.83390082  1
  Ca2+  Ca42  1  0.92208331  0.17792040  0.16127502  1
  Ca2+  Ca43  1  0.91572201  0.17276052  0.49592660  1
  Ca2+  Ca44  1  0.91203832  0.17897110  0.82826522  1
  Ca2+  Ca45  1  0.92453250  0.65274769  0.16195500  1
  Ca2+  Ca46  1  0.91886242  0.66667568  0.48982808  1
  Ca2+  Ca47  1  0.92429166  0.65561122  0.83650908  1
  Al0+  Al48  1  0.00056265  -0.00058963  0.00440415  1
  Al0+  Al49  1  -0.00273313  0.00091518  0.33020880  1
  Al0+  Al50  1  0.00115678  -0.00103005  0.66911561  1
  Al0+  Al51  1  -0.00035394  0.49961479  -0.00387636  1
  Al0+  Al52  1  -0.00264607  0.50112669  0.33744102  1
  Al0+  Al53  1  0.00036593  0.49845436  0.65688179  1
  Al0+  Al54  1  0.50162466  -0.00033057  -0.00230774  1
  Al0+  Al55  1  0.49769103  0.00015732  0.33352351  1
  Al0+  Al56  1  0.49863473  -0.00259682  0.66977172  1
  Al0+  Al57  1  0.49985211  0.49569843  0.00103061  1
  Al0+  Al58  1  0.49748393  0.49865176  0.33664249  1
  Al0+  Al59  1  0.49992260  0.49845848  0.67293589  1
  Al0+  Al60  1  0.25256643  0.24979289  -0.00035315  1
  Al0+  Al61  1  0.24963988  0.24831059  0.33728227  1
  Al0+  Al62  1  0.25182585  0.25129265  0.66758516  1
  Al0+  Al63  1  0.25204160  0.75309316  0.00362408  1
  Al0+  Al64  1  0.24740024  0.75258144  0.33311791  1
  Al0+  Al65  1  0.25342664  0.75111276  0.66792960  1
  Al0+  Al66  1  0.75302977  0.24885266  -0.00516501  1
  Al0+  Al67  1  0.75051412  0.24848874  0.33103015  1
  Al0+  Al68  1  0.75193591  0.24927610  0.66697936  1
  Al0+  Al69  1  0.75158719  0.75275324  0.00193732  1
  Al0+  Al70  1  0.74769668  0.75097551  0.33417207  1
  Al0+  Al71  1  0.75182634  0.74877835  0.66852557  1
  Al0+  Al72  1  0.32299795  0.57241891  0.01590859  1
  Al0+  Al73  1  0.92886619  0.31994893  0.64924361  1
  Al0+  Al74  1  0.31990527  0.57328081  0.34870751  1
  Al0+  Al75  1  0.17809185  0.92992019  0.01487785  1
  Al0+  Al76  1  0.67878660  0.42672974  0.34765758  1
  Al0+  Al77  1  0.68066596  0.43011677  0.68044668  1
  Al0+  Al78  1  0.67972676  0.42613904  0.01474846  1
  Al0+  Al79  1  0.67712513  0.92681288  0.68221755  1
  Al0+  Al80  1  0.57021603  0.17947935  0.98434133  1
  Al0+  Al81  1  0.31930840  0.57162769  0.68146657  1
  Al0+  Al82  1  0.81924035  0.57322656  0.34950853  1
  Al0+  Al83  1  0.82072278  0.57204367  0.01305414  1
  Al0+  Al84  1  0.07078773  0.68106244  0.98656804  1
  Al0+  Al85  1  0.17825595  0.42977984  0.01240406  1
  Al0+  Al86  1  0.07101679  0.17973543  0.31979344  1
  Al0+  Al87  1  0.93222538  0.32019006  0.98603213  1
  Al0+  Al88  1  0.57135114  0.17927465  0.32064822  1
  Al0+  Al89  1  0.82207294  0.07069798  0.68178069  1
  Al0+  Al90  1  0.32010354  0.06982127  0.34600092  1
  Al0+  Al91  1  0.17662334  0.42775897  0.34883915  1
  Al0+  Al92  1  0.06911040  0.67963124  0.31951481  1
  Al0+  Al93  1  0.57220638  0.67643170  0.98685742  1
  Al0+  Al94  1  0.56829662  0.67844444  0.32187018  1
  Al0+  Al95  1  0.67911208  0.93036699  0.01624642  1
  Si0+  Si96  1  0.82117136  0.06995115  0.34729265  1
  Si0+  Si97  1  0.17474120  0.92988093  0.35138435  1
  Si0+  Si98  1  0.42572743  0.32151402  0.98058952  1
  Si0+  Si99  1  0.56883168  0.17821817  0.65227602  1
  Si0+  Si100  1  0.42689312  0.32157759  0.31715054  1
  Si0+  Si101  1  0.92815034  0.82598888  0.98149209  1
  Si0+  Si102  1  0.18081378  0.92958779  0.68017397  1
  Si0+  Si103  1  0.42689306  0.82344494  0.31661900  1
  Si0+  Si104  1  0.42859236  0.32138119  0.65040126  1
  Si0+  Si105  1  0.57090035  0.67807861  0.65354491  1
  Si0+  Si106  1  0.07405081  0.17563313  0.65102175  1
  Si0+  Si107  1  0.07466315  0.17643190  0.98407363  1
  Si0+  Si108  1  0.92965098  0.82183016  0.65201142  1
  Si0+  Si109  1  0.67745261  0.93016064  0.34789512  1
  Si0+  Si110  1  0.32274455  0.07163068  0.01533532  1
  Si0+  Si111  1  0.92786545  0.32210836  0.31495321  1
  Si0+  Si112  1  0.32184710  0.07281178  0.68209651  1
  Si0+  Si113  1  0.92560003  0.82295860  0.31653001  1
  Si0+  Si114  1  0.17715259  0.42799451  0.68235929  1
  Si0+  Si115  1  0.82242558  0.07227477  0.01877582  1
  Si0+  Si116  1  0.43044526  0.82206158  0.98243229  1
  Si0+  Si117  1  0.42826080  0.82157042  0.65044947  1
  Si0+  Si118  1  0.07317919  0.68080847  0.65157741  1
  Si0+  Si119  1  0.82489608  0.57241572  0.68253576  1
  O2-  O120  1  0.24954513  0.00823212  0.05945495  1
  O2-  O121  1  0.24329562  -0.00151133  0.39609594  1
  O2-  O122  1  0.24726297  0.00496722  0.72267182  1
  O2-  O123  1  0.24729480  0.50343719  0.06342844  1
  O2-  O124  1  0.24686304  0.50202129  0.39887592  1
  O2-  O125  1  0.24207506  0.49955208  0.72672872  1
  O2-  O126  1  0.75327732  0.00479018  0.06420336  1
  O2-  O127  1  0.74826368  0.00105329  0.38998714  1
  O2-  O128  1  0.74786744  0.00054909  0.73108481  1
  O2-  O129  1  0.74177503  0.50757200  0.06284462  1
  O2-  O130  1  0.74737411  0.50116491  0.39943998  1
  O2-  O131  1  0.75589960  0.50444388  0.72588061  1
  O2-  O132  1  0.00282368  0.25909031  0.27202693  1
  O2-  O133  1  0.00574766  0.24448386  0.60676911  1
  O2-  O134  1  0.00926152  0.24670445  0.93862491  1
  O2-  O135  1  -0.00809096  0.75221639  0.27313991  1
  O2-  O136  1  -0.00182038  0.74833633  0.60982346  1
  O2-  O137  1  -0.00482838  0.75482685  0.93769367  1
  O2-  O138  1  0.50026897  0.25708471  0.27374508  1
  O2-  O139  1  0.49909646  0.24935316  0.60836672  1
  O2-  O140  1  0.49875002  0.25646296  0.93630923  1
  O2-  O141  1  0.48999137  0.74934312  0.27429564  1
  O2-  O142  1  0.50208282  0.75208794  0.61112338  1
  O2-  O143  1  0.49551159  0.74961108  0.93831869  1
  O2-  O144  1  0.07297803  0.17560935  0.08951597  1
  O2-  O145  1  0.06603793  0.17772441  0.43331484  1
  O2-  O146  1  0.07568326  0.17332631  0.75638512  1
  O2-  O147  1  0.06932354  0.68124130  0.09911741  1
  O2-  O148  1  0.06952595  0.68524181  0.43360511  1
  O2-  O149  1  0.07424078  0.68251465  0.75658845  1
  O2-  O150  1  0.56678254  0.17818070  0.09741331  1
  O2-  O151  1  0.57000361  0.17638735  0.43447242  1
  O2-  O152  1  0.56592401  0.17794141  0.75720270  1
  O2-  O153  1  0.57111707  0.67929813  0.09981568  1
  O2-  O154  1  0.56900394  0.68305250  0.43583230  1
  O2-  O155  1  0.56974416  0.67876333  0.75838746  1
  O2-  O156  1  0.17857786  0.42756246  0.23562652  1
  O2-  O157  1  0.17946778  0.42629547  0.57708537  1
  O2-  O158  1  0.17942181  0.43152272  0.89824242  1
  O2-  O159  1  0.17489257  0.93099376  0.24624167  1
  O2-  O160  1  0.18216476  0.92801650  0.57533802  1
  O2-  O161  1  0.18022981  0.93103402  0.90068782  1
  O2-  O162  1  0.68234968  0.42470734  0.23486177  1
  O2-  O163  1  0.67854612  0.43112944  0.56751481  1
  O2-  O164  1  0.68474714  0.42559260  0.90078017  1
  O2-  O165  1  0.67776709  0.93068399  0.24314278  1
  O2-  O166  1  0.67757964  0.92829050  0.56789267  1
  O2-  O167  1  0.68028320  0.93224092  0.90319868  1
  O2-  O168  1  0.41977622  0.31722497  0.08549567  1
  O2-  O169  1  0.42714600  0.31817364  0.42355036  1
  O2-  O170  1  0.42570155  0.31874538  0.75506912  1
  O2-  O171  1  0.43304881  0.82763729  0.08762308  1
  O2-  O172  1  0.43054556  0.82736089  0.42281770  1
  O2-  O173  1  0.42268633  0.82393188  0.75471253  1
  O2-  O174  1  0.93245461  0.31777846  0.09887449  1
  O2-  O175  1  0.92560910  0.31691545  0.42085293  1
  O2-  O176  1  0.93084773  0.32087823  0.76217447  1
  O2-  O177  1  0.93068894  0.83096456  0.08673785  1
  O2-  O178  1  0.92790485  0.82532783  0.42288135  1
  O2-  O179  1  0.93157219  0.82477700  0.75645285  1
  O2-  O180  1  0.32210565  0.06584651  0.23343622  1
  O2-  O181  1  0.32406373  0.07155654  0.57728035  1
  O2-  O182  1  0.32201556  0.06912171  0.90890610  1
  O2-  O183  1  0.31964464  0.57179049  0.23609366  1
  O2-  O184  1  0.31829967  0.57264175  0.56870251  1
  O2-  O185  1  0.32029457  0.57059431  0.90157209  1
  O2-  O186  1  0.82268604  0.06820760  0.24264188  1
  O2-  O187  1  0.82070839  0.06834629  0.56745794  1
  O2-  O188  1  0.82229058  0.07011142  0.91307938  1
  O2-  O189  1  0.81857034  0.57371926  0.23657823  1
  O2-  O190  1  0.82315982  0.57520285  0.57718744  1
  O2-  O191  1  0.82214954  0.56794048  0.89883814  1
  O2-  O192  1  0.03664183  0.08420308  0.26516152  1
  O2-  O193  1  0.05032235  0.08109635  0.60506499  1
  O2-  O194  1  0.04622937  0.08277206  0.93870945  1
  O2-  O195  1  0.04009441  0.58155916  0.26844060  1
  O2-  O196  1  0.04999704  0.58836714  0.60361754  1
  O2-  O197  1  0.04009956  0.58576464  0.92960892  1
  O2-  O198  1  0.53605407  0.08353661  0.26732524  1
  O2-  O199  1  0.53974945  0.08534413  0.60674262  1
  O2-  O200  1  0.53569968  0.08419941  0.92879904  1
  O2-  O201  1  0.54118848  0.58019258  0.27005637  1
  O2-  O202  1  0.53895679  0.58693379  0.60723833  1
  O2-  O203  1  0.54295096  0.57861237  0.93334769  1
  O2-  O204  1  0.17134245  0.20015468  0.26956824  1
  O2-  O205  1  0.16894915  0.20160179  0.60618297  1
  O2-  O206  1  0.17031252  0.19557371  0.93913063  1
  O2-  O207  1  0.16488900  0.71348255  0.26604454  1
  O2-  O208  1  0.16349805  0.71484890  0.60472119  1
  O2-  O209  1  0.16772801  0.71598083  0.93376404  1
  O2-  O210  1  0.66880432  0.20429950  0.26564710  1
  O2-  O211  1  0.66183766  0.20377106  0.60696136  1
  O2-  O212  1  0.66792954  0.20637233  0.93077227  1
  O2-  O213  1  0.66362063  0.71362719  0.26830349  1
  O2-  O214  1  0.66429934  0.70328327  0.60720050  1
  O2-  O215  1  0.66863015  0.71123099  0.93357590  1
  O2-  O216  1  0.07990007  0.45640088  0.06381950  1
  O2-  O217  1  0.07826221  0.45473572  0.40208988  1
  O2-  O218  1  0.08150078  0.45239679  0.72363172  1
  O2-  O219  1  0.08198320  0.95751709  0.07041104  1
  O2-  O220  1  0.08072005  0.95595222  0.39692688  1
  O2-  O221  1  0.08850620  0.95216007  0.72860931  1
  O2-  O222  1  0.57696383  0.43979970  0.06149227  1
  O2-  O223  1  0.57885040  0.45054758  0.39960794  1
  O2-  O224  1  0.58439647  0.45815620  0.73589220  1
  O2-  O225  1  0.58262902  0.96307270  0.06864292  1
  O2-  O226  1  0.58603466  0.95781624  0.39574773  1
  O2-  O227  1  0.57785220  0.95226396  0.73453496  1
  O2-  O228  1  0.20605142  0.32979801  0.06267074  1
  O2-  O229  1  0.20554298  0.32981164  0.40280489  1
  O2-  O230  1  0.20490268  0.33508833  0.72903186  1
  O2-  O231  1  0.21221669  0.83646451  0.07094613  1
  O2-  O232  1  0.20145503  0.83748346  0.39885129  1
  O2-  O233  1  0.21401395  0.84056014  0.72940217  1
  O2-  O234  1  0.71679841  0.32968228  0.06558014  1
  O2-  O235  1  0.71073674  0.32828382  0.40084101  1
  O2-  O236  1  0.71059302  0.33256384  0.73169566  1
  O2-  O237  1  0.70991483  0.83466236  0.07097075  1
  O2-  O238  1  0.70538894  0.83958830  0.39708121  1
  O2-  O239  1  0.70843054  0.82891583  0.73423600  1
  O2-  O240  1  0.44584301  0.41670917  0.27345883  1
  O2-  O241  1  0.45833892  0.41326670  0.60444843  1
  O2-  O242  1  0.44740932  0.41567756  0.93463751  1
  O2-  O243  1  0.45826359  0.91403134  0.26825072  1
  O2-  O244  1  0.45486747  0.91403598  0.60184241  1
  O2-  O245  1  0.45944868  0.91357434  0.93270885  1
  O2-  O246  1  0.94680867  0.41830869  0.27386200  1
  O2-  O247  1  0.95791166  0.41591090  0.59194241  1
  O2-  O248  1  0.96174671  0.41519278  0.92783213  1
  O2-  O249  1  0.95208390  0.91545260  0.26908701  1
  O2-  O250  1  0.96035502  0.91238782  0.60232974  1
  O2-  O251  1  0.95843837  0.91829764  0.93379335  1
  O2-  O252  1  0.33562632  0.28929836  0.27134982  1
  O2-  O253  1  0.33665899  0.29383300  0.60214503  1
  O2-  O254  1  0.33489068  0.29048690  0.92931469  1
  O2-  O255  1  0.33035192  0.80669461  0.27433117  1
  O2-  O256  1  0.33795132  0.79236457  0.59980719  1
  O2-  O257  1  0.33496526  0.80169455  0.93750984  1
  O2-  O258  1  0.83792877  0.28796235  0.26740733  1
  O2-  O259  1  0.83297578  0.28596998  0.59472202  1
  O2-  O260  1  0.83845901  0.28517911  0.92870614  1
  O2-  O261  1  0.83067682  0.80137463  0.27249199  1
  O2-  O262  1  0.83691538  0.79611638  0.60416306  1
  O2-  O263  1  0.83347699  0.80463973  0.93651277  1
  O2-  O264  1  0.41381301  0.03944457  0.06112751  1
  O2-  O265  1  0.41473887  0.03526142  0.40371959  1
  O2-  O266  1  0.41093360  0.04037665  0.73158259  1
  O2-  O267  1  0.41962749  0.53919728  0.06778732  1
  O2-  O268  1  0.41683754  0.54282164  0.40430392  1
  O2-  O269  1  0.41423818  0.53761067  0.73574011  1
  O2-  O270  1  0.91557425  0.04625089  0.06517670  1
  O2-  O271  1  0.91132161  0.04001068  0.39722317  1
  O2-  O272  1  0.92020532  0.04094515  0.73465569  1
  O2-  O273  1  0.91646370  0.53549227  0.06501621  1
  O2-  O274  1  0.91707387  0.54637317  0.40387361  1
  O2-  O275  1  0.92022746  0.54553889  0.72422144  1
  O2-  O276  1  0.30391149  0.16649821  0.05958453  1
  O2-  O277  1  0.29233231  0.16488145  0.40437088  1
  O2-  O278  1  0.29848552  0.16554100  0.72965289  1
  O2-  O279  1  0.30283378  0.67350765  0.06455644  1
  O2-  O280  1  0.29243102  0.67346626  0.40062013  1
  O2-  O281  1  0.29196843  0.66952507  0.73482410  1
  O2-  O282  1  0.79730987  0.16580861  0.06295995  1
  O2-  O283  1  0.79428614  0.16153499  0.39474901  1
  O2-  O284  1  0.79397093  0.16833682  0.73425970  1
  O2-  O285  1  0.80575133  0.67420692  0.06186521  1
  O2-  O286  1  0.79160372  0.67274031  0.40287352  1
  O2-  O287  1  0.80335654  0.66658952  0.72880887  1
