# generated using pymatgen
data_Ca2Al2SiO7
_symmetry_space_group_name_H-M   'P 1'
_cell_length_a   15.46093725
_cell_length_b   15.46093525
_cell_length_c   15.28595149
_cell_angle_alpha   89.99417220
_cell_angle_beta   89.99911923
_cell_angle_gamma   89.99323811
_symmetry_Int_Tables_number   1
_chemical_formula_structural   Ca2Al2SiO7
_chemical_formula_sum   'Ca48 Al48 Si24 O168'
_cell_volume   3653.96220164
_cell_formula_units_Z   24
loop_
 _symmetry_equiv_pos_site_id
 _symmetry_equiv_pos_as_xyz
  1  'x, y, z'
loop_
 _atom_type_symbol
 _atom_type_oxidation_number
  Ca2+  2.0
  Al0+  0.0
  Si0+  0.0
  O2-  -2.0
loop_
 _atom_site_type_symbol
 _atom_site_label
 _atom_site_symmetry_multiplicity
 _atom_site_fract_x
 _atom_site_fract_y
 _atom_site_fract_z
 _atom_site_occupancy
  Ca2+  Ca0  1  0.15979056  0.08019262  0.17500113  1
  Ca2+  Ca1  1  0.16506718  0.08119546  0.50501037  1
  Ca2+  Ca2  1  0.16659094  0.09147573  0.83419178  1
  Ca2+  Ca3  1  0.16160959  0.57876662  0.17528213  1
  Ca2+  Ca4  1  0.16252125  0.57218874  0.50508393  1
  Ca2+  Ca5  1  0.16901653  0.57867718  0.83433237  1
  Ca2+  Ca6  1  0.67550137  0.08390565  0.17523985  1
  Ca2+  Ca7  1  0.68237871  0.08685982  0.50399160  1
  Ca2+  Ca8  1  0.67337521  0.08376458  0.83385174  1
  Ca2+  Ca9  1  0.66528914  0.57627428  0.16939693  1
  Ca2+  Ca10  1  0.67013192  0.58115925  0.50191363  1
  Ca2+  Ca11  1  0.67893488  0.58157319  0.84398261  1
  Ca2+  Ca12  1  0.07341075  0.32847076  0.16205916  1
  Ca2+  Ca13  1  0.07641617  0.33002260  0.49409912  1
  Ca2+  Ca14  1  0.07278243  0.32967526  0.82483191  1
  Ca2+  Ca15  1  0.08881690  0.82282037  0.16654037  1
  Ca2+  Ca16  1  0.08814130  0.82609020  0.49133667  1
  Ca2+  Ca17  1  0.08456997  0.82460445  0.83405026  1
  Ca2+  Ca18  1  0.57910595  0.34313280  0.16098128  1
  Ca2+  Ca19  1  0.58333428  0.33568455  0.49427909  1
  Ca2+  Ca20  1  0.57796945  0.34339644  0.83631304  1
  Ca2+  Ca21  1  0.58219174  0.82163251  0.16452563  1
  Ca2+  Ca22  1  0.57054708  0.82676977  0.49173369  1
  Ca2+  Ca23  1  0.58036759  0.82602437  0.82629419  1
  Ca2+  Ca24  1  0.32612781  0.41592428  0.17292556  1
  Ca2+  Ca25  1  0.31757527  0.42237675  0.50696088  1
  Ca2+  Ca26  1  0.32708523  0.41501590  0.83461606  1
  Ca2+  Ca27  1  0.32800638  0.91785104  0.17514261  1
  Ca2+  Ca28  1  0.33060171  0.91512307  0.50506955  1
  Ca2+  Ca29  1  0.33797008  0.92156613  0.83136416  1
  Ca2+  Ca30  1  0.82786853  0.41254691  0.16999021  1
  Ca2+  Ca31  1  0.83315596  0.41629740  0.50368787  1
  Ca2+  Ca32  1  0.83467439  0.42166595  0.84008422  1
  Ca2+  Ca33  1  0.83649896  0.92553963  0.17355476  1
  Ca2+  Ca34  1  0.83954476  0.93189104  0.50361940  1
  Ca2+  Ca35  1  0.84028242  0.92624260  0.83521437  1
  Ca2+  Ca36  1  0.41848071  0.17558665  0.16069182  1
  Ca2+  Ca37  1  0.41543735  0.16411577  0.49993303  1
  Ca2+  Ca38  1  0.41540730  0.17154248  0.82918718  1
  Ca2+  Ca39  1  0.42789022  0.66654236  0.16533311  1
  Ca2+  Ca40  1  0.41357206  0.67400087  0.49308300  1
  Ca2+  Ca41  1  0.42284684  0.66670683  0.82533064  1
  Ca2+  Ca42  1  0.92276569  0.17482447  0.16449971  1
  Ca2+  Ca43  1  0.92137365  0.17436316  0.49305103  1
  Ca2+  Ca44  1  0.92326139  0.17754127  0.82457062  1
  Ca2+  Ca45  1  0.92780920  0.65949663  0.16222921  1
  Ca2+  Ca46  1  0.91994924  0.66525923  0.49645663  1
  Ca2+  Ca47  1  0.91831185  0.65666396  0.83154013  1
  Al0+  Al48  1  0.00251748  -0.00169306  -0.00155289  1
  Al0+  Al49  1  0.00187916  0.00005662  0.34003307  1
  Al0+  Al50  1  0.00037812  -0.00116193  0.67045363  1
  Al0+  Al51  1  0.00180845  0.49975724  -0.00438134  1
  Al0+  Al52  1  -0.00218060  0.49957929  0.33038297  1
  Al0+  Al53  1  -0.00199583  0.49832752  0.67010819  1
  Al0+  Al54  1  0.49958079  0.00101596  0.00278415  1
  Al0+  Al55  1  0.50030333  0.00063939  0.32844629  1
  Al0+  Al56  1  0.49853536  -0.00174382  0.66597889  1
  Al0+  Al57  1  0.49982886  0.50225760  -0.00629300  1
  Al0+  Al58  1  0.50052540  0.50055439  0.33567070  1
  Al0+  Al59  1  0.49979616  0.49984674  0.66648843  1
  Al0+  Al60  1  0.25268176  0.25005154  -0.00500139  1
  Al0+  Al61  1  0.24970837  0.24986813  0.33483355  1
  Al0+  Al62  1  0.25016617  0.24775315  0.67049544  1
  Al0+  Al63  1  0.25013841  0.75164662  -0.00383474  1
  Al0+  Al64  1  0.25048244  0.75228555  0.32842663  1
  Al0+  Al65  1  0.25060249  0.74954352  0.66754850  1
  Al0+  Al66  1  0.74925209  0.24964118  0.00066660  1
  Al0+  Al67  1  0.74938232  0.25130387  0.33833799  1
  Al0+  Al68  1  0.74910788  0.24927844  0.66932389  1
  Al0+  Al69  1  0.75119270  0.75160938  0.00071335  1
  Al0+  Al70  1  0.74875206  0.75058381  0.33022332  1
  Al0+  Al71  1  0.74985356  0.74868724  0.66805015  1
  Al0+  Al72  1  0.07221313  0.17822712  0.31923193  1
  Al0+  Al73  1  0.07181285  0.67845653  0.98513649  1
  Al0+  Al74  1  0.67811710  0.43071163  0.34830441  1
  Al0+  Al75  1  0.81894388  0.57080738  0.67953389  1
  Al0+  Al76  1  0.07109245  0.17690833  0.98447598  1
  Al0+  Al77  1  0.32107208  0.06870519  0.68069967  1
  Al0+  Al78  1  0.06925858  0.67915160  0.32224111  1
  Al0+  Al79  1  0.42811093  0.82285117  0.31581426  1
  Al0+  Al80  1  0.82214553  0.07135176  0.68280618  1
  Al0+  Al81  1  0.57183345  0.67727689  0.31785513  1
  Al0+  Al82  1  0.17648422  0.42833463  0.34498418  1
  Al0+  Al83  1  0.18113904  0.92894245  0.34675533  1
  Al0+  Al84  1  0.07223424  0.17782991  0.64972428  1
  Al0+  Al85  1  0.32095003  0.57229364  0.68101852  1
  Al0+  Al86  1  0.43036277  0.32175906  0.98621216  1
  Al0+  Al87  1  0.42949394  0.81979173  0.65253735  1
  Al0+  Al88  1  0.92724258  0.32031597  0.98385479  1
  Al0+  Al89  1  0.92720037  0.32175749  0.64938507  1
  Al0+  Al90  1  0.17838949  0.42807750  0.68314834  1
  Al0+  Al91  1  0.67862656  0.43017508  0.01520893  1
  Al0+  Al92  1  0.57186907  0.68065089  0.98412112  1
  Al0+  Al93  1  0.92655132  0.32124216  0.31739905  1
  Al0+  Al94  1  0.82082466  0.07030000  0.34683324  1
  Al0+  Al95  1  0.82422174  0.57214749  0.01788627  1
  Si0+  Si96  1  0.67655128  0.92711711  0.34978293  1
  Si0+  Si97  1  0.06994189  0.67970247  0.65259651  1
  Si0+  Si98  1  0.18035924  0.92877735  0.01575215  1
  Si0+  Si99  1  0.32152872  0.07216490  0.01620772  1
  Si0+  Si100  1  0.57177370  0.17548247  0.98378959  1
  Si0+  Si101  1  0.92727074  0.82100437  0.65260632  1
  Si0+  Si102  1  0.56952290  0.17805858  0.65205883  1
  Si0+  Si103  1  0.32417618  0.07312875  0.34892816  1
  Si0+  Si104  1  0.32062329  0.57328762  0.01478641  1
  Si0+  Si105  1  0.67629671  0.42642075  0.68397672  1
  Si0+  Si106  1  0.42903942  0.32054954  0.32135386  1
  Si0+  Si107  1  0.42889344  0.82350401  0.98185833  1
  Si0+  Si108  1  0.92775513  0.82370426  0.31917515  1
  Si0+  Si109  1  0.42891084  0.32167270  0.65017620  1
  Si0+  Si110  1  0.82210786  0.57385220  0.34932058  1
  Si0+  Si111  1  0.82174432  0.06957570  0.01507452  1
  Si0+  Si112  1  0.57182804  0.17995341  0.31992722  1
  Si0+  Si113  1  0.67881487  0.92923202  0.68204152  1
  Si0+  Si114  1  0.57352185  0.67728190  0.64884373  1
  Si0+  Si115  1  0.92865025  0.82257043  0.98390473  1
  Si0+  Si116  1  0.67731064  0.92963247  0.01576603  1
  Si0+  Si117  1  0.17726173  0.92581696  0.68587359  1
  Si0+  Si118  1  0.18155636  0.42862051  0.01485536  1
  Si0+  Si119  1  0.32111576  0.57119876  0.34712771  1
  O2-  O120  1  0.24916014  0.00254789  0.05749933  1
  O2-  O121  1  0.25636911  0.00354272  0.39218185  1
  O2-  O122  1  0.24386413  -0.00269806  0.72919934  1
  O2-  O123  1  0.24951498  0.50283639  0.05818337  1
  O2-  O124  1  0.24923400  0.50590317  0.39076446  1
  O2-  O125  1  0.25148219  0.49961167  0.73356716  1
  O2-  O126  1  0.74904077  0.00007168  0.05787157  1
  O2-  O127  1  0.74667694  -0.00606361  0.39409061  1
  O2-  O128  1  0.74876019  -0.00525302  0.72966742  1
  O2-  O129  1  0.75212312  0.49957970  0.06723148  1
  O2-  O130  1  0.75266276  0.50579931  0.39348729  1
  O2-  O131  1  0.74489416  0.49565220  0.72594483  1
  O2-  O132  1  0.00127802  0.25080039  0.26928066  1
  O2-  O133  1  -0.00026527  0.24945414  0.60050886  1
  O2-  O134  1  -0.00050067  0.24830754  0.93447876  1
  O2-  O135  1  -0.00650545  0.75279363  0.27458313  1
  O2-  O136  1  -0.00088376  0.75112094  0.61039655  1
  O2-  O137  1  -0.00805881  0.74881233  0.93971802  1
  O2-  O138  1  0.49991332  0.24981236  0.27797517  1
  O2-  O139  1  0.50113002  0.25126747  0.60859924  1
  O2-  O140  1  0.50680377  0.24774980  0.94018181  1
  O2-  O141  1  0.50098153  0.75090025  0.26789209  1
  O2-  O142  1  0.50064469  0.74195966  0.60575139  1
  O2-  O143  1  0.49765338  0.75586908  0.93704810  1
  O2-  O144  1  0.06936320  0.17501293  0.09798984  1
  O2-  O145  1  0.07232010  0.17804361  0.43222409  1
  O2-  O146  1  0.06965536  0.17939660  0.76339999  1
  O2-  O147  1  0.07523721  0.68192750  0.09817265  1
  O2-  O148  1  0.06826907  0.67992552  0.43570538  1
  O2-  O149  1  0.07008098  0.68209072  0.75778656  1
  O2-  O150  1  0.56850382  0.17056934  0.08946708  1
  O2-  O151  1  0.57101589  0.17907996  0.42517742  1
  O2-  O152  1  0.56799965  0.17634431  0.75718765  1
  O2-  O153  1  0.56865991  0.68107092  0.09693142  1
  O2-  O154  1  0.57013908  0.67834905  0.43152305  1
  O2-  O155  1  0.57495932  0.68063384  0.75446750  1
  O2-  O156  1  0.18036475  0.42840032  0.23134952  1
  O2-  O157  1  0.17867822  0.43070541  0.56919605  1
  O2-  O158  1  0.18451486  0.42883478  0.91007433  1
  O2-  O159  1  0.18182399  0.92921397  0.23317588  1
  O2-  O160  1  0.17838367  0.92276083  0.58051742  1
  O2-  O161  1  0.18151432  0.92655363  0.91085096  1
  O2-  O162  1  0.67453935  0.43041776  0.23585744  1
  O2-  O163  1  0.67464069  0.42679037  0.57818822  1
  O2-  O164  1  0.67739146  0.43270320  0.90167290  1
  O2-  O165  1  0.67721196  0.93000148  0.24373663  1
  O2-  O166  1  0.68005179  0.93201645  0.57669699  1
  O2-  O167  1  0.67505855  0.93208419  0.91065373  1
  O2-  O168  1  0.42807565  0.31912002  0.09990627  1
  O2-  O169  1  0.42999580  0.31905468  0.42646654  1
  O2-  O170  1  0.43094270  0.32142525  0.75528586  1
  O2-  O171  1  0.42925109  0.82403996  0.08705068  1
  O2-  O172  1  0.42862350  0.82219854  0.42956091  1
  O2-  O173  1  0.43434448  0.82135087  0.76582229  1
  O2-  O174  1  0.92721906  0.31767120  0.09743877  1
  O2-  O175  1  0.92576821  0.32051375  0.43067756  1
  O2-  O176  1  0.92654252  0.32097652  0.76288134  1
  O2-  O177  1  0.93223984  0.82864023  0.08920059  1
  O2-  O178  1  0.92846004  0.82309011  0.42510013  1
  O2-  O179  1  0.92722788  0.82089663  0.75772733  1
  O2-  O180  1  0.32552398  0.07428672  0.24300348  1
  O2-  O181  1  0.32466063  0.06557753  0.56788308  1
  O2-  O182  1  0.32517340  0.06975509  0.91141111  1
  O2-  O183  1  0.32312883  0.56737625  0.24107648  1
  O2-  O184  1  0.31838478  0.57179556  0.56714897  1
  O2-  O185  1  0.31923817  0.57343176  0.90990917  1
  O2-  O186  1  0.81798860  0.06834415  0.23312782  1
  O2-  O187  1  0.82015241  0.07025833  0.56986811  1
  O2-  O188  1  0.82036958  0.06655550  0.91000572  1
  O2-  O189  1  0.82274132  0.57433948  0.24427648  1
  O2-  O190  1  0.81685378  0.57507842  0.56645321  1
  O2-  O191  1  0.82086329  0.57169564  0.90408417  1
  O2-  O192  1  0.04226026  0.07861748  0.26894592  1
  O2-  O193  1  0.04585351  0.07597579  0.60255574  1
  O2-  O194  1  0.04550879  0.07733454  0.93215469  1
  O2-  O195  1  0.03950504  0.58403380  0.26554728  1
  O2-  O196  1  0.04070963  0.58801232  0.60701647  1
  O2-  O197  1  0.04670961  0.58193801  0.92964801  1
  O2-  O198  1  0.54673425  0.08864652  0.26966949  1
  O2-  O199  1  0.53933814  0.08778380  0.60345499  1
  O2-  O200  1  0.54163146  0.08374623  0.93549344  1
  O2-  O201  1  0.53910974  0.57988100  0.26484497  1
  O2-  O202  1  0.55208178  0.58174056  0.60536809  1
  O2-  O203  1  0.53974653  0.58634813  0.92784635  1
  O2-  O204  1  0.17231582  0.20359248  0.26707525  1
  O2-  O205  1  0.17350589  0.20216624  0.60084813  1
  O2-  O206  1  0.17108850  0.20312503  0.93457701  1
  O2-  O207  1  0.16461526  0.71051910  0.26636602  1
  O2-  O208  1  0.16155324  0.70768264  0.60561355  1
  O2-  O209  1  0.16604022  0.71567194  0.92933439  1
  O2-  O210  1  0.66249579  0.20839227  0.27197962  1
  O2-  O211  1  0.66177522  0.20454343  0.60516818  1
  O2-  O212  1  0.66656091  0.19614409  0.93919595  1
  O2-  O213  1  0.67006011  0.70532638  0.26368661  1
  O2-  O214  1  0.66535426  0.70751459  0.60159038  1
  O2-  O215  1  0.66891671  0.71325086  0.93174154  1
  O2-  O216  1  0.08871214  0.45453832  0.05983965  1
  O2-  O217  1  0.08012678  0.45953760  0.39852419  1
  O2-  O218  1  0.08135352  0.45886119  0.73626874  1
  O2-  O219  1  0.08768336  0.95351864  0.06303402  1
  O2-  O220  1  0.08518910  0.95535658  0.40392590  1
  O2-  O221  1  0.08296052  0.94687725  0.73252340  1
  O2-  O222  1  0.57853470  0.46132930  0.06526348  1
  O2-  O223  1  0.58163178  0.46052405  0.40464566  1
  O2-  O224  1  0.58214235  0.45151992  0.72893083  1
  O2-  O225  1  0.58628529  0.95836040  0.06504881  1
  O2-  O226  1  0.58303241  0.95553907  0.39444503  1
  O2-  O227  1  0.58671695  0.95783448  0.72943669  1
  O2-  O228  1  0.21415557  0.33747183  0.06115038  1
  O2-  O229  1  0.21150709  0.33393795  0.40044180  1
  O2-  O230  1  0.20920110  0.33071922  0.73595594  1
  O2-  O231  1  0.21156271  0.83783451  0.06367745  1
  O2-  O232  1  0.21242280  0.83212830  0.40115503  1
  O2-  O233  1  0.20671637  0.83397795  0.73362483  1
  O2-  O234  1  0.69949428  0.32790572  0.06572997  1
  O2-  O235  1  0.70596484  0.33406860  0.40368291  1
  O2-  O236  1  0.69819759  0.33237549  0.73025237  1
  O2-  O237  1  0.70495394  0.83854212  0.06376862  1
  O2-  O238  1  0.69868309  0.83247105  0.39471985  1
  O2-  O239  1  0.70237407  0.83492531  0.72761888  1
  O2-  O240  1  0.45677070  0.41205353  0.27394532  1
  O2-  O241  1  0.45557178  0.41354207  0.60192855  1
  O2-  O242  1  0.45869486  0.41710366  0.92918877  1
  O2-  O243  1  0.45601882  0.92160948  0.26193240  1
  O2-  O244  1  0.46291481  0.91511205  0.59757305  1
  O2-  O245  1  0.45554839  0.91813914  0.93771153  1
  O2-  O246  1  0.95204808  0.41988762  0.26466899  1
  O2-  O247  1  0.95505569  0.42147806  0.59844538  1
  O2-  O248  1  0.95689671  0.41829913  0.93191237  1
  O2-  O249  1  0.95659655  0.91601157  0.27298680  1
  O2-  O250  1  0.95449307  0.91311942  0.60610625  1
  O2-  O251  1  0.96167670  0.91236410  0.93348189  1
  O2-  O252  1  0.33844993  0.29242287  0.27193412  1
  O2-  O253  1  0.33779470  0.29120373  0.60417796  1
  O2-  O254  1  0.33716564  0.28719936  0.92867223  1
  O2-  O255  1  0.33117880  0.79461285  0.26072604  1
  O2-  O256  1  0.33126437  0.79205977  0.59997261  1
  O2-  O257  1  0.33545531  0.79895283  0.93567681  1
  O2-  O258  1  0.82803870  0.28904211  0.26638553  1
  O2-  O259  1  0.82678496  0.29277037  0.60019506  1
  O2-  O260  1  0.82775020  0.29245681  0.93248877  1
  O2-  O261  1  0.83272909  0.80442497  0.27325184  1
  O2-  O262  1  0.83577219  0.79345989  0.60438754  1
  O2-  O263  1  0.83288598  0.80601744  0.93916927  1
  O2-  O264  1  0.41280106  0.04371229  0.06567883  1
  O2-  O265  1  0.41920061  0.04906221  0.39363448  1
  O2-  O266  1  0.41676147  0.03490404  0.73669918  1
  O2-  O267  1  0.41242584  0.54382392  0.06041592  1
  O2-  O268  1  0.41241160  0.54320359  0.39599672  1
  O2-  O269  1  0.42095766  0.54548072  0.73201712  1
  O2-  O270  1  0.91282115  0.03730827  0.06124856  1
  O2-  O271  1  0.91537631  0.03883231  0.40347539  1
  O2-  O272  1  0.91717382  0.03781790  0.73821966  1
  O2-  O273  1  0.92533907  0.54562407  0.06622229  1
  O2-  O274  1  0.91490476  0.54748399  0.39632087  1
  O2-  O275  1  0.91517282  0.54227484  0.73435647  1
  O2-  O276  1  0.29694877  0.16524977  0.06260631  1
  O2-  O277  1  0.29980991  0.16610476  0.39651731  1
  O2-  O278  1  0.29586950  0.16580489  0.73626137  1
  O2-  O279  1  0.29417130  0.66632151  0.06075702  1
  O2-  O280  1  0.29844899  0.66671716  0.38905717  1
  O2-  O281  1  0.29298230  0.67005586  0.73573969  1
  O2-  O282  1  0.79424158  0.16098248  0.06231280  1
  O2-  O283  1  0.78542791  0.16411765  0.40250750  1
  O2-  O284  1  0.78597123  0.16549942  0.73774551  1
  O2-  O285  1  0.79925275  0.67370358  0.06688162  1
  O2-  O286  1  0.79763920  0.66882313  0.39468469  1
  O2-  O287  1  0.78974130  0.66772546  0.73555450  1
