# generated using pymatgen
data_Ca2Al2SiO7
_symmetry_space_group_name_H-M   'P 1'
_cell_length_a   15.45616112
_cell_length_b   15.45625973
_cell_length_c   15.28290271
_cell_angle_alpha   90.00393802
_cell_angle_beta   90.00663696
_cell_angle_gamma   89.99792299
_symmetry_Int_Tables_number   1
_chemical_formula_structural   Ca2Al2SiO7
_chemical_formula_sum   'Ca48 Al48 Si24 O168'
_cell_volume   3651.00046104
_cell_formula_units_Z   24
loop_
 _symmetry_equiv_pos_site_id
 _symmetry_equiv_pos_as_xyz
  1  'x, y, z'
loop_
 _atom_type_symbol
 _atom_type_oxidation_number
  Ca2+  2.0
  Al0+  0.0
  Si0+  0.0
  O2-  -2.0
loop_
 _atom_site_type_symbol
 _atom_site_label
 _atom_site_symmetry_multiplicity
 _atom_site_fract_x
 _atom_site_fract_y
 _atom_site_fract_z
 _atom_site_occupancy
  Ca2+  Ca0  1  0.16571380  0.07739255  0.16733063  1
  Ca2+  Ca1  1  0.17094474  0.07663046  0.50800915  1
  Ca2+  Ca2  1  0.17609163  0.08822010  0.83798138  1
  Ca2+  Ca3  1  0.16952153  0.57619298  0.18084978  1
  Ca2+  Ca4  1  0.16683250  0.58428985  0.49936617  1
  Ca2+  Ca5  1  0.16650101  0.58458126  0.83475551  1
  Ca2+  Ca6  1  0.66726583  0.07776699  0.16638262  1
  Ca2+  Ca7  1  0.67277699  0.08004119  0.51443569  1
  Ca2+  Ca8  1  0.66187792  0.07449415  0.83320190  1
  Ca2+  Ca9  1  0.67291773  0.57941007  0.16510909  1
  Ca2+  Ca10  1  0.66277202  0.57989542  0.50860150  1
  Ca2+  Ca11  1  0.66486584  0.57365291  0.83856066  1
  Ca2+  Ca12  1  0.08277579  0.32953780  0.15690837  1
  Ca2+  Ca13  1  0.08922641  0.32598303  0.49831159  1
  Ca2+  Ca14  1  0.07647712  0.32228980  0.83028338  1
  Ca2+  Ca15  1  0.08590167  0.83394915  0.16723790  1
  Ca2+  Ca16  1  0.08310145  0.82448989  0.48983673  1
  Ca2+  Ca17  1  0.08508982  0.82964637  0.82765063  1
  Ca2+  Ca18  1  0.57762137  0.33609760  0.16368291  1
  Ca2+  Ca19  1  0.57519195  0.33250726  0.50078864  1
  Ca2+  Ca20  1  0.58064165  0.33127704  0.82194288  1
  Ca2+  Ca21  1  0.57712448  0.83560051  0.16275431  1
  Ca2+  Ca22  1  0.57268561  0.83932920  0.50041439  1
  Ca2+  Ca23  1  0.58345764  0.83195997  0.82263045  1
  Ca2+  Ca24  1  0.32727933  0.42204234  0.17998779  1
  Ca2+  Ca25  1  0.33573675  0.41713896  0.50007925  1
  Ca2+  Ca26  1  0.33567330  0.41606793  0.83438147  1
  Ca2+  Ca27  1  0.32253734  0.92047261  0.17167413  1
  Ca2+  Ca28  1  0.33219194  0.91482440  0.50557658  1
  Ca2+  Ca29  1  0.33331209  0.92847461  0.83872629  1
  Ca2+  Ca30  1  0.83485529  0.41748154  0.16487149  1
  Ca2+  Ca31  1  0.82497368  0.41925179  0.50932584  1
  Ca2+  Ca32  1  0.82258684  0.41920758  0.84119290  1
  Ca2+  Ca33  1  0.82930285  0.91164273  0.17083630  1
  Ca2+  Ca34  1  0.82993733  0.91925714  0.50787194  1
  Ca2+  Ca35  1  0.82227311  0.91956118  0.83359211  1
  Ca2+  Ca36  1  0.41048295  0.17224939  0.16360763  1
  Ca2+  Ca37  1  0.41652478  0.17331576  0.50256152  1
  Ca2+  Ca38  1  0.41952514  0.16764189  0.82159148  1
  Ca2+  Ca39  1  0.40757332  0.67288385  0.16933484  1
  Ca2+  Ca40  1  0.41938471  0.67598723  0.49695729  1
  Ca2+  Ca41  1  0.42496805  0.67743586  0.82138010  1
  Ca2+  Ca42  1  0.92613434  0.17474393  0.15539694  1
  Ca2+  Ca43  1  0.92039726  0.16054334  0.50020146  1
  Ca2+  Ca44  1  0.92545923  0.16196293  0.82858058  1
  Ca2+  Ca45  1  0.92017951  0.66798029  0.16467819  1
  Ca2+  Ca46  1  0.92642462  0.67311200  0.49381203  1
  Ca2+  Ca47  1  0.92023270  0.66427800  0.82886632  1
  Al0+  Al48  1  0.00058563  -0.00224101  -0.00258488  1
  Al0+  Al49  1  -0.00022635  -0.00022858  0.33284205  1
  Al0+  Al50  1  -0.00002735  -0.00060156  0.66699370  1
  Al0+  Al51  1  -0.00046899  0.50051732  -0.00174554  1
  Al0+  Al52  1  -0.00100065  0.49869468  0.33598149  1
  Al0+  Al53  1  0.00078649  0.49874755  0.66326492  1
  Al0+  Al54  1  0.49855530  0.00257137  0.00969100  1
  Al0+  Al55  1  0.50153817  -0.00040314  0.32832404  1
  Al0+  Al56  1  0.49914211  0.00170876  0.66574535  1
  Al0+  Al57  1  0.50112665  0.50166599  0.00440077  1
  Al0+  Al58  1  0.50031199  0.49889155  0.33175993  1
  Al0+  Al59  1  0.49829179  0.50202862  0.66453051  1
  Al0+  Al60  1  0.25062075  0.25163989  -0.00061675  1
  Al0+  Al61  1  0.25137004  0.24966028  0.33223583  1
  Al0+  Al62  1  0.24745157  0.25001829  0.66326506  1
  Al0+  Al63  1  0.25023952  0.75258266  0.00062820  1
  Al0+  Al64  1  0.25135544  0.74933892  0.33278825  1
  Al0+  Al65  1  0.24970070  0.74763290  0.66057769  1
  Al0+  Al66  1  0.74720860  0.25020855  0.00162635  1
  Al0+  Al67  1  0.75054128  0.24858490  0.33246271  1
  Al0+  Al68  1  0.75121939  0.25115995  0.67203456  1
  Al0+  Al69  1  0.75010735  0.74859480  0.00728944  1
  Al0+  Al70  1  0.74963499  0.74929213  0.33157685  1
  Al0+  Al71  1  0.75181091  0.74881932  0.66635426  1
  Al0+  Al72  1  0.42959575  0.82348962  0.65366683  1
  Al0+  Al73  1  0.17916789  0.93080086  0.34834544  1
  Al0+  Al74  1  0.67832471  0.92834668  0.67961897  1
  Al0+  Al75  1  0.57338345  0.17916335  0.65348721  1
  Al0+  Al76  1  0.07084244  0.67736351  0.65258199  1
  Al0+  Al77  1  0.67689830  0.43117343  0.67916456  1
  Al0+  Al78  1  0.31881536  0.07137333  0.67817655  1
  Al0+  Al79  1  0.43031915  0.31959713  0.31811337  1
  Al0+  Al80  1  0.57350573  0.67912249  0.65348716  1
  Al0+  Al81  1  0.92858202  0.82182380  0.31722726  1
  Al0+  Al82  1  0.07159337  0.17771708  0.98394317  1
  Al0+  Al83  1  0.92713194  0.32275751  0.98407333  1
  Al0+  Al84  1  0.67712682  0.42663682  0.01739242  1
  Al0+  Al85  1  0.07059256  0.67811361  0.31643415  1
  Al0+  Al86  1  0.67931668  0.92910540  0.01537755  1
  Al0+  Al87  1  0.82272179  0.56991420  0.01581706  1
  Al0+  Al88  1  0.17801538  0.92729783  0.01463521  1
  Al0+  Al89  1  0.32225391  0.57101161  0.35057264  1
  Al0+  Al90  1  0.42960595  0.82160385  0.31667311  1
  Al0+  Al91  1  0.17709700  0.42682392  0.34977677  1
  Al0+  Al92  1  0.32029277  0.07410961  0.01662595  1
  Al0+  Al93  1  0.42732732  0.32229863  0.65225033  1
  Al0+  Al94  1  0.82366811  0.07209449  0.68283993  1
  Al0+  Al95  1  0.06988602  0.17782713  0.65148414  1
  Si0+  Si96  1  0.32158126  0.57250306  0.01316933  1
  Si0+  Si97  1  0.43041612  0.32330437  0.98592371  1
  Si0+  Si98  1  0.92611237  0.81988610  0.98383349  1
  Si0+  Si99  1  0.82010419  0.07114173  0.34671470  1
  Si0+  Si100  1  0.31940826  0.57166305  0.68258143  1
  Si0+  Si101  1  0.82045966  0.57142096  0.35020213  1
  Si0+  Si102  1  0.17794751  0.42862859  0.68338162  1
  Si0+  Si103  1  0.92850341  0.82163670  0.65149270  1
  Si0+  Si104  1  0.07190934  0.67978202  0.98544361  1
  Si0+  Si105  1  0.92650209  0.31987266  0.31970096  1
  Si0+  Si106  1  0.82422699  0.57078469  0.68170673  1
  Si0+  Si107  1  0.17870316  0.92508578  0.68165959  1
  Si0+  Si108  1  0.82292510  0.07127491  0.01670086  1
  Si0+  Si109  1  0.18038997  0.43144627  0.01178182  1
  Si0+  Si110  1  0.42949049  0.82207100  0.98601625  1
  Si0+  Si111  1  0.57120547  0.68044061  0.98644564  1
  Si0+  Si112  1  0.57459101  0.17849579  0.31461508  1
  Si0+  Si113  1  0.67858630  0.92836304  0.34848190  1
  Si0+  Si114  1  0.92847382  0.32147875  0.64938853  1
  Si0+  Si115  1  0.32389491  0.07179941  0.35132590  1
  Si0+  Si116  1  0.07087060  0.17935119  0.31868698  1
  Si0+  Si117  1  0.68035790  0.42787047  0.34888193  1
  Si0+  Si118  1  0.57254066  0.67662879  0.31391254  1
  Si0+  Si119  1  0.56937262  0.17769634  0.98582832  1
  O2-  O120  1  0.24655132  0.00281933  0.06442962  1
  O2-  O121  1  0.25638145  0.00234121  0.39573710  1
  O2-  O122  1  0.24629172  -0.00544223  0.72576798  1
  O2-  O123  1  0.25051612  0.50203830  0.05510427  1
  O2-  O124  1  0.24854453  0.49965811  0.39977582  1
  O2-  O125  1  0.24921893  0.49979735  0.72589781  1
  O2-  O126  1  0.75591010  0.00191801  0.06320344  1
  O2-  O127  1  0.75054208  -0.00116873  0.38883026  1
  O2-  O128  1  0.74821689  0.00224560  0.73084098  1
  O2-  O129  1  0.75332160  0.49511748  0.06636798  1
  O2-  O130  1  0.74919178  0.50044423  0.39177675  1
  O2-  O131  1  0.75126090  0.50675600  0.72541707  1
  O2-  O132  1  0.00282360  0.25428742  0.27796795  1
  O2-  O133  1  -0.00675592  0.25000175  0.60337898  1
  O2-  O134  1  -0.00471165  0.24649601  0.93501392  1
  O2-  O135  1  0.00032453  0.75087129  0.26466871  1
  O2-  O136  1  -0.00189217  0.75399432  0.60760652  1
  O2-  O137  1  0.00017873  0.75046841  0.94319284  1
  O2-  O138  1  0.50378000  0.24464898  0.26967450  1
  O2-  O139  1  0.50128924  0.25120556  0.60353063  1
  O2-  O140  1  0.50070399  0.25168373  0.94451906  1
  O2-  O141  1  0.50365890  0.74542510  0.26958875  1
  O2-  O142  1  0.50510426  0.75436942  0.60398975  1
  O2-  O143  1  0.50225115  0.75306012  0.94361225  1
  O2-  O144  1  0.07142474  0.18158952  0.09833692  1
  O2-  O145  1  0.06856081  0.17811010  0.42370778  1
  O2-  O146  1  0.07158200  0.18080418  0.76420196  1
  O2-  O147  1  0.07308682  0.67843863  0.08983625  1
  O2-  O148  1  0.06651534  0.67891511  0.42994985  1
  O2-  O149  1  0.07012230  0.67758281  0.76666962  1
  O2-  O150  1  0.56827382  0.17738423  0.09125875  1
  O2-  O151  1  0.57901411  0.18026537  0.41952315  1
  O2-  O152  1  0.57046321  0.17953202  0.76756546  1
  O2-  O153  1  0.56926689  0.67990538  0.09154756  1
  O2-  O154  1  0.57437339  0.67735827  0.41918460  1
  O2-  O155  1  0.56990534  0.67793388  0.76781997  1
  O2-  O156  1  0.17794066  0.42653141  0.23515019  1
  O2-  O157  1  0.17682491  0.42904990  0.57875560  1
  O2-  O158  1  0.18198425  0.43252035  0.90648519  1
  O2-  O159  1  0.17785640  0.93524464  0.23540438  1
  O2-  O160  1  0.17904818  0.92586536  0.57596142  1
  O2-  O161  1  0.18350462  0.91991237  0.90136806  1
  O2-  O162  1  0.68298514  0.42713364  0.24394660  1
  O2-  O163  1  0.67942704  0.43229688  0.56538007  1
  O2-  O164  1  0.67176104  0.43126801  0.90425159  1
  O2-  O165  1  0.67896038  0.92977953  0.24304648  1
  O2-  O166  1  0.68159688  0.92874701  0.56568036  1
  O2-  O167  1  0.67827601  0.92850031  0.90279251  1
  O2-  O168  1  0.43053508  0.32374454  0.09105918  1
  O2-  O169  1  0.43260443  0.31916173  0.43054258  1
  O2-  O170  1  0.42770069  0.32214793  0.76666176  1
  O2-  O171  1  0.42907771  0.81822945  0.09108438  1
  O2-  O172  1  0.43330816  0.82444643  0.42923164  1
  O2-  O173  1  0.42783301  0.82039884  0.76802014  1
  O2-  O174  1  0.93316787  0.32247076  0.09863976  1
  O2-  O175  1  0.92056368  0.31587682  0.42435169  1
  O2-  O176  1  0.93271565  0.32495452  0.75446177  1
  O2-  O177  1  0.92468384  0.81878242  0.08867145  1
  O2-  O178  1  0.92713886  0.82033060  0.43073994  1
  O2-  O179  1  0.92821854  0.81993183  0.75746645  1
  O2-  O180  1  0.32123444  0.07227404  0.24558151  1
  O2-  O181  1  0.31600930  0.07202207  0.56516973  1
  O2-  O182  1  0.32275705  0.07352973  0.90302752  1
  O2-  O183  1  0.32051078  0.56763643  0.23568238  1
  O2-  O184  1  0.31877773  0.57283546  0.57826730  1
  O2-  O185  1  0.32174849  0.57232862  0.90782129  1
  O2-  O186  1  0.81821132  0.07366399  0.24164052  1
  O2-  O187  1  0.82417304  0.06858095  0.56835862  1
  O2-  O188  1  0.82149337  0.06901332  0.91166679  1
  O2-  O189  1  0.82052271  0.57041464  0.24526754  1
  O2-  O190  1  0.82611779  0.56748894  0.57588253  1
  O2-  O191  1  0.82065294  0.57135917  0.90219189  1
  O2-  O192  1  0.03839016  0.08987400  0.27005371  1
  O2-  O193  1  0.04120532  0.08024088  0.59789530  1
  O2-  O194  1  0.04786358  0.07747618  0.93232599  1
  O2-  O195  1  0.04007010  0.57818205  0.26614791  1
  O2-  O196  1  0.03977952  0.58152011  0.59768034  1
  O2-  O197  1  0.04495468  0.58837607  0.93649045  1
  O2-  O198  1  0.55145882  0.08429981  0.26853785  1
  O2-  O199  1  0.54566196  0.08184608  0.59891336  1
  O2-  O200  1  0.53851875  0.08611216  0.93964533  1
  O2-  O201  1  0.54838042  0.58266652  0.26787191  1
  O2-  O202  1  0.53994376  0.58389223  0.59814292  1
  O2-  O203  1  0.54059052  0.58880114  0.93971858  1
  O2-  O204  1  0.16345673  0.20377337  0.27169279  1
  O2-  O205  1  0.16340592  0.21268451  0.59512172  1
  O2-  O206  1  0.16890729  0.21265077  0.93180165  1
  O2-  O207  1  0.17044824  0.70292693  0.26603625  1
  O2-  O208  1  0.16665557  0.70507833  0.59704432  1
  O2-  O209  1  0.16377225  0.70818562  0.93699822  1
  O2-  O210  1  0.66688961  0.20726884  0.26592422  1
  O2-  O211  1  0.67290469  0.20693351  0.60197172  1
  O2-  O212  1  0.66275109  0.20034297  0.94027378  1
  O2-  O213  1  0.66576815  0.70361820  0.26736224  1
  O2-  O214  1  0.67417071  0.69907620  0.60138544  1
  O2-  O215  1  0.66428365  0.70592109  0.94130471  1
  O2-  O216  1  0.08864935  0.45828597  0.05897275  1
  O2-  O217  1  0.07735192  0.45139238  0.40252669  1
  O2-  O218  1  0.08646725  0.45846663  0.73089590  1
  O2-  O219  1  0.07724525  0.95023312  0.06544416  1
  O2-  O220  1  0.08218870  0.96251043  0.40183278  1
  O2-  O221  1  0.08438641  0.94862253  0.72652246  1
  O2-  O222  1  0.58133060  0.46255559  0.07324402  1
  O2-  O223  1  0.58781693  0.45416796  0.39403632  1
  O2-  O224  1  0.58010187  0.46188632  0.73343573  1
  O2-  O225  1  0.58502970  0.96291957  0.07234611  1
  O2-  O226  1  0.58686466  0.95782065  0.39432197  1
  O2-  O227  1  0.57962290  0.95497149  0.73264808  1
  O2-  O228  1  0.20788740  0.34036324  0.06023912  1
  O2-  O229  1  0.20781313  0.32818133  0.40115673  1
  O2-  O230  1  0.20613043  0.33740426  0.73103667  1
  O2-  O231  1  0.21094891  0.83083362  0.07053786  1
  O2-  O232  1  0.20742801  0.83240084  0.39854288  1
  O2-  O233  1  0.20370230  0.83053226  0.72639326  1
  O2-  O234  1  0.69964833  0.32689975  0.07083978  1
  O2-  O235  1  0.71091702  0.33628125  0.39531052  1
  O2-  O236  1  0.70779129  0.33589901  0.73479956  1
  O2-  O237  1  0.70847450  0.83313936  0.07110190  1
  O2-  O238  1  0.70450089  0.83550327  0.39393144  1
  O2-  O239  1  0.70884197  0.82976408  0.73315556  1
  O2-  O240  1  0.46185615  0.41596655  0.26323372  1
  O2-  O241  1  0.45450740  0.42050754  0.59944236  1
  O2-  O242  1  0.45814507  0.41607519  0.93959766  1
  O2-  O243  1  0.46237528  0.91732835  0.26075523  1
  O2-  O244  1  0.45427612  0.92114305  0.59860770  1
  O2-  O245  1  0.45611315  0.91631272  0.94416715  1
  O2-  O246  1  0.94867512  0.41384228  0.27486072  1
  O2-  O247  1  0.95752258  0.41304496  0.60039854  1
  O2-  O248  1  0.95894976  0.41988238  0.93022591  1
  O2-  O249  1  0.95481206  0.92126308  0.26450864  1
  O2-  O250  1  0.95208583  0.91515857  0.60524121  1
  O2-  O251  1  0.95099299  0.91190129  0.93597346  1
  O2-  O252  1  0.33304015  0.28992909  0.26327481  1
  O2-  O253  1  0.32992475  0.29319994  0.59875920  1
  O2-  O254  1  0.33775880  0.29868285  0.93906825  1
  O2-  O255  1  0.33358407  0.79012542  0.26230576  1
  O2-  O256  1  0.33374780  0.78967373  0.59913027  1
  O2-  O257  1  0.33882926  0.79223145  0.93772839  1
  O2-  O258  1  0.83777095  0.28724047  0.26813552  1
  O2-  O259  1  0.83338945  0.30017263  0.60524342  1
  O2-  O260  1  0.82500142  0.30042325  0.93697288  1
  O2-  O261  1  0.82974801  0.79175158  0.26465185  1
  O2-  O262  1  0.83612331  0.79547235  0.60342101  1
  O2-  O263  1  0.83494901  0.78826401  0.93712762  1
  O2-  O264  1  0.41651624  0.04577133  0.07371505  1
  O2-  O265  1  0.41986238  0.04773599  0.39269495  1
  O2-  O266  1  0.41604075  0.04425197  0.73235511  1
  O2-  O267  1  0.41219284  0.54548969  0.06253861  1
  O2-  O268  1  0.42149100  0.54086570  0.40089019  1
  O2-  O269  1  0.41087325  0.54461851  0.73123007  1
  O2-  O270  1  0.91740084  0.04729689  0.06150851  1
  O2-  O271  1  0.91200658  0.04489154  0.39417384  1
  O2-  O272  1  0.92075074  0.03953382  0.73706442  1
  O2-  O273  1  0.92206110  0.54324579  0.06897451  1
  O2-  O274  1  0.91135136  0.54316038  0.39851431  1
  O2-  O275  1  0.91630675  0.54051921  0.72918055  1
  O2-  O276  1  0.29226970  0.17342074  0.06923665  1
  O2-  O277  1  0.29738767  0.16538842  0.39571154  1
  O2-  O278  1  0.28535458  0.16761047  0.73248828  1
  O2-  O279  1  0.29360429  0.66406942  0.06019739  1
  O2-  O280  1  0.29690250  0.67027355  0.40161309  1
  O2-  O281  1  0.28895812  0.66258374  0.73152643  1
  O2-  O282  1  0.79604117  0.16465516  0.06312328  1
  O2-  O283  1  0.79129374  0.16212336  0.39589289  1
  O2-  O284  1  0.80225228  0.17184293  0.73478781  1
  O2-  O285  1  0.79089096  0.66555672  0.07250470  1
  O2-  O286  1  0.79202169  0.66336973  0.39702396  1
  O2-  O287  1  0.80557099  0.66615167  0.72622654  1
