# generated using pymatgen
data_Ca2Al2SiO7
_symmetry_space_group_name_H-M   'P 1'
_cell_length_a   15.45984025
_cell_length_b   15.45969423
_cell_length_c   15.28565722
_cell_angle_alpha   89.99848255
_cell_angle_beta   90.00356631
_cell_angle_gamma   89.99757803
_symmetry_Int_Tables_number   1
_chemical_formula_structural   Ca2Al2SiO7
_chemical_formula_sum   'Ca48 Al48 Si24 O168'
_cell_volume   3653.33936800
_cell_formula_units_Z   24
loop_
 _symmetry_equiv_pos_site_id
 _symmetry_equiv_pos_as_xyz
  1  'x, y, z'
loop_
 _atom_type_symbol
 _atom_type_oxidation_number
  Ca2+  2.0
  Al0+  0.0
  Si0+  0.0
  O2-  -2.0
loop_
 _atom_site_type_symbol
 _atom_site_label
 _atom_site_symmetry_multiplicity
 _atom_site_fract_x
 _atom_site_fract_y
 _atom_site_fract_z
 _atom_site_occupancy
  Ca2+  Ca0  1  0.16614809  0.07967341  0.17190309  1
  Ca2+  Ca1  1  0.17071303  0.07431783  0.50166007  1
  Ca2+  Ca2  1  0.16807387  0.08450628  0.83962676  1
  Ca2+  Ca3  1  0.17107281  0.57865229  0.16579992  1
  Ca2+  Ca4  1  0.17211135  0.58889684  0.50842278  1
  Ca2+  Ca5  1  0.17602098  0.58090300  0.83916811  1
  Ca2+  Ca6  1  0.67402617  0.08922357  0.16415508  1
  Ca2+  Ca7  1  0.67383096  0.08166466  0.51003731  1
  Ca2+  Ca8  1  0.66734092  0.08034896  0.83795699  1
  Ca2+  Ca9  1  0.66235533  0.56889014  0.16849188  1
  Ca2+  Ca10  1  0.65872807  0.57697734  0.50416826  1
  Ca2+  Ca11  1  0.66228930  0.57742404  0.84010966  1
  Ca2+  Ca12  1  0.07697521  0.32563717  0.15159158  1
  Ca2+  Ca13  1  0.07431211  0.33315815  0.49839627  1
  Ca2+  Ca14  1  0.07500208  0.33329048  0.83451373  1
  Ca2+  Ca15  1  0.08833776  0.82996763  0.16722354  1
  Ca2+  Ca16  1  0.08924402  0.82240451  0.49348454  1
  Ca2+  Ca17  1  0.08031172  0.82651857  0.82744053  1
  Ca2+  Ca18  1  0.57832483  0.33371517  0.15910536  1
  Ca2+  Ca19  1  0.58129842  0.32920970  0.49488084  1
  Ca2+  Ca20  1  0.59203348  0.32193579  0.83376993  1
  Ca2+  Ca21  1  0.57411427  0.83743314  0.15783256  1
  Ca2+  Ca22  1  0.57589018  0.83472799  0.49928092  1
  Ca2+  Ca23  1  0.57636495  0.83458953  0.82494308  1
  Ca2+  Ca24  1  0.33583104  0.41655192  0.16819358  1
  Ca2+  Ca25  1  0.33385495  0.42258301  0.50718377  1
  Ca2+  Ca26  1  0.33293266  0.42931164  0.84573288  1
  Ca2+  Ca27  1  0.33248115  0.91466678  0.17102644  1
  Ca2+  Ca28  1  0.33158224  0.90386587  0.50077302  1
  Ca2+  Ca29  1  0.33757082  0.91303796  0.83700196  1
  Ca2+  Ca30  1  0.82010252  0.40441767  0.16567239  1
  Ca2+  Ca31  1  0.82775945  0.41428898  0.50321204  1
  Ca2+  Ca32  1  0.83246036  0.41279635  0.83926419  1
  Ca2+  Ca33  1  0.82802629  0.92911271  0.17042310  1
  Ca2+  Ca34  1  0.82761850  0.92949641  0.51082228  1
  Ca2+  Ca35  1  0.81754222  0.92433957  0.84200147  1
  Ca2+  Ca36  1  0.42155037  0.18035204  0.15509165  1
  Ca2+  Ca37  1  0.42658741  0.17037500  0.49482100  1
  Ca2+  Ca38  1  0.43042647  0.17116679  0.83267246  1
  Ca2+  Ca39  1  0.41230596  0.67738436  0.16144055  1
  Ca2+  Ca40  1  0.41846315  0.67327421  0.50224299  1
  Ca2+  Ca41  1  0.41672125  0.67248192  0.82725977  1
  Ca2+  Ca42  1  0.91878258  0.16497357  0.15678691  1
  Ca2+  Ca43  1  0.90663529  0.16807408  0.50042109  1
  Ca2+  Ca44  1  0.90762351  0.17484377  0.83370556  1
  Ca2+  Ca45  1  0.92457494  0.66421800  0.16379966  1
  Ca2+  Ca46  1  0.93088391  0.66494575  0.49526181  1
  Ca2+  Ca47  1  0.92404156  0.66507839  0.82493219  1
  Al0+  Al48  1  0.00028238  -0.00240441  -0.00085446  1
  Al0+  Al49  1  0.00108137  -0.00101152  0.34450685  1
  Al0+  Al50  1  0.00126153  0.00266125  0.67170619  1
  Al0+  Al51  1  0.00279406  0.49974720  -0.00012450  1
  Al0+  Al52  1  0.00034486  0.49880670  0.32742958  1
  Al0+  Al53  1  -0.00123969  0.49766285  0.65741173  1
  Al0+  Al54  1  0.49769553  0.00043410  -0.00282760  1
  Al0+  Al55  1  0.50184184  0.00116266  0.32813088  1
  Al0+  Al56  1  0.49794219  0.00154351  0.65964338  1
  Al0+  Al57  1  0.49975805  0.50434934  0.00726120  1
  Al0+  Al58  1  0.49945025  0.49995818  0.33549450  1
  Al0+  Al59  1  0.49834185  0.50137952  0.66977494  1
  Al0+  Al60  1  0.24911281  0.25050944  -0.00503834  1
  Al0+  Al61  1  0.24951697  0.25030574  0.33276102  1
  Al0+  Al62  1  0.24650086  0.24902554  0.66724481  1
  Al0+  Al63  1  0.25067051  0.74937396  -0.00025447  1
  Al0+  Al64  1  0.25019189  0.74833143  0.32829546  1
  Al0+  Al65  1  0.24971876  0.74851628  0.66563149  1
  Al0+  Al66  1  0.75088695  0.25020357  0.00091283  1
  Al0+  Al67  1  0.74937745  0.25087886  0.34204407  1
  Al0+  Al68  1  0.74992428  0.25100371  0.66059941  1
  Al0+  Al69  1  0.74977936  0.75082466  0.00647683  1
  Al0+  Al70  1  0.75202258  0.74946811  0.33328458  1
  Al0+  Al71  1  0.74981541  0.74932832  0.66540003  1
  Al0+  Al72  1  0.42842045  0.32121442  0.32088118  1
  Al0+  Al73  1  0.82087057  0.06999969  0.01485723  1
  Al0+  Al74  1  0.82066664  0.07383318  0.68544586  1
  Al0+  Al75  1  0.07188669  0.17490315  0.98542370  1
  Al0+  Al76  1  0.18311792  0.92862416  0.34714044  1
  Al0+  Al77  1  0.67922363  0.43203572  0.34962280  1
  Al0+  Al78  1  0.57358770  0.67608704  0.65266760  1
  Al0+  Al79  1  0.68064896  0.43003869  0.01167543  1
  Al0+  Al80  1  0.57107085  0.18080550  0.98590878  1
  Al0+  Al81  1  0.42944105  0.82086588  0.65100982  1
  Al0+  Al82  1  0.07085119  0.67832372  0.31609579  1
  Al0+  Al83  1  0.31940742  0.56984284  0.68070947  1
  Al0+  Al84  1  0.32110297  0.57258452  0.01830178  1
  Al0+  Al85  1  0.56972901  0.18080861  0.65126102  1
  Al0+  Al86  1  0.42840801  0.32620089  0.98445141  1
  Al0+  Al87  1  0.93008776  0.31829907  0.65039014  1
  Al0+  Al88  1  0.42915227  0.81993026  0.98558827  1
  Al0+  Al89  1  0.43176032  0.81963814  0.31767279  1
  Al0+  Al90  1  0.06879497  0.68078236  0.65410834  1
  Al0+  Al91  1  0.81992930  0.06942302  0.34911129  1
  Al0+  Al92  1  0.92904133  0.32093235  0.98633295  1
  Al0+  Al93  1  0.67479002  0.92839278  0.01648400  1
  Al0+  Al94  1  0.17934689  0.42778179  0.01526776  1
  Al0+  Al95  1  0.67662061  0.92819774  0.68059097  1
  Si0+  Si96  1  0.92923343  0.82375329  0.31764254  1
  Si0+  Si97  1  0.17494313  0.42695694  0.68223002  1
  Si0+  Si98  1  0.07486857  0.17545864  0.64636183  1
  Si0+  Si99  1  0.92709044  0.82070547  0.98617176  1
  Si0+  Si100  1  0.57450333  0.67691738  0.31569191  1
  Si0+  Si101  1  0.42574858  0.32250286  0.65246043  1
  Si0+  Si102  1  0.82514993  0.57268845  0.35037140  1
  Si0+  Si103  1  0.92779294  0.82446223  0.65136268  1
  Si0+  Si104  1  0.32358559  0.07406642  0.34885152  1
  Si0+  Si105  1  0.17707839  0.42676917  0.34916777  1
  Si0+  Si106  1  0.31834989  0.56975484  0.34996584  1
  Si0+  Si107  1  0.07007515  0.68023378  0.98429676  1
  Si0+  Si108  1  0.07032208  0.17767641  0.32110885  1
  Si0+  Si109  1  0.17880852  0.92788385  0.01364309  1
  Si0+  Si110  1  0.57455375  0.67938975  0.98617434  1
  Si0+  Si111  1  0.67924126  0.43101366  0.68106501  1
  Si0+  Si112  1  0.92854456  0.31915415  0.31770398  1
  Si0+  Si113  1  0.82350264  0.57045924  0.67831064  1
  Si0+  Si114  1  0.57383203  0.18022663  0.31605812  1
  Si0+  Si115  1  0.18097975  0.92827873  0.68227835  1
  Si0+  Si116  1  0.67585284  0.92564036  0.35025473  1
  Si0+  Si117  1  0.82529015  0.57404245  0.01588920  1
  Si0+  Si118  1  0.32008364  0.07148747  0.01322733  1
  Si0+  Si119  1  0.32055704  0.07330806  0.68150256  1
  O2-  O120  1  0.24641649  0.00230225  0.05494253  1
  O2-  O121  1  0.26034058  0.00072554  0.39469917  1
  O2-  O122  1  0.25072381  0.00043708  0.72384943  1
  O2-  O123  1  0.25416657  0.49529090  0.06821228  1
  O2-  O124  1  0.24793953  0.49744278  0.39214838  1
  O2-  O125  1  0.24710778  0.49177483  0.72542120  1
  O2-  O126  1  0.74735107  0.00013185  0.06611749  1
  O2-  O127  1  0.74523434  -0.00643720  0.39387799  1
  O2-  O128  1  0.74940968  -0.00087043  0.73157496  1
  O2-  O129  1  0.75669716  0.50457838  0.05847264  1
  O2-  O130  1  0.75286528  0.50866632  0.39587041  1
  O2-  O131  1  0.74791704  0.50535736  0.72154418  1
  O2-  O132  1  -0.00036713  0.24779034  0.27747861  1
  O2-  O133  1  0.00320211  0.24151930  0.60328031  1
  O2-  O134  1  -0.00028771  0.24731137  0.93640224  1
  O2-  O135  1  -0.00579374  0.75235751  0.27089326  1
  O2-  O136  1  -0.00428018  0.75600522  0.60508618  1
  O2-  O137  1  -0.00498147  0.74692006  0.94260943  1
  O2-  O138  1  0.50116421  0.24520194  0.27369970  1
  O2-  O139  1  0.49327877  0.25472298  0.60553500  1
  O2-  O140  1  0.50231403  0.25621738  0.93499802  1
  O2-  O141  1  0.51100526  0.74977501  0.27087073  1
  O2-  O142  1  0.50508776  0.75160348  0.60253502  1
  O2-  O143  1  0.50790329  0.74902263  0.94122344  1
  O2-  O144  1  0.07027519  0.17311180  0.10001596  1
  O2-  O145  1  0.07185228  0.18031718  0.42609953  1
  O2-  O146  1  0.08018336  0.17617261  0.75106696  1
  O2-  O147  1  0.07035782  0.68201872  0.08953705  1
  O2-  O148  1  0.07163659  0.67895401  0.42930970  1
  O2-  O149  1  0.06740087  0.68161861  0.76737320  1
  O2-  O150  1  0.56892222  0.18173962  0.09983615  1
  O2-  O151  1  0.57294096  0.18164997  0.42198306  1
  O2-  O152  1  0.57045700  0.18184622  0.76384850  1
  O2-  O153  1  0.57444821  0.67995787  0.09195268  1
  O2-  O154  1  0.57185859  0.67556874  0.42111491  1
  O2-  O155  1  0.57109910  0.67233451  0.76584505  1
  O2-  O156  1  0.17650334  0.42570005  0.24463058  1
  O2-  O157  1  0.17557688  0.42760658  0.57588027  1
  O2-  O158  1  0.17556838  0.43434469  0.90171809  1
  O2-  O159  1  0.18201900  0.93159007  0.23386096  1
  O2-  O160  1  0.18192847  0.92757079  0.57703161  1
  O2-  O161  1  0.17944233  0.92492527  0.90840210  1
  O2-  O162  1  0.68082804  0.42993356  0.23676103  1
  O2-  O163  1  0.67978725  0.43145666  0.57566774  1
  O2-  O164  1  0.68251351  0.43157941  0.89823011  1
  O2-  O165  1  0.67612787  0.92593447  0.24493802  1
  O2-  O166  1  0.67899069  0.93012083  0.56646963  1
  O2-  O167  1  0.67614033  0.92578821  0.90328073  1
  O2-  O168  1  0.42985692  0.32183696  0.09850476  1
  O2-  O169  1  0.42871367  0.31998359  0.43450318  1
  O2-  O170  1  0.42670044  0.32109608  0.75738297  1
  O2-  O171  1  0.42657209  0.81863240  0.09886187  1
  O2-  O172  1  0.43004334  0.81573743  0.43035035  1
  O2-  O173  1  0.42680304  0.81867530  0.76433083  1
  O2-  O174  1  0.92930306  0.31913350  0.10047485  1
  O2-  O175  1  0.93031022  0.32045340  0.42298872  1
  O2-  O176  1  0.93108952  0.32218427  0.76270205  1
  O2-  O177  1  0.93037493  0.82053072  0.09135971  1
  O2-  O178  1  0.93193193  0.82192095  0.42321068  1
  O2-  O179  1  0.93075543  0.82087591  0.75719724  1
  O2-  O180  1  0.31895736  0.07639057  0.24345171  1
  O2-  O181  1  0.31750334  0.07665640  0.57633417  1
  O2-  O182  1  0.32028202  0.06881906  0.90788522  1
  O2-  O183  1  0.31704340  0.56997721  0.24515581  1
  O2-  O184  1  0.31736121  0.56962881  0.56679540  1
  O2-  O185  1  0.31611424  0.57623899  0.90480041  1
  O2-  O186  1  0.82184493  0.07023752  0.23639930  1
  O2-  O187  1  0.81831276  0.07164489  0.57120547  1
  O2-  O188  1  0.82057612  0.06754110  0.90200961  1
  O2-  O189  1  0.82696742  0.57115722  0.24500135  1
  O2-  O190  1  0.82709540  0.56619734  0.57335710  1
  O2-  O191  1  0.82598695  0.57641255  0.91005819  1
  O2-  O192  1  0.04320594  0.08430724  0.27716603  1
  O2-  O193  1  0.05230879  0.07983064  0.60227447  1
  O2-  O194  1  0.04754004  0.07521473  0.93250458  1
  O2-  O195  1  0.04003122  0.58182664  0.26124109  1
  O2-  O196  1  0.03833379  0.58560108  0.59715617  1
  O2-  O197  1  0.04595016  0.58801922  0.93720379  1
  O2-  O198  1  0.55480008  0.08509937  0.27116599  1
  O2-  O199  1  0.53785265  0.08633929  0.59390130  1
  O2-  O200  1  0.53730288  0.08460515  0.93225131  1
  O2-  O201  1  0.54308686  0.58468124  0.27023159  1
  O2-  O202  1  0.53901854  0.57928473  0.59790086  1
  O2-  O203  1  0.54781821  0.58606036  0.94121653  1
  O2-  O204  1  0.16213720  0.20430196  0.27320002  1
  O2-  O205  1  0.16690596  0.20383631  0.59699399  1
  O2-  O206  1  0.16914701  0.20256442  0.93036143  1
  O2-  O207  1  0.16509302  0.71223605  0.26083682  1
  O2-  O208  1  0.16389501  0.71335576  0.59892989  1
  O2-  O209  1  0.15951035  0.71397909  0.93680863  1
  O2-  O210  1  0.66635922  0.21222964  0.27224655  1
  O2-  O211  1  0.66394502  0.21467441  0.59499954  1
  O2-  O212  1  0.66936729  0.20808403  0.93335107  1
  O2-  O213  1  0.67158840  0.69413039  0.27279069  1
  O2-  O214  1  0.67447431  0.69602092  0.59955221  1
  O2-  O215  1  0.67022127  0.69982143  0.94154736  1
  O2-  O216  1  0.08228384  0.46038536  0.07030043  1
  O2-  O217  1  0.08427398  0.45539734  0.39474337  1
  O2-  O218  1  0.08205946  0.45767223  0.72596270  1
  O2-  O219  1  0.08655182  0.95077393  0.06220322  1
  O2-  O220  1  0.08887584  0.95944217  0.40573513  1
  O2-  O221  1  0.08886304  0.95393762  0.73035805  1
  O2-  O222  1  0.58617458  0.46217645  0.06930432  1
  O2-  O223  1  0.58233926  0.46196491  0.40447461  1
  O2-  O224  1  0.58708694  0.45504086  0.72858320  1
  O2-  O225  1  0.57616453  0.95833932  0.06790177  1
  O2-  O226  1  0.58156901  0.95231542  0.39490201  1
  O2-  O227  1  0.57642481  0.95761773  0.72874332  1
  O2-  O228  1  0.20176898  0.32658068  0.06545503  1
  O2-  O229  1  0.20386516  0.33500756  0.39806493  1
  O2-  O230  1  0.19409268  0.33126963  0.72628441  1
  O2-  O231  1  0.21044406  0.83825512  0.06289301  1
  O2-  O232  1  0.21355253  0.83067060  0.39938894  1
  O2-  O233  1  0.20911643  0.83720527  0.73050146  1
  O2-  O234  1  0.71132035  0.33482975  0.06825721  1
  O2-  O235  1  0.71245261  0.33746436  0.40606586  1
  O2-  O236  1  0.71232304  0.34035419  0.72579602  1
  O2-  O237  1  0.70401034  0.83041740  0.07140884  1
  O2-  O238  1  0.69925029  0.83040568  0.39468575  1
  O2-  O239  1  0.70283402  0.82781956  0.73185158  1
  O2-  O240  1  0.45955245  0.41808924  0.26844304  1
  O2-  O241  1  0.45212641  0.41600152  0.60689442  1
  O2-  O242  1  0.45326736  0.42780078  0.93792464  1
  O2-  O243  1  0.45490090  0.91958090  0.26535754  1
  O2-  O244  1  0.45006021  0.92012892  0.59611829  1
  O2-  O245  1  0.45409558  0.91762864  0.93223314  1
  O2-  O246  1  0.95480327  0.41050440  0.26978793  1
  O2-  O247  1  0.96246415  0.41251636  0.59110979  1
  O2-  O248  1  0.95802324  0.41998733  0.93352691  1
  O2-  O249  1  0.96093768  0.91637729  0.27333773  1
  O2-  O250  1  0.95487360  0.91885270  0.60786941  1
  O2-  O251  1  0.95879619  0.90935936  0.93611807  1
  O2-  O252  1  0.33075377  0.29230587  0.26728445  1
  O2-  O253  1  0.33065570  0.29838263  0.60744382  1
  O2-  O254  1  0.33066419  0.29737811  0.93181141  1
  O2-  O255  1  0.33611954  0.78557108  0.26384721  1
  O2-  O256  1  0.33235050  0.78645355  0.59795089  1
  O2-  O257  1  0.33283136  0.78701622  0.93167530  1
  O2-  O258  1  0.83563144  0.28989688  0.27447046  1
  O2-  O259  1  0.83434571  0.28942015  0.59338578  1
  O2-  O260  1  0.83126195  0.29409071  0.93253970  1
  O2-  O261  1  0.83396232  0.80272538  0.27244332  1
  O2-  O262  1  0.83444416  0.80068024  0.60503779  1
  O2-  O263  1  0.83410678  0.79545181  0.94040604  1
  O2-  O264  1  0.40962518  0.04183029  0.06305792  1
  O2-  O265  1  0.42007765  0.05333989  0.39087861  1
  O2-  O266  1  0.41266630  0.04622541  0.72706916  1
  O2-  O267  1  0.42047317  0.55317522  0.07257391  1
  O2-  O268  1  0.41055439  0.54314963  0.39689568  1
  O2-  O269  1  0.41592580  0.54209698  0.73606799  1
  O2-  O270  1  0.91925560  0.03738427  0.06738936  1
  O2-  O271  1  0.91569781  0.04004749  0.40634054  1
  O2-  O272  1  0.92268386  0.05242493  0.73384275  1
  O2-  O273  1  0.91903370  0.54917627  0.06174984  1
  O2-  O274  1  0.91781140  0.54109069  0.39629159  1
  O2-  O275  1  0.91349134  0.53700057  0.72678268  1
  O2-  O276  1  0.29388964  0.16364321  0.06030293  1
  O2-  O277  1  0.29249991  0.16506579  0.39815451  1
  O2-  O278  1  0.29071374  0.16374820  0.73082327  1
  O2-  O279  1  0.28304514  0.66840436  0.07196710  1
  O2-  O280  1  0.28683763  0.66067571  0.39616817  1
  O2-  O281  1  0.28426718  0.66515430  0.73440302  1
  O2-  O282  1  0.79469401  0.16879584  0.06808392  1
  O2-  O283  1  0.78799205  0.16500647  0.40457726  1
  O2-  O284  1  0.78904753  0.17328706  0.73305886  1
  O2-  O285  1  0.80138273  0.66644706  0.06558631  1
  O2-  O286  1  0.80699948  0.66885808  0.39475046  1
  O2-  O287  1  0.80464821  0.66453778  0.72454745  1
