# generated using pymatgen
data_Ca2Al2SiO7
_symmetry_space_group_name_H-M   'P 1'
_cell_length_a   15.45679961
_cell_length_b   15.45727936
_cell_length_c   15.28281889
_cell_angle_alpha   90.00175552
_cell_angle_beta   90.00429996
_cell_angle_gamma   89.99695287
_symmetry_Int_Tables_number   1
_chemical_formula_structural   Ca2Al2SiO7
_chemical_formula_sum   'Ca48 Al48 Si24 O168'
_cell_volume   3651.37213664
_cell_formula_units_Z   24
loop_
 _symmetry_equiv_pos_site_id
 _symmetry_equiv_pos_as_xyz
  1  'x, y, z'
loop_
 _atom_type_symbol
 _atom_type_oxidation_number
  Ca2+  2.0
  Al0+  0.0
  Si0+  0.0
  O2-  -2.0
loop_
 _atom_site_type_symbol
 _atom_site_label
 _atom_site_symmetry_multiplicity
 _atom_site_fract_x
 _atom_site_fract_y
 _atom_site_fract_z
 _atom_site_occupancy
  Ca2+  Ca0  1  0.17198934  0.07245601  0.17371694  1
  Ca2+  Ca1  1  0.17406673  0.08193724  0.49954063  1
  Ca2+  Ca2  1  0.16320577  0.08073170  0.83835542  1
  Ca2+  Ca3  1  0.17217464  0.57156233  0.16854954  1
  Ca2+  Ca4  1  0.16765396  0.57771557  0.50448753  1
  Ca2+  Ca5  1  0.17397366  0.57915208  0.84392001  1
  Ca2+  Ca6  1  0.67862729  0.09258898  0.17281458  1
  Ca2+  Ca7  1  0.66467157  0.08457087  0.50572416  1
  Ca2+  Ca8  1  0.66638956  0.07910500  0.83744099  1
  Ca2+  Ca9  1  0.66321132  0.58324910  0.16321480  1
  Ca2+  Ca10  1  0.66236149  0.58808004  0.50411215  1
  Ca2+  Ca11  1  0.66644575  0.57946910  0.84546172  1
  Ca2+  Ca12  1  0.08162865  0.33563652  0.15947646  1
  Ca2+  Ca13  1  0.08543332  0.32717094  0.49603014  1
  Ca2+  Ca14  1  0.07769633  0.33448808  0.83097759  1
  Ca2+  Ca15  1  0.08086476  0.84060304  0.15837168  1
  Ca2+  Ca16  1  0.08799660  0.82841039  0.49622680  1
  Ca2+  Ca17  1  0.07807971  0.83131954  0.83259268  1
  Ca2+  Ca18  1  0.57406822  0.33103879  0.16098024  1
  Ca2+  Ca19  1  0.57126222  0.32443812  0.49348117  1
  Ca2+  Ca20  1  0.57397488  0.33541484  0.82996637  1
  Ca2+  Ca21  1  0.57863144  0.82442659  0.16382370  1
  Ca2+  Ca22  1  0.58408875  0.82709612  0.49291013  1
  Ca2+  Ca23  1  0.59007841  0.82169909  0.82893601  1
  Ca2+  Ca24  1  0.33052669  0.41368546  0.16787299  1
  Ca2+  Ca25  1  0.33403816  0.40813974  0.49913377  1
  Ca2+  Ca26  1  0.33313458  0.41946364  0.84423711  1
  Ca2+  Ca27  1  0.32459757  0.91617676  0.17644141  1
  Ca2+  Ca28  1  0.34072535  0.92030233  0.49794419  1
  Ca2+  Ca29  1  0.32507266  0.91982958  0.84092834  1
  Ca2+  Ca30  1  0.82743878  0.41680598  0.16455914  1
  Ca2+  Ca31  1  0.82837916  0.41991069  0.50317736  1
  Ca2+  Ca32  1  0.82644713  0.42270087  0.84745760  1
  Ca2+  Ca33  1  0.83724601  0.92803092  0.16906084  1
  Ca2+  Ca34  1  0.82439991  0.92322887  0.50327003  1
  Ca2+  Ca35  1  0.82970544  0.92051203  0.83987770  1
  Ca2+  Ca36  1  0.41257985  0.17347159  0.16606724  1
  Ca2+  Ca37  1  0.42503018  0.16963653  0.49077944  1
  Ca2+  Ca38  1  0.41898568  0.18147345  0.82570143  1
  Ca2+  Ca39  1  0.42276789  0.66447837  0.16299627  1
  Ca2+  Ca40  1  0.42878576  0.67376675  0.49165065  1
  Ca2+  Ca41  1  0.42717521  0.65918644  0.83268930  1
  Ca2+  Ca42  1  0.91482130  0.16874310  0.15779860  1
  Ca2+  Ca43  1  0.92196555  0.16092236  0.49677364  1
  Ca2+  Ca44  1  0.91905279  0.16982802  0.83492638  1
  Ca2+  Ca45  1  0.91707624  0.67416302  0.15571045  1
  Ca2+  Ca46  1  0.92388263  0.66775073  0.49798749  1
  Ca2+  Ca47  1  0.91902299  0.66899981  0.83292227  1
  Al0+  Al48  1  -0.00107624  -0.00083698  0.00121900  1
  Al0+  Al49  1  -0.00029352  -0.00061549  0.34292308  1
  Al0+  Al50  1  -0.00088711  0.00108472  0.66281998  1
  Al0+  Al51  1  -0.00049608  0.50031315  0.00225128  1
  Al0+  Al52  1  0.00006967  0.49996989  0.33853111  1
  Al0+  Al53  1  -0.00010939  0.50122258  0.66335936  1
  Al0+  Al54  1  0.49981162  -0.00123434  -0.00007179  1
  Al0+  Al55  1  0.50168783  -0.00186923  0.32694025  1
  Al0+  Al56  1  0.49935495  0.00077501  0.67313580  1
  Al0+  Al57  1  0.50009562  0.49924603  0.00010049  1
  Al0+  Al58  1  0.50045773  0.49825186  0.32779679  1
  Al0+  Al59  1  0.49889460  0.50163153  0.65786664  1
  Al0+  Al60  1  0.25057867  0.24832056  -0.00185347  1
  Al0+  Al61  1  0.24818336  0.24758215  0.33695958  1
  Al0+  Al62  1  0.24617100  0.25038255  0.66135274  1
  Al0+  Al63  1  0.25037108  0.74995414  0.00779674  1
  Al0+  Al64  1  0.25020124  0.74569205  0.33417590  1
  Al0+  Al65  1  0.24945952  0.74910476  0.66464660  1
  Al0+  Al66  1  0.75126870  0.24992426  0.00156080  1
  Al0+  Al67  1  0.75139484  0.25264620  0.33814691  1
  Al0+  Al68  1  0.75006754  0.25220033  0.66609447  1
  Al0+  Al69  1  0.75034222  0.75119882  -0.00474131  1
  Al0+  Al70  1  0.75384799  0.75011243  0.32999837  1
  Al0+  Al71  1  0.75146407  0.75231806  0.66626299  1
  Al0+  Al72  1  0.57191439  0.68129678  0.65359805  1
  Al0+  Al73  1  0.57452545  0.17774705  0.31736094  1
  Al0+  Al74  1  0.17956616  0.93051440  0.01127237  1
  Al0+  Al75  1  0.82125207  0.57372968  0.01419545  1
  Al0+  Al76  1  0.67833270  0.42836818  0.01483177  1
  Al0+  Al77  1  0.06856263  0.17858048  0.65180970  1
  Al0+  Al78  1  0.07142189  0.67935733  0.65378789  1
  Al0+  Al79  1  0.56847647  0.68109626  0.98504844  1
  Al0+  Al80  1  0.57134183  0.17761565  0.65373607  1
  Al0+  Al81  1  0.57422341  0.67855959  0.31581892  1
  Al0+  Al82  1  0.67808724  0.92972536  0.68093192  1
  Al0+  Al83  1  0.17838956  0.42636354  0.01286456  1
  Al0+  Al84  1  0.32274120  0.57056684  0.01530086  1
  Al0+  Al85  1  0.81857106  0.06932103  0.01182196  1
  Al0+  Al86  1  0.92987437  0.82250495  0.98623674  1
  Al0+  Al87  1  0.81973876  0.07351043  0.34937802  1
  Al0+  Al88  1  0.42659448  0.31771648  0.31530906  1
  Al0+  Al89  1  0.42764154  0.82070353  0.31750785  1
  Al0+  Al90  1  0.32283448  0.06916077  0.34834567  1
  Al0+  Al91  1  0.42799070  0.32223043  0.65049052  1
  Al0+  Al92  1  0.92862203  0.32269883  0.98793307  1
  Al0+  Al93  1  0.17891932  0.92563194  0.35118256  1
  Al0+  Al94  1  0.42892071  0.31891159  0.98557337  1
  Al0+  Al95  1  0.17846332  0.42930266  0.34966534  1
  Si0+  Si96  1  0.32408034  0.56946012  0.35263284  1
  Si0+  Si97  1  0.93287853  0.82090111  0.31904715  1
  Si0+  Si98  1  0.07070748  0.67611295  0.31799794  1
  Si0+  Si99  1  0.57413798  0.17681643  0.98358794  1
  Si0+  Si100  1  0.82300800  0.07343849  0.68487526  1
  Si0+  Si101  1  0.07073314  0.17788007  0.98578376  1
  Si0+  Si102  1  0.67806659  0.43157449  0.67977372  1
  Si0+  Si103  1  0.17782504  0.42868446  0.68191350  1
  Si0+  Si104  1  0.17839977  0.92815800  0.68202578  1
  Si0+  Si105  1  0.92771591  0.32378489  0.64906354  1
  Si0+  Si106  1  0.92875397  0.82244607  0.64781943  1
  Si0+  Si107  1  0.42621181  0.82272585  0.65327368  1
  Si0+  Si108  1  0.67646883  0.92667752  0.01743966  1
  Si0+  Si109  1  0.92999594  0.32271246  0.31928586  1
  Si0+  Si110  1  0.32370641  0.07223317  0.01482354  1
  Si0+  Si111  1  0.31922642  0.07285059  0.68274824  1
  Si0+  Si112  1  0.07324369  0.67794438  0.98586413  1
  Si0+  Si113  1  0.67852523  0.43056881  0.35024058  1
  Si0+  Si114  1  0.42507933  0.82337026  0.98233032  1
  Si0+  Si115  1  0.32054410  0.57073027  0.67986588  1
  Si0+  Si116  1  0.82108927  0.57235948  0.34991031  1
  Si0+  Si117  1  0.68066186  0.92654750  0.34705268  1
  Si0+  Si118  1  0.06831852  0.17778617  0.31845338  1
  Si0+  Si119  1  0.82236684  0.57128844  0.68125166  1
  O2-  O120  1  0.25813932  0.00029725  0.05771895  1
  O2-  O121  1  0.25453767  -0.00602504  0.40107794  1
  O2-  O122  1  0.24827905  0.00034753  0.72435794  1
  O2-  O123  1  0.25085863  0.49719890  0.06357657  1
  O2-  O124  1  0.25596363  0.50038933  0.39803063  1
  O2-  O125  1  0.25075874  0.49814140  0.72256718  1
  O2-  O126  1  0.74129299  -0.00110870  0.06116514  1
  O2-  O127  1  0.74099788  0.00188049  0.39364799  1
  O2-  O128  1  0.75083957  0.00762403  0.72712514  1
  O2-  O129  1  0.75054012  0.50111386  0.06497585  1
  O2-  O130  1  0.74631819  0.50567573  0.39271086  1
  O2-  O131  1  0.74925219  0.50249336  0.72244708  1
  O2-  O132  1  -0.00185925  0.24944718  0.27646738  1
  O2-  O133  1  -0.00694905  0.25246515  0.60441104  1
  O2-  O134  1  0.00645011  0.25097485  0.94141359  1
  O2-  O135  1  0.00668171  0.75328637  0.27631050  1
  O2-  O136  1  -0.00144082  0.75454096  0.60421006  1
  O2-  O137  1  0.00350047  0.74564990  0.94088401  1
  O2-  O138  1  0.49918149  0.24550364  0.26643100  1
  O2-  O139  1  0.49871001  0.24783244  0.60279789  1
  O2-  O140  1  0.50360911  0.24358437  0.93946870  1
  O2-  O141  1  0.49950284  0.74849214  0.26765179  1
  O2-  O142  1  0.49952931  0.75890408  0.60925290  1
  O2-  O143  1  0.49399830  0.75592916  0.93676997  1
  O2-  O144  1  0.06859390  0.17568891  0.09133272  1
  O2-  O145  1  0.06636797  0.17914043  0.42388952  1
  O2-  O146  1  0.06805472  0.17884417  0.76505306  1
  O2-  O147  1  0.07208154  0.67913118  0.09153253  1
  O2-  O148  1  0.06624866  0.67484805  0.42360620  1
  O2-  O149  1  0.07055375  0.67955786  0.76661188  1
  O2-  O150  1  0.57463641  0.17799343  0.08885983  1
  O2-  O151  1  0.57507408  0.18171670  0.43123393  1
  O2-  O152  1  0.56991685  0.17948857  0.76737826  1
  O2-  O153  1  0.56876814  0.68340718  0.09754023  1
  O2-  O154  1  0.57531706  0.68203738  0.43011301  1
  O2-  O155  1  0.57100055  0.67815947  0.76629795  1
  O2-  O156  1  0.17327576  0.43237121  0.23729183  1
  O2-  O157  1  0.17604965  0.43049782  0.57679439  1
  O2-  O158  1  0.17861842  0.42817566  0.89851486  1
  O2-  O159  1  0.17462452  0.93083715  0.23774488  1
  O2-  O160  1  0.18000341  0.92711689  0.57746138  1
  O2-  O161  1  0.17890827  0.93256038  0.89726548  1
  O2-  O162  1  0.68188079  0.42834942  0.24573874  1
  O2-  O163  1  0.68088538  0.43298727  0.57439957  1
  O2-  O164  1  0.67881809  0.42998345  0.90026272  1
  O2-  O165  1  0.68835916  0.92229466  0.24205428  1
  O2-  O166  1  0.68121715  0.92762935  0.56770379  1
  O2-  O167  1  0.67796726  0.92755249  0.91139342  1
  O2-  O168  1  0.42661629  0.31600740  0.09796758  1
  O2-  O169  1  0.42939118  0.31732727  0.42903128  1
  O2-  O170  1  0.42899360  0.32408625  0.76432483  1
  O2-  O171  1  0.42598425  0.82420620  0.08734346  1
  O2-  O172  1  0.43074723  0.81897504  0.43200620  1
  O2-  O173  1  0.42168477  0.81927335  0.75863631  1
  O2-  O174  1  0.92858320  0.31953165  0.10124778  1
  O2-  O175  1  0.93161879  0.32404816  0.42477281  1
  O2-  O176  1  0.92920387  0.32653019  0.75439358  1
  O2-  O177  1  0.93330404  0.82453649  0.09960846  1
  O2-  O178  1  0.93058612  0.81736232  0.42434109  1
  O2-  O179  1  0.92962204  0.82282826  0.75334962  1
  O2-  O180  1  0.31591119  0.07079251  0.23484562  1
  O2-  O181  1  0.31990311  0.07139818  0.57810363  1
  O2-  O182  1  0.32172601  0.07223754  0.90863530  1
  O2-  O183  1  0.32134069  0.56990504  0.24737309  1
  O2-  O184  1  0.31853848  0.57238507  0.57506622  1
  O2-  O185  1  0.32107565  0.57037173  0.90053548  1
  O2-  O186  1  0.82356406  0.07193652  0.23640599  1
  O2-  O187  1  0.82456759  0.07094359  0.57923062  1
  O2-  O188  1  0.81942434  0.06772594  0.89854086  1
  O2-  O189  1  0.82504776  0.57177171  0.24563899  1
  O2-  O190  1  0.82367016  0.56941445  0.57561525  1
  O2-  O191  1  0.82001368  0.57241472  0.89977982  1
  O2-  O192  1  0.03868913  0.08512438  0.27419700  1
  O2-  O193  1  0.03904506  0.08251183  0.59563627  1
  O2-  O194  1  0.03837004  0.08744727  0.93682989  1
  O2-  O195  1  0.03475808  0.58694616  0.27122987  1
  O2-  O196  1  0.03827091  0.58439105  0.59690632  1
  O2-  O197  1  0.04869498  0.58462332  0.93893178  1
  O2-  O198  1  0.55693049  0.07676576  0.26652884  1
  O2-  O199  1  0.54420221  0.07758919  0.60343775  1
  O2-  O200  1  0.55073586  0.08119841  0.93932271  1
  O2-  O201  1  0.54811660  0.57923714  0.26542431  1
  O2-  O202  1  0.53930578  0.58755763  0.59578410  1
  O2-  O203  1  0.53842659  0.58393694  0.93138791  1
  O2-  O204  1  0.16011977  0.20418527  0.27221304  1
  O2-  O205  1  0.16302580  0.21036169  0.59510512  1
  O2-  O206  1  0.16527692  0.19731648  0.93910470  1
  O2-  O207  1  0.16524827  0.69408006  0.27386919  1
  O2-  O208  1  0.16719514  0.70923158  0.59749887  1
  O2-  O209  1  0.16676825  0.70539581  0.94028542  1
  O2-  O210  1  0.67291827  0.21305499  0.26756146  1
  O2-  O211  1  0.67114968  0.20469760  0.60250246  1
  O2-  O212  1  0.66718656  0.20264418  0.93712473  1
  O2-  O213  1  0.67328842  0.70778355  0.26447416  1
  O2-  O214  1  0.66989684  0.70935047  0.60038197  1
  O2-  O215  1  0.66508921  0.71181534  0.93023044  1
  O2-  O216  1  0.08065091  0.45466527  0.06655956  1
  O2-  O217  1  0.08334029  0.46419477  0.40649720  1
  O2-  O218  1  0.08566820  0.45920900  0.72787182  1
  O2-  O219  1  0.08525848  0.96481664  0.06670581  1
  O2-  O220  1  0.08263136  0.95744142  0.40714144  1
  O2-  O221  1  0.08505860  0.95628766  0.72668529  1
  O2-  O222  1  0.58144106  0.45736093  0.06825328  1
  O2-  O223  1  0.58554842  0.45567850  0.39652760  1
  O2-  O224  1  0.58542483  0.46059936  0.72437163  1
  O2-  O225  1  0.58060515  0.94643293  0.06126736  1
  O2-  O226  1  0.58379508  0.94209314  0.38871962  1
  O2-  O227  1  0.58110997  0.95467018  0.73813424  1
  O2-  O228  1  0.20429894  0.32681795  0.06465146  1
  O2-  O229  1  0.20486290  0.33119549  0.40262146  1
  O2-  O230  1  0.20084904  0.33505566  0.72734369  1
  O2-  O231  1  0.20398800  0.83400673  0.06754541  1
  O2-  O232  1  0.20114899  0.82372760  0.40025660  1
  O2-  O233  1  0.20657662  0.83622237  0.72948465  1
  O2-  O234  1  0.70908091  0.33137303  0.06835500  1
  O2-  O235  1  0.71217537  0.34236462  0.40154894  1
  O2-  O236  1  0.70487103  0.33947164  0.72730537  1
  O2-  O237  1  0.70647009  0.83487155  0.06248027  1
  O2-  O238  1  0.71579181  0.83620100  0.39645718  1
  O2-  O239  1  0.71430911  0.83426046  0.73558227  1
  O2-  O240  1  0.45481805  0.41680010  0.26491198  1
  O2-  O241  1  0.45737239  0.41866243  0.59442729  1
  O2-  O242  1  0.46011397  0.41542586  0.93192087  1
  O2-  O243  1  0.45234377  0.91854153  0.26242733  1
  O2-  O244  1  0.44787952  0.91849042  0.61116373  1
  O2-  O245  1  0.44857434  0.91811713  0.93594962  1
  O2-  O246  1  0.95995177  0.41430886  0.27306587  1
  O2-  O247  1  0.95598365  0.41574735  0.60042339  1
  O2-  O248  1  0.95627313  0.41993022  0.93263688  1
  O2-  O249  1  0.95888372  0.91451496  0.27467658  1
  O2-  O250  1  0.95305476  0.91587331  0.60135336  1
  O2-  O251  1  0.96438149  0.91674320  0.92928905  1
  O2-  O252  1  0.32646427  0.28907991  0.26581687  1
  O2-  O253  1  0.32834316  0.29595134  0.60041048  1
  O2-  O254  1  0.33237902  0.28797727  0.92953148  1
  O2-  O255  1  0.32793300  0.79143844  0.26674094  1
  O2-  O256  1  0.33526156  0.79374409  0.60366550  1
  O2-  O257  1  0.33033630  0.79784389  0.93801413  1
  O2-  O258  1  0.83717670  0.29771031  0.27428080  1
  O2-  O259  1  0.83297548  0.30208816  0.60350197  1
  O2-  O260  1  0.83377483  0.28894939  0.93149703  1
  O2-  O261  1  0.84325647  0.79065946  0.26964737  1
  O2-  O262  1  0.83681624  0.79412166  0.60025467  1
  O2-  O263  1  0.83415505  0.79393636  0.92981914  1
  O2-  O264  1  0.41852299  0.05105874  0.06000884  1
  O2-  O265  1  0.42406025  0.04353656  0.39854362  1
  O2-  O266  1  0.41009092  0.04736463  0.73306878  1
  O2-  O267  1  0.41976689  0.54191742  0.06826586  1
  O2-  O268  1  0.41903203  0.54477107  0.39681606  1
  O2-  O269  1  0.41354474  0.54322810  0.72533317  1
  O2-  O270  1  0.91363569  0.03571638  0.06704245  1
  O2-  O271  1  0.91318363  0.03703764  0.40630933  1
  O2-  O272  1  0.91600962  0.04351347  0.73042442  1
  O2-  O273  1  0.91988982  0.54835479  0.06724026  1
  O2-  O274  1  0.91008860  0.53939312  0.40106788  1
  O2-  O275  1  0.91372269  0.54128053  0.72859319  1
  O2-  O276  1  0.29452771  0.16353982  0.06195520  1
  O2-  O277  1  0.28848658  0.16470763  0.40398411  1
  O2-  O278  1  0.28683801  0.16422117  0.72886914  1
  O2-  O279  1  0.29496908  0.66789580  0.07034114  1
  O2-  O280  1  0.29704692  0.66235643  0.39969899  1
  O2-  O281  1  0.29146618  0.66200825  0.72826509  1
  O2-  O282  1  0.79263989  0.16619004  0.06704230  1
  O2-  O283  1  0.79556326  0.17140795  0.40477287  1
  O2-  O284  1  0.80283104  0.16995553  0.72768675  1
  O2-  O285  1  0.79305424  0.67277566  0.06569891  1
  O2-  O286  1  0.79734893  0.66546775  0.39783749  1
  O2-  O287  1  0.79943939  0.66515679  0.72562457  1
