# generated using pymatgen
data_Ca2Al2SiO7
_symmetry_space_group_name_H-M   'P 1'
_cell_length_a   15.45836219
_cell_length_b   15.45843808
_cell_length_c   15.28384832
_cell_angle_alpha   90.00638327
_cell_angle_beta   89.99675728
_cell_angle_gamma   89.98685084
_symmetry_Int_Tables_number   1
_chemical_formula_structural   Ca2Al2SiO7
_chemical_formula_sum   'Ca48 Al48 Si24 O168'
_cell_volume   3652.26089595
_cell_formula_units_Z   24
loop_
 _symmetry_equiv_pos_site_id
 _symmetry_equiv_pos_as_xyz
  1  'x, y, z'
loop_
 _atom_type_symbol
 _atom_type_oxidation_number
  Ca2+  2.0
  Al0+  0.0
  Si0+  0.0
  O2-  -2.0
loop_
 _atom_site_type_symbol
 _atom_site_label
 _atom_site_symmetry_multiplicity
 _atom_site_fract_x
 _atom_site_fract_y
 _atom_site_fract_z
 _atom_site_occupancy
  Ca2+  Ca0  1  0.16433953  0.07588529  0.16762732  1
  Ca2+  Ca1  1  0.17238767  0.08535873  0.50891580  1
  Ca2+  Ca2  1  0.16980928  0.08111740  0.83383526  1
  Ca2+  Ca3  1  0.17793387  0.58214443  0.17559624  1
  Ca2+  Ca4  1  0.17656920  0.58148152  0.51077724  1
  Ca2+  Ca5  1  0.16702982  0.58633469  0.82979230  1
  Ca2+  Ca6  1  0.66854240  0.07601410  0.17528836  1
  Ca2+  Ca7  1  0.67332121  0.09035461  0.50201965  1
  Ca2+  Ca8  1  0.67094286  0.07135747  0.83976250  1
  Ca2+  Ca9  1  0.66756015  0.58192787  0.17716449  1
  Ca2+  Ca10  1  0.66555441  0.57652802  0.50092861  1
  Ca2+  Ca11  1  0.66016980  0.58335651  0.83184948  1
  Ca2+  Ca12  1  0.07531264  0.33470780  0.16629559  1
  Ca2+  Ca13  1  0.07803127  0.33532731  0.50094753  1
  Ca2+  Ca14  1  0.07913258  0.32969981  0.81947140  1
  Ca2+  Ca15  1  0.07313351  0.83497707  0.16224433  1
  Ca2+  Ca16  1  0.07576881  0.82801735  0.49949702  1
  Ca2+  Ca17  1  0.07561171  0.83493944  0.82636709  1
  Ca2+  Ca18  1  0.57595126  0.33687151  0.16979075  1
  Ca2+  Ca19  1  0.58141848  0.33469159  0.48948488  1
  Ca2+  Ca20  1  0.57771192  0.33565922  0.82910327  1
  Ca2+  Ca21  1  0.59108027  0.81990183  0.16197267  1
  Ca2+  Ca22  1  0.57715436  0.82070565  0.49879087  1
  Ca2+  Ca23  1  0.58432364  0.82311382  0.82607658  1
  Ca2+  Ca24  1  0.33809107  0.41711952  0.17366210  1
  Ca2+  Ca25  1  0.33270422  0.42475386  0.50730907  1
  Ca2+  Ca26  1  0.32983092  0.42099287  0.83190609  1
  Ca2+  Ca27  1  0.32290501  0.91116219  0.16990798  1
  Ca2+  Ca28  1  0.33840713  0.92421366  0.51129013  1
  Ca2+  Ca29  1  0.33196406  0.91889106  0.83459553  1
  Ca2+  Ca30  1  0.82679038  0.42554471  0.18308613  1
  Ca2+  Ca31  1  0.82453484  0.41149107  0.50495060  1
  Ca2+  Ca32  1  0.82872911  0.41556653  0.83189746  1
  Ca2+  Ca33  1  0.83169356  0.91711789  0.17332363  1
  Ca2+  Ca34  1  0.83841089  0.91722215  0.49973534  1
  Ca2+  Ca35  1  0.83240447  0.91046633  0.84032735  1
  Ca2+  Ca36  1  0.42112002  0.17877534  0.16566657  1
  Ca2+  Ca37  1  0.42262819  0.17213251  0.49189687  1
  Ca2+  Ca38  1  0.41279235  0.17050071  0.82842060  1
  Ca2+  Ca39  1  0.42949170  0.65800520  0.16552068  1
  Ca2+  Ca40  1  0.42332135  0.65595316  0.49793169  1
  Ca2+  Ca41  1  0.42553316  0.67147187  0.82298561  1
  Ca2+  Ca42  1  0.90775451  0.17141940  0.17156199  1
  Ca2+  Ca43  1  0.91769969  0.17683641  0.49647207  1
  Ca2+  Ca44  1  0.92675692  0.17090709  0.82190572  1
  Ca2+  Ca45  1  0.90577715  0.67793371  0.16561721  1
  Ca2+  Ca46  1  0.91571993  0.67305405  0.49571070  1
  Ca2+  Ca47  1  0.92212485  0.67976329  0.82350703  1
  Al0+  Al48  1  0.00120268  0.00205950  0.00095046  1
  Al0+  Al49  1  -0.00136917  -0.00144345  0.33394853  1
  Al0+  Al50  1  0.00139522  0.00277960  0.65932162  1
  Al0+  Al51  1  0.00074191  0.50066246  0.00150312  1
  Al0+  Al52  1  0.00154519  0.50076520  0.33157863  1
  Al0+  Al53  1  -0.00202887  0.50131769  0.66458459  1
  Al0+  Al54  1  0.50108057  0.00063480  0.00777095  1
  Al0+  Al55  1  0.49805679  -0.00187808  0.32815974  1
  Al0+  Al56  1  0.50186772  0.00002619  0.66996943  1
  Al0+  Al57  1  0.50008728  0.49881398  -0.00898201  1
  Al0+  Al58  1  0.49963095  0.50011149  0.33273722  1
  Al0+  Al59  1  0.50055780  0.49909844  0.67263830  1
  Al0+  Al60  1  0.24985541  0.25181727  -0.00207469  1
  Al0+  Al61  1  0.24878705  0.24726782  0.32785283  1
  Al0+  Al62  1  0.25061424  0.25024476  0.67088621  1
  Al0+  Al63  1  0.25146440  0.74963951  0.00654585  1
  Al0+  Al64  1  0.24844999  0.74902330  0.33897141  1
  Al0+  Al65  1  0.24948896  0.75343679  0.66576567  1
  Al0+  Al66  1  0.74803130  0.25040085  -0.00018157  1
  Al0+  Al67  1  0.75070784  0.24711835  0.33165935  1
  Al0+  Al68  1  0.75001611  0.24940509  0.67316039  1
  Al0+  Al69  1  0.75066040  0.74933364  -0.00550530  1
  Al0+  Al70  1  0.74905833  0.75053825  0.33113685  1
  Al0+  Al71  1  0.74793392  0.74931703  0.65827143  1
  Al0+  Al72  1  0.92749416  0.82245775  0.64993657  1
  Al0+  Al73  1  0.57056449  0.68034182  0.98479725  1
  Al0+  Al74  1  0.68037938  0.92681283  0.01371337  1
  Al0+  Al75  1  0.92628249  0.32138112  0.65297748  1
  Al0+  Al76  1  0.81971283  0.06905358  0.34832746  1
  Al0+  Al77  1  0.32118560  0.57370929  0.68438517  1
  Al0+  Al78  1  0.17951628  0.92950628  0.01357910  1
  Al0+  Al79  1  0.07389827  0.18081352  0.65098637  1
  Al0+  Al80  1  0.57308408  0.17595906  0.31836007  1
  Al0+  Al81  1  0.32348011  0.07119646  0.67995120  1
  Al0+  Al82  1  0.42959637  0.31925897  0.98266960  1
  Al0+  Al83  1  0.32042644  0.56854873  0.34657521  1
  Al0+  Al84  1  0.68035428  0.42921598  0.34668912  1
  Al0+  Al85  1  0.07227364  0.67847832  0.65196725  1
  Al0+  Al86  1  0.67993115  0.42781340  0.68263423  1
  Al0+  Al87  1  0.42865315  0.32088519  0.32066109  1
  Al0+  Al88  1  0.92952905  0.32201760  0.31966105  1
  Al0+  Al89  1  0.93092096  0.81932501  0.31763714  1
  Al0+  Al90  1  0.56822606  0.68051807  0.31956739  1
  Al0+  Al91  1  0.42923710  0.82352482  0.65445505  1
  Al0+  Al92  1  0.82269783  0.57414452  0.34844955  1
  Al0+  Al93  1  0.17694294  0.43046910  0.68134606  1
  Al0+  Al94  1  0.93167341  0.82088115  0.98715724  1
  Al0+  Al95  1  0.56848676  0.67609177  0.64848473  1
  Si0+  Si96  1  0.17819391  0.92946754  0.35034773  1
  Si0+  Si97  1  0.17660296  0.93025714  0.68223270  1
  Si0+  Si98  1  0.57256279  0.17587137  0.98196519  1
  Si0+  Si99  1  0.43015641  0.31968598  0.65324681  1
  Si0+  Si100  1  0.17713811  0.42440837  0.34839635  1
  Si0+  Si101  1  0.82221627  0.07065593  0.68216108  1
  Si0+  Si102  1  0.32175152  0.07496901  0.01929037  1
  Si0+  Si103  1  0.82230420  0.07306356  0.01645071  1
  Si0+  Si104  1  0.42576335  0.82350289  0.98627818  1
  Si0+  Si105  1  0.67807558  0.42895009  0.01524214  1
  Si0+  Si106  1  0.07546254  0.67727784  0.98564711  1
  Si0+  Si107  1  0.07475048  0.67779880  0.31531297  1
  Si0+  Si108  1  0.32201520  0.56886989  0.01488944  1
  Si0+  Si109  1  0.17802572  0.42827444  0.01634738  1
  Si0+  Si110  1  0.32032417  0.07018665  0.34651048  1
  Si0+  Si111  1  0.92777054  0.32323375  0.98610428  1
  Si0+  Si112  1  0.07146893  0.17682298  0.31436334  1
  Si0+  Si113  1  0.82071486  0.57475682  0.68367463  1
  Si0+  Si114  1  0.68092082  0.92869806  0.68009987  1
  Si0+  Si115  1  0.82163817  0.56908325  0.01296394  1
  Si0+  Si116  1  0.07006422  0.18106989  0.98534635  1
  Si0+  Si117  1  0.57122401  0.17816824  0.65528357  1
  Si0+  Si118  1  0.67542417  0.92691957  0.35134150  1
  Si0+  Si119  1  0.42453806  0.82293810  0.31567924  1
  O2-  O120  1  0.25652038  0.00198900  0.06248970  1
  O2-  O121  1  0.25216086  -0.00201573  0.39089897  1
  O2-  O122  1  0.24849736  -0.00374574  0.72614506  1
  O2-  O123  1  0.24904545  0.49956638  0.05757181  1
  O2-  O124  1  0.24577401  0.49310255  0.39125248  1
  O2-  O125  1  0.24590614  0.50427087  0.73441322  1
  O2-  O126  1  0.75380164  0.00366332  0.05947099  1
  O2-  O127  1  0.74133319  -0.00170055  0.39586547  1
  O2-  O128  1  0.75663345  -0.00535333  0.72387162  1
  O2-  O129  1  0.75230577  0.49670357  0.05597395  1
  O2-  O130  1  0.75526958  0.49758890  0.39775566  1
  O2-  O131  1  0.75381594  0.50419328  0.72908630  1
  O2-  O132  1  0.00440749  0.24762422  0.27061860  1
  O2-  O133  1  0.00232647  0.25376992  0.60301656  1
  O2-  O134  1  -0.00227925  0.25125368  0.94428396  1
  O2-  O135  1  0.00205449  0.74153932  0.26971129  1
  O2-  O136  1  -0.00163978  0.74844386  0.60178535  1
  O2-  O137  1  0.00866692  0.74798863  0.94229284  1
  O2-  O138  1  0.50187066  0.24987993  0.26992807  1
  O2-  O139  1  0.50196932  0.24960997  0.61182897  1
  O2-  O140  1  0.50243391  0.24205121  0.93634835  1
  O2-  O141  1  0.49387360  0.75537049  0.27118128  1
  O2-  O142  1  0.49173724  0.74519542  0.60157164  1
  O2-  O143  1  0.49731528  0.75848018  0.94189339  1
  O2-  O144  1  0.07099317  0.18175729  0.09048275  1
  O2-  O145  1  0.07457514  0.17660983  0.41916234  1
  O2-  O146  1  0.07076474  0.17873419  0.76549563  1
  O2-  O147  1  0.07553718  0.67547575  0.09112207  1
  O2-  O148  1  0.07848720  0.68205357  0.42011328  1
  O2-  O149  1  0.06975883  0.68249663  0.76657540  1
  O2-  O150  1  0.57397243  0.17772454  0.08703414  1
  O2-  O151  1  0.56930802  0.17533072  0.43252603  1
  O2-  O152  1  0.57004897  0.17769634  0.76061239  1
  O2-  O153  1  0.57023978  0.67772488  0.09799027  1
  O2-  O154  1  0.56665445  0.67974154  0.43181754  1
  O2-  O155  1  0.57034493  0.68031551  0.76252442  1
  O2-  O156  1  0.17761795  0.42544910  0.24186628  1
  O2-  O157  1  0.18223157  0.42757193  0.56789748  1
  O2-  O158  1  0.17539482  0.42721434  0.91197033  1
  O2-  O159  1  0.17842709  0.93052277  0.24463347  1
  O2-  O160  1  0.17544778  0.93341026  0.57661432  1
  O2-  O161  1  0.17879486  0.93229936  0.90099315  1
  O2-  O162  1  0.67972240  0.43258601  0.23212672  1
  O2-  O163  1  0.67928854  0.42331934  0.57034945  1
  O2-  O164  1  0.67969502  0.42797079  0.91019061  1
  O2-  O165  1  0.67875129  0.92651890  0.24525737  1
  O2-  O166  1  0.67811235  0.93277742  0.57541774  1
  O2-  O167  1  0.68262972  0.92794272  0.90015369  1
  O2-  O168  1  0.43044847  0.32019591  0.09558658  1
  O2-  O169  1  0.42666576  0.31822399  0.43420703  1
  O2-  O170  1  0.43093798  0.31750284  0.75874798  1
  O2-  O171  1  0.42283638  0.81894057  0.09187182  1
  O2-  O172  1  0.42556495  0.82673901  0.42077153  1
  O2-  O173  1  0.43539418  0.82664853  0.76844930  1
  O2-  O174  1  0.92896580  0.32382081  0.09103017  1
  O2-  O175  1  0.93003800  0.31975406  0.43192453  1
  O2-  O176  1  0.92552247  0.31570040  0.76775356  1
  O2-  O177  1  0.93107938  0.81996598  0.10013173  1
  O2-  O178  1  0.93456088  0.82129026  0.42996166  1
  O2-  O179  1  0.92856893  0.82346334  0.76428134  1
  O2-  O180  1  0.31694720  0.07000822  0.24133525  1
  O2-  O181  1  0.32467866  0.07093003  0.56652522  1
  O2-  O182  1  0.31971440  0.07615710  0.91375472  1
  O2-  O183  1  0.31981295  0.56783726  0.23239308  1
  O2-  O184  1  0.32288024  0.56752403  0.57101758  1
  O2-  O185  1  0.32033167  0.56949649  0.91039703  1
  O2-  O186  1  0.82080463  0.06589906  0.23466895  1
  O2-  O187  1  0.81880728  0.07405101  0.57749404  1
  O2-  O188  1  0.82231639  0.07417372  0.91060853  1
  O2-  O189  1  0.81852559  0.57393698  0.23357217  1
  O2-  O190  1  0.81860982  0.57596712  0.57865404  1
  O2-  O191  1  0.82433443  0.56672247  0.90816109  1
  O2-  O192  1  0.04172238  0.08433380  0.26802812  1
  O2-  O193  1  0.04570602  0.08436123  0.59561422  1
  O2-  O194  1  0.04303211  0.08961298  0.93726362  1
  O2-  O195  1  0.05740947  0.58190954  0.27056042  1
  O2-  O196  1  0.04866280  0.57921130  0.59984227  1
  O2-  O197  1  0.04811370  0.58380385  0.93958117  1
  O2-  O198  1  0.54197889  0.07862881  0.26298757  1
  O2-  O199  1  0.54399600  0.08749371  0.60687898  1
  O2-  O200  1  0.54933979  0.08014355  0.93856070  1
  O2-  O201  1  0.53647595  0.58482889  0.26402919  1
  O2-  O202  1  0.54185352  0.57567163  0.59977342  1
  O2-  O203  1  0.53802382  0.58544810  0.92937796  1
  O2-  O204  1  0.16443104  0.20002050  0.26467866  1
  O2-  O205  1  0.17301624  0.20795293  0.59941158  1
  O2-  O206  1  0.16136028  0.20928476  0.93784731  1
  O2-  O207  1  0.16659859  0.70947691  0.26735170  1
  O2-  O208  1  0.17005146  0.70783367  0.59877416  1
  O2-  O209  1  0.17018667  0.70120110  0.94162807  1
  O2-  O210  1  0.67153571  0.19972114  0.26430872  1
  O2-  O211  1  0.66394051  0.20500493  0.61044813  1
  O2-  O212  1  0.66607047  0.20293208  0.93503255  1
  O2-  O213  1  0.66427025  0.71219185  0.26437452  1
  O2-  O214  1  0.66458327  0.70793024  0.59490316  1
  O2-  O215  1  0.66650436  0.70977039  0.92915372  1
  O2-  O216  1  0.08624411  0.45601960  0.06540811  1
  O2-  O217  1  0.08350477  0.44896320  0.39342365  1
  O2-  O218  1  0.07615253  0.45383489  0.73380598  1
  O2-  O219  1  0.08464962  0.96506714  0.06978940  1
  O2-  O220  1  0.08811648  0.96074398  0.39734410  1
  O2-  O221  1  0.08412189  0.96117062  0.72903322  1
  O2-  O222  1  0.58597792  0.45999370  0.05952084  1
  O2-  O223  1  0.58253323  0.45916764  0.39883405  1
  O2-  O224  1  0.58431707  0.45815355  0.73916446  1
  O2-  O225  1  0.58338314  0.95382940  0.06987016  1
  O2-  O226  1  0.57909577  0.94875326  0.39305583  1
  O2-  O227  1  0.59276872  0.96179593  0.73173961  1
  O2-  O228  1  0.20639198  0.33663290  0.06408514  1
  O2-  O229  1  0.20100444  0.32920958  0.39144788  1
  O2-  O230  1  0.20892141  0.33329622  0.73653777  1
  O2-  O231  1  0.20787435  0.83297004  0.07100972  1
  O2-  O232  1  0.20261982  0.83723185  0.39739160  1
  O2-  O233  1  0.19736978  0.83649469  0.72927399  1
  O2-  O234  1  0.70153826  0.33526080  0.06132007  1
  O2-  O235  1  0.70427895  0.32854714  0.39594028  1
  O2-  O236  1  0.71184799  0.33243212  0.74137769  1
  O2-  O237  1  0.71415667  0.83045949  0.06670122  1
  O2-  O238  1  0.70480238  0.83518352  0.39744596  1
  O2-  O239  1  0.70531950  0.83501695  0.72559151  1
  O2-  O240  1  0.45816702  0.41758669  0.26494708  1
  O2-  O241  1  0.45807232  0.41171750  0.60851479  1
  O2-  O242  1  0.46265351  0.41340940  0.92630263  1
  O2-  O243  1  0.44584896  0.91628183  0.26670015  1
  O2-  O244  1  0.46552656  0.91939314  0.59971589  1
  O2-  O245  1  0.44643954  0.92066061  0.94601798  1
  O2-  O246  1  0.95980361  0.41851443  0.26312092  1
  O2-  O247  1  0.94580970  0.42173353  0.60295048  1
  O2-  O248  1  0.95713067  0.41458939  0.93886381  1
  O2-  O249  1  0.96526486  0.91525925  0.26356234  1
  O2-  O250  1  0.95668559  0.92033693  0.59741807  1
  O2-  O251  1  0.95975195  0.91944572  0.93521319  1
  O2-  O252  1  0.33142131  0.29006001  0.26417449  1
  O2-  O253  1  0.33886726  0.29151110  0.60729739  1
  O2-  O254  1  0.33159397  0.29021350  0.93007884  1
  O2-  O255  1  0.33000540  0.79543384  0.27213244  1
  O2-  O256  1  0.32691866  0.81020145  0.60600175  1
  O2-  O257  1  0.33277733  0.79587306  0.93969328  1
  O2-  O258  1  0.83467429  0.28848647  0.26358005  1
  O2-  O259  1  0.82965237  0.28481208  0.60181811  1
  O2-  O260  1  0.83451460  0.29756285  0.94045084  1
  O2-  O261  1  0.83282725  0.79201392  0.26442622  1
  O2-  O262  1  0.82939559  0.79662431  0.59649135  1
  O2-  O263  1  0.83736699  0.78732897  0.93115162  1
  O2-  O264  1  0.41696870  0.05569208  0.06441571  1
  O2-  O265  1  0.41347450  0.04475818  0.39238741  1
  O2-  O266  1  0.41905273  0.04043439  0.73757748  1
  O2-  O267  1  0.41363649  0.53594818  0.05990316  1
  O2-  O268  1  0.41564956  0.53700104  0.40065442  1
  O2-  O269  1  0.41751401  0.54029907  0.73889767  1
  O2-  O270  1  0.91625608  0.05018126  0.06237136  1
  O2-  O271  1  0.91591603  0.03611143  0.40187806  1
  O2-  O272  1  0.91667819  0.04741492  0.72666858  1
  O2-  O273  1  0.91382829  0.54427656  0.06242577  1
  O2-  O274  1  0.92504601  0.55310471  0.39523581  1
  O2-  O275  1  0.91493640  0.55212107  0.72998649  1
  O2-  O276  1  0.28933553  0.16688109  0.06549314  1
  O2-  O277  1  0.29094263  0.16180502  0.39349604  1
  O2-  O278  1  0.29149934  0.16585058  0.73697161  1
  O2-  O279  1  0.29797348  0.66065883  0.06460366  1
  O2-  O280  1  0.29078732  0.66526295  0.40095899  1
  O2-  O281  1  0.29642027  0.67478635  0.73466505  1
  O2-  O282  1  0.79497605  0.16704309  0.06227800  1
  O2-  O283  1  0.79207751  0.16611634  0.40236747  1
  O2-  O284  1  0.79014092  0.15855531  0.73495794  1
  O2-  O285  1  0.79116096  0.66076046  0.05841196  1
  O2-  O286  1  0.79090316  0.67143956  0.40043200  1
  O2-  O287  1  0.79139165  0.66819647  0.72973454  1
