# generated using pymatgen
data_Ca2Al2SiO7
_symmetry_space_group_name_H-M   'P 1'
_cell_length_a   15.45534497
_cell_length_b   15.45511854
_cell_length_c   15.28157308
_cell_angle_alpha   89.99482306
_cell_angle_beta   90.01217482
_cell_angle_gamma   90.01064642
_symmetry_Int_Tables_number   1
_chemical_formula_structural   Ca2Al2SiO7
_chemical_formula_sum   'Ca48 Al48 Si24 O168'
_cell_volume   3650.22039279
_cell_formula_units_Z   24
loop_
 _symmetry_equiv_pos_site_id
 _symmetry_equiv_pos_as_xyz
  1  'x, y, z'
loop_
 _atom_type_symbol
 _atom_type_oxidation_number
  Ca2+  2.0
  Al0+  0.0
  Si0+  0.0
  O2-  -2.0
loop_
 _atom_site_type_symbol
 _atom_site_label
 _atom_site_symmetry_multiplicity
 _atom_site_fract_x
 _atom_site_fract_y
 _atom_site_fract_z
 _atom_site_occupancy
  Ca2+  Ca0  1  0.17475757  0.07760737  0.16955443  1
  Ca2+  Ca1  1  0.17140910  0.08439088  0.50092843  1
  Ca2+  Ca2  1  0.16903708  0.08473662  0.84679670  1
  Ca2+  Ca3  1  0.16577744  0.57674493  0.16835952  1
  Ca2+  Ca4  1  0.17501893  0.57736137  0.51063678  1
  Ca2+  Ca5  1  0.16896123  0.57140666  0.83645466  1
  Ca2+  Ca6  1  0.66006906  0.07742585  0.17218055  1
  Ca2+  Ca7  1  0.65751756  0.07350079  0.50300028  1
  Ca2+  Ca8  1  0.66642009  0.07453849  0.84166146  1
  Ca2+  Ca9  1  0.66539999  0.58217882  0.17043162  1
  Ca2+  Ca10  1  0.66532160  0.57717791  0.50372909  1
  Ca2+  Ca11  1  0.67731680  0.58812458  0.84020453  1
  Ca2+  Ca12  1  0.07821539  0.32942898  0.15879327  1
  Ca2+  Ca13  1  0.08079814  0.33228320  0.49782878  1
  Ca2+  Ca14  1  0.09115089  0.32476850  0.83023302  1
  Ca2+  Ca15  1  0.08686171  0.83815132  0.16193297  1
  Ca2+  Ca16  1  0.07661091  0.83566326  0.49467296  1
  Ca2+  Ca17  1  0.07291824  0.83995562  0.82711788  1
  Ca2+  Ca18  1  0.58679295  0.32182414  0.16308225  1
  Ca2+  Ca19  1  0.58950511  0.32237586  0.49167176  1
  Ca2+  Ca20  1  0.58599989  0.31744067  0.82963821  1
  Ca2+  Ca21  1  0.58630700  0.83085240  0.16412267  1
  Ca2+  Ca22  1  0.58046706  0.82996149  0.48915401  1
  Ca2+  Ca23  1  0.59101580  0.83240723  0.83190727  1
  Ca2+  Ca24  1  0.32785594  0.41250143  0.16726226  1
  Ca2+  Ca25  1  0.33044262  0.42438781  0.51011854  1
  Ca2+  Ca26  1  0.32495335  0.41616692  0.83408493  1
  Ca2+  Ca27  1  0.33064593  0.92558242  0.17346256  1
  Ca2+  Ca28  1  0.33463713  0.91872402  0.49646625  1
  Ca2+  Ca29  1  0.32344951  0.92451593  0.84336977  1
  Ca2+  Ca30  1  0.82983393  0.42018634  0.17284082  1
  Ca2+  Ca31  1  0.83101268  0.41863638  0.49999385  1
  Ca2+  Ca32  1  0.83854352  0.43060666  0.83694638  1
  Ca2+  Ca33  1  0.82277117  0.92590411  0.16519139  1
  Ca2+  Ca34  1  0.82014746  0.91213801  0.50582748  1
  Ca2+  Ca35  1  0.82550213  0.91987204  0.83875808  1
  Ca2+  Ca36  1  0.42322095  0.15583420  0.16451675  1
  Ca2+  Ca37  1  0.42571769  0.16368228  0.49539413  1
  Ca2+  Ca38  1  0.42606104  0.15805747  0.83272362  1
  Ca2+  Ca39  1  0.42829137  0.67387578  0.16290652  1
  Ca2+  Ca40  1  0.41915640  0.67254188  0.48879565  1
  Ca2+  Ca41  1  0.42134643  0.66609614  0.83074485  1
  Ca2+  Ca42  1  0.91689972  0.17132733  0.15872128  1
  Ca2+  Ca43  1  0.92384605  0.17229494  0.49452736  1
  Ca2+  Ca44  1  0.92944014  0.15680502  0.83084195  1
  Ca2+  Ca45  1  0.91425166  0.66913201  0.16070289  1
  Ca2+  Ca46  1  0.91212852  0.66968012  0.50247741  1
  Ca2+  Ca47  1  0.91155229  0.67101511  0.82728240  1
  Al0+  Al48  1  -0.00259207  0.00057375  0.00356174  1
  Al0+  Al49  1  0.00072260  0.00005929  0.33554908  1
  Al0+  Al50  1  -0.00182711  0.00012048  0.65321295  1
  Al0+  Al51  1  0.00009880  0.50203643  0.00770356  1
  Al0+  Al52  1  -0.00060099  0.50046490  0.33079115  1
  Al0+  Al53  1  0.00012032  0.49979613  0.67327135  1
  Al0+  Al54  1  0.49797516  -0.00216697  0.00115350  1
  Al0+  Al55  1  0.49860830  -0.00064949  0.33466672  1
  Al0+  Al56  1  0.49900335  -0.00271482  0.66747775  1
  Al0+  Al57  1  0.50049621  0.50139145  -0.00714853  1
  Al0+  Al58  1  0.50072364  0.49853152  0.33372721  1
  Al0+  Al59  1  0.50063187  0.49853485  0.67234362  1
  Al0+  Al60  1  0.24947248  0.25151072  0.00552151  1
  Al0+  Al61  1  0.25015297  0.24889358  0.33840871  1
  Al0+  Al62  1  0.25207303  0.24926654  0.66441234  1
  Al0+  Al63  1  0.25006410  0.74737868  0.00040008  1
  Al0+  Al64  1  0.24884259  0.75029807  0.33192851  1
  Al0+  Al65  1  0.25032772  0.75049309  0.67140943  1
  Al0+  Al66  1  0.75041232  0.25322707  -0.00618017  1
  Al0+  Al67  1  0.75179738  0.25227173  0.32908923  1
  Al0+  Al68  1  0.75267573  0.24765087  0.66200914  1
  Al0+  Al69  1  0.75077916  0.75031722  0.00434173  1
  Al0+  Al70  1  0.75306831  0.75069755  0.33249216  1
  Al0+  Al71  1  0.74866169  0.74981032  0.66842859  1
  Al0+  Al72  1  0.82084721  0.07470817  0.01264383  1
  Al0+  Al73  1  0.57053581  0.17754875  0.98598800  1
  Al0+  Al74  1  0.67907636  0.42900896  0.34566166  1
  Al0+  Al75  1  0.93094213  0.32137078  0.31860006  1
  Al0+  Al76  1  0.06847008  0.18073733  0.98912526  1
  Al0+  Al77  1  0.67885482  0.93045842  0.01566563  1
  Al0+  Al78  1  0.67828028  0.93059285  0.68022141  1
  Al0+  Al79  1  0.56944945  0.18000379  0.32004929  1
  Al0+  Al80  1  0.18057584  0.43012589  0.01602371  1
  Al0+  Al81  1  0.32100040  0.07152256  0.01469063  1
  Al0+  Al82  1  0.57325224  0.67719655  0.31926587  1
  Al0+  Al83  1  0.17983462  0.42747639  0.68153129  1
  Al0+  Al84  1  0.42799127  0.82065854  0.31710892  1
  Al0+  Al85  1  0.17624042  0.92735226  0.01225738  1
  Al0+  Al86  1  0.57152893  0.17721610  0.65230720  1
  Al0+  Al87  1  0.92755379  0.81956775  0.65228009  1
  Al0+  Al88  1  0.17777746  0.92721071  0.35131745  1
  Al0+  Al89  1  0.32134047  0.07114444  0.35217421  1
  Al0+  Al90  1  0.81982174  0.57100237  0.01560314  1
  Al0+  Al91  1  0.07320252  0.17939607  0.65145440  1
  Al0+  Al92  1  0.57200596  0.68071927  0.98406419  1
  Al0+  Al93  1  0.32374393  0.57407522  0.68284823  1
  Al0+  Al94  1  0.81763979  0.56956933  0.67936301  1
  Al0+  Al95  1  0.68093597  0.92989898  0.34749932  1
  Si0+  Si96  1  0.92823743  0.32602704  0.98165282  1
  Si0+  Si97  1  0.07041624  0.67935391  0.31854591  1
  Si0+  Si98  1  0.67806157  0.42323474  0.68404261  1
  Si0+  Si99  1  0.31996192  0.06896491  0.68178167  1
  Si0+  Si100  1  0.07337416  0.17799602  0.31515889  1
  Si0+  Si101  1  0.42691346  0.81950011  0.65245695  1
  Si0+  Si102  1  0.67629034  0.42854014  0.01439290  1
  Si0+  Si103  1  0.92921150  0.32520939  0.65024544  1
  Si0+  Si104  1  0.43017183  0.32183405  0.65001098  1
  Si0+  Si105  1  0.17731458  0.42982859  0.34853312  1
  Si0+  Si106  1  0.17568138  0.93005698  0.67983052  1
  Si0+  Si107  1  0.07217834  0.67667130  0.98462368  1
  Si0+  Si108  1  0.42722897  0.32322549  0.98232902  1
  Si0+  Si109  1  0.57063768  0.67861029  0.65279449  1
  Si0+  Si110  1  0.32457486  0.57202919  0.01846472  1
  Si0+  Si111  1  0.07233076  0.67780159  0.65225392  1
  Si0+  Si112  1  0.42560143  0.32323111  0.31807310  1
  Si0+  Si113  1  0.42629671  0.82087196  0.98105820  1
  Si0+  Si114  1  0.82400609  0.07235836  0.68033908  1
  Si0+  Si115  1  0.93091889  0.81975782  0.98618292  1
  Si0+  Si116  1  0.92907215  0.82227553  0.31628754  1
  Si0+  Si117  1  0.32054869  0.56979675  0.34557355  1
  Si0+  Si118  1  0.82351386  0.57212914  0.35106547  1
  Si0+  Si119  1  0.82242129  0.07436744  0.35062153  1
  O2-  O120  1  0.24930298  -0.00233825  0.06211838  1
  O2-  O121  1  0.24842438  -0.00038667  0.40256003  1
  O2-  O122  1  0.24397528  0.00273288  0.72315894  1
  O2-  O123  1  0.25619178  0.50366871  0.06373634  1
  O2-  O124  1  0.25137720  0.49771579  0.38985871  1
  O2-  O125  1  0.25123083  0.50111697  0.73038915  1
  O2-  O126  1  0.74255488  0.01080279  0.06430074  1
  O2-  O127  1  0.75395827  0.00587825  0.39592998  1
  O2-  O128  1  0.75176152  0.00756353  0.72442806  1
  O2-  O129  1  0.74538355  0.49587799  0.06013871  1
  O2-  O130  1  0.75088321  0.50660156  0.39340035  1
  O2-  O131  1  0.74548498  0.49330775  0.72785669  1
  O2-  O132  1  0.00426139  0.24610585  0.27136574  1
  O2-  O133  1  -0.00132701  0.25611558  0.60735850  1
  O2-  O134  1  -0.00646741  0.25372751  0.93807398  1
  O2-  O135  1  0.00206419  0.75244100  0.27536740  1
  O2-  O136  1  0.00459436  0.74608401  0.60574512  1
  O2-  O137  1  0.00553095  0.75205604  0.94334822  1
  O2-  O138  1  0.49363263  0.25422550  0.27392064  1
  O2-  O139  1  0.50176577  0.25678186  0.60534110  1
  O2-  O140  1  0.49506925  0.25266055  0.93914770  1
  O2-  O141  1  0.50363792  0.75128348  0.26878767  1
  O2-  O142  1  0.49453376  0.74425781  0.61135546  1
  O2-  O143  1  0.49697845  0.75450290  0.93572717  1
  O2-  O144  1  0.06717734  0.18328103  0.10185690  1
  O2-  O145  1  0.07280392  0.18090194  0.42125228  1
  O2-  O146  1  0.07309389  0.17680989  0.76466908  1
  O2-  O147  1  0.07024578  0.67492711  0.09006670  1
  O2-  O148  1  0.06927858  0.67650294  0.42373742  1
  O2-  O149  1  0.07140268  0.67939421  0.75779958  1
  O2-  O150  1  0.57004804  0.17949663  0.09890616  1
  O2-  O151  1  0.56891228  0.18126435  0.43348099  1
  O2-  O152  1  0.56871242  0.17628993  0.76543064  1
  O2-  O153  1  0.57067810  0.67968394  0.09676059  1
  O2-  O154  1  0.56978625  0.67605472  0.43371624  1
  O2-  O155  1  0.57248984  0.68204180  0.75782594  1
  O2-  O156  1  0.17679637  0.43190690  0.24351843  1
  O2-  O157  1  0.18112744  0.43071829  0.56720115  1
  O2-  O158  1  0.18114978  0.43068927  0.90318318  1
  O2-  O159  1  0.17765838  0.92799624  0.23814718  1
  O2-  O160  1  0.17819892  0.92811449  0.57518890  1
  O2-  O161  1  0.17549020  0.92972292  0.89772151  1
  O2-  O162  1  0.68100868  0.42861618  0.23274201  1
  O2-  O163  1  0.67804062  0.42463407  0.57824231  1
  O2-  O164  1  0.67808789  0.42947406  0.90852818  1
  O2-  O165  1  0.68326307  0.92944610  0.23494069  1
  O2-  O166  1  0.67762403  0.92887862  0.56703805  1
  O2-  O167  1  0.68298701  0.92859902  0.90165891  1
  O2-  O168  1  0.42928177  0.32688688  0.08788870  1
  O2-  O169  1  0.42570026  0.32541314  0.42373134  1
  O2-  O170  1  0.42847443  0.31967674  0.75548976  1
  O2-  O171  1  0.42443098  0.81797076  0.08616599  1
  O2-  O172  1  0.42753756  0.81638317  0.43170895  1
  O2-  O173  1  0.42644395  0.82137636  0.75733393  1
  O2-  O174  1  0.93042502  0.32736483  0.08737123  1
  O2-  O175  1  0.93476058  0.32331533  0.43207116  1
  O2-  O176  1  0.92827847  0.32697219  0.75545467  1
  O2-  O177  1  0.93129711  0.81748185  0.09141979  1
  O2-  O178  1  0.92754191  0.81896944  0.42154521  1
  O2-  O179  1  0.92899768  0.81990634  0.76561518  1
  O2-  O180  1  0.31895611  0.07227196  0.23913208  1
  O2-  O181  1  0.32155951  0.06686655  0.57706988  1
  O2-  O182  1  0.31934865  0.07045416  0.89999557  1
  O2-  O183  1  0.31810235  0.56827731  0.24064741  1
  O2-  O184  1  0.32239354  0.57386675  0.56838390  1
  O2-  O185  1  0.32231308  0.57196979  0.91293734  1
  O2-  O186  1  0.82245871  0.07271973  0.24512178  1
  O2-  O187  1  0.82466657  0.07143636  0.57471260  1
  O2-  O188  1  0.82488834  0.06785089  0.89887634  1
  O2-  O189  1  0.82675462  0.57047018  0.24569470  1
  O2-  O190  1  0.81558846  0.56954095  0.56624230  1
  O2-  O191  1  0.82043760  0.57187337  0.90222002  1
  O2-  O192  1  0.04893708  0.08294944  0.27248828  1
  O2-  O193  1  0.04087605  0.08577328  0.59236721  1
  O2-  O194  1  0.03823288  0.08312581  0.93490878  1
  O2-  O195  1  0.04016994  0.58904048  0.26900495  1
  O2-  O196  1  0.04611051  0.58382285  0.60676714  1
  O2-  O197  1  0.03864464  0.58671318  0.93710779  1
  O2-  O198  1  0.53828695  0.08346577  0.26776713  1
  O2-  O199  1  0.53405590  0.08178805  0.59980486  1
  O2-  O200  1  0.53868999  0.08045560  0.93234930  1
  O2-  O201  1  0.54277865  0.57904132  0.26645061  1
  O2-  O202  1  0.54887354  0.58298555  0.60965857  1
  O2-  O203  1  0.54276571  0.58427408  0.92763907  1
  O2-  O204  1  0.16739598  0.20520735  0.27173034  1
  O2-  O205  1  0.16969937  0.20992027  0.59651842  1
  O2-  O206  1  0.16603316  0.21298469  0.93667910  1
  O2-  O207  1  0.16213583  0.70362493  0.26950725  1
  O2-  O208  1  0.16686900  0.70284492  0.60700837  1
  O2-  O209  1  0.16620606  0.69661554  0.93811603  1
  O2-  O210  1  0.66573475  0.21164543  0.26662731  1
  O2-  O211  1  0.67010062  0.20246898  0.59896211  1
  O2-  O212  1  0.66675583  0.20907668  0.92967357  1
  O2-  O213  1  0.67351946  0.70269568  0.26891751  1
  O2-  O214  1  0.66008141  0.71003949  0.60378947  1
  O2-  O215  1  0.66944167  0.71366411  0.93196723  1
  O2-  O216  1  0.08611237  0.46460094  0.07180002  1
  O2-  O217  1  0.08711653  0.46244756  0.39608119  1
  O2-  O218  1  0.08216789  0.45426088  0.73594332  1
  O2-  O219  1  0.07913526  0.95483979  0.06673111  1
  O2-  O220  1  0.07823413  0.95484312  0.40376305  1
  O2-  O221  1  0.08133640  0.95635805  0.72223486  1
  O2-  O222  1  0.58243132  0.45498971  0.05863691  1
  O2-  O223  1  0.58166906  0.45545123  0.40179481  1
  O2-  O224  1  0.58410519  0.44556769  0.73014914  1
  O2-  O225  1  0.57771486  0.94928166  0.06481465  1
  O2-  O226  1  0.58336254  0.95769139  0.40049844  1
  O2-  O227  1  0.58148275  0.95898152  0.73515974  1
  O2-  O228  1  0.21037574  0.33545118  0.07327417  1
  O2-  O229  1  0.20084724  0.33704792  0.39524373  1
  O2-  O230  1  0.21211904  0.32954593  0.73373883  1
  O2-  O231  1  0.20048761  0.82633165  0.06228296  1
  O2-  O232  1  0.20442392  0.82702996  0.40287563  1
  O2-  O233  1  0.20274273  0.83868175  0.72858985  1
  O2-  O234  1  0.70112435  0.33456750  0.05932418  1
  O2-  O235  1  0.71503837  0.33431923  0.40095186  1
  O2-  O236  1  0.70565521  0.32938483  0.72850408  1
  O2-  O237  1  0.71617377  0.83589412  0.06960400  1
  O2-  O238  1  0.71449151  0.83296443  0.40094928  1
  O2-  O239  1  0.71192817  0.83508999  0.73392500  1
  O2-  O240  1  0.45010315  0.41618873  0.27049741  1
  O2-  O241  1  0.45201774  0.41789115  0.60598359  1
  O2-  O242  1  0.45221394  0.41577785  0.93303599  1
  O2-  O243  1  0.45378140  0.91981073  0.26677610  1
  O2-  O244  1  0.45837732  0.90939623  0.60374355  1
  O2-  O245  1  0.44870271  0.91519255  0.93530378  1
  O2-  O246  1  0.96241303  0.41780809  0.26374029  1
  O2-  O247  1  0.95552674  0.41876627  0.60335619  1
  O2-  O248  1  0.95997025  0.41927072  0.93773171  1
  O2-  O249  1  0.95546956  0.91519863  0.27071816  1
  O2-  O250  1  0.95593360  0.91375549  0.59281317  1
  O2-  O251  1  0.95578108  0.91195914  0.93807758  1
  O2-  O252  1  0.33082951  0.29845814  0.27325050  1
  O2-  O253  1  0.33803691  0.29449790  0.60171391  1
  O2-  O254  1  0.33262648  0.29804143  0.93841586  1
  O2-  O255  1  0.33021296  0.78935530  0.26427027  1
  O2-  O256  1  0.33382644  0.79498516  0.60501960  1
  O2-  O257  1  0.33302180  0.79212266  0.93374371  1
  O2-  O258  1  0.83516947  0.29309041  0.26256215  1
  O2-  O259  1  0.83642124  0.29903628  0.60193594  1
  O2-  O260  1  0.83332951  0.30906828  0.93511408  1
  O2-  O261  1  0.83958464  0.79199511  0.26638318  1
  O2-  O262  1  0.83240048  0.78344211  0.59769977  1
  O2-  O263  1  0.84082361  0.78713315  0.93877136  1
  O2-  O264  1  0.41789151  0.04113385  0.06801377  1
  O2-  O265  1  0.41858957  0.04038044  0.40611015  1
  O2-  O266  1  0.40908483  0.03508985  0.73054709  1
  O2-  O267  1  0.41892731  0.54593876  0.06186674  1
  O2-  O268  1  0.41215828  0.54402913  0.39431650  1
  O2-  O269  1  0.42155161  0.54528600  0.73721387  1
  O2-  O270  1  0.91450305  0.03954854  0.07047207  1
  O2-  O271  1  0.91652637  0.04901837  0.39596809  1
  O2-  O272  1  0.91704355  0.04075094  0.72468676  1
  O2-  O273  1  0.91570726  0.54225683  0.07172867  1
  O2-  O274  1  0.91575415  0.54169806  0.39836791  1
  O2-  O275  1  0.91516993  0.54358828  0.73451078  1
  O2-  O276  1  0.29487613  0.16938812  0.06824489  1
  O2-  O277  1  0.29335978  0.17014601  0.40671319  1
  O2-  O278  1  0.29779157  0.16282214  0.72657073  1
  O2-  O279  1  0.29782974  0.66485716  0.06481676  1
  O2-  O280  1  0.29026140  0.66043915  0.39345416  1
  O2-  O281  1  0.29508298  0.67155172  0.73797501  1
  O2-  O282  1  0.80283341  0.17788076  0.05911512  1
  O2-  O283  1  0.79902401  0.16890253  0.39497356  1
  O2-  O284  1  0.80557904  0.16781861  0.72511969  1
  O2-  O285  1  0.78927617  0.66616075  0.07110878  1
  O2-  O286  1  0.80276383  0.66721269  0.39525736  1
  O2-  O287  1  0.78475769  0.66457369  0.73496697  1
