# generated using pymatgen
data_Ca2Al2SiO7
_symmetry_space_group_name_H-M   'P 1'
_cell_length_a   15.46107630
_cell_length_b   15.46020661
_cell_length_c   15.28514436
_cell_angle_alpha   90.00300094
_cell_angle_beta   89.99408688
_cell_angle_gamma   90.00566766
_symmetry_Int_Tables_number   1
_chemical_formula_structural   Ca2Al2SiO7
_chemical_formula_sum   'Ca48 Al48 Si24 O168'
_cell_volume   3653.62993170
_cell_formula_units_Z   24
loop_
 _symmetry_equiv_pos_site_id
 _symmetry_equiv_pos_as_xyz
  1  'x, y, z'
loop_
 _atom_type_symbol
 _atom_type_oxidation_number
  Ca2+  2.0
  Al0+  0.0
  Si0+  0.0
  O2-  -2.0
loop_
 _atom_site_type_symbol
 _atom_site_label
 _atom_site_symmetry_multiplicity
 _atom_site_fract_x
 _atom_site_fract_y
 _atom_site_fract_z
 _atom_site_occupancy
  Ca2+  Ca0  1  0.16783681  0.08911115  0.17031501  1
  Ca2+  Ca1  1  0.15571756  0.07840239  0.49581225  1
  Ca2+  Ca2  1  0.17081654  0.08653251  0.84163119  1
  Ca2+  Ca3  1  0.17134325  0.57447778  0.17380510  1
  Ca2+  Ca4  1  0.17970170  0.57780723  0.50725425  1
  Ca2+  Ca5  1  0.17004538  0.56929265  0.83783849  1
  Ca2+  Ca6  1  0.67462116  0.07848627  0.17790024  1
  Ca2+  Ca7  1  0.66837240  0.07702518  0.50087996  1
  Ca2+  Ca8  1  0.67118186  0.06928957  0.84396385  1
  Ca2+  Ca9  1  0.67561975  0.58093406  0.17318978  1
  Ca2+  Ca10  1  0.66816524  0.59250207  0.49815570  1
  Ca2+  Ca11  1  0.67083349  0.58491050  0.83633926  1
  Ca2+  Ca12  1  0.07541131  0.32632969  0.16050515  1
  Ca2+  Ca13  1  0.08057980  0.32967813  0.49357250  1
  Ca2+  Ca14  1  0.08561611  0.33300837  0.83610710  1
  Ca2+  Ca15  1  0.07838677  0.83673526  0.16829250  1
  Ca2+  Ca16  1  0.07177606  0.83659414  0.48987358  1
  Ca2+  Ca17  1  0.07407352  0.83064423  0.82590031  1
  Ca2+  Ca18  1  0.57861731  0.32594474  0.16431241  1
  Ca2+  Ca19  1  0.57606664  0.33023623  0.49337387  1
  Ca2+  Ca20  1  0.56908607  0.33515909  0.82884835  1
  Ca2+  Ca21  1  0.59775395  0.82955499  0.16780224  1
  Ca2+  Ca22  1  0.58980838  0.82670192  0.49435832  1
  Ca2+  Ca23  1  0.59050921  0.82965846  0.82651164  1
  Ca2+  Ca24  1  0.32827305  0.41360411  0.16867200  1
  Ca2+  Ca25  1  0.33231273  0.42430361  0.50893832  1
  Ca2+  Ca26  1  0.32639374  0.41087937  0.83716172  1
  Ca2+  Ca27  1  0.32527319  0.92287553  0.17144744  1
  Ca2+  Ca28  1  0.32556495  0.91623052  0.49902610  1
  Ca2+  Ca29  1  0.33304545  0.92585147  0.84112496  1
  Ca2+  Ca30  1  0.84640662  0.42488300  0.17126319  1
  Ca2+  Ca31  1  0.83723058  0.42138050  0.49912518  1
  Ca2+  Ca32  1  0.83464812  0.42338993  0.84418090  1
  Ca2+  Ca33  1  0.82834211  0.92826619  0.17344280  1
  Ca2+  Ca34  1  0.82801890  0.91586718  0.49990411  1
  Ca2+  Ca35  1  0.82553824  0.91746953  0.83807246  1
  Ca2+  Ca36  1  0.42190592  0.16441671  0.16009024  1
  Ca2+  Ca37  1  0.42276064  0.17271872  0.49523843  1
  Ca2+  Ca38  1  0.40872296  0.17669112  0.83314604  1
  Ca2+  Ca39  1  0.42037142  0.66524461  0.16734633  1
  Ca2+  Ca40  1  0.42494377  0.65929930  0.49369015  1
  Ca2+  Ca41  1  0.42421765  0.66673696  0.82366275  1
  Ca2+  Ca42  1  0.92264202  0.16763317  0.16057508  1
  Ca2+  Ca43  1  0.92006012  0.17358159  0.48452119  1
  Ca2+  Ca44  1  0.91773567  0.16629096  0.83684086  1
  Ca2+  Ca45  1  0.90461285  0.67185277  0.16530941  1
  Ca2+  Ca46  1  0.91211036  0.67896231  0.49228203  1
  Ca2+  Ca47  1  0.91467099  0.67065042  0.82877375  1
  Al0+  Al48  1  -0.00161707  -0.00215381  -0.00392146  1
  Al0+  Al49  1  -0.00010263  0.00040559  0.33181403  1
  Al0+  Al50  1  -0.00116754  0.00097718  0.66392422  1
  Al0+  Al51  1  0.00205609  0.50037647  0.00461469  1
  Al0+  Al52  1  0.00195054  0.50194508  0.33805122  1
  Al0+  Al53  1  0.00204229  0.49982818  0.66978342  1
  Al0+  Al54  1  0.49770587  -0.00416565  0.00751387  1
  Al0+  Al55  1  0.49856712  -0.00042017  0.33409005  1
  Al0+  Al56  1  0.50018303  -0.00132407  0.67107021  1
  Al0+  Al57  1  0.50142896  0.50086943  -0.00484862  1
  Al0+  Al58  1  0.50069022  0.50165788  0.33054183  1
  Al0+  Al59  1  0.50183242  0.50052610  0.66181696  1
  Al0+  Al60  1  0.25007569  0.24967682  0.00266358  1
  Al0+  Al61  1  0.24908646  0.25080814  0.33248250  1
  Al0+  Al62  1  0.24928994  0.24997913  0.66289454  1
  Al0+  Al63  1  0.25129841  0.74904527  -0.00343560  1
  Al0+  Al64  1  0.25062352  0.75105841  0.34146039  1
  Al0+  Al65  1  0.25055911  0.75001090  0.67168982  1
  Al0+  Al66  1  0.74937771  0.24961503  -0.00318381  1
  Al0+  Al67  1  0.74767047  0.25282478  0.32931189  1
  Al0+  Al68  1  0.75147878  0.25024376  0.66801165  1
  Al0+  Al69  1  0.75029334  0.74797431  0.00442408  1
  Al0+  Al70  1  0.74963018  0.74899520  0.33114343  1
  Al0+  Al71  1  0.75004540  0.75151262  0.66303552  1
  Al0+  Al72  1  0.82121249  0.07425467  0.34839300  1
  Al0+  Al73  1  0.43088017  0.31954691  0.98718394  1
  Al0+  Al74  1  0.67905722  0.92765571  0.01641880  1
  Al0+  Al75  1  0.18115109  0.42931244  0.01662269  1
  Al0+  Al76  1  0.17984415  0.42765418  0.68330306  1
  Al0+  Al77  1  0.17889088  0.93093361  0.34616226  1
  Al0+  Al78  1  0.07047468  0.17896410  0.31760912  1
  Al0+  Al79  1  0.82169875  0.07242769  0.01469906  1
  Al0+  Al80  1  0.92824293  0.32490004  0.31944562  1
  Al0+  Al81  1  0.68077321  0.92976390  0.68041046  1
  Al0+  Al82  1  0.07003893  0.17812132  0.98327259  1
  Al0+  Al83  1  0.56956918  0.68056988  0.31660521  1
  Al0+  Al84  1  0.92869343  0.81959299  0.31718033  1
  Al0+  Al85  1  0.82140334  0.56998545  0.34865972  1
  Al0+  Al86  1  0.56980899  0.17740548  0.32055975  1
  Al0+  Al87  1  0.42899816  0.31926423  0.65187602  1
  Al0+  Al88  1  0.93077455  0.81974268  0.65231436  1
  Al0+  Al89  1  0.82057769  0.56783039  0.01255065  1
  Al0+  Al90  1  0.32491291  0.57124043  0.68387702  1
  Al0+  Al91  1  0.92814657  0.32338362  0.98361326  1
  Al0+  Al92  1  0.31845837  0.07067629  0.01355453  1
  Al0+  Al93  1  0.67877689  0.92949979  0.35027629  1
  Al0+  Al94  1  0.56961782  0.68103110  0.65222133  1
  Al0+  Al95  1  0.32195648  0.57016272  0.34610711  1
  Si0+  Si96  1  0.57126087  0.68164966  0.98413498  1
  Si0+  Si97  1  0.81945472  0.57046491  0.67999279  1
  Si0+  Si98  1  0.57312021  0.17628915  0.65277812  1
  Si0+  Si99  1  0.07439289  0.67828098  0.98494041  1
  Si0+  Si100  1  0.67498217  0.42751265  0.01437108  1
  Si0+  Si101  1  0.07329334  0.67669484  0.65039686  1
  Si0+  Si102  1  0.82361829  0.07438091  0.68396345  1
  Si0+  Si103  1  0.67973388  0.42592541  0.68106467  1
  Si0+  Si104  1  0.42614035  0.82065404  0.98432441  1
  Si0+  Si105  1  0.32231395  0.07450470  0.35163747  1
  Si0+  Si106  1  0.42851441  0.32236074  0.31690820  1
  Si0+  Si107  1  0.67599587  0.42897387  0.35004422  1
  Si0+  Si108  1  0.17575642  0.92976547  0.68172480  1
  Si0+  Si109  1  0.32006629  0.06945572  0.68014686  1
  Si0+  Si110  1  0.32439050  0.57313962  0.01615285  1
  Si0+  Si111  1  0.92886151  0.81764052  0.98446307  1
  Si0+  Si112  1  0.92768120  0.32334896  0.65238794  1
  Si0+  Si113  1  0.17703022  0.92487929  0.01371182  1
  Si0+  Si114  1  0.57142195  0.17331652  0.98351828  1
  Si0+  Si115  1  0.42501743  0.82220803  0.31633001  1
  Si0+  Si116  1  0.07012930  0.17992662  0.65108611  1
  Si0+  Si117  1  0.17912002  0.42757718  0.35166477  1
  Si0+  Si118  1  0.42560919  0.82493195  0.65044066  1
  Si0+  Si119  1  0.07461045  0.67994648  0.31838991  1
  O2-  O120  1  0.24132309  -0.00270691  0.05774700  1
  O2-  O121  1  0.25140951  0.00746248  0.39501334  1
  O2-  O122  1  0.25043844  -0.00312335  0.72320923  1
  O2-  O123  1  0.25712284  0.50428447  0.06116934  1
  O2-  O124  1  0.24946814  0.49482457  0.39464667  1
  O2-  O125  1  0.25277637  0.49930438  0.73363822  1
  O2-  O126  1  0.74456509  0.00603212  0.06425892  1
  O2-  O127  1  0.74958908  0.00268914  0.40040909  1
  O2-  O128  1  0.75281972  0.00704432  0.72660589  1
  O2-  O129  1  0.75117724  0.48758192  0.05808578  1
  O2-  O130  1  0.74839748  0.49365184  0.39528536  1
  O2-  O131  1  0.75171410  0.49666501  0.72271763  1
  O2-  O132  1  -0.00386391  0.24919655  0.26953706  1
  O2-  O133  1  -0.00220680  0.25095587  0.61169742  1
  O2-  O134  1  -0.00250931  0.24927442  0.93163923  1
  O2-  O135  1  0.00323427  0.74374992  0.27077721  1
  O2-  O136  1  0.00762679  0.74718253  0.60520376  1
  O2-  O137  1  0.00241112  0.74868018  0.94244794  1
  O2-  O138  1  0.49284911  0.24975717  0.27323746  1
  O2-  O139  1  0.50606613  0.24597194  0.60730309  1
  O2-  O140  1  0.50523413  0.24446044  0.93837110  1
  O2-  O141  1  0.49655086  0.75736012  0.27032858  1
  O2-  O142  1  0.49092941  0.75305200  0.60714652  1
  O2-  O143  1  0.49969808  0.75216717  0.94220835  1
  O2-  O144  1  0.07071905  0.17869119  0.09596004  1
  O2-  O145  1  0.07132325  0.18192915  0.43219163  1
  O2-  O146  1  0.07167531  0.17730832  0.75580794  1
  O2-  O147  1  0.07926157  0.68094869  0.08955335  1
  O2-  O148  1  0.07427098  0.68312177  0.42408360  1
  O2-  O149  1  0.06989180  0.67731291  0.75648514  1
  O2-  O150  1  0.56822837  0.17459260  0.08901229  1
  O2-  O151  1  0.56706994  0.17959493  0.43433720  1
  O2-  O152  1  0.57198634  0.17707209  0.75825415  1
  O2-  O153  1  0.57060598  0.68095519  0.08880409  1
  O2-  O154  1  0.56801553  0.68084266  0.42970418  1
  O2-  O155  1  0.57257132  0.68332928  0.76601201  1
  O2-  O156  1  0.17991713  0.42813886  0.24611499  1
  O2-  O157  1  0.17972283  0.42854935  0.56983889  1
  O2-  O158  1  0.18196143  0.43068063  0.90350060  1
  O2-  O159  1  0.18236665  0.92796329  0.23316959  1
  O2-  O160  1  0.17420905  0.93176314  0.57689660  1
  O2-  O161  1  0.18040903  0.92279822  0.90755740  1
  O2-  O162  1  0.67078555  0.43228764  0.24468367  1
  O2-  O163  1  0.68161493  0.42163529  0.57636493  1
  O2-  O164  1  0.67123888  0.43394606  0.90829908  1
  O2-  O165  1  0.68130978  0.93097874  0.23702847  1
  O2-  O166  1  0.68117907  0.92985765  0.56815524  1
  O2-  O167  1  0.68232966  0.92449580  0.90209034  1
  O2-  O168  1  0.43345069  0.32035403  0.10005425  1
  O2-  O169  1  0.43044914  0.32226908  0.42281332  1
  O2-  O170  1  0.42857734  0.31668066  0.76510243  1
  O2-  O171  1  0.41861609  0.81762138  0.08859516  1
  O2-  O172  1  0.42304034  0.82042819  0.42198568  1
  O2-  O173  1  0.42691935  0.82741563  0.75629762  1
  O2-  O174  1  0.93295347  0.32683887  0.09620141  1
  O2-  O175  1  0.93250975  0.32517083  0.43422369  1
  O2-  O176  1  0.92558338  0.32482818  0.75697803  1
  O2-  O177  1  0.92922106  0.81647459  0.08912264  1
  O2-  O178  1  0.93002268  0.81822047  0.43064067  1
  O2-  O179  1  0.93142774  0.81691073  0.76614648  1
  O2-  O180  1  0.32264589  0.07361453  0.24613513  1
  O2-  O181  1  0.32051289  0.06840973  0.57529224  1
  O2-  O182  1  0.31815188  0.06858453  0.89954271  1
  O2-  O183  1  0.31968660  0.56899931  0.23262277  1
  O2-  O184  1  0.32333571  0.56919846  0.57025819  1
  O2-  O185  1  0.32343108  0.57430101  0.91073919  1
  O2-  O186  1  0.82073250  0.07253065  0.23515344  1
  O2-  O187  1  0.82466798  0.07696373  0.57889476  1
  O2-  O188  1  0.82165364  0.06658062  0.90028265  1
  O2-  O189  1  0.81897543  0.56958082  0.23561269  1
  O2-  O190  1  0.81872447  0.56992682  0.57516063  1
  O2-  O191  1  0.81666103  0.57219244  0.89852875  1
  O2-  O192  1  0.04796312  0.07949241  0.26580202  1
  O2-  O193  1  0.04218406  0.08833976  0.60301081  1
  O2-  O194  1  0.04452003  0.07785731  0.92945315  1
  O2-  O195  1  0.05350788  0.58429026  0.27575495  1
  O2-  O196  1  0.04687235  0.58324582  0.60476908  1
  O2-  O197  1  0.04501951  0.58729465  0.93774930  1
  O2-  O198  1  0.53913655  0.08100847  0.26607586  1
  O2-  O199  1  0.54430071  0.08333429  0.60715482  1
  O2-  O200  1  0.54220851  0.07910895  0.93995319  1
  O2-  O201  1  0.53739561  0.58465005  0.26150138  1
  O2-  O202  1  0.54542437  0.58339189  0.59718495  1
  O2-  O203  1  0.54495482  0.59005578  0.93486877  1
  O2-  O204  1  0.16992861  0.20772402  0.26618845  1
  O2-  O205  1  0.16081803  0.20713509  0.60164075  1
  O2-  O206  1  0.16899185  0.20889316  0.93191472  1
  O2-  O207  1  0.16714267  0.70937258  0.27228859  1
  O2-  O208  1  0.16909968  0.70005794  0.60806708  1
  O2-  O209  1  0.16481967  0.70636227  0.93340273  1
  O2-  O210  1  0.66381474  0.21056661  0.26375863  1
  O2-  O211  1  0.66776892  0.20062646  0.60798003  1
  O2-  O212  1  0.66590341  0.19419654  0.93750515  1
  O2-  O213  1  0.66618706  0.70951282  0.26234506  1
  O2-  O214  1  0.66473564  0.71485354  0.59761496  1
  O2-  O215  1  0.66290924  0.71088607  0.93638210  1
  O2-  O216  1  0.08662440  0.46314917  0.07126821  1
  O2-  O217  1  0.08737899  0.45529391  0.39990537  1
  O2-  O218  1  0.08136660  0.45728049  0.73739371  1
  O2-  O219  1  0.08139106  0.94460797  0.05600289  1
  O2-  O220  1  0.08317669  0.96094029  0.40225273  1
  O2-  O221  1  0.08556571  0.96117180  0.73054256  1
  O2-  O222  1  0.58532935  0.46178723  0.06332571  1
  O2-  O223  1  0.58469610  0.45993559  0.39830911  1
  O2-  O224  1  0.58864117  0.45668418  0.72742455  1
  O2-  O225  1  0.57736433  0.94375264  0.06651096  1
  O2-  O226  1  0.57778277  0.95389969  0.40068675  1
  O2-  O227  1  0.58275463  0.95603925  0.73566737  1
  O2-  O228  1  0.21325287  0.33416359  0.07075556  1
  O2-  O229  1  0.20379268  0.33361917  0.39771320  1
  O2-  O230  1  0.20912127  0.32823906  0.73421631  1
  O2-  O231  1  0.20763339  0.83300865  0.06042614  1
  O2-  O232  1  0.21125496  0.83702137  0.40530472  1
  O2-  O233  1  0.19785466  0.83629537  0.72876385  1
  O2-  O234  1  0.68940152  0.32991722  0.05454878  1
  O2-  O235  1  0.69591116  0.33424704  0.39564149  1
  O2-  O236  1  0.70519545  0.33470543  0.73151283  1
  O2-  O237  1  0.71414616  0.83177947  0.06907364  1
  O2-  O238  1  0.70966735  0.83057607  0.40005618  1
  O2-  O239  1  0.71577199  0.83383211  0.73435104  1
  O2-  O240  1  0.45798899  0.41368005  0.26940438  1
  O2-  O241  1  0.46083756  0.41516243  0.59812822  1
  O2-  O242  1  0.46146672  0.41627451  0.93117599  1
  O2-  O243  1  0.44511213  0.91768683  0.27243226  1
  O2-  O244  1  0.45265576  0.91796301  0.60388442  1
  O2-  O245  1  0.45166236  0.91375977  0.93799563  1
  O2-  O246  1  0.96184506  0.42302904  0.26853684  1
  O2-  O247  1  0.95665274  0.41529783  0.60540780  1
  O2-  O248  1  0.96004787  0.42277313  0.93187359  1
  O2-  O249  1  0.96218793  0.91511501  0.26418331  1
  O2-  O250  1  0.96033190  0.91716864  0.59936272  1
  O2-  O251  1  0.95414119  0.90865039  0.93431733  1
  O2-  O252  1  0.33329665  0.30074695  0.27332561  1
  O2-  O253  1  0.33393289  0.28652405  0.59613901  1
  O2-  O254  1  0.33490166  0.28680073  0.93355865  1
  O2-  O255  1  0.33266463  0.79197037  0.26981667  1
  O2-  O256  1  0.32925646  0.80372959  0.60727771  1
  O2-  O257  1  0.33637475  0.79220471  0.93147858  1
  O2-  O258  1  0.82657883  0.30802347  0.27009808  1
  O2-  O259  1  0.83531052  0.29751372  0.60458439  1
  O2-  O260  1  0.82691351  0.30102772  0.93097126  1
  O2-  O261  1  0.83378146  0.78646191  0.26276184  1
  O2-  O262  1  0.83631275  0.78598880  0.59770301  1
  O2-  O263  1  0.83846956  0.78391331  0.93707293  1
  O2-  O264  1  0.41253376  0.03701358  0.07006913  1
  O2-  O265  1  0.41404465  0.04623036  0.39958273  1
  O2-  O266  1  0.41128459  0.04408753  0.73019353  1
  O2-  O267  1  0.41927954  0.54875183  0.05962966  1
  O2-  O268  1  0.41870984  0.53924757  0.39923062  1
  O2-  O269  1  0.42512571  0.54403914  0.73365536  1
  O2-  O270  1  0.91930436  0.03788094  0.06522364  1
  O2-  O271  1  0.91996713  0.04539453  0.40000230  1
  O2-  O272  1  0.91644585  0.04505930  0.73002482  1
  O2-  O273  1  0.91866363  0.54655199  0.06684645  1
  O2-  O274  1  0.91910041  0.54446972  0.40422452  1
  O2-  O275  1  0.91260678  0.54636542  0.72698242  1
  O2-  O276  1  0.29123210  0.16612943  0.06956428  1
  O2-  O277  1  0.29867703  0.16905698  0.39704217  1
  O2-  O278  1  0.28870769  0.16051997  0.72643279  1
  O2-  O279  1  0.29754502  0.66698453  0.06111153  1
  O2-  O280  1  0.29228068  0.66547677  0.40273591  1
  O2-  O281  1  0.29931826  0.67159114  0.73601317  1
  O2-  O282  1  0.80167745  0.17465265  0.06247435  1
  O2-  O283  1  0.79259888  0.17423790  0.39915926  1
  O2-  O284  1  0.80086329  0.16870621  0.73086108  1
  O2-  O285  1  0.78352937  0.66096321  0.06825925  1
  O2-  O286  1  0.78634696  0.66539425  0.40182595  1
  O2-  O287  1  0.78810134  0.66100793  0.72755372  1
