# generated using pymatgen
data_Ca2Al2SiO7
_symmetry_space_group_name_H-M   'P 1'
_cell_length_a   15.46318278
_cell_length_b   15.46367943
_cell_length_c   15.28764603
_cell_angle_alpha   90.02010081
_cell_angle_beta   89.99534035
_cell_angle_gamma   89.97551504
_symmetry_Int_Tables_number   1
_chemical_formula_structural   Ca2Al2SiO7
_chemical_formula_sum   'Ca48 Al48 Si24 O168'
_cell_volume   3655.54620883
_cell_formula_units_Z   24
loop_
 _symmetry_equiv_pos_site_id
 _symmetry_equiv_pos_as_xyz
  1  'x, y, z'
loop_
 _atom_type_symbol
 _atom_type_oxidation_number
  Ca2+  2.0
  Al0+  0.0
  Si0+  0.0
  O2-  -2.0
loop_
 _atom_site_type_symbol
 _atom_site_label
 _atom_site_symmetry_multiplicity
 _atom_site_fract_x
 _atom_site_fract_y
 _atom_site_fract_z
 _atom_site_occupancy
  Ca2+  Ca0  1  0.17109255  0.09263328  0.16389320  1
  Ca2+  Ca1  1  0.16628727  0.08442052  0.50494877  1
  Ca2+  Ca2  1  0.16655703  0.08828160  0.83851917  1
  Ca2+  Ca3  1  0.16038324  0.57551037  0.16987463  1
  Ca2+  Ca4  1  0.15951291  0.57220401  0.50471187  1
  Ca2+  Ca5  1  0.16963187  0.57282849  0.84455858  1
  Ca2+  Ca6  1  0.67511296  0.07249823  0.16960610  1
  Ca2+  Ca7  1  0.66881469  0.07034556  0.50719514  1
  Ca2+  Ca8  1  0.67354763  0.07079669  0.84452060  1
  Ca2+  Ca9  1  0.66819763  0.58481235  0.17152957  1
  Ca2+  Ca10  1  0.66458519  0.59020216  0.50342690  1
  Ca2+  Ca11  1  0.66709179  0.58544875  0.83522238  1
  Ca2+  Ca12  1  0.08258566  0.33290337  0.15594442  1
  Ca2+  Ca13  1  0.08732890  0.33336020  0.50194635  1
  Ca2+  Ca14  1  0.08416767  0.32566458  0.82997478  1
  Ca2+  Ca15  1  0.07488678  0.82443381  0.15627490  1
  Ca2+  Ca16  1  0.07040882  0.82948945  0.48995132  1
  Ca2+  Ca17  1  0.07251241  0.83380281  0.82904379  1
  Ca2+  Ca18  1  0.56844167  0.33572206  0.16004658  1
  Ca2+  Ca19  1  0.56759051  0.33750866  0.49452829  1
  Ca2+  Ca20  1  0.56883546  0.33272503  0.82826742  1
  Ca2+  Ca21  1  0.59161889  0.83208111  0.16638564  1
  Ca2+  Ca22  1  0.58743568  0.82746621  0.49907619  1
  Ca2+  Ca23  1  0.58173212  0.83299589  0.82496083  1
  Ca2+  Ca24  1  0.32371236  0.41650657  0.16743691  1
  Ca2+  Ca25  1  0.32562698  0.41340817  0.50471229  1
  Ca2+  Ca26  1  0.32572650  0.41707913  0.84186099  1
  Ca2+  Ca27  1  0.33264613  0.92513361  0.16711934  1
  Ca2+  Ca28  1  0.33385845  0.91705776  0.50717781  1
  Ca2+  Ca29  1  0.33582712  0.92344645  0.84159522  1
  Ca2+  Ca30  1  0.83680930  0.41710665  0.16988616  1
  Ca2+  Ca31  1  0.83449527  0.42139260  0.50906990  1
  Ca2+  Ca32  1  0.83550767  0.41164989  0.83874400  1
  Ca2+  Ca33  1  0.83092570  0.91070400  0.16724647  1
  Ca2+  Ca34  1  0.82630205  0.90585579  0.50526619  1
  Ca2+  Ca35  1  0.82664189  0.91322592  0.84100959  1
  Ca2+  Ca36  1  0.41190570  0.17692441  0.15953573  1
  Ca2+  Ca37  1  0.41430929  0.17849827  0.49797912  1
  Ca2+  Ca38  1  0.40653034  0.17723092  0.83226987  1
  Ca2+  Ca39  1  0.42253593  0.66086545  0.16211874  1
  Ca2+  Ca40  1  0.42755925  0.66940283  0.49920655  1
  Ca2+  Ca41  1  0.42052982  0.67035942  0.82733728  1
  Ca2+  Ca42  1  0.92243789  0.17082916  0.15300086  1
  Ca2+  Ca43  1  0.92120905  0.17075180  0.50256268  1
  Ca2+  Ca44  1  0.92251797  0.17219671  0.83136951  1
  Ca2+  Ca45  1  0.92760394  0.67405704  0.16361527  1
  Ca2+  Ca46  1  0.91994964  0.67689825  0.49510524  1
  Ca2+  Ca47  1  0.92188006  0.67482974  0.83477298  1
  Al0+  Al48  1  -0.00123842  -0.00021799  -0.00407825  1
  Al0+  Al49  1  -0.00005203  0.00308739  0.32965333  1
  Al0+  Al50  1  -0.00001014  0.00128007  0.65797607  1
  Al0+  Al51  1  -0.00191967  0.50126899  -0.00234910  1
  Al0+  Al52  1  -0.00068961  0.49964690  0.33704251  1
  Al0+  Al53  1  -0.00112617  0.49891788  0.67101706  1
  Al0+  Al54  1  0.50024628  -0.00114823  0.01125949  1
  Al0+  Al55  1  0.50195247  0.00113278  0.33985162  1
  Al0+  Al56  1  0.49996588  0.00053626  0.66844126  1
  Al0+  Al57  1  0.49958440  0.49963823  -0.00202662  1
  Al0+  Al58  1  0.49792373  0.50109044  0.32545349  1
  Al0+  Al59  1  0.50031818  0.50026379  0.65933954  1
  Al0+  Al60  1  0.24947532  0.25113808  0.00062864  1
  Al0+  Al61  1  0.24972579  0.25233178  0.33460503  1
  Al0+  Al62  1  0.24940565  0.24966284  0.66227694  1
  Al0+  Al63  1  0.25407058  0.74857955  0.00063223  1
  Al0+  Al64  1  0.25236703  0.74970420  0.33195816  1
  Al0+  Al65  1  0.25063348  0.74931356  0.66361564  1
  Al0+  Al66  1  0.74760832  0.24705507  0.00202108  1
  Al0+  Al67  1  0.74870814  0.24857725  0.33672147  1
  Al0+  Al68  1  0.75084162  0.24990554  0.66385680  1
  Al0+  Al69  1  0.74994444  0.74653474  0.00092983  1
  Al0+  Al70  1  0.74969604  0.74981835  0.32999140  1
  Al0+  Al71  1  0.75099048  0.74867664  0.66602034  1
  Al0+  Al72  1  0.56879971  0.68173132  0.31744119  1
  Al0+  Al73  1  0.18011277  0.42925243  0.68264613  1
  Al0+  Al74  1  0.17810070  0.43115057  0.01499920  1
  Al0+  Al75  1  0.31900541  0.07119440  0.01332715  1
  Al0+  Al76  1  0.68234719  0.92903356  0.35081798  1
  Al0+  Al77  1  0.42722286  0.82429639  0.65318208  1
  Al0+  Al78  1  0.93066560  0.82004390  0.65296949  1
  Al0+  Al79  1  0.68089647  0.92890030  0.68150906  1
  Al0+  Al80  1  0.92761488  0.32291194  0.65038509  1
  Al0+  Al81  1  0.42955157  0.31986807  0.65250877  1
  Al0+  Al82  1  0.07170489  0.17946664  0.98571013  1
  Al0+  Al83  1  0.92507229  0.32172774  0.98724815  1
  Al0+  Al84  1  0.43007458  0.32011576  0.98523703  1
  Al0+  Al85  1  0.42869127  0.31934187  0.31672894  1
  Al0+  Al86  1  0.67989736  0.92588605  0.01709010  1
  Al0+  Al87  1  0.32387659  0.57235467  0.01504977  1
  Al0+  Al88  1  0.82293954  0.07124631  0.01483184  1
  Al0+  Al89  1  0.17939953  0.43111216  0.34956190  1
  Al0+  Al90  1  0.57112020  0.68029127  0.65280086  1
  Al0+  Al91  1  0.92956815  0.82237184  0.31659434  1
  Al0+  Al92  1  0.07277783  0.67676840  0.31988644  1
  Al0+  Al93  1  0.07124050  0.18025089  0.64913956  1
  Al0+  Al94  1  0.07506072  0.67811575  0.98407043  1
  Al0+  Al95  1  0.92855866  0.81973442  0.98382458  1
  Si0+  Si96  1  0.92670712  0.32078295  0.32059926  1
  Si0+  Si97  1  0.31984632  0.06990278  0.68028840  1
  Si0+  Si98  1  0.17862736  0.92872623  0.34650440  1
  Si0+  Si99  1  0.57025159  0.17513331  0.98514818  1
  Si0+  Si100  1  0.32500607  0.57337437  0.35214118  1
  Si0+  Si101  1  0.57259226  0.17692100  0.31660742  1
  Si0+  Si102  1  0.57337098  0.17749638  0.65097251  1
  Si0+  Si103  1  0.81980026  0.57020548  0.68323077  1
  Si0+  Si104  1  0.17735418  0.92781107  0.67833009  1
  Si0+  Si105  1  0.43058095  0.82346097  0.98793848  1
  Si0+  Si106  1  0.07277070  0.67690073  0.65163658  1
  Si0+  Si107  1  0.81956595  0.56945264  0.01604798  1
  Si0+  Si108  1  0.32399743  0.57230920  0.68180029  1
  Si0+  Si109  1  0.67708566  0.42784814  0.68022998  1
  Si0+  Si110  1  0.81884658  0.56848230  0.34888525  1
  Si0+  Si111  1  0.31950523  0.07153084  0.34997069  1
  Si0+  Si112  1  0.67616862  0.42858306  0.34740008  1
  Si0+  Si113  1  0.17736708  0.92602218  0.01441366  1
  Si0+  Si114  1  0.67748675  0.42771069  0.01366263  1
  Si0+  Si115  1  0.82452048  0.07461411  0.35338017  1
  Si0+  Si116  1  0.07067650  0.18102845  0.31746592  1
  Si0+  Si117  1  0.57067251  0.67873364  0.98506607  1
  Si0+  Si118  1  0.82367104  0.07311307  0.68334904  1
  Si0+  Si119  1  0.42749875  0.82619798  0.31547677  1
  O2-  O120  1  0.24245509  -0.00195558  0.06016579  1
  O2-  O121  1  0.25119269  -0.00246347  0.39158519  1
  O2-  O122  1  0.25221497  -0.00520071  0.72084256  1
  O2-  O123  1  0.24761407  0.50556607  0.06580966  1
  O2-  O124  1  0.25197255  0.50898534  0.39587414  1
  O2-  O125  1  0.25404174  0.50599592  0.72668932  1
  O2-  O126  1  0.75453878  -0.00391616  0.06563200  1
  O2-  O127  1  0.75898535  0.00258054  0.39707858  1
  O2-  O128  1  0.75524572  0.00413693  0.72714039  1
  O2-  O129  1  0.75301318  0.49316789  0.05721834  1
  O2-  O130  1  0.74786394  0.49737357  0.39194550  1
  O2-  O131  1  0.74951803  0.49671827  0.72364588  1
  O2-  O132  1  -0.00374890  0.24932095  0.27805562  1
  O2-  O133  1  0.00049110  0.25336209  0.59859936  1
  O2-  O134  1  -0.00176071  0.25105396  0.93758279  1
  O2-  O135  1  0.00685767  0.75419962  0.26996859  1
  O2-  O136  1  0.00880823  0.74911474  0.60629550  1
  O2-  O137  1  0.00618255  0.75336812  0.93420493  1
  O2-  O138  1  0.50512476  0.24569345  0.27100452  1
  O2-  O139  1  0.50700459  0.24786405  0.60535134  1
  O2-  O140  1  0.50243788  0.24299813  0.93827709  1
  O2-  O141  1  0.49457934  0.75660150  0.27032730  1
  O2-  O142  1  0.49993452  0.75327812  0.60318332  1
  O2-  O143  1  0.50032227  0.75108982  0.94566154  1
  O2-  O144  1  0.07259868  0.18297973  0.10002092  1
  O2-  O145  1  0.07205831  0.18021401  0.42239847  1
  O2-  O146  1  0.07254109  0.17939333  0.76183368  1
  O2-  O147  1  0.07081289  0.67855672  0.09773755  1
  O2-  O148  1  0.06731423  0.67710630  0.43387274  1
  O2-  O149  1  0.07144083  0.67860743  0.75683329  1
  O2-  O150  1  0.56850396  0.17854436  0.09087954  1
  O2-  O151  1  0.57085342  0.17874078  0.42250165  1
  O2-  O152  1  0.57234934  0.17900404  0.75635240  1
  O2-  O153  1  0.57136408  0.67723864  0.09015822  1
  O2-  O154  1  0.56901241  0.68122665  0.43012301  1
  O2-  O155  1  0.57022890  0.67890058  0.76660068  1
  O2-  O156  1  0.17822093  0.42811612  0.23721068  1
  O2-  O157  1  0.18173003  0.43047859  0.56894190  1
  O2-  O158  1  0.18158626  0.42943428  0.90151976  1
  O2-  O159  1  0.17985103  0.93114973  0.24177721  1
  O2-  O160  1  0.17802471  0.92995334  0.57276342  1
  O2-  O161  1  0.18164084  0.92493626  0.90851263  1
  O2-  O162  1  0.67853549  0.42909323  0.24222812  1
  O2-  O163  1  0.67679786  0.42960502  0.57480956  1
  O2-  O164  1  0.67497269  0.43148768  0.90839717  1
  O2-  O165  1  0.68232851  0.93074398  0.23823871  1
  O2-  O166  1  0.68250347  0.92891202  0.56825122  1
  O2-  O167  1  0.67815837  0.92588066  0.90334392  1
  O2-  O168  1  0.43134076  0.31985709  0.09833600  1
  O2-  O169  1  0.42901748  0.31747772  0.43017401  1
  O2-  O170  1  0.42969612  0.31913330  0.76537259  1
  O2-  O171  1  0.43123642  0.82521039  0.09293727  1
  O2-  O172  1  0.42783643  0.82654553  0.42099142  1
  O2-  O173  1  0.42792265  0.82507368  0.76695768  1
  O2-  O174  1  0.92555209  0.32091994  0.10174830  1
  O2-  O175  1  0.92596659  0.32089778  0.42545853  1
  O2-  O176  1  0.92486704  0.32081273  0.76297536  1
  O2-  O177  1  0.92779150  0.81540855  0.09719599  1
  O2-  O178  1  0.92916988  0.81891692  0.43060172  1
  O2-  O179  1  0.93018843  0.81881116  0.76550977  1
  O2-  O180  1  0.31807416  0.07282868  0.24507239  1
  O2-  O181  1  0.31893404  0.07044624  0.57469060  1
  O2-  O182  1  0.32125960  0.06886441  0.90008549  1
  O2-  O183  1  0.32843050  0.57026502  0.24707081  1
  O2-  O184  1  0.32463102  0.57126012  0.57612184  1
  O2-  O185  1  0.32818499  0.56924404  0.90133254  1
  O2-  O186  1  0.82275526  0.07998392  0.24861079  1
  O2-  O187  1  0.82131023  0.07350587  0.57739006  1
  O2-  O188  1  0.81828817  0.07313665  0.90129817  1
  O2-  O189  1  0.81872564  0.56545915  0.24382044  1
  O2-  O190  1  0.81909633  0.57043872  0.57769953  1
  O2-  O191  1  0.81555868  0.57299294  0.91093273  1
  O2-  O192  1  0.04762419  0.08886282  0.26915720  1
  O2-  O193  1  0.04264269  0.08327943  0.59220998  1
  O2-  O194  1  0.04880322  0.07986243  0.93312942  1
  O2-  O195  1  0.03604583  0.58039606  0.26759870  1
  O2-  O196  1  0.04061593  0.58501526  0.60661601  1
  O2-  O197  1  0.04015630  0.58252053  0.93044588  1
  O2-  O198  1  0.54589862  0.08314469  0.27244962  1
  O2-  O199  1  0.54404655  0.08546348  0.60388112  1
  O2-  O200  1  0.54429776  0.08040463  0.94240468  1
  O2-  O201  1  0.54024655  0.58512117  0.26181810  1
  O2-  O202  1  0.54431256  0.58284323  0.59638969  1
  O2-  O203  1  0.54284937  0.58781848  0.93622363  1
  O2-  O204  1  0.16184211  0.21189629  0.27146815  1
  O2-  O205  1  0.16868743  0.20849816  0.59366343  1
  O2-  O206  1  0.16938911  0.20859614  0.93211516  1
  O2-  O207  1  0.17455322  0.69677113  0.27118876  1
  O2-  O208  1  0.16782405  0.69543768  0.60596031  1
  O2-  O209  1  0.17617677  0.70067436  0.93425216  1
  O2-  O210  1  0.66720796  0.20135397  0.27226924  1
  O2-  O211  1  0.66710606  0.19939876  0.60381495  1
  O2-  O212  1  0.66339558  0.19986442  0.93889128  1
  O2-  O213  1  0.66567133  0.71023912  0.26326418  1
  O2-  O214  1  0.66903311  0.70783617  0.59892793  1
  O2-  O215  1  0.66226590  0.70473082  0.93724997  1
  O2-  O216  1  0.07763540  0.45724188  0.06608090  1
  O2-  O217  1  0.08162112  0.45951235  0.40443700  1
  O2-  O218  1  0.08202495  0.45682688  0.73489478  1
  O2-  O219  1  0.08225577  0.94711666  0.05797307  1
  O2-  O220  1  0.08705537  0.95957209  0.39367223  1
  O2-  O221  1  0.08654282  0.95979927  0.72496367  1
  O2-  O222  1  0.58889536  0.46228740  0.06325967  1
  O2-  O223  1  0.58433361  0.45946229  0.39296400  1
  O2-  O224  1  0.58562607  0.45795449  0.72749798  1
  O2-  O225  1  0.58356714  0.95556127  0.07377838  1
  O2-  O226  1  0.58515011  0.96046530  0.40507216  1
  O2-  O227  1  0.58290181  0.95899545  0.73382100  1
  O2-  O228  1  0.20980969  0.33383256  0.06815223  1
  O2-  O229  1  0.21428279  0.33509278  0.40364976  1
  O2-  O230  1  0.21358020  0.33161301  0.73223492  1
  O2-  O231  1  0.20772830  0.83485479  0.06270009  1
  O2-  O232  1  0.20356218  0.83598088  0.39428642  1
  O2-  O233  1  0.19972976  0.83414289  0.72443642  1
  O2-  O234  1  0.69710670  0.33443573  0.06115048  1
  O2-  O235  1  0.69978851  0.33571418  0.39509011  1
  O2-  O236  1  0.70182542  0.33491193  0.72674687  1
  O2-  O237  1  0.70782679  0.82636558  0.06861028  1
  O2-  O238  1  0.71249417  0.83049486  0.40202340  1
  O2-  O239  1  0.71163381  0.83146591  0.73362828  1
  O2-  O240  1  0.45995091  0.41495880  0.26268147  1
  O2-  O241  1  0.46008432  0.41511687  0.59610536  1
  O2-  O242  1  0.46575092  0.41473017  0.93066334  1
  O2-  O243  1  0.45448510  0.92078938  0.27222367  1
  O2-  O244  1  0.45323474  0.92337783  0.60019723  1
  O2-  O245  1  0.45997085  0.91511828  0.94107862  1
  O2-  O246  1  0.95429932  0.41285794  0.27466739  1
  O2-  O247  1  0.95446752  0.42284735  0.59933414  1
  O2-  O248  1  0.94688683  0.42166924  0.93606235  1
  O2-  O249  1  0.95334230  0.92309125  0.26666067  1
  O2-  O250  1  0.95718877  0.91618265  0.59664515  1
  O2-  O251  1  0.95018771  0.91952143  0.93179450  1
  O2-  O252  1  0.33281253  0.28469342  0.26459146  1
  O2-  O253  1  0.33619957  0.28427876  0.59642523  1
  O2-  O254  1  0.33418585  0.28828524  0.93259921  1
  O2-  O255  1  0.33294597  0.80426481  0.27001493  1
  O2-  O256  1  0.32903199  0.79682134  0.59774251  1
  O2-  O257  1  0.33902819  0.79906980  0.93900498  1
  O2-  O258  1  0.83295216  0.29637716  0.27503874  1
  O2-  O259  1  0.82857656  0.29587096  0.59588105  1
  O2-  O260  1  0.82540990  0.29427757  0.93540687  1
  O2-  O261  1  0.83360246  0.78768876  0.26455969  1
  O2-  O262  1  0.83665034  0.78256918  0.59900873  1
  O2-  O263  1  0.83192925  0.78239127  0.93206222  1
  O2-  O264  1  0.41291975  0.03924918  0.07239767  1
  O2-  O265  1  0.41219772  0.04774741  0.39780116  1
  O2-  O266  1  0.41228705  0.04755819  0.72862009  1
  O2-  O267  1  0.42116563  0.53865291  0.06877845  1
  O2-  O268  1  0.41741024  0.54147759  0.39814277  1
  O2-  O269  1  0.41830598  0.54535394  0.72608105  1
  O2-  O270  1  0.92328715  0.04762343  0.06642312  1
  O2-  O271  1  0.92057444  0.05306161  0.39675983  1
  O2-  O272  1  0.91879369  0.04777770  0.72519677  1
  O2-  O273  1  0.91172047  0.54624770  0.06414465  1
  O2-  O274  1  0.90899477  0.54016016  0.39925099  1
  O2-  O275  1  0.91085064  0.54423508  0.73229277  1
  O2-  O276  1  0.28815863  0.16663270  0.06944973  1
  O2-  O277  1  0.28726376  0.16161187  0.39830419  1
  O2-  O278  1  0.28764671  0.16028663  0.72717845  1
  O2-  O279  1  0.30605691  0.67358219  0.06718947  1
  O2-  O280  1  0.30708411  0.67022966  0.39562843  1
  O2-  O281  1  0.30216307  0.66794971  0.72647491  1
  O2-  O282  1  0.79047214  0.16819265  0.07101891  1
  O2-  O283  1  0.79485784  0.16673066  0.40258774  1
  O2-  O284  1  0.79838923  0.16756886  0.72793016  1
  O2-  O285  1  0.78492109  0.65715708  0.06680864  1
  O2-  O286  1  0.78919074  0.66008988  0.39503577  1
  O2-  O287  1  0.78819332  0.65966883  0.73236131  1
