# generated using pymatgen
data_Ca2Al2SiO7
_symmetry_space_group_name_H-M   'P 1'
_cell_length_a   15.45373445
_cell_length_b   15.45452406
_cell_length_c   15.28010213
_cell_angle_alpha   89.99477888
_cell_angle_beta   89.99257235
_cell_angle_gamma   90.00599855
_symmetry_Int_Tables_number   1
_chemical_formula_structural   Ca2Al2SiO7
_chemical_formula_sum   'Ca48 Al48 Si24 O168'
_cell_volume   3649.34842094
_cell_formula_units_Z   24
loop_
 _symmetry_equiv_pos_site_id
 _symmetry_equiv_pos_as_xyz
  1  'x, y, z'
loop_
 _atom_type_symbol
 _atom_type_oxidation_number
  Ca2+  2.0
  Al0+  0.0
  Si0+  0.0
  O2-  -2.0
loop_
 _atom_site_type_symbol
 _atom_site_label
 _atom_site_symmetry_multiplicity
 _atom_site_fract_x
 _atom_site_fract_y
 _atom_site_fract_z
 _atom_site_occupancy
  Ca2+  Ca0  1  0.16272019  0.07388315  0.16945501  1
  Ca2+  Ca1  1  0.17425954  0.07446239  0.51030980  1
  Ca2+  Ca2  1  0.17169502  0.07179857  0.83574046  1
  Ca2+  Ca3  1  0.17028387  0.57635419  0.17033576  1
  Ca2+  Ca4  1  0.16542822  0.58175856  0.50375861  1
  Ca2+  Ca5  1  0.17322034  0.58465271  0.83659404  1
  Ca2+  Ca6  1  0.66283332  0.07991042  0.17018195  1
  Ca2+  Ca7  1  0.67523923  0.09325027  0.50049339  1
  Ca2+  Ca8  1  0.67040109  0.07949463  0.83857223  1
  Ca2+  Ca9  1  0.67848143  0.59173713  0.17296937  1
  Ca2+  Ca10  1  0.67757480  0.58829607  0.50215222  1
  Ca2+  Ca11  1  0.68042810  0.58688626  0.83804473  1
  Ca2+  Ca12  1  0.08168045  0.34113167  0.16629759  1
  Ca2+  Ca13  1  0.07287192  0.33818133  0.49361841  1
  Ca2+  Ca14  1  0.08071868  0.33612060  0.82942748  1
  Ca2+  Ca15  1  0.07645041  0.82820387  0.15920063  1
  Ca2+  Ca16  1  0.08940158  0.82096792  0.49872826  1
  Ca2+  Ca17  1  0.08385450  0.83103244  0.82817178  1
  Ca2+  Ca18  1  0.58431260  0.32163436  0.16458860  1
  Ca2+  Ca19  1  0.57359165  0.32879393  0.48814567  1
  Ca2+  Ca20  1  0.58533961  0.32722332  0.83168369  1
  Ca2+  Ca21  1  0.58102013  0.83064083  0.15879820  1
  Ca2+  Ca22  1  0.57701590  0.82845438  0.49709661  1
  Ca2+  Ca23  1  0.57226834  0.83795440  0.83265025  1
  Ca2+  Ca24  1  0.32357281  0.41388630  0.17184388  1
  Ca2+  Ca25  1  0.32921221  0.41907422  0.50465407  1
  Ca2+  Ca26  1  0.32846211  0.43135885  0.84306953  1
  Ca2+  Ca27  1  0.33037731  0.91042582  0.16338811  1
  Ca2+  Ca28  1  0.33034576  0.91946177  0.51148501  1
  Ca2+  Ca29  1  0.32408503  0.90840776  0.83560373  1
  Ca2+  Ca30  1  0.83673804  0.42792219  0.17355646  1
  Ca2+  Ca31  1  0.83982882  0.42350488  0.50285680  1
  Ca2+  Ca32  1  0.84078241  0.42758847  0.83372958  1
  Ca2+  Ca33  1  0.82866086  0.91872747  0.17060851  1
  Ca2+  Ca34  1  0.83232478  0.93060522  0.50476405  1
  Ca2+  Ca35  1  0.82937792  0.91876393  0.84219708  1
  Ca2+  Ca36  1  0.42445810  0.17096271  0.16324977  1
  Ca2+  Ca37  1  0.41975405  0.16952124  0.49051357  1
  Ca2+  Ca38  1  0.42244040  0.15970212  0.82999690  1
  Ca2+  Ca39  1  0.42282459  0.66766714  0.16040818  1
  Ca2+  Ca40  1  0.41805007  0.66970584  0.49730718  1
  Ca2+  Ca41  1  0.40527304  0.67458898  0.82859336  1
  Ca2+  Ca42  1  0.91044974  0.17316868  0.16653128  1
  Ca2+  Ca43  1  0.90963772  0.17600884  0.49468512  1
  Ca2+  Ca44  1  0.91736760  0.17284501  0.82395388  1
  Ca2+  Ca45  1  0.92015755  0.66420049  0.16196082  1
  Ca2+  Ca46  1  0.92721418  0.65865388  0.49514718  1
  Ca2+  Ca47  1  0.91968679  0.66933360  0.82813551  1
  Al0+  Al48  1  0.00050286  0.00134434  0.00002857  1
  Al0+  Al49  1  -0.00129683  -0.00044390  0.34022438  1
  Al0+  Al50  1  -0.00051837  0.00054817  0.67357617  1
  Al0+  Al51  1  0.00083655  0.50031800  0.00542242  1
  Al0+  Al52  1  0.00182653  0.49991846  0.33197205  1
  Al0+  Al53  1  -0.00102191  0.50004509  0.66361700  1
  Al0+  Al54  1  0.50122652  -0.00068605  -0.00437114  1
  Al0+  Al55  1  0.49838757  -0.00122175  0.33054283  1
  Al0+  Al56  1  0.50107746  0.00000523  0.66212399  1
  Al0+  Al57  1  0.50282000  0.49851242  0.00205334  1
  Al0+  Al58  1  0.49926346  0.50196117  0.32375722  1
  Al0+  Al59  1  0.50080317  0.49912593  0.67080235  1
  Al0+  Al60  1  0.24992081  0.25020800  0.00161041  1
  Al0+  Al61  1  0.24748790  0.24873342  0.33457926  1
  Al0+  Al62  1  0.25020739  0.24803631  0.67082933  1
  Al0+  Al63  1  0.25001029  0.74935964  0.00646915  1
  Al0+  Al64  1  0.24850012  0.74791460  0.32833134  1
  Al0+  Al65  1  0.24949572  0.74895805  0.66339539  1
  Al0+  Al66  1  0.75065723  0.25162679  -0.00690873  1
  Al0+  Al67  1  0.74944727  0.25098679  0.32759791  1
  Al0+  Al68  1  0.75004462  0.25058450  0.66687447  1
  Al0+  Al69  1  0.75078092  0.75232999  0.00363414  1
  Al0+  Al70  1  0.74944087  0.75227236  0.33767714  1
  Al0+  Al71  1  0.75021445  0.75071400  0.66979978  1
  Al0+  Al72  1  0.81947341  0.57080905  0.01440380  1
  Al0+  Al73  1  0.93089705  0.31923630  0.65261615  1
  Al0+  Al74  1  0.81878305  0.07212053  0.34605465  1
  Al0+  Al75  1  0.18019248  0.92707002  0.68122744  1
  Al0+  Al76  1  0.42975392  0.81938493  0.65268980  1
  Al0+  Al77  1  0.42924439  0.81740800  0.98564862  1
  Al0+  Al78  1  0.32341752  0.57283777  0.01726155  1
  Al0+  Al79  1  0.67890650  0.93159896  0.01338528  1
  Al0+  Al80  1  0.82186348  0.57056144  0.67994970  1
  Al0+  Al81  1  0.06987035  0.67885214  0.31708720  1
  Al0+  Al82  1  0.81968992  0.07264253  0.68156312  1
  Al0+  Al83  1  0.57293230  0.68060559  0.32029677  1
  Al0+  Al84  1  0.42466790  0.32211213  0.31806711  1
  Al0+  Al85  1  0.82068959  0.57142621  0.34825067  1
  Al0+  Al86  1  0.17996681  0.42825709  0.01542960  1
  Al0+  Al87  1  0.93056357  0.32036057  0.31828780  1
  Al0+  Al88  1  0.06901839  0.68118785  0.65388143  1
  Al0+  Al89  1  0.57065915  0.17865511  0.31762340  1
  Al0+  Al90  1  0.57026194  0.17976454  0.98323900  1
  Al0+  Al91  1  0.92838037  0.82221060  0.98733748  1
  Al0+  Al92  1  0.32206593  0.56937301  0.67796419  1
  Al0+  Al93  1  0.32394486  0.07224318  0.68148453  1
  Al0+  Al94  1  0.17775552  0.92945848  0.01558582  1
  Al0+  Al95  1  0.18047666  0.42879283  0.34986053  1
  Si0+  Si96  1  0.67922803  0.42526603  0.01734634  1
  Si0+  Si97  1  0.92885439  0.82459911  0.31937294  1
  Si0+  Si98  1  0.07006115  0.67818988  0.98373533  1
  Si0+  Si99  1  0.32255721  0.07103490  0.01742646  1
  Si0+  Si100  1  0.57426824  0.67636327  0.98271110  1
  Si0+  Si101  1  0.92491206  0.82473490  0.65001514  1
  Si0+  Si102  1  0.32331616  0.57272540  0.35034555  1
  Si0+  Si103  1  0.17870516  0.92699099  0.34848716  1
  Si0+  Si104  1  0.07276476  0.17791613  0.98450295  1
  Si0+  Si105  1  0.57035131  0.18000598  0.65055557  1
  Si0+  Si106  1  0.17721697  0.42803813  0.68174185  1
  Si0+  Si107  1  0.67736917  0.42765714  0.68297046  1
  Si0+  Si108  1  0.32064492  0.06920034  0.34639379  1
  Si0+  Si109  1  0.67841482  0.92770449  0.68330342  1
  Si0+  Si110  1  0.07340845  0.17581164  0.65064278  1
  Si0+  Si111  1  0.42820502  0.32250741  0.65423272  1
  Si0+  Si112  1  0.57435240  0.67576838  0.65170631  1
  Si0+  Si113  1  0.82230891  0.07452711  0.01595310  1
  Si0+  Si114  1  0.67489192  0.92846803  0.35204747  1
  Si0+  Si115  1  0.42639420  0.32203718  0.98118500  1
  Si0+  Si116  1  0.42717833  0.82137563  0.31547913  1
  Si0+  Si117  1  0.93120757  0.32187575  0.98416065  1
  Si0+  Si118  1  0.07108094  0.17475433  0.31794790  1
  Si0+  Si119  1  0.67670418  0.42862905  0.34743177  1
  O2-  O120  1  0.25293433  0.00389132  0.06312532  1
  O2-  O121  1  0.25107797  -0.00286191  0.38930894  1
  O2-  O122  1  0.25259110  -0.00053625  0.73082500  1
  O2-  O123  1  0.25461886  0.49712987  0.06569606  1
  O2-  O124  1  0.25763511  0.50161970  0.39567919  1
  O2-  O125  1  0.24925119  0.49305161  0.72516946  1
  O2-  O126  1  0.75415381  0.00580909  0.06032521  1
  O2-  O127  1  0.74187399  -0.00004210  0.39441120  1
  O2-  O128  1  0.74929546  -0.00581343  0.72760820  1
  O2-  O129  1  0.74290331  0.49822438  0.06153946  1
  O2-  O130  1  0.74365685  0.49777422  0.39402214  1
  O2-  O131  1  0.74488632  0.49809695  0.72652084  1
  O2-  O132  1  0.00375026  0.24369395  0.27176982  1
  O2-  O133  1  0.00510223  0.24404094  0.60531764  1
  O2-  O134  1  0.00208471  0.25012627  0.94301235  1
  O2-  O135  1  -0.00634341  0.75340809  0.27339074  1
  O2-  O136  1  -0.00630087  0.75603487  0.60616429  1
  O2-  O137  1  0.00284938  0.74805798  0.93924883  1
  O2-  O138  1  0.49840421  0.25110005  0.26866831  1
  O2-  O139  1  0.49615037  0.24888686  0.61064077  1
  O2-  O140  1  0.49526650  0.25405700  0.93547804  1
  O2-  O141  1  0.49756484  0.75405458  0.27296516  1
  O2-  O142  1  0.50454723  0.74369935  0.60769637  1
  O2-  O143  1  0.50030540  0.73894243  0.93786080  1
  O2-  O144  1  0.07148569  0.17556096  0.08959219  1
  O2-  O145  1  0.07080075  0.17358449  0.42340269  1
  O2-  O146  1  0.07272719  0.17775932  0.75654026  1
  O2-  O147  1  0.06723077  0.67836233  0.08943644  1
  O2-  O148  1  0.07184448  0.68050050  0.43050245  1
  O2-  O149  1  0.06808180  0.68051712  0.76704229  1
  O2-  O150  1  0.56988827  0.18089052  0.09597536  1
  O2-  O151  1  0.56870458  0.18042374  0.43183210  1
  O2-  O152  1  0.57153584  0.18079675  0.75568807  1
  O2-  O153  1  0.57558852  0.68080482  0.08839823  1
  O2-  O154  1  0.57218384  0.68292296  0.43384188  1
  O2-  O155  1  0.57692585  0.67615591  0.75698394  1
  O2-  O156  1  0.18081479  0.43023592  0.23717643  1
  O2-  O157  1  0.17762080  0.42892635  0.57610650  1
  O2-  O158  1  0.17870038  0.42922627  0.90131925  1
  O2-  O159  1  0.17732694  0.92892128  0.24336107  1
  O2-  O160  1  0.18300420  0.92810812  0.56687442  1
  O2-  O161  1  0.17801548  0.93007863  0.90297324  1
  O2-  O162  1  0.68064140  0.42831042  0.24192606  1
  O2-  O163  1  0.67506512  0.42666362  0.57754911  1
  O2-  O164  1  0.68215560  0.42358185  0.91140643  1
  O2-  O165  1  0.67491419  0.92763158  0.24645631  1
  O2-  O166  1  0.67839150  0.92793385  0.57753194  1
  O2-  O167  1  0.67940897  0.93365204  0.90015872  1
  O2-  O168  1  0.42602961  0.31887465  0.08648714  1
  O2-  O169  1  0.42600063  0.31946175  0.43278629  1
  O2-  O170  1  0.43133110  0.32378125  0.75905237  1
  O2-  O171  1  0.43262941  0.81848141  0.09891379  1
  O2-  O172  1  0.42634954  0.82229057  0.42128330  1
  O2-  O173  1  0.42989958  0.81873319  0.76558401  1
  O2-  O174  1  0.92972776  0.32102849  0.08912361  1
  O2-  O175  1  0.93083752  0.31946131  0.43148761  1
  O2-  O176  1  0.93343775  0.31976661  0.76626913  1
  O2-  O177  1  0.92965945  0.82211589  0.10068591  1
  O2-  O178  1  0.93248659  0.82736951  0.42496920  1
  O2-  O179  1  0.92359417  0.82294116  0.75574620  1
  O2-  O180  1  0.32047600  0.06804452  0.24138284  1
  O2-  O181  1  0.32280702  0.07230788  0.56718902  1
  O2-  O182  1  0.32068430  0.07085890  0.91194868  1
  O2-  O183  1  0.32075993  0.57457819  0.24518575  1
  O2-  O184  1  0.32431334  0.56672947  0.56493995  1
  O2-  O185  1  0.31876372  0.57310194  0.90307577  1
  O2-  O186  1  0.82020908  0.06892192  0.23305595  1
  O2-  O187  1  0.81587292  0.07476537  0.56831155  1
  O2-  O188  1  0.82107301  0.07475470  0.91018764  1
  O2-  O189  1  0.82002356  0.57113786  0.23509160  1
  O2-  O190  1  0.82170540  0.56847159  0.56696247  1
  O2-  O191  1  0.82177943  0.56844442  0.90096022  1
  O2-  O192  1  0.04374016  0.08103399  0.27210551  1
  O2-  O193  1  0.04853717  0.08125860  0.60617260  1
  O2-  O194  1  0.04374994  0.08767676  0.93486096  1
  O2-  O195  1  0.03855097  0.58347520  0.26284703  1
  O2-  O196  1  0.03740812  0.58516758  0.59870327  1
  O2-  O197  1  0.04285126  0.58454207  0.93839647  1
  O2-  O198  1  0.54147437  0.07972235  0.26573043  1
  O2-  O199  1  0.54713986  0.08805324  0.60148177  1
  O2-  O200  1  0.53941676  0.08408627  0.92800392  1
  O2-  O201  1  0.54689380  0.58494361  0.26267203  1
  O2-  O202  1  0.54978840  0.58135911  0.60648588  1
  O2-  O203  1  0.55855279  0.57894858  0.94040847  1
  O2-  O204  1  0.16484068  0.19780769  0.27156396  1
  O2-  O205  1  0.16834476  0.19949143  0.60546065  1
  O2-  O206  1  0.16486724  0.20492418  0.93688852  1
  O2-  O207  1  0.16566638  0.71008446  0.26183837  1
  O2-  O208  1  0.16427003  0.71135796  0.59649280  1
  O2-  O209  1  0.16487790  0.70387574  0.94134959  1
  O2-  O210  1  0.66763072  0.20678767  0.26234954  1
  O2-  O211  1  0.66082964  0.21206028  0.60321718  1
  O2-  O212  1  0.66664476  0.21214476  0.92770904  1
  O2-  O213  1  0.66921138  0.71415280  0.26661421  1
  O2-  O214  1  0.66723506  0.70427581  0.60450507  1
  O2-  O215  1  0.66587990  0.70865053  0.93650076  1
  O2-  O216  1  0.08287077  0.45828363  0.06979456  1
  O2-  O217  1  0.08475679  0.46324265  0.40293171  1
  O2-  O218  1  0.08522594  0.45758302  0.72811441  1
  O2-  O219  1  0.08212830  0.96355607  0.07054147  1
  O2-  O220  1  0.08834968  0.95492666  0.39818989  1
  O2-  O221  1  0.08170501  0.95374398  0.73465360  1
  O2-  O222  1  0.58344126  0.44228901  0.06132431  1
  O2-  O223  1  0.58102518  0.45250769  0.39054532  1
  O2-  O224  1  0.58457135  0.45040656  0.73248129  1
  O2-  O225  1  0.58284840  0.96358626  0.06776758  1
  O2-  O226  1  0.57982837  0.95182469  0.39691267  1
  O2-  O227  1  0.58566242  0.95762760  0.72791967  1
  O2-  O228  1  0.20428425  0.32820119  0.06853135  1
  O2-  O229  1  0.20574449  0.32974867  0.40317068  1
  O2-  O230  1  0.19764945  0.33296630  0.72677327  1
  O2-  O231  1  0.20789400  0.83399947  0.07116320  1
  O2-  O232  1  0.20761151  0.83451021  0.39369783  1
  O2-  O233  1  0.21045818  0.82968777  0.73403524  1
  O2-  O234  1  0.71072865  0.33317476  0.06330920  1
  O2-  O235  1  0.70193456  0.33473529  0.39313823  1
  O2-  O236  1  0.70583021  0.33552623  0.73065909  1
  O2-  O237  1  0.70902713  0.83600800  0.06925460  1
  O2-  O238  1  0.70292364  0.83725027  0.40139708  1
  O2-  O239  1  0.69992371  0.83389640  0.73058540  1
  O2-  O240  1  0.44848616  0.42064243  0.26443019  1
  O2-  O241  1  0.45824995  0.41312312  0.60506948  1
  O2-  O242  1  0.45345444  0.41642531  0.93660541  1
  O2-  O243  1  0.45072104  0.91501167  0.26876942  1
  O2-  O244  1  0.46161466  0.91548804  0.59647097  1
  O2-  O245  1  0.46218272  0.91324359  0.93156368  1
  O2-  O246  1  0.96447924  0.41516330  0.26375295  1
  O2-  O247  1  0.96208300  0.41480109  0.59730502  1
  O2-  O248  1  0.96159077  0.41353330  0.93743891  1
  O2-  O249  1  0.95763517  0.91686477  0.27178370  1
  O2-  O250  1  0.95004787  0.91990989  0.60657796  1
  O2-  O251  1  0.95758768  0.91987519  0.93388126  1
  O2-  O252  1  0.32748554  0.28876807  0.26542132  1
  O2-  O253  1  0.33447959  0.29769728  0.60874811  1
  O2-  O254  1  0.33225411  0.29721599  0.93547993  1
  O2-  O255  1  0.33442986  0.79451471  0.26862336  1
  O2-  O256  1  0.33468010  0.78828892  0.59645298  1
  O2-  O257  1  0.33019081  0.78876446  0.93464931  1
  O2-  O258  1  0.83451113  0.29121635  0.26270591  1
  O2-  O259  1  0.83314591  0.28923401  0.60001436  1
  O2-  O260  1  0.84018343  0.29550035  0.93441178  1
  O2-  O261  1  0.83277673  0.80371150  0.27739587  1
  O2-  O262  1  0.83067848  0.80066181  0.60423009  1
  O2-  O263  1  0.83161458  0.79204936  0.93323899  1
  O2-  O264  1  0.41575827  0.04308579  0.06200074  1
  O2-  O265  1  0.41270117  0.04233350  0.39456358  1
  O2-  O266  1  0.42405670  0.04569133  0.73084527  1
  O2-  O267  1  0.42514775  0.54883817  0.06546902  1
  O2-  O268  1  0.41953113  0.55152352  0.39286734  1
  O2-  O269  1  0.41838797  0.54204032  0.73484842  1
  O2-  O270  1  0.91627367  0.05125019  0.06136158  1
  O2-  O271  1  0.91427826  0.04093927  0.40343560  1
  O2-  O272  1  0.91744898  0.04831122  0.73565678  1
  O2-  O273  1  0.91457715  0.53730345  0.06887082  1
  O2-  O274  1  0.91667074  0.53659601  0.40006925  1
  O2-  O275  1  0.91674424  0.53564410  0.73472981  1
  O2-  O276  1  0.29827069  0.16530581  0.06240181  1
  O2-  O277  1  0.29269437  0.16015304  0.39516930  1
  O2-  O278  1  0.29676580  0.17003576  0.73738390  1
  O2-  O279  1  0.29342128  0.66868902  0.07312157  1
  O2-  O280  1  0.29361020  0.66620334  0.39577405  1
  O2-  O281  1  0.28725426  0.66447523  0.73064740  1
  O2-  O282  1  0.79560803  0.16909737  0.05921352  1
  O2-  O283  1  0.78779384  0.16972347  0.39892038  1
  O2-  O284  1  0.78567709  0.16790334  0.73647465  1
  O2-  O285  1  0.79055940  0.66740999  0.06859642  1
  O2-  O286  1  0.79174770  0.66882940  0.40243498  1
  O2-  O287  1  0.79370734  0.66812171  0.73389001  1
