# generated using pymatgen
data_Ca2Al2SiO7
_symmetry_space_group_name_H-M   'P 1'
_cell_length_a   15.45917940
_cell_length_b   15.45850713
_cell_length_c   15.28450907
_cell_angle_alpha   90.00494717
_cell_angle_beta   90.00018744
_cell_angle_gamma   90.00276708
_symmetry_Int_Tables_number   1
_chemical_formula_structural   Ca2Al2SiO7
_chemical_formula_sum   'Ca48 Al48 Si24 O168'
_cell_volume   3652.62830025
_cell_formula_units_Z   24
loop_
 _symmetry_equiv_pos_site_id
 _symmetry_equiv_pos_as_xyz
  1  'x, y, z'
loop_
 _atom_type_symbol
 _atom_type_oxidation_number
  Ca2+  2.0
  Al0+  0.0
  Si0+  0.0
  O2-  -2.0
loop_
 _atom_site_type_symbol
 _atom_site_label
 _atom_site_symmetry_multiplicity
 _atom_site_fract_x
 _atom_site_fract_y
 _atom_site_fract_z
 _atom_site_occupancy
  Ca2+  Ca0  1  0.17591838  0.07396273  0.17578774  1
  Ca2+  Ca1  1  0.17557496  0.07641736  0.50528457  1
  Ca2+  Ca2  1  0.17537167  0.07630047  0.83508697  1
  Ca2+  Ca3  1  0.17612385  0.58437974  0.16628453  1
  Ca2+  Ca4  1  0.16817440  0.57814592  0.50607946  1
  Ca2+  Ca5  1  0.17466899  0.57585877  0.83835856  1
  Ca2+  Ca6  1  0.66845326  0.08405133  0.17220932  1
  Ca2+  Ca7  1  0.67004896  0.08043986  0.50651534  1
  Ca2+  Ca8  1  0.65610121  0.08339666  0.83258438  1
  Ca2+  Ca9  1  0.66437170  0.57568447  0.17185061  1
  Ca2+  Ca10  1  0.66691033  0.58312428  0.49957241  1
  Ca2+  Ca11  1  0.66644968  0.57972399  0.84304280  1
  Ca2+  Ca12  1  0.07420859  0.33467781  0.16572499  1
  Ca2+  Ca13  1  0.07245917  0.33818787  0.49612330  1
  Ca2+  Ca14  1  0.07700377  0.33847535  0.82254302  1
  Ca2+  Ca15  1  0.07970795  0.84318538  0.16491672  1
  Ca2+  Ca16  1  0.08116870  0.84008719  0.49347834  1
  Ca2+  Ca17  1  0.08714350  0.83603320  0.83185917  1
  Ca2+  Ca18  1  0.58510868  0.33022584  0.15744061  1
  Ca2+  Ca19  1  0.58011208  0.32932438  0.49807985  1
  Ca2+  Ca20  1  0.57677330  0.32741957  0.82991747  1
  Ca2+  Ca21  1  0.57899743  0.82058289  0.15847199  1
  Ca2+  Ca22  1  0.59230442  0.82311854  0.49685469  1
  Ca2+  Ca23  1  0.58214434  0.82323527  0.82693334  1
  Ca2+  Ca24  1  0.34499813  0.42277470  0.16490600  1
  Ca2+  Ca25  1  0.32795967  0.41441665  0.50896248  1
  Ca2+  Ca26  1  0.33765178  0.41540014  0.83648758  1
  Ca2+  Ca27  1  0.32677202  0.91447174  0.17246630  1
  Ca2+  Ca28  1  0.32693584  0.92656302  0.50794621  1
  Ca2+  Ca29  1  0.32836224  0.91512387  0.83924597  1
  Ca2+  Ca30  1  0.82069998  0.42558171  0.17386197  1
  Ca2+  Ca31  1  0.83075196  0.41618258  0.49980759  1
  Ca2+  Ca32  1  0.82692106  0.42176519  0.84226927  1
  Ca2+  Ca33  1  0.83334225  0.92276292  0.17555869  1
  Ca2+  Ca34  1  0.83249387  0.92100657  0.50150602  1
  Ca2+  Ca35  1  0.82347452  0.91800801  0.83393516  1
  Ca2+  Ca36  1  0.42136621  0.17147508  0.15852010  1
  Ca2+  Ca37  1  0.41310907  0.16422452  0.50149950  1
  Ca2+  Ca38  1  0.42305671  0.17382110  0.82634435  1
  Ca2+  Ca39  1  0.42585197  0.66784205  0.15644378  1
  Ca2+  Ca40  1  0.43057294  0.66616491  0.49600900  1
  Ca2+  Ca41  1  0.42451565  0.66545259  0.83386222  1
  Ca2+  Ca42  1  0.91154086  0.17089710  0.16719732  1
  Ca2+  Ca43  1  0.91220590  0.17728742  0.49265615  1
  Ca2+  Ca44  1  0.92014373  0.17606540  0.82572120  1
  Ca2+  Ca45  1  0.91173260  0.66733033  0.16700058  1
  Ca2+  Ca46  1  0.91703281  0.67373296  0.48908334  1
  Ca2+  Ca47  1  0.91639471  0.66446595  0.83048214  1
  Al0+  Al48  1  -0.00011695  0.00022738  0.00138828  1
  Al0+  Al49  1  -0.00008836  0.00131886  0.33635003  1
  Al0+  Al50  1  -0.00027664  0.00118235  0.67115246  1
  Al0+  Al51  1  -0.00020623  0.50184785  0.00394754  1
  Al0+  Al52  1  -0.00122383  0.50133031  0.32911824  1
  Al0+  Al53  1  0.00065269  0.50222114  0.66542992  1
  Al0+  Al54  1  0.49888997  -0.00064756  -0.00493056  1
  Al0+  Al55  1  0.49903835  -0.00037724  0.33643423  1
  Al0+  Al56  1  0.50078890  -0.00080271  0.67052046  1
  Al0+  Al57  1  0.49939362  0.49870456  0.00006024  1
  Al0+  Al58  1  0.50071507  0.49841724  0.33463881  1
  Al0+  Al59  1  0.50159669  0.49961245  0.65814322  1
  Al0+  Al60  1  0.24743847  0.24751933  -0.00213554  1
  Al0+  Al61  1  0.24969585  0.25024099  0.33435954  1
  Al0+  Al62  1  0.24775776  0.24919955  0.67185399  1
  Al0+  Al63  1  0.24719397  0.74816872  0.00479385  1
  Al0+  Al64  1  0.25006197  0.74825926  0.33901832  1
  Al0+  Al65  1  0.25128047  0.74844139  0.66892371  1
  Al0+  Al66  1  0.75158488  0.25013423  -0.00178657  1
  Al0+  Al67  1  0.74852627  0.25101717  0.33608109  1
  Al0+  Al68  1  0.74976890  0.25183646  0.66003938  1
  Al0+  Al69  1  0.75224559  0.75272800  -0.00066962  1
  Al0+  Al70  1  0.75208267  0.74820714  0.32575283  1
  Al0+  Al71  1  0.75201752  0.75112691  0.66672646  1
  Al0+  Al72  1  0.32241340  0.07145101  0.68582527  1
  Al0+  Al73  1  0.17950208  0.92792320  0.34955946  1
  Al0+  Al74  1  0.82265385  0.57393914  0.01550500  1
  Al0+  Al75  1  0.68094953  0.92808216  0.67971525  1
  Al0+  Al76  1  0.57270823  0.67920013  0.98464946  1
  Al0+  Al77  1  0.32019634  0.56793198  0.01248869  1
  Al0+  Al78  1  0.32300861  0.07289524  0.34858577  1
  Al0+  Al79  1  0.57069277  0.67873326  0.31749302  1
  Al0+  Al80  1  0.93182592  0.82241009  0.31956876  1
  Al0+  Al81  1  0.42549165  0.81960017  0.98584160  1
  Al0+  Al82  1  0.82091740  0.57166002  0.34972580  1
  Al0+  Al83  1  0.57279071  0.68010055  0.65170303  1
  Al0+  Al84  1  0.81973954  0.07167893  0.34634218  1
  Al0+  Al85  1  0.42709351  0.32083311  0.98586671  1
  Al0+  Al86  1  0.92689341  0.32191810  0.31664939  1
  Al0+  Al87  1  0.57040248  0.17683573  0.64850408  1
  Al0+  Al88  1  0.67726533  0.42889081  0.35179098  1
  Al0+  Al89  1  0.17805309  0.43058896  0.67854190  1
  Al0+  Al90  1  0.57405964  0.17830675  0.98564558  1
  Al0+  Al91  1  0.67904500  0.42871089  0.01287540  1
  Al0+  Al92  1  0.42729761  0.31979935  0.64977847  1
  Al0+  Al93  1  0.17942363  0.92960715  0.01591559  1
  Al0+  Al94  1  0.92986605  0.32325431  0.65244034  1
  Al0+  Al95  1  0.17816255  0.92724721  0.68419074  1
  Si0+  Si96  1  0.32491031  0.57008831  0.68231667  1
  Si0+  Si97  1  0.67837965  0.92691749  0.34683126  1
  Si0+  Si98  1  0.07023197  0.17697131  0.64985216  1
  Si0+  Si99  1  0.32215562  0.57002459  0.34954766  1
  Si0+  Si100  1  0.42669767  0.82109696  0.64979064  1
  Si0+  Si101  1  0.07210144  0.67984096  0.65331722  1
  Si0+  Si102  1  0.42669584  0.31995921  0.31842044  1
  Si0+  Si103  1  0.82073461  0.07475790  0.68373996  1
  Si0+  Si104  1  0.06974473  0.67841309  0.98486854  1
  Si0+  Si105  1  0.57016437  0.17786388  0.31984739  1
  Si0+  Si106  1  0.67732311  0.92954983  0.01457508  1
  Si0+  Si107  1  0.06923080  0.17683785  0.98516917  1
  Si0+  Si108  1  0.93178814  0.32173881  0.98548797  1
  Si0+  Si109  1  0.42717791  0.82154709  0.31925626  1
  Si0+  Si110  1  0.67894187  0.42910761  0.68106164  1
  Si0+  Si111  1  0.07455507  0.67725135  0.31534163  1
  Si0+  Si112  1  0.93066376  0.82152279  0.65340391  1
  Si0+  Si113  1  0.17589299  0.42504855  0.01747848  1
  Si0+  Si114  1  0.82113202  0.06996745  0.01348126  1
  Si0+  Si115  1  0.32264001  0.07215284  0.01719975  1
  Si0+  Si116  1  0.07196317  0.18009315  0.31643844  1
  Si0+  Si117  1  0.17839433  0.42999261  0.34618429  1
  Si0+  Si118  1  0.82066518  0.57144653  0.68050096  1
  Si0+  Si119  1  0.93022648  0.82402056  0.98331639  1
  O2-  O120  1  0.25735366  0.00052166  0.06218306  1
  O2-  O121  1  0.25298456  -0.00144973  0.39778185  1
  O2-  O122  1  0.25263891  -0.00415243  0.73446504  1
  O2-  O123  1  0.24962173  0.48868194  0.06078785  1
  O2-  O124  1  0.24915766  0.50026413  0.38992042  1
  O2-  O125  1  0.25705165  0.49992932  0.72565828  1
  O2-  O126  1  0.74570522  0.00379985  0.05568093  1
  O2-  O127  1  0.74583519  -0.00380872  0.39218360  1
  O2-  O128  1  0.75032465  0.00794033  0.72808449  1
  O2-  O129  1  0.74682864  0.50498451  0.06307620  1
  O2-  O130  1  0.74993772  0.50069711  0.40210063  1
  O2-  O131  1  0.75002745  0.50063501  0.72268645  1
  O2-  O132  1  0.00164049  0.24654510  0.27010844  1
  O2-  O133  1  0.00302227  0.24703416  0.60529539  1
  O2-  O134  1  0.00467871  0.25359767  0.94205214  1
  O2-  O135  1  0.00867768  0.74942909  0.27238213  1
  O2-  O136  1  0.00717650  0.75637935  0.61198504  1
  O2-  O137  1  -0.00271816  0.74838083  0.94249454  1
  O2-  O138  1  0.49710105  0.24729356  0.27861059  1
  O2-  O139  1  0.49644819  0.24634959  0.59739897  1
  O2-  O140  1  0.50003351  0.24913523  0.93737604  1
  O2-  O141  1  0.49590763  0.75441018  0.27319030  1
  O2-  O142  1  0.49807022  0.75520070  0.60487874  1
  O2-  O143  1  0.50060130  0.75124641  0.93453366  1
  O2-  O144  1  0.06608175  0.17595877  0.09012871  1
  O2-  O145  1  0.07274417  0.18349832  0.42175080  1
  O2-  O146  1  0.06551510  0.17684018  0.75600688  1
  O2-  O147  1  0.07048599  0.67754732  0.08964958  1
  O2-  O148  1  0.07407097  0.67470145  0.42129711  1
  O2-  O149  1  0.06878390  0.67647434  0.75837366  1
  O2-  O150  1  0.57518119  0.17834659  0.09999172  1
  O2-  O151  1  0.57084573  0.17742216  0.42440073  1
  O2-  O152  1  0.57265502  0.18242252  0.76178704  1
  O2-  O153  1  0.57107892  0.68082414  0.09823750  1
  O2-  O154  1  0.57001553  0.68054005  0.43097313  1
  O2-  O155  1  0.57369472  0.67949346  0.76437883  1
  O2-  O156  1  0.17964300  0.43033483  0.24099104  1
  O2-  O157  1  0.17520890  0.43606196  0.56511323  1
  O2-  O158  1  0.17026984  0.42927875  0.91220087  1
  O2-  O159  1  0.18090094  0.92953554  0.23575361  1
  O2-  O160  1  0.17653612  0.92871261  0.57098996  1
  O2-  O161  1  0.17690972  0.93249850  0.90324334  1
  O2-  O162  1  0.67589756  0.42814753  0.23829654  1
  O2-  O163  1  0.67993130  0.42969444  0.57621544  1
  O2-  O164  1  0.68358335  0.42739397  0.89871867  1
  O2-  O165  1  0.67795091  0.93014903  0.24087629  1
  O2-  O166  1  0.68855602  0.92422618  0.56672956  1
  O2-  O167  1  0.68128934  0.92712369  0.90960450  1
  O2-  O168  1  0.42673248  0.31772934  0.10021728  1
  O2-  O169  1  0.42375634  0.32113448  0.42308697  1
  O2-  O170  1  0.43115109  0.32268574  0.76290392  1
  O2-  O171  1  0.42733526  0.81800481  0.10000249  1
  O2-  O172  1  0.42781879  0.81929718  0.42482111  1
  O2-  O173  1  0.42482072  0.81627685  0.75510396  1
  O2-  O174  1  0.93207275  0.31936393  0.09037663  1
  O2-  O175  1  0.93093675  0.32167352  0.42974028  1
  O2-  O176  1  0.93119003  0.32349283  0.76630822  1
  O2-  O177  1  0.93188470  0.82886224  0.08798151  1
  O2-  O178  1  0.93231788  0.82107613  0.43320418  1
  O2-  O179  1  0.92807730  0.81865098  0.75871103  1
  O2-  O180  1  0.32222861  0.07461564  0.23481896  1
  O2-  O181  1  0.31822649  0.06995279  0.57204093  1
  O2-  O182  1  0.31877416  0.07356563  0.91230274  1
  O2-  O183  1  0.32227516  0.56997709  0.24444107  1
  O2-  O184  1  0.32171374  0.57110728  0.57621419  1
  O2-  O185  1  0.31620833  0.56888392  0.89953913  1
  O2-  O186  1  0.81724679  0.07087991  0.23248481  1
  O2-  O187  1  0.82267368  0.07225903  0.57827000  1
  O2-  O188  1  0.82558379  0.06772365  0.90855424  1
  O2-  O189  1  0.81964032  0.57026034  0.23663105  1
  O2-  O190  1  0.82188425  0.57324292  0.57588580  1
  O2-  O191  1  0.82698860  0.56928522  0.90110946  1
  O2-  O192  1  0.04667552  0.08609410  0.27156214  1
  O2-  O193  1  0.04274599  0.08360950  0.60397209  1
  O2-  O194  1  0.03401967  0.08854383  0.93550508  1
  O2-  O195  1  0.04714926  0.58570009  0.26622155  1
  O2-  O196  1  0.03897800  0.59165939  0.60202191  1
  O2-  O197  1  0.04252031  0.58620407  0.93643281  1
  O2-  O198  1  0.54533679  0.08478905  0.27228543  1
  O2-  O199  1  0.54809530  0.07508600  0.59930382  1
  O2-  O200  1  0.54791967  0.07944683  0.93309433  1
  O2-  O201  1  0.53610918  0.58182429  0.26650722  1
  O2-  O202  1  0.54193618  0.58516912  0.59500707  1
  O2-  O203  1  0.54382873  0.58044066  0.93377272  1
  O2-  O204  1  0.16438382  0.20873835  0.26827962  1
  O2-  O205  1  0.16442518  0.20075586  0.60641011  1
  O2-  O206  1  0.16228945  0.19777446  0.93785552  1
  O2-  O207  1  0.17027444  0.69944500  0.27153786  1
  O2-  O208  1  0.16611522  0.70007208  0.60638531  1
  O2-  O209  1  0.16012168  0.70739652  0.93619839  1
  O2-  O210  1  0.66114753  0.20726471  0.27197331  1
  O2-  O211  1  0.66882459  0.20687079  0.59577867  1
  O2-  O212  1  0.67292386  0.20513566  0.93136391  1
  O2-  O213  1  0.66656473  0.70798036  0.26254207  1
  O2-  O214  1  0.66955021  0.71352791  0.59843840  1
  O2-  O215  1  0.67217490  0.70847174  0.93319638  1
  O2-  O216  1  0.08561061  0.45764368  0.06667384  1
  O2-  O217  1  0.08672223  0.45889969  0.39262207  1
  O2-  O218  1  0.08400558  0.46820894  0.73500130  1
  O2-  O219  1  0.08329067  0.96553873  0.06886302  1
  O2-  O220  1  0.08178192  0.95862417  0.40155375  1
  O2-  O221  1  0.07918590  0.95658587  0.73724666  1
  O2-  O222  1  0.57944614  0.45079953  0.06525142  1
  O2-  O223  1  0.57890463  0.45774607  0.40502473  1
  O2-  O224  1  0.58668123  0.45830656  0.72593115  1
  O2-  O225  1  0.58444578  0.95363810  0.06134850  1
  O2-  O226  1  0.58485854  0.94955103  0.39387368  1
  O2-  O227  1  0.58306496  0.95057732  0.73369758  1
  O2-  O228  1  0.19360957  0.32861263  0.06066895  1
  O2-  O229  1  0.20492959  0.33850425  0.39405527  1
  O2-  O230  1  0.19834774  0.33247998  0.73279892  1
  O2-  O231  1  0.20288406  0.83127228  0.06928221  1
  O2-  O232  1  0.20274361  0.82780308  0.40223386  1
  O2-  O233  1  0.20330238  0.82625986  0.73464523  1
  O2-  O234  1  0.71312657  0.33139001  0.06623824  1
  O2-  O235  1  0.70671337  0.33114029  0.40437765  1
  O2-  O236  1  0.70813250  0.33721771  0.72697035  1
  O2-  O237  1  0.70967807  0.83990978  0.06335118  1
  O2-  O238  1  0.70749704  0.83377968  0.39051079  1
  O2-  O239  1  0.71955941  0.83478379  0.73677107  1
  O2-  O240  1  0.45674343  0.41146915  0.27176176  1
  O2-  O241  1  0.45638183  0.41753256  0.59483359  1
  O2-  O242  1  0.45226086  0.41957402  0.93328132  1
  O2-  O243  1  0.45012004  0.91628627  0.27387169  1
  O2-  O244  1  0.44948950  0.91612524  0.60716519  1
  O2-  O245  1  0.44936718  0.91899636  0.93391358  1
  O2-  O246  1  0.96080338  0.41726054  0.26202754  1
  O2-  O247  1  0.96372571  0.41897739  0.59805454  1
  O2-  O248  1  0.95876308  0.41466238  0.93964665  1
  O2-  O249  1  0.96058040  0.92012314  0.26506960  1
  O2-  O250  1  0.95309375  0.91584843  0.60831244  1
  O2-  O251  1  0.96251706  0.91359322  0.93366140  1
  O2-  O252  1  0.33465691  0.29496111  0.26958037  1
  O2-  O253  1  0.32528395  0.29502407  0.60159424  1
  O2-  O254  1  0.32661682  0.29491505  0.93433857  1
  O2-  O255  1  0.33301331  0.79426793  0.27485268  1
  O2-  O256  1  0.33388387  0.79250432  0.60229652  1
  O2-  O257  1  0.32690481  0.78839783  0.93479884  1
  O2-  O258  1  0.83038463  0.28852596  0.26434386  1
  O2-  O259  1  0.83429123  0.29393042  0.59708618  1
  O2-  O260  1  0.84173572  0.29130566  0.93675514  1
  O2-  O261  1  0.83674592  0.79204787  0.26220365  1
  O2-  O262  1  0.84226499  0.78835831  0.60351451  1
  O2-  O263  1  0.83780045  0.80013132  0.93518667  1
  O2-  O264  1  0.41829949  0.05051356  0.06077720  1
  O2-  O265  1  0.42134854  0.04613950  0.40275910  1
  O2-  O266  1  0.42225417  0.04749782  0.73651146  1
  O2-  O267  1  0.41630906  0.54031505  0.06899037  1
  O2-  O268  1  0.41200024  0.53943478  0.39798030  1
  O2-  O269  1  0.41914710  0.54452951  0.72617490  1
  O2-  O270  1  0.90997907  0.03713875  0.06364743  1
  O2-  O271  1  0.91603514  0.04319886  0.40111091  1
  O2-  O272  1  0.91306213  0.04706006  0.73179772  1
  O2-  O273  1  0.91998046  0.54366682  0.06989402  1
  O2-  O274  1  0.92173116  0.54513851  0.39960759  1
  O2-  O275  1  0.91257963  0.54364171  0.72794142  1
  O2-  O276  1  0.29213757  0.16462131  0.06409916  1
  O2-  O277  1  0.29122343  0.17068112  0.40168001  1
  O2-  O278  1  0.28955136  0.16818862  0.73957149  1
  O2-  O279  1  0.28332506  0.66100211  0.06993921  1
  O2-  O280  1  0.29589576  0.66091343  0.39933331  1
  O2-  O281  1  0.29743458  0.66245012  0.72907565  1
  O2-  O282  1  0.79825837  0.16326959  0.05996504  1
  O2-  O283  1  0.78875856  0.16670480  0.40161698  1
  O2-  O284  1  0.79748475  0.16990953  0.72789245  1
  O2-  O285  1  0.80274574  0.67607166  0.06390073  1
  O2-  O286  1  0.79388186  0.67201080  0.39982653  1
  O2-  O287  1  0.79417445  0.66295924  0.72913282  1
