# generated using pymatgen
data_Ca2Al2SiO7
_symmetry_space_group_name_H-M   'P 1'
_cell_length_a   15.45796599
_cell_length_b   15.45802024
_cell_length_c   15.28398604
_cell_angle_alpha   90.00899190
_cell_angle_beta   90.00105162
_cell_angle_gamma   89.99705302
_symmetry_Int_Tables_number   1
_chemical_formula_structural   Ca2Al2SiO7
_chemical_formula_sum   'Ca48 Al48 Si24 O168'
_cell_volume   3652.10155204
_cell_formula_units_Z   24
loop_
 _symmetry_equiv_pos_site_id
 _symmetry_equiv_pos_as_xyz
  1  'x, y, z'
loop_
 _atom_type_symbol
 _atom_type_oxidation_number
  Ca2+  2.0
  Al0+  0.0
  Si0+  0.0
  O2-  -2.0
loop_
 _atom_site_type_symbol
 _atom_site_label
 _atom_site_symmetry_multiplicity
 _atom_site_fract_x
 _atom_site_fract_y
 _atom_site_fract_z
 _atom_site_occupancy
  Ca2+  Ca0  1  0.17754524  0.08225209  0.17657078  1
  Ca2+  Ca1  1  0.16485431  0.08540801  0.49734417  1
  Ca2+  Ca2  1  0.17012694  0.08671232  0.83861467  1
  Ca2+  Ca3  1  0.17149769  0.57281689  0.17109426  1
  Ca2+  Ca4  1  0.16957503  0.57220395  0.50981756  1
  Ca2+  Ca5  1  0.17533670  0.57522149  0.83696292  1
  Ca2+  Ca6  1  0.66617003  0.07935583  0.17964138  1
  Ca2+  Ca7  1  0.65712439  0.07318613  0.49947079  1
  Ca2+  Ca8  1  0.66613606  0.07616357  0.83432993  1
  Ca2+  Ca9  1  0.66469316  0.57972651  0.17124691  1
  Ca2+  Ca10  1  0.67390090  0.57738938  0.50158340  1
  Ca2+  Ca11  1  0.67060588  0.58682939  0.83565228  1
  Ca2+  Ca12  1  0.09073174  0.33358471  0.17060753  1
  Ca2+  Ca13  1  0.08620232  0.32775784  0.49202327  1
  Ca2+  Ca14  1  0.09315620  0.33130741  0.82638147  1
  Ca2+  Ca15  1  0.07247032  0.84513743  0.16627448  1
  Ca2+  Ca16  1  0.08318476  0.82498752  0.48976624  1
  Ca2+  Ca17  1  0.07825705  0.82634598  0.82618683  1
  Ca2+  Ca18  1  0.57172552  0.33396316  0.16561909  1
  Ca2+  Ca19  1  0.57285251  0.33187954  0.48855707  1
  Ca2+  Ca20  1  0.56666127  0.33627912  0.82853981  1
  Ca2+  Ca21  1  0.57860078  0.83112107  0.16624883  1
  Ca2+  Ca22  1  0.58094398  0.83512756  0.49178261  1
  Ca2+  Ca23  1  0.58298240  0.82791078  0.83103888  1
  Ca2+  Ca24  1  0.32906562  0.41416555  0.17033251  1
  Ca2+  Ca25  1  0.32709899  0.41317545  0.50489306  1
  Ca2+  Ca26  1  0.32638763  0.41807752  0.83906059  1
  Ca2+  Ca27  1  0.33344526  0.92695320  0.17912315  1
  Ca2+  Ca28  1  0.33447597  0.92306998  0.49649282  1
  Ca2+  Ca29  1  0.32920563  0.92615729  0.84090330  1
  Ca2+  Ca30  1  0.82638667  0.41582005  0.17922467  1
  Ca2+  Ca31  1  0.82851503  0.41297256  0.50156208  1
  Ca2+  Ca32  1  0.83675887  0.42691975  0.83495557  1
  Ca2+  Ca33  1  0.83064861  0.91323609  0.17525211  1
  Ca2+  Ca34  1  0.82291792  0.91118186  0.50137052  1
  Ca2+  Ca35  1  0.82985420  0.91263139  0.83559083  1
  Ca2+  Ca36  1  0.41099757  0.17252132  0.16875594  1
  Ca2+  Ca37  1  0.41775823  0.17725126  0.49040961  1
  Ca2+  Ca38  1  0.40596565  0.17939238  0.83172052  1
  Ca2+  Ca39  1  0.41977142  0.66924940  0.16122912  1
  Ca2+  Ca40  1  0.41243046  0.67285881  0.49458183  1
  Ca2+  Ca41  1  0.41831570  0.65674046  0.83093833  1
  Ca2+  Ca42  1  0.92227851  0.17160516  0.16971264  1
  Ca2+  Ca43  1  0.92907833  0.17123043  0.49084876  1
  Ca2+  Ca44  1  0.92680774  0.17209120  0.82549385  1
  Ca2+  Ca45  1  0.91793552  0.67884406  0.16420585  1
  Ca2+  Ca46  1  0.92081460  0.66589940  0.49769771  1
  Ca2+  Ca47  1  0.92222549  0.66836783  0.82642622  1
  Al0+  Al48  1  -0.00336535  0.00181231  -0.00656127  1
  Al0+  Al49  1  0.00062538  -0.00036308  0.32944034  1
  Al0+  Al50  1  -0.00215424  0.00053260  0.66306427  1
  Al0+  Al51  1  -0.00088013  0.50133392  0.00529874  1
  Al0+  Al52  1  0.00169871  0.50123496  0.33254982  1
  Al0+  Al53  1  -0.00130635  0.50022598  0.67103676  1
  Al0+  Al54  1  0.50130113  -0.00068877  0.00300331  1
  Al0+  Al55  1  0.50001441  -0.00067989  0.33440310  1
  Al0+  Al56  1  0.49960480  -0.00099198  0.67476529  1
  Al0+  Al57  1  0.50079427  0.50015704  -0.00611829  1
  Al0+  Al58  1  0.50236075  0.50019734  0.33481480  1
  Al0+  Al59  1  0.50078049  0.50121950  0.66226134  1
  Al0+  Al60  1  0.24988342  0.24840158  0.00409789  1
  Al0+  Al61  1  0.25090937  0.25073628  0.33400178  1
  Al0+  Al62  1  0.25024876  0.24901803  0.66078386  1
  Al0+  Al63  1  0.24786030  0.74994019  0.00349088  1
  Al0+  Al64  1  0.25114005  0.75085276  0.32959670  1
  Al0+  Al65  1  0.24958748  0.75043023  0.66675970  1
  Al0+  Al66  1  0.75121977  0.24894317  -0.00321257  1
  Al0+  Al67  1  0.75065731  0.24977302  0.33298889  1
  Al0+  Al68  1  0.74851251  0.24655881  0.66942522  1
  Al0+  Al69  1  0.74942311  0.75069923  -0.00730096  1
  Al0+  Al70  1  0.75201128  0.74971154  0.33407356  1
  Al0+  Al71  1  0.74784294  0.74946294  0.67446986  1
  Al0+  Al72  1  0.43073686  0.32128890  0.65172710  1
  Al0+  Al73  1  0.32213437  0.57370165  0.68062705  1
  Al0+  Al74  1  0.42921269  0.31802940  0.98545207  1
  Al0+  Al75  1  0.57090108  0.17774143  0.31997880  1
  Al0+  Al76  1  0.56839271  0.68003574  0.98547257  1
  Al0+  Al77  1  0.32099076  0.07097812  0.35108006  1
  Al0+  Al78  1  0.42894085  0.82067966  0.32062501  1
  Al0+  Al79  1  0.42902232  0.32301603  0.31722903  1
  Al0+  Al80  1  0.67858344  0.92969887  0.68315511  1
  Al0+  Al81  1  0.17880041  0.42873691  0.01725372  1
  Al0+  Al82  1  0.68050858  0.92882924  0.34548126  1
  Al0+  Al83  1  0.81961765  0.56899782  0.68069590  1
  Al0+  Al84  1  0.92982191  0.81934011  0.32192002  1
  Al0+  Al85  1  0.18056061  0.42703120  0.68082910  1
  Al0+  Al86  1  0.18038072  0.43097563  0.34918618  1
  Al0+  Al87  1  0.93015889  0.82119078  0.98338980  1
  Al0+  Al88  1  0.32429648  0.57197106  0.01625442  1
  Al0+  Al89  1  0.92935449  0.32335714  0.31945220  1
  Al0+  Al90  1  0.32064849  0.06904791  0.01424155  1
  Al0+  Al91  1  0.17695959  0.92803542  0.34816958  1
  Al0+  Al92  1  0.07061250  0.17916080  0.65230613  1
  Al0+  Al93  1  0.07196965  0.17927238  0.31585206  1
  Al0+  Al94  1  0.07127739  0.67893465  0.65364107  1
  Al0+  Al95  1  0.67909261  0.42748911  0.34588679  1
  Si0+  Si96  1  0.92636702  0.82036717  0.64929067  1
  Si0+  Si97  1  0.57517058  0.17584296  0.98185361  1
  Si0+  Si98  1  0.68156041  0.92878313  0.01628329  1
  Si0+  Si99  1  0.67696177  0.42559435  0.68366740  1
  Si0+  Si100  1  0.57340584  0.67885061  0.31868243  1
  Si0+  Si101  1  0.42630436  0.82394194  0.98368747  1
  Si0+  Si102  1  0.82214002  0.57234373  0.34852970  1
  Si0+  Si103  1  0.17458068  0.92862112  0.01358697  1
  Si0+  Si104  1  0.82328016  0.07273737  0.34993614  1
  Si0+  Si105  1  0.06871487  0.18224361  0.98522722  1
  Si0+  Si106  1  0.57181151  0.17539443  0.65204466  1
  Si0+  Si107  1  0.31924371  0.06930052  0.68182774  1
  Si0+  Si108  1  0.68066239  0.42855932  0.01242505  1
  Si0+  Si109  1  0.17603189  0.92810692  0.68074227  1
  Si0+  Si110  1  0.92544268  0.32269211  0.65236684  1
  Si0+  Si111  1  0.81980188  0.57286053  0.01600085  1
  Si0+  Si112  1  0.92568603  0.32317708  0.98437272  1
  Si0+  Si113  1  0.42920423  0.82294788  0.65358505  1
  Si0+  Si114  1  0.82404337  0.07150551  0.68475967  1
  Si0+  Si115  1  0.07421359  0.67730625  0.31501895  1
  Si0+  Si116  1  0.32425319  0.57317097  0.34912165  1
  Si0+  Si117  1  0.07180844  0.67577208  0.98288441  1
  Si0+  Si118  1  0.82135639  0.07199000  0.01516984  1
  Si0+  Si119  1  0.57221516  0.68051314  0.65027428  1
  O2-  O120  1  0.24956829  -0.01047610  0.05773904  1
  O2-  O121  1  0.24710639  0.00011017  0.40094373  1
  O2-  O122  1  0.24547935  0.00042366  0.72372540  1
  O2-  O123  1  0.25188695  0.50065821  0.06605657  1
  O2-  O124  1  0.25621638  0.50503230  0.39435322  1
  O2-  O125  1  0.25239087  0.49945506  0.73055075  1
  O2-  O126  1  0.74881237  0.00319681  0.05792129  1
  O2-  O127  1  0.75349943  0.00457417  0.39371692  1
  O2-  O128  1  0.75462218  0.00345233  0.72963846  1
  O2-  O129  1  0.75193960  0.49859548  0.05695695  1
  O2-  O130  1  0.75764876  0.49908898  0.39161984  1
  O2-  O131  1  0.74751484  0.49191287  0.72902354  1
  O2-  O132  1  0.00147273  0.25348113  0.26603398  1
  O2-  O133  1  -0.00477919  0.25501703  0.60946892  1
  O2-  O134  1  0.00137747  0.25699280  0.94249399  1
  O2-  O135  1  0.00773265  0.74957786  0.27235788  1
  O2-  O136  1  -0.00276875  0.75440680  0.60568294  1
  O2-  O137  1  0.00657006  0.74807634  0.93812487  1
  O2-  O138  1  0.50104986  0.25011558  0.26786673  1
  O2-  O139  1  0.50947833  0.24894370  0.60824367  1
  O2-  O140  1  0.50412642  0.24225195  0.93812238  1
  O2-  O141  1  0.50270166  0.74490558  0.27439274  1
  O2-  O142  1  0.49749983  0.74890357  0.61099182  1
  O2-  O143  1  0.48949700  0.75091302  0.93773812  1
  O2-  O144  1  0.06553522  0.17907453  0.08945119  1
  O2-  O145  1  0.06878889  0.17977059  0.42951977  1
  O2-  O146  1  0.07010697  0.17862176  0.76637886  1
  O2-  O147  1  0.06789856  0.67394354  0.08819771  1
  O2-  O148  1  0.07205641  0.67654847  0.42082321  1
  O2-  O149  1  0.06951894  0.68279606  0.76698853  1
  O2-  O150  1  0.58072671  0.17718287  0.08651399  1
  O2-  O151  1  0.56872100  0.17841629  0.43403230  1
  O2-  O152  1  0.57040168  0.17448684  0.75804442  1
  O2-  O153  1  0.57275787  0.68359769  0.09837694  1
  O2-  O154  1  0.57531058  0.68055028  0.42450561  1
  O2-  O155  1  0.57362180  0.68188054  0.75544925  1
  O2-  O156  1  0.18020952  0.43370033  0.23619060  1
  O2-  O157  1  0.18137552  0.42722436  0.56759359  1
  O2-  O158  1  0.17825608  0.42774237  0.90356696  1
  O2-  O159  1  0.17783447  0.93020341  0.23413164  1
  O2-  O160  1  0.17650373  0.92668055  0.57636729  1
  O2-  O161  1  0.17402268  0.93206988  0.90718304  1
  O2-  O162  1  0.67851056  0.43183901  0.23215911  1
  O2-  O163  1  0.67850030  0.42679881  0.57826251  1
  O2-  O164  1  0.68388248  0.42952571  0.90713856  1
  O2-  O165  1  0.68381894  0.92674461  0.23213077  1
  O2-  O166  1  0.67786297  0.92956138  0.57036766  1
  O2-  O167  1  0.68242416  0.92963215  0.91089528  1
  O2-  O168  1  0.43114093  0.31825145  0.09766381  1
  O2-  O169  1  0.43124835  0.32363790  0.43087534  1
  O2-  O170  1  0.42951069  0.31874517  0.76541637  1
  O2-  O171  1  0.43169098  0.82640407  0.08877797  1
  O2-  O172  1  0.43097853  0.81925340  0.43447388  1
  O2-  O173  1  0.43120088  0.82610880  0.75873563  1
  O2-  O174  1  0.91865131  0.31991838  0.08845725  1
  O2-  O175  1  0.92910173  0.32169393  0.43326111  1
  O2-  O176  1  0.92411926  0.32041185  0.75864322  1
  O2-  O177  1  0.92871775  0.82094922  0.09636059  1
  O2-  O178  1  0.92589375  0.81399451  0.43471968  1
  O2-  O179  1  0.92813268  0.81980068  0.75533888  1
  O2-  O180  1  0.32107223  0.06817540  0.23730688  1
  O2-  O181  1  0.32316142  0.06696636  0.57759269  1
  O2-  O182  1  0.31618160  0.07004131  0.90005195  1
  O2-  O183  1  0.32433308  0.57285721  0.24355674  1
  O2-  O184  1  0.31999308  0.57672811  0.56732655  1
  O2-  O185  1  0.32276090  0.56923929  0.90271690  1
  O2-  O186  1  0.82222592  0.07104912  0.24367129  1
  O2-  O187  1  0.82582017  0.07193888  0.58001919  1
  O2-  O188  1  0.82146556  0.07152380  0.90997673  1
  O2-  O189  1  0.81822571  0.57557393  0.24258981  1
  O2-  O190  1  0.81672897  0.57069660  0.56787254  1
  O2-  O191  1  0.81963991  0.57184472  0.91079161  1
  O2-  O192  1  0.04194401  0.08169313  0.26214868  1
  O2-  O193  1  0.03883021  0.08270802  0.59823998  1
  O2-  O194  1  0.03674666  0.09270713  0.93439086  1
  O2-  O195  1  0.04404381  0.58644374  0.26670573  1
  O2-  O196  1  0.03788476  0.58228076  0.60140004  1
  O2-  O197  1  0.04067135  0.58369428  0.93622526  1
  O2-  O198  1  0.54359348  0.07948892  0.26639321  1
  O2-  O199  1  0.54052217  0.08253897  0.60794993  1
  O2-  O200  1  0.55114765  0.08035322  0.93797095  1
  O2-  O201  1  0.54978361  0.58525362  0.27235094  1
  O2-  O202  1  0.55076810  0.58770993  0.60234018  1
  O2-  O203  1  0.54495563  0.58310958  0.92799241  1
  O2-  O204  1  0.17045059  0.20744661  0.26463739  1
  O2-  O205  1  0.16638428  0.20689463  0.59714513  1
  O2-  O206  1  0.16151772  0.20676021  0.93838090  1
  O2-  O207  1  0.16802581  0.69934126  0.26886189  1
  O2-  O208  1  0.16733137  0.71041912  0.59911831  1
  O2-  O209  1  0.16720907  0.69821685  0.93878092  1
  O2-  O210  1  0.67098802  0.20149733  0.26854768  1
  O2-  O211  1  0.66865737  0.19188430  0.60899813  1
  O2-  O212  1  0.66809264  0.20245922  0.93279273  1
  O2-  O213  1  0.66567236  0.70641797  0.27111371  1
  O2-  O214  1  0.66277662  0.71328551  0.60369832  1
  O2-  O215  1  0.66267091  0.71573594  0.92836896  1
  O2-  O216  1  0.07906394  0.45617005  0.06945946  1
  O2-  O217  1  0.08267309  0.46184531  0.40152404  1
  O2-  O218  1  0.08073919  0.45214917  0.73274665  1
  O2-  O219  1  0.08225871  0.96190605  0.05782091  1
  O2-  O220  1  0.07701683  0.95298420  0.39992039  1
  O2-  O221  1  0.08283303  0.95426957  0.72722669  1
  O2-  O222  1  0.58913890  0.45762599  0.05803956  1
  O2-  O223  1  0.58554846  0.46261253  0.40334929  1
  O2-  O224  1  0.58489007  0.45673703  0.72919063  1
  O2-  O225  1  0.58828628  0.95202958  0.06233100  1
  O2-  O226  1  0.58467497  0.95804159  0.40112395  1
  O2-  O227  1  0.58378184  0.96175965  0.74158447  1
  O2-  O228  1  0.20688900  0.33019615  0.06885148  1
  O2-  O229  1  0.20914626  0.33360889  0.40106337  1
  O2-  O230  1  0.21113148  0.32796182  0.73278121  1
  O2-  O231  1  0.18843394  0.83218064  0.05709382  1
  O2-  O232  1  0.20627306  0.82851344  0.39890797  1
  O2-  O233  1  0.20604729  0.83835675  0.73087936  1
  O2-  O234  1  0.70822439  0.33578769  0.05786895  1
  O2-  O235  1  0.70797410  0.33123919  0.40141470  1
  O2-  O236  1  0.69702941  0.33017982  0.72934437  1
  O2-  O237  1  0.71379713  0.83758486  0.06113809  1
  O2-  O238  1  0.71336870  0.83307723  0.40099582  1
  O2-  O239  1  0.70943488  0.83446812  0.73970700  1
  O2-  O240  1  0.46079613  0.42131455  0.26527242  1
  O2-  O241  1  0.45962004  0.41822161  0.59769851  1
  O2-  O242  1  0.46230339  0.41339337  0.93018798  1
  O2-  O243  1  0.46313071  0.91495425  0.26573019  1
  O2-  O244  1  0.46178923  0.91368303  0.60688198  1
  O2-  O245  1  0.45786087  0.91575384  0.93545393  1
  O2-  O246  1  0.95365944  0.42294354  0.26619604  1
  O2-  O247  1  0.94620393  0.41757143  0.60877990  1
  O2-  O248  1  0.94927827  0.41806351  0.94104861  1
  O2-  O249  1  0.95519907  0.91617489  0.26543234  1
  O2-  O250  1  0.94646844  0.91573250  0.60575724  1
  O2-  O251  1  0.95726502  0.91850295  0.92733615  1
  O2-  O252  1  0.33136696  0.29372459  0.26527860  1
  O2-  O253  1  0.33669919  0.28583437  0.59743714  1
  O2-  O254  1  0.33228030  0.28410139  0.93259548  1
  O2-  O255  1  0.33305469  0.79368761  0.26343859  1
  O2-  O256  1  0.33658274  0.79908657  0.60664484  1
  O2-  O257  1  0.32879605  0.80649361  0.94207620  1
  O2-  O258  1  0.83135964  0.29385184  0.26565033  1
  O2-  O259  1  0.83106583  0.29547571  0.60777136  1
  O2-  O260  1  0.83719681  0.29116189  0.93175435  1
  O2-  O261  1  0.83519035  0.78459584  0.26476105  1
  O2-  O262  1  0.83212922  0.79090198  0.60740954  1
  O2-  O263  1  0.83512578  0.78781479  0.92811147  1
  O2-  O264  1  0.41933291  0.04281878  0.06613088  1
  O2-  O265  1  0.41796479  0.03800263  0.40419993  1
  O2-  O266  1  0.40867674  0.03942663  0.73339644  1
  O2-  O267  1  0.42512022  0.54566770  0.06523927  1
  O2-  O268  1  0.41881542  0.55116692  0.39492386  1
  O2-  O269  1  0.42363324  0.54850472  0.72908003  1
  O2-  O270  1  0.91260453  0.04190620  0.06192962  1
  O2-  O271  1  0.91621986  0.04506733  0.39496723  1
  O2-  O272  1  0.91667700  0.04415199  0.73349135  1
  O2-  O273  1  0.91190816  0.54978895  0.06415254  1
  O2-  O274  1  0.91717498  0.55210739  0.39268791  1
  O2-  O275  1  0.91500311  0.54071309  0.73910703  1
  O2-  O276  1  0.28602972  0.16268973  0.06922738  1
  O2-  O277  1  0.29380624  0.16967808  0.40255837  1
  O2-  O278  1  0.29000595  0.16105574  0.72802547  1
  O2-  O279  1  0.29871555  0.67260412  0.06747026  1
  O2-  O280  1  0.29897349  0.66767235  0.39310581  1
  O2-  O281  1  0.29430357  0.67233691  0.73514855  1
  O2-  O282  1  0.79639897  0.16510108  0.06134024  1
  O2-  O283  1  0.80050703  0.16623824  0.39647979  1
  O2-  O284  1  0.79867048  0.16483872  0.73348188  1
  O2-  O285  1  0.78726037  0.66425567  0.06108404  1
  O2-  O286  1  0.79083648  0.66235008  0.39843505  1
  O2-  O287  1  0.78585084  0.66342575  0.73797288  1
