# generated using pymatgen
data_Ca2Al2SiO7
_symmetry_space_group_name_H-M   'P 1'
_cell_length_a   15.46696347
_cell_length_b   15.46605909
_cell_length_c   15.29024507
_cell_angle_alpha   89.99065182
_cell_angle_beta   89.98776171
_cell_angle_gamma   90.01713131
_symmetry_Int_Tables_number   1
_chemical_formula_structural   Ca2Al2SiO7
_chemical_formula_sum   'Ca48 Al48 Si24 O168'
_cell_volume   3657.62465322
_cell_formula_units_Z   24
loop_
 _symmetry_equiv_pos_site_id
 _symmetry_equiv_pos_as_xyz
  1  'x, y, z'
loop_
 _atom_type_symbol
 _atom_type_oxidation_number
  Ca2+  2.0
  Al0+  0.0
  Si0+  0.0
  O2-  -2.0
loop_
 _atom_site_type_symbol
 _atom_site_label
 _atom_site_symmetry_multiplicity
 _atom_site_fract_x
 _atom_site_fract_y
 _atom_site_fract_z
 _atom_site_occupancy
  Ca2+  Ca0  1  0.16490546  0.08800547  0.16431478  1
  Ca2+  Ca1  1  0.16837207  0.08295638  0.51018385  1
  Ca2+  Ca2  1  0.16920512  0.08195412  0.84145318  1
  Ca2+  Ca3  1  0.15568779  0.57460026  0.16340811  1
  Ca2+  Ca4  1  0.17187506  0.58045444  0.50928632  1
  Ca2+  Ca5  1  0.16787407  0.57741892  0.83897695  1
  Ca2+  Ca6  1  0.67679616  0.07593288  0.17663740  1
  Ca2+  Ca7  1  0.67579786  0.08229512  0.51004542  1
  Ca2+  Ca8  1  0.67061698  0.08619140  0.82822475  1
  Ca2+  Ca9  1  0.68009288  0.58265563  0.17074060  1
  Ca2+  Ca10  1  0.67910819  0.57324581  0.50942583  1
  Ca2+  Ca11  1  0.67741692  0.57891645  0.83264036  1
  Ca2+  Ca12  1  0.08038073  0.32370218  0.16233235  1
  Ca2+  Ca13  1  0.07269785  0.32080264  0.49804881  1
  Ca2+  Ca14  1  0.08410965  0.32325470  0.82823552  1
  Ca2+  Ca15  1  0.07489521  0.82677938  0.15246131  1
  Ca2+  Ca16  1  0.08350041  0.83445405  0.50044360  1
  Ca2+  Ca17  1  0.08692955  0.83230840  0.83280774  1
  Ca2+  Ca18  1  0.57492841  0.33260815  0.16074910  1
  Ca2+  Ca19  1  0.58963592  0.32943128  0.50551679  1
  Ca2+  Ca20  1  0.57767148  0.33160945  0.82472570  1
  Ca2+  Ca21  1  0.58642375  0.83444587  0.16256441  1
  Ca2+  Ca22  1  0.58035259  0.84555706  0.50104717  1
  Ca2+  Ca23  1  0.57658915  0.83540628  0.82194479  1
  Ca2+  Ca24  1  0.32493845  0.40730736  0.16343601  1
  Ca2+  Ca25  1  0.33211332  0.42545841  0.50775559  1
  Ca2+  Ca26  1  0.33021360  0.41802818  0.84128046  1
  Ca2+  Ca27  1  0.32421873  0.92081993  0.16378077  1
  Ca2+  Ca28  1  0.32589074  0.92128882  0.51404601  1
  Ca2+  Ca29  1  0.32293422  0.92542404  0.83175701  1
  Ca2+  Ca30  1  0.84776082  0.42930243  0.17021371  1
  Ca2+  Ca31  1  0.83965718  0.42089304  0.50965428  1
  Ca2+  Ca32  1  0.83666338  0.42059765  0.83278657  1
  Ca2+  Ca33  1  0.83235955  0.91933090  0.17349760  1
  Ca2+  Ca34  1  0.82388245  0.92951580  0.50544394  1
  Ca2+  Ca35  1  0.83365114  0.91957733  0.83313134  1
  Ca2+  Ca36  1  0.41746757  0.16967257  0.15627924  1
  Ca2+  Ca37  1  0.42493068  0.15562423  0.50370708  1
  Ca2+  Ca38  1  0.41712043  0.16430567  0.82749737  1
  Ca2+  Ca39  1  0.42239915  0.66962974  0.16030478  1
  Ca2+  Ca40  1  0.41505837  0.67349153  0.50140180  1
  Ca2+  Ca41  1  0.41344199  0.67345874  0.82138686  1
  Ca2+  Ca42  1  0.92587032  0.16349542  0.16374741  1
  Ca2+  Ca43  1  0.91662222  0.17138535  0.49483653  1
  Ca2+  Ca44  1  0.92825589  0.16824398  0.82062282  1
  Ca2+  Ca45  1  0.91488940  0.67166091  0.15515907  1
  Ca2+  Ca46  1  0.91009189  0.66465998  0.49828849  1
  Ca2+  Ca47  1  0.91542594  0.66826997  0.83404337  1
  Al0+  Al48  1  -0.00088030  -0.00132096  -0.00383283  1
  Al0+  Al49  1  0.00043230  -0.00216754  0.33271401  1
  Al0+  Al50  1  -0.00082753  -0.00467156  0.66763914  1
  Al0+  Al51  1  0.00101985  0.50096609  0.00433505  1
  Al0+  Al52  1  0.00299772  0.49849040  0.33701889  1
  Al0+  Al53  1  0.00236259  0.50097968  0.66682273  1
  Al0+  Al54  1  0.50058784  -0.00038870  0.00423663  1
  Al0+  Al55  1  0.49609121  -0.00053278  0.33073766  1
  Al0+  Al56  1  0.49756147  0.00001772  0.66478641  1
  Al0+  Al57  1  0.50159137  0.49965809  -0.00306713  1
  Al0+  Al58  1  0.50040266  0.50234922  0.33135253  1
  Al0+  Al59  1  0.50219537  0.50229821  0.67175924  1
  Al0+  Al60  1  0.25140883  0.25212345  0.00019897  1
  Al0+  Al61  1  0.24969777  0.25029522  0.33299144  1
  Al0+  Al62  1  0.25066900  0.25166652  0.66304677  1
  Al0+  Al63  1  0.25097185  0.75072491  0.00116329  1
  Al0+  Al64  1  0.25138967  0.75075327  0.33019067  1
  Al0+  Al65  1  0.25117621  0.75049564  0.66789512  1
  Al0+  Al66  1  0.74846701  0.24938726  0.00298665  1
  Al0+  Al67  1  0.74853509  0.25317718  0.32814103  1
  Al0+  Al68  1  0.74843412  0.25142978  0.66774327  1
  Al0+  Al69  1  0.74950282  0.74925823  -0.00098268  1
  Al0+  Al70  1  0.74780895  0.74783308  0.34125590  1
  Al0+  Al71  1  0.74981241  0.74834684  0.67166204  1
  Al0+  Al72  1  0.32113887  0.57106698  0.67897962  1
  Al0+  Al73  1  0.82216682  0.07274702  0.34701299  1
  Al0+  Al74  1  0.18020589  0.42984055  0.01392002  1
  Al0+  Al75  1  0.92692307  0.82090459  0.98355057  1
  Al0+  Al76  1  0.67665805  0.92901242  0.34806833  1
  Al0+  Al77  1  0.67967929  0.42725766  0.68269176  1
  Al0+  Al78  1  0.42997644  0.81953392  0.65242821  1
  Al0+  Al79  1  0.07262745  0.17489023  0.65215994  1
  Al0+  Al80  1  0.67797078  0.93031620  0.68218157  1
  Al0+  Al81  1  0.17686743  0.92827077  0.68031634  1
  Al0+  Al82  1  0.82181337  0.07240185  0.68180164  1
  Al0+  Al83  1  0.43056823  0.32018314  0.98603360  1
  Al0+  Al84  1  0.81868623  0.56901083  0.01456908  1
  Al0+  Al85  1  0.17676474  0.92855262  0.01680141  1
  Al0+  Al86  1  0.31924825  0.07337594  0.67987319  1
  Al0+  Al87  1  0.32071854  0.07114247  0.01602767  1
  Al0+  Al88  1  0.07201890  0.67761770  0.98436447  1
  Al0+  Al89  1  0.06953596  0.18033419  0.98581297  1
  Al0+  Al90  1  0.56863828  0.18005880  0.65364109  1
  Al0+  Al91  1  0.82484414  0.57076865  0.68424616  1
  Al0+  Al92  1  0.07106709  0.17695035  0.31694890  1
  Al0+  Al93  1  0.92743528  0.32283064  0.31698362  1
  Al0+  Al94  1  0.82231682  0.56783335  0.34751742  1
  Al0+  Al95  1  0.92984239  0.32106931  0.65382084  1
  Si0+  Si96  1  0.57280435  0.17590917  0.98408741  1
  Si0+  Si97  1  0.92801718  0.81706385  0.32151586  1
  Si0+  Si98  1  0.57125468  0.67950907  0.98413529  1
  Si0+  Si99  1  0.56960096  0.17764717  0.31743436  1
  Si0+  Si100  1  0.07113961  0.68070380  0.65139185  1
  Si0+  Si101  1  0.42968518  0.32314381  0.31947405  1
  Si0+  Si102  1  0.57374026  0.67755625  0.64824833  1
  Si0+  Si103  1  0.32227331  0.57271549  0.34685064  1
  Si0+  Si104  1  0.07411786  0.67936163  0.31976628  1
  Si0+  Si105  1  0.32492539  0.57285060  0.01750512  1
  Si0+  Si106  1  0.31891553  0.07225278  0.34804439  1
  Si0+  Si107  1  0.67647585  0.42663923  0.01887087  1
  Si0+  Si108  1  0.67957765  0.92928888  0.01411987  1
  Si0+  Si109  1  0.18142936  0.42877048  0.35049009  1
  Si0+  Si110  1  0.82165438  0.07225460  0.01442901  1
  Si0+  Si111  1  0.18032647  0.92651090  0.34715446  1
  Si0+  Si112  1  0.67314901  0.42929979  0.34867012  1
  Si0+  Si113  1  0.56988647  0.67974370  0.31794119  1
  Si0+  Si114  1  0.18004589  0.42911302  0.68242924  1
  Si0+  Si115  1  0.92517322  0.81947608  0.64908508  1
  Si0+  Si116  1  0.42778382  0.32611948  0.64916014  1
  Si0+  Si117  1  0.43011655  0.82154481  0.98484152  1
  Si0+  Si118  1  0.92640104  0.32261905  0.98467085  1
  Si0+  Si119  1  0.42753747  0.82164638  0.31469871  1
  O2-  O120  1  0.24623104  0.00262950  0.06833471  1
  O2-  O121  1  0.24603515  0.00263518  0.38830088  1
  O2-  O122  1  0.23968420  0.00927463  0.72849155  1
  O2-  O123  1  0.25464425  0.50614795  0.06248599  1
  O2-  O124  1  0.25157860  0.50238815  0.39003340  1
  O2-  O125  1  0.25253184  0.49310637  0.72716765  1
  O2-  O126  1  0.75086876  -0.00015169  0.05580611  1
  O2-  O127  1  0.74568253  0.00445479  0.39586047  1
  O2-  O128  1  0.75073085  -0.00013333  0.73369853  1
  O2-  O129  1  0.74826810  0.49128601  0.06404814  1
  O2-  O130  1  0.75067834  0.48870581  0.39082306  1
  O2-  O131  1  0.75443752  0.49635408  0.73198220  1
  O2-  O132  1  -0.00480024  0.24606259  0.26776883  1
  O2-  O133  1  -0.00381173  0.24353142  0.60352694  1
  O2-  O134  1  -0.00804497  0.25210623  0.93994823  1
  O2-  O135  1  -0.00127246  0.74587906  0.27864482  1
  O2-  O136  1  -0.00186428  0.74899143  0.60786551  1
  O2-  O137  1  0.00205423  0.75122922  0.93437382  1
  O2-  O138  1  0.49984444  0.25115953  0.27712026  1
  O2-  O139  1  0.49371024  0.25479233  0.60470595  1
  O2-  O140  1  0.50501754  0.24551885  0.94091237  1
  O2-  O141  1  0.50246449  0.75386612  0.27371181  1
  O2-  O142  1  0.50686958  0.74779425  0.60294046  1
  O2-  O143  1  0.49684585  0.74673781  0.94285553  1
  O2-  O144  1  0.06766466  0.18153575  0.09914321  1
  O2-  O145  1  0.07575226  0.17921065  0.42978233  1
  O2-  O146  1  0.07439303  0.17959028  0.76570491  1
  O2-  O147  1  0.06779827  0.67782826  0.09908358  1
  O2-  O148  1  0.07994398  0.68225327  0.42477239  1
  O2-  O149  1  0.07314458  0.68030846  0.75579065  1
  O2-  O150  1  0.57226710  0.17625773  0.09036140  1
  O2-  O151  1  0.56788020  0.17532520  0.42209425  1
  O2-  O152  1  0.56597457  0.18035930  0.76660629  1
  O2-  O153  1  0.57134303  0.68170730  0.09012968  1
  O2-  O154  1  0.56536738  0.67579232  0.42202621  1
  O2-  O155  1  0.57127447  0.67822856  0.75402476  1
  O2-  O156  1  0.18240800  0.42873115  0.24536211  1
  O2-  O157  1  0.18101491  0.43344305  0.57625422  1
  O2-  O158  1  0.18292267  0.43070231  0.90125925  1
  O2-  O159  1  0.18387953  0.92099690  0.24272034  1
  O2-  O160  1  0.18171752  0.92415735  0.56570861  1
  O2-  O161  1  0.18082296  0.92785242  0.90414596  1
  O2-  O162  1  0.66306419  0.43625688  0.24366206  1
  O2-  O163  1  0.67729001  0.43085212  0.56861205  1
  O2-  O164  1  0.67438442  0.42797525  0.91411877  1
  O2-  O165  1  0.67867846  0.92838942  0.23362477  1
  O2-  O166  1  0.67975499  0.93321440  0.56855709  1
  O2-  O167  1  0.67622805  0.92931000  0.90983264  1
  O2-  O168  1  0.43288700  0.31988140  0.10032099  1
  O2-  O169  1  0.42976089  0.32675248  0.42398942  1
  O2-  O170  1  0.42881379  0.32795761  0.75441196  1
  O2-  O171  1  0.43337325  0.82041455  0.09080899  1
  O2-  O172  1  0.42321406  0.82019633  0.41917643  1
  O2-  O173  1  0.43034617  0.81660229  0.76555001  1
  O2-  O174  1  0.92812621  0.32143976  0.09044440  1
  O2-  O175  1  0.93170157  0.32533683  0.43004649  1
  O2-  O176  1  0.93491684  0.32328887  0.76756303  1
  O2-  O177  1  0.92361946  0.81798780  0.09843269  1
  O2-  O178  1  0.93002506  0.81613827  0.42647136  1
  O2-  O179  1  0.92285619  0.81817616  0.75361854  1
  O2-  O180  1  0.32178841  0.07201583  0.24316782  1
  O2-  O181  1  0.32092072  0.06853240  0.56529514  1
  O2-  O182  1  0.32385181  0.06857655  0.90341466  1
  O2-  O183  1  0.32402229  0.57359228  0.24208012  1
  O2-  O184  1  0.31804036  0.57113884  0.56481522  1
  O2-  O185  1  0.32668311  0.57153290  0.91227813  1
  O2-  O186  1  0.82163316  0.06677624  0.23267940  1
  O2-  O187  1  0.82017203  0.07173387  0.56804189  1
  O2-  O188  1  0.81919036  0.07523606  0.91005637  1
  O2-  O189  1  0.81990685  0.57159788  0.23429133  1
  O2-  O190  1  0.82307678  0.56979604  0.57018327  1
  O2-  O191  1  0.81642760  0.56971592  0.90252726  1
  O2-  O192  1  0.04695804  0.07612051  0.26513914  1
  O2-  O193  1  0.05008822  0.07343212  0.60280136  1
  O2-  O194  1  0.04246926  0.08272665  0.93383062  1
  O2-  O195  1  0.05045089  0.58521297  0.27632602  1
  O2-  O196  1  0.04631930  0.58859538  0.60227791  1
  O2-  O197  1  0.04329745  0.57886362  0.93318959  1
  O2-  O198  1  0.53831147  0.08723937  0.26803161  1
  O2-  O199  1  0.53609302  0.08508533  0.59675024  1
  O2-  O200  1  0.54639845  0.08221453  0.93955790  1
  O2-  O201  1  0.53798711  0.59068166  0.26626637  1
  O2-  O202  1  0.54502098  0.58482595  0.60182823  1
  O2-  O203  1  0.54782967  0.58657496  0.93810222  1
  O2-  O204  1  0.16939831  0.21119689  0.26457561  1
  O2-  O205  1  0.16989234  0.20772673  0.59733588  1
  O2-  O206  1  0.16615726  0.21391546  0.93522545  1
  O2-  O207  1  0.16395527  0.70936627  0.26920686  1
  O2-  O208  1  0.16170479  0.71117379  0.60200283  1
  O2-  O209  1  0.17317095  0.70231428  0.93518422  1
  O2-  O210  1  0.66102032  0.20266276  0.26772697  1
  O2-  O211  1  0.66435224  0.21161808  0.59808760  1
  O2-  O212  1  0.66709147  0.20049497  0.93943036  1
  O2-  O213  1  0.66279475  0.70642675  0.27144457  1
  O2-  O214  1  0.66847676  0.70052744  0.60372351  1
  O2-  O215  1  0.66050823  0.71087440  0.93587950  1
  O2-  O216  1  0.08507486  0.46057819  0.07172898  1
  O2-  O217  1  0.09140779  0.45719620  0.39976602  1
  O2-  O218  1  0.08957184  0.46021203  0.72958007  1
  O2-  O219  1  0.07613533  0.95310509  0.06747593  1
  O2-  O220  1  0.08630436  0.94713551  0.39236286  1
  O2-  O221  1  0.07509321  0.93991369  0.72984478  1
  O2-  O222  1  0.58413266  0.45760401  0.06586907  1
  O2-  O223  1  0.58372358  0.46366559  0.39881987  1
  O2-  O224  1  0.58315403  0.46002764  0.73734730  1
  O2-  O225  1  0.58912201  0.95663317  0.06539649  1
  O2-  O226  1  0.57483761  0.95385540  0.39528775  1
  O2-  O227  1  0.57933039  0.95892541  0.73303099  1
  O2-  O228  1  0.21487402  0.33609816  0.07129409  1
  O2-  O229  1  0.21295800  0.33860677  0.39822093  1
  O2-  O230  1  0.20198319  0.33447396  0.72617163  1
  O2-  O231  1  0.20927528  0.83040269  0.07062660  1
  O2-  O232  1  0.21405421  0.83668861  0.39600132  1
  O2-  O233  1  0.21629834  0.83441804  0.73433768  1
  O2-  O234  1  0.69577533  0.33108025  0.06452485  1
  O2-  O235  1  0.68851213  0.33150281  0.38804893  1
  O2-  O236  1  0.70122709  0.32896604  0.73704867  1
  O2-  O237  1  0.70665712  0.83729693  0.06212036  1
  O2-  O238  1  0.70323892  0.83126653  0.40184988  1
  O2-  O239  1  0.70247534  0.83040101  0.73283945  1
  O2-  O240  1  0.45742300  0.41449495  0.26996313  1
  O2-  O241  1  0.45747272  0.41929117  0.60293240  1
  O2-  O242  1  0.46034993  0.41733443  0.93235914  1
  O2-  O243  1  0.45163268  0.91385777  0.26587582  1
  O2-  O244  1  0.45859509  0.91542085  0.59602443  1
  O2-  O245  1  0.46307452  0.91204172  0.93945200  1
  O2-  O246  1  0.96588855  0.41985385  0.26484265  1
  O2-  O247  1  0.96419436  0.41839486  0.59991466  1
  O2-  O248  1  0.95362123  0.41641226  0.94182936  1
  O2-  O249  1  0.95536633  0.90828646  0.27287124  1
  O2-  O250  1  0.95198705  0.91061601  0.59991793  1
  O2-  O251  1  0.95104947  0.91953650  0.93093999  1
  O2-  O252  1  0.33816355  0.29424802  0.27207745  1
  O2-  O253  1  0.33351508  0.30587227  0.60212218  1
  O2-  O254  1  0.33413226  0.29297076  0.93228087  1
  O2-  O255  1  0.33866232  0.78769856  0.26437132  1
  O2-  O256  1  0.33525391  0.78333316  0.59624303  1
  O2-  O257  1  0.33732357  0.79732772  0.93952702  1
  O2-  O258  1  0.82523945  0.30774311  0.26504217  1
  O2-  O259  1  0.82882903  0.30062399  0.60341930  1
  O2-  O260  1  0.83006275  0.30090875  0.94269830  1
  O2-  O261  1  0.83504965  0.78921701  0.27586416  1
  O2-  O262  1  0.83432707  0.78847552  0.60114736  1
  O2-  O263  1  0.82956063  0.78876287  0.93065851  1
  O2-  O264  1  0.41855742  0.03895374  0.07128148  1
  O2-  O265  1  0.41008024  0.04106000  0.39443066  1
  O2-  O266  1  0.41452161  0.03778504  0.73270961  1
  O2-  O267  1  0.41882659  0.54558883  0.06361959  1
  O2-  O268  1  0.41360830  0.54426092  0.39453071  1
  O2-  O269  1  0.41881794  0.54834562  0.73270376  1
  O2-  O270  1  0.91265350  0.04332192  0.06156880  1
  O2-  O271  1  0.91970902  0.04055501  0.39911440  1
  O2-  O272  1  0.91943994  0.04173256  0.73363919  1
  O2-  O273  1  0.91626865  0.54284478  0.06929792  1
  O2-  O274  1  0.92094849  0.54339520  0.40080052  1
  O2-  O275  1  0.92438195  0.54547558  0.73524818  1
  O2-  O276  1  0.29543043  0.17070603  0.06812310  1
  O2-  O277  1  0.29546208  0.16491870  0.39527724  1
  O2-  O278  1  0.30277575  0.17602763  0.72795717  1
  O2-  O279  1  0.30329573  0.66741471  0.06329301  1
  O2-  O280  1  0.29368274  0.66472762  0.39377619  1
  O2-  O281  1  0.28655700  0.66479313  0.73390458  1
  O2-  O282  1  0.79320707  0.16301211  0.06494287  1
  O2-  O283  1  0.79585180  0.17433412  0.39360966  1
  O2-  O284  1  0.79229093  0.16970875  0.73455484  1
  O2-  O285  1  0.78256341  0.66492525  0.06863392  1
  O2-  O286  1  0.78714425  0.66186124  0.40335605  1
  O2-  O287  1  0.79260794  0.66723492  0.73744957  1
