# generated using pymatgen
data_Ca2Al2SiO7
_symmetry_space_group_name_H-M   'P 1'
_cell_length_a   15.45961805
_cell_length_b   15.46063820
_cell_length_c   15.28603408
_cell_angle_alpha   90.00500655
_cell_angle_beta   89.99469472
_cell_angle_gamma   89.99492729
_symmetry_Int_Tables_number   1
_chemical_formula_structural   Ca2Al2SiO7
_chemical_formula_sum   'Ca48 Al48 Si24 O168'
_cell_volume   3653.59997412
_cell_formula_units_Z   24
loop_
 _symmetry_equiv_pos_site_id
 _symmetry_equiv_pos_as_xyz
  1  'x, y, z'
loop_
 _atom_type_symbol
 _atom_type_oxidation_number
  Ca2+  2.0
  Al0+  0.0
  Si0+  0.0
  O2-  -2.0
loop_
 _atom_site_type_symbol
 _atom_site_label
 _atom_site_symmetry_multiplicity
 _atom_site_fract_x
 _atom_site_fract_y
 _atom_site_fract_z
 _atom_site_occupancy
  Ca2+  Ca0  1  0.16880111  0.08947425  0.17566704  1
  Ca2+  Ca1  1  0.17792150  0.09231651  0.49947930  1
  Ca2+  Ca2  1  0.17145108  0.08985060  0.83560109  1
  Ca2+  Ca3  1  0.16869028  0.58107434  0.17587683  1
  Ca2+  Ca4  1  0.16831990  0.57348236  0.50379935  1
  Ca2+  Ca5  1  0.17792572  0.57814922  0.83469267  1
  Ca2+  Ca6  1  0.66600141  0.07789855  0.17959040  1
  Ca2+  Ca7  1  0.65662475  0.07256765  0.49939820  1
  Ca2+  Ca8  1  0.66650617  0.07543827  0.83362463  1
  Ca2+  Ca9  1  0.67784423  0.57196226  0.17143593  1
  Ca2+  Ca10  1  0.67023725  0.58212546  0.49841028  1
  Ca2+  Ca11  1  0.66832917  0.57728866  0.84189577  1
  Ca2+  Ca12  1  0.08494886  0.32786123  0.17192704  1
  Ca2+  Ca13  1  0.07836648  0.33825694  0.49096994  1
  Ca2+  Ca14  1  0.08040273  0.33463008  0.82741372  1
  Ca2+  Ca15  1  0.07165822  0.82748021  0.16495795  1
  Ca2+  Ca16  1  0.07867236  0.82336897  0.48762257  1
  Ca2+  Ca17  1  0.07606836  0.83056465  0.83246926  1
  Ca2+  Ca18  1  0.58535276  0.33815981  0.16888927  1
  Ca2+  Ca19  1  0.56994020  0.33043887  0.48873583  1
  Ca2+  Ca20  1  0.57827800  0.33749216  0.82550051  1
  Ca2+  Ca21  1  0.57889004  0.83634175  0.17022287  1
  Ca2+  Ca22  1  0.58345048  0.83098923  0.49448726  1
  Ca2+  Ca23  1  0.58409184  0.82299917  0.82379191  1
  Ca2+  Ca24  1  0.32880589  0.42089016  0.17448267  1
  Ca2+  Ca25  1  0.32288809  0.40986475  0.50548081  1
  Ca2+  Ca26  1  0.33508412  0.42424408  0.83252537  1
  Ca2+  Ca27  1  0.33259332  0.92374081  0.17915573  1
  Ca2+  Ca28  1  0.34234483  0.92905957  0.50033875  1
  Ca2+  Ca29  1  0.33223826  0.92468820  0.83395653  1
  Ca2+  Ca30  1  0.82940038  0.42187627  0.17936267  1
  Ca2+  Ca31  1  0.83540938  0.41525316  0.49983805  1
  Ca2+  Ca32  1  0.82746553  0.42089038  0.84186258  1
  Ca2+  Ca33  1  0.83164470  0.91317087  0.17549923  1
  Ca2+  Ca34  1  0.82314350  0.91179044  0.50044989  1
  Ca2+  Ca35  1  0.82871735  0.91305283  0.83740038  1
  Ca2+  Ca36  1  0.41907476  0.17227354  0.17382747  1
  Ca2+  Ca37  1  0.41451159  0.17314124  0.49095825  1
  Ca2+  Ca38  1  0.41719318  0.17481413  0.82421816  1
  Ca2+  Ca39  1  0.41225421  0.67175759  0.16296175  1
  Ca2+  Ca40  1  0.42166569  0.66792851  0.49536179  1
  Ca2+  Ca41  1  0.42143811  0.65907840  0.82416156  1
  Ca2+  Ca42  1  0.92723809  0.16971146  0.16463424  1
  Ca2+  Ca43  1  0.92398935  0.17964272  0.49101139  1
  Ca2+  Ca44  1  0.92438578  0.17465800  0.82755524  1
  Ca2+  Ca45  1  0.91059029  0.66948533  0.16922662  1
  Ca2+  Ca46  1  0.92240423  0.66829802  0.48689148  1
  Ca2+  Ca47  1  0.90799639  0.66978462  0.83298811  1
  Al0+  Al48  1  -0.00017834  -0.00099254  -0.01090791  1
  Al0+  Al49  1  0.00025917  -0.00095907  0.32914719  1
  Al0+  Al50  1  -0.00113289  0.00048217  0.66607733  1
  Al0+  Al51  1  0.00206160  0.50101439  0.00244707  1
  Al0+  Al52  1  0.00184396  0.50068939  0.33184348  1
  Al0+  Al53  1  -0.00034269  0.50126939  0.66979482  1
  Al0+  Al54  1  0.49870458  0.00113036  -0.00209934  1
  Al0+  Al55  1  0.49988568  -0.00003695  0.33310055  1
  Al0+  Al56  1  0.50034924  -0.00179701  0.67946831  1
  Al0+  Al57  1  0.49880246  0.50091258  0.00840607  1
  Al0+  Al58  1  0.50175205  0.50125453  0.33151509  1
  Al0+  Al59  1  0.50123227  0.49951153  0.65833434  1
  Al0+  Al60  1  0.25248021  0.25024704  -0.00475944  1
  Al0+  Al61  1  0.25184309  0.25197657  0.33302180  1
  Al0+  Al62  1  0.24963736  0.24922582  0.67411576  1
  Al0+  Al63  1  0.24816380  0.75324418  0.00088973  1
  Al0+  Al64  1  0.25039281  0.75150392  0.32610665  1
  Al0+  Al65  1  0.24977525  0.75201499  0.67025138  1
  Al0+  Al66  1  0.74919324  0.24600277  0.00110917  1
  Al0+  Al67  1  0.74939062  0.24910803  0.33154201  1
  Al0+  Al68  1  0.75166148  0.24805302  0.66363299  1
  Al0+  Al69  1  0.74723369  0.74912709  -0.00026135  1
  Al0+  Al70  1  0.74905779  0.74933167  0.33753700  1
  Al0+  Al71  1  0.74774036  0.74965989  0.66645094  1
  Al0+  Al72  1  0.68005675  0.93029527  0.34637754  1
  Al0+  Al73  1  0.42926737  0.31967804  0.65354532  1
  Al0+  Al74  1  0.57030883  0.17846793  0.32005547  1
  Al0+  Al75  1  0.82085830  0.56912399  0.35038056  1
  Al0+  Al76  1  0.92669459  0.82037854  0.32010365  1
  Al0+  Al77  1  0.31900042  0.06978333  0.34532289  1
  Al0+  Al78  1  0.43065048  0.82073429  0.32115475  1
  Al0+  Al79  1  0.07207211  0.67754660  0.31840825  1
  Al0+  Al80  1  0.17713197  0.42924385  0.68334321  1
  Al0+  Al81  1  0.31960146  0.57244467  0.01444893  1
  Al0+  Al82  1  0.32325868  0.57181972  0.67835730  1
  Al0+  Al83  1  0.92769242  0.81728855  0.98438169  1
  Al0+  Al84  1  0.67907612  0.42586338  0.01403633  1
  Al0+  Al85  1  0.18215071  0.43099843  0.34562888  1
  Al0+  Al86  1  0.92828641  0.32220872  0.31789137  1
  Al0+  Al87  1  0.57096267  0.67826874  0.65220968  1
  Al0+  Al88  1  0.92935987  0.32264394  0.65410917  1
  Al0+  Al89  1  0.68081795  0.92870168  0.68268202  1
  Al0+  Al90  1  0.42867567  0.32355522  0.31712290  1
  Al0+  Al91  1  0.67797945  0.42573891  0.35197603  1
  Al0+  Al92  1  0.82198103  0.57181101  0.01479400  1
  Al0+  Al93  1  0.31943251  0.07010248  0.68214866  1
  Al0+  Al94  1  0.07261533  0.17966243  0.32095427  1
  Al0+  Al95  1  0.07155559  0.18052743  0.98393095  1
  Si0+  Si96  1  0.17963199  0.42635481  0.01705522  1
  Si0+  Si97  1  0.82231254  0.06830401  0.01356222  1
  Si0+  Si98  1  0.57195667  0.17538371  0.65225516  1
  Si0+  Si99  1  0.82563429  0.07258406  0.34957693  1
  Si0+  Si100  1  0.56592638  0.68085677  0.98625913  1
  Si0+  Si101  1  0.82024596  0.57097532  0.68156789  1
  Si0+  Si102  1  0.57220529  0.17553951  0.98278498  1
  Si0+  Si103  1  0.17733510  0.93132923  0.01496840  1
  Si0+  Si104  1  0.82371724  0.07241764  0.68462177  1
  Si0+  Si105  1  0.17410635  0.92698089  0.68448117  1
  Si0+  Si106  1  0.42660518  0.82407405  0.98285340  1
  Si0+  Si107  1  0.07216601  0.17767195  0.65005904  1
  Si0+  Si108  1  0.92665647  0.32248734  0.98450524  1
  Si0+  Si109  1  0.67821191  0.92976764  0.01525048  1
  Si0+  Si110  1  0.43265837  0.32103446  0.98440097  1
  Si0+  Si111  1  0.07509174  0.67716797  0.98061296  1
  Si0+  Si112  1  0.17641227  0.92661073  0.34843287  1
  Si0+  Si113  1  0.92760161  0.82068158  0.65177666  1
  Si0+  Si114  1  0.67985446  0.42719714  0.67859028  1
  Si0+  Si115  1  0.32335468  0.57638175  0.34886742  1
  Si0+  Si116  1  0.32068844  0.07131453  0.01659743  1
  Si0+  Si117  1  0.07134441  0.68077394  0.65392515  1
  Si0+  Si118  1  0.57287736  0.67804276  0.31387054  1
  Si0+  Si119  1  0.42767358  0.82345190  0.65259120  1
  O2-  O120  1  0.24825436  0.00187606  0.05805486  1
  O2-  O121  1  0.24324248  -0.00351861  0.39336978  1
  O2-  O122  1  0.24238697  -0.00320502  0.72858087  1
  O2-  O123  1  0.24259929  0.50058281  0.06045544  1
  O2-  O124  1  0.25737613  0.50551346  0.39251380  1
  O2-  O125  1  0.25266644  0.49955731  0.73083164  1
  O2-  O126  1  0.74949645  -0.00010855  0.05711325  1
  O2-  O127  1  0.75544942  0.00450115  0.39328162  1
  O2-  O128  1  0.75588199  0.00283945  0.72995184  1
  O2-  O129  1  0.75873830  0.49065293  0.06196056  1
  O2-  O130  1  0.75175338  0.49557659  0.40276755  1
  O2-  O131  1  0.75093646  0.49748465  0.72251145  1
  O2-  O132  1  -0.00186970  0.24755502  0.26884004  1
  O2-  O133  1  0.00582249  0.24914259  0.60838320  1
  O2-  O134  1  -0.00189028  0.25731019  0.93840167  1
  O2-  O135  1  -0.00165496  0.74870102  0.26952050  1
  O2-  O136  1  0.00134801  0.75268380  0.61132646  1
  O2-  O137  1  -0.00023709  0.73972269  0.93658350  1
  O2-  O138  1  0.50528088  0.25560892  0.26741138  1
  O2-  O139  1  0.50334008  0.24346317  0.60881495  1
  O2-  O140  1  0.50651918  0.25220034  0.94199291  1
  O2-  O141  1  0.50048909  0.74366368  0.27032171  1
  O2-  O142  1  0.49263164  0.75139512  0.60911361  1
  O2-  O143  1  0.49385318  0.74973963  0.94085024  1
  O2-  O144  1  0.07135147  0.17870607  0.09629300  1
  O2-  O145  1  0.07280602  0.18095393  0.43453401  1
  O2-  O146  1  0.06905791  0.17639889  0.75619362  1
  O2-  O147  1  0.08068149  0.68249338  0.08511229  1
  O2-  O148  1  0.07316526  0.68034407  0.43286675  1
  O2-  O149  1  0.06993415  0.68227603  0.75923282  1
  O2-  O150  1  0.56962163  0.16764496  0.08669477  1
  O2-  O151  1  0.56408504  0.17410808  0.43362921  1
  O2-  O152  1  0.57202295  0.17774722  0.75876385  1
  O2-  O153  1  0.56471806  0.68490297  0.09074199  1
  O2-  O154  1  0.57274099  0.68011180  0.41970654  1
  O2-  O155  1  0.57247345  0.67890237  0.76628392  1
  O2-  O156  1  0.18449866  0.43069166  0.23214024  1
  O2-  O157  1  0.17573312  0.43107879  0.57019155  1
  O2-  O158  1  0.18217204  0.42573467  0.91134377  1
  O2-  O159  1  0.17844610  0.92701639  0.24254403  1
  O2-  O160  1  0.17189028  0.92473799  0.57960861  1
  O2-  O161  1  0.18012855  0.93112743  0.90948157  1
  O2-  O162  1  0.67924977  0.42974821  0.23822197  1
  O2-  O163  1  0.68075846  0.42699714  0.57451383  1
  O2-  O164  1  0.67640861  0.42922687  0.89919942  1
  O2-  O165  1  0.67954932  0.93170384  0.23262865  1
  O2-  O166  1  0.68044446  0.92909956  0.57014898  1
  O2-  O167  1  0.67860839  0.93038038  0.90992984  1
  O2-  O168  1  0.43048163  0.31866622  0.08883031  1
  O2-  O169  1  0.42543323  0.31855570  0.43063466  1
  O2-  O170  1  0.43368900  0.32053419  0.76772071  1
  O2-  O171  1  0.42890463  0.82781041  0.08757902  1
  O2-  O172  1  0.43288056  0.82147559  0.43433687  1
  O2-  O173  1  0.42989162  0.82399463  0.75880043  1
  O2-  O174  1  0.92539468  0.31860565  0.08919937  1
  O2-  O175  1  0.93183277  0.32134962  0.43179987  1
  O2-  O176  1  0.92782881  0.32062485  0.76790763  1
  O2-  O177  1  0.92848899  0.82010911  0.09641398  1
  O2-  O178  1  0.92879624  0.81955935  0.43430026  1
  O2-  O179  1  0.92684051  0.81862896  0.75730436  1
  O2-  O180  1  0.31868024  0.06802349  0.23174669  1
  O2-  O181  1  0.32129832  0.06875290  0.56953601  1
  O2-  O182  1  0.32134233  0.06951746  0.91128603  1
  O2-  O183  1  0.31991477  0.57684295  0.24279922  1
  O2-  O184  1  0.31980732  0.57561321  0.56565580  1
  O2-  O185  1  0.32274887  0.56956219  0.90127586  1
  O2-  O186  1  0.82593738  0.06960575  0.24342102  1
  O2-  O187  1  0.82620700  0.07137233  0.57983140  1
  O2-  O188  1  0.81969481  0.06753843  0.90818855  1
  O2-  O189  1  0.81750683  0.57054926  0.23686537  1
  O2-  O190  1  0.82142947  0.57327389  0.57729370  1
  O2-  O191  1  0.81519671  0.57311829  0.90018147  1
  O2-  O192  1  0.04884994  0.08006850  0.26745231  1
  O2-  O193  1  0.04582579  0.08404783  0.60444540  1
  O2-  O194  1  0.03960206  0.08551092  0.92666610  1
  O2-  O195  1  0.04568711  0.58076447  0.26333667  1
  O2-  O196  1  0.04199190  0.58948897  0.60778089  1
  O2-  O197  1  0.05754454  0.58028961  0.93783915  1
  O2-  O198  1  0.53574481  0.08311986  0.26359659  1
  O2-  O199  1  0.54501812  0.07988747  0.61211118  1
  O2-  O200  1  0.53796252  0.08660021  0.93142457  1
  O2-  O201  1  0.55158816  0.58402829  0.26788645  1
  O2-  O202  1  0.54424852  0.58336653  0.59454929  1
  O2-  O203  1  0.53899763  0.58762422  0.94052480  1
  O2-  O204  1  0.16856347  0.21201323  0.26568826  1
  O2-  O205  1  0.16786760  0.19985414  0.60923246  1
  O2-  O206  1  0.16928837  0.20994705  0.92976024  1
  O2-  O207  1  0.16848805  0.70792164  0.26233194  1
  O2-  O208  1  0.16342700  0.70815122  0.60725848  1
  O2-  O209  1  0.16530033  0.71220227  0.93126287  1
  O2-  O210  1  0.67079577  0.19732239  0.26766974  1
  O2-  O211  1  0.66636766  0.19658707  0.60730872  1
  O2-  O212  1  0.66637485  0.19558896  0.93585037  1
  O2-  O213  1  0.66414476  0.71008250  0.26826090  1
  O2-  O214  1  0.66552533  0.71407320  0.59756392  1
  O2-  O215  1  0.65669344  0.71052666  0.93730872  1
  O2-  O216  1  0.08346593  0.44423500  0.06012824  1
  O2-  O217  1  0.08598032  0.46140370  0.39955846  1
  O2-  O218  1  0.08068392  0.46243020  0.73924820  1
  O2-  O219  1  0.08414624  0.95903568  0.05829630  1
  O2-  O220  1  0.08187348  0.94846415  0.39396131  1
  O2-  O221  1  0.08020120  0.95252629  0.73163358  1
  O2-  O222  1  0.58437595  0.46110568  0.06916645  1
  O2-  O223  1  0.57869658  0.45747013  0.40224211  1
  O2-  O224  1  0.58819499  0.45692221  0.72524991  1
  O2-  O225  1  0.58543000  0.95914793  0.06002433  1
  O2-  O226  1  0.58447876  0.96270888  0.40121446  1
  O2-  O227  1  0.58639804  0.95793670  0.74251939  1
  O2-  O228  1  0.21301372  0.33450976  0.06189961  1
  O2-  O229  1  0.21340790  0.33550157  0.40104859  1
  O2-  O230  1  0.20265097  0.33074701  0.73720301  1
  O2-  O231  1  0.20416114  0.83988376  0.06264305  1
  O2-  O232  1  0.20474386  0.83352441  0.39402130  1
  O2-  O233  1  0.20110933  0.83524057  0.73451619  1
  O2-  O234  1  0.69645281  0.32308657  0.06234528  1
  O2-  O235  1  0.70059835  0.32467718  0.40172051  1
  O2-  O236  1  0.70560271  0.33442972  0.72664943  1
  O2-  O237  1  0.70386565  0.83753947  0.06114969  1
  O2-  O238  1  0.70894095  0.83458349  0.40246664  1
  O2-  O239  1  0.71332326  0.83228602  0.73761598  1
  O2-  O240  1  0.45267081  0.42359919  0.26511661  1
  O2-  O241  1  0.45890733  0.41423238  0.59715267  1
  O2-  O242  1  0.45952295  0.41456131  0.93949579  1
  O2-  O243  1  0.46496503  0.91463852  0.26386356  1
  O2-  O244  1  0.45972409  0.91623305  0.60913221  1
  O2-  O245  1  0.45839727  0.91445072  0.93371914  1
  O2-  O246  1  0.95958531  0.41870254  0.26455393  1
  O2-  O247  1  0.95749333  0.42073978  0.60251667  1
  O2-  O248  1  0.94885733  0.41841276  0.94058530  1
  O2-  O249  1  0.95379217  0.91813634  0.26530965  1
  O2-  O250  1  0.95087236  0.91455147  0.60717611  1
  O2-  O251  1  0.96100747  0.91174778  0.92613703  1
  O2-  O252  1  0.33394391  0.28852677  0.26156395  1
  O2-  O253  1  0.33084176  0.28814733  0.60497479  1
  O2-  O254  1  0.34275223  0.28999308  0.93473968  1
  O2-  O255  1  0.33426237  0.79585487  0.26328673  1
  O2-  O256  1  0.33153666  0.80558517  0.60931325  1
  O2-  O257  1  0.33270237  0.80166601  0.93727867  1
  O2-  O258  1  0.82923253  0.29638285  0.26624304  1
  O2-  O259  1  0.83384231  0.28981067  0.59915220  1
  O2-  O260  1  0.83351954  0.29311583  0.93754808  1
  O2-  O261  1  0.82814471  0.79180075  0.26771171  1
  O2-  O262  1  0.83676944  0.79047175  0.60537686  1
  O2-  O263  1  0.82951781  0.78807976  0.93012796  1
  O2-  O264  1  0.41248971  0.04058681  0.06203261  1
  O2-  O265  1  0.41363551  0.03506683  0.39980466  1
  O2-  O266  1  0.41364206  0.03784916  0.74162175  1
  O2-  O267  1  0.41402782  0.54163364  0.07128571  1
  O2-  O268  1  0.41937722  0.55592055  0.39039812  1
  O2-  O269  1  0.42272570  0.54132228  0.73008485  1
  O2-  O270  1  0.91436445  0.03769661  0.05771857  1
  O2-  O271  1  0.91871164  0.04594856  0.39653055  1
  O2-  O272  1  0.91703488  0.04651035  0.73251496  1
  O2-  O273  1  0.92533556  0.55735449  0.06184675  1
  O2-  O274  1  0.92127692  0.54498014  0.40044634  1
  O2-  O275  1  0.91168005  0.54651289  0.73140703  1
  O2-  O276  1  0.29474004  0.16459056  0.06076432  1
  O2-  O277  1  0.28889674  0.16577117  0.39973097  1
  O2-  O278  1  0.28977948  0.16487412  0.74088769  1
  O2-  O279  1  0.29291003  0.67210368  0.06485395  1
  O2-  O280  1  0.29716637  0.67042406  0.39352375  1
  O2-  O281  1  0.29609984  0.67082328  0.73348264  1
  O2-  O282  1  0.79796679  0.16053398  0.06089121  1
  O2-  O283  1  0.80155708  0.16629706  0.39474773  1
  O2-  O284  1  0.79577805  0.16527243  0.73236372  1
  O2-  O285  1  0.78392372  0.66731237  0.06743052  1
  O2-  O286  1  0.78958781  0.66674768  0.40419509  1
  O2-  O287  1  0.78873882  0.66165690  0.72966003  1
