# generated using pymatgen
data_Ca2Al2SiO7
_symmetry_space_group_name_H-M   'P 1'
_cell_length_a   15.45928399
_cell_length_b   15.45937554
_cell_length_c   15.28543936
_cell_angle_alpha   89.99872119
_cell_angle_beta   89.99422384
_cell_angle_gamma   90.00774746
_symmetry_Int_Tables_number   1
_chemical_formula_structural   Ca2Al2SiO7
_chemical_formula_sum   'Ca48 Al48 Si24 O168'
_cell_volume   3653.08050090
_cell_formula_units_Z   24
loop_
 _symmetry_equiv_pos_site_id
 _symmetry_equiv_pos_as_xyz
  1  'x, y, z'
loop_
 _atom_type_symbol
 _atom_type_oxidation_number
  Ca2+  2.0
  Al0+  0.0
  Si0+  0.0
  O2-  -2.0
loop_
 _atom_site_type_symbol
 _atom_site_label
 _atom_site_symmetry_multiplicity
 _atom_site_fract_x
 _atom_site_fract_y
 _atom_site_fract_z
 _atom_site_occupancy
  Ca2+  Ca0  1  0.17246231  0.08580419  0.17035186  1
  Ca2+  Ca1  1  0.17000381  0.08126069  0.49608264  1
  Ca2+  Ca2  1  0.17333039  0.07782878  0.84510009  1
  Ca2+  Ca3  1  0.17894075  0.57806130  0.16789194  1
  Ca2+  Ca4  1  0.17332311  0.57889055  0.50531950  1
  Ca2+  Ca5  1  0.17474031  0.57020763  0.84092271  1
  Ca2+  Ca6  1  0.66998105  0.07744730  0.16572707  1
  Ca2+  Ca7  1  0.67403124  0.08517879  0.51168985  1
  Ca2+  Ca8  1  0.67296263  0.08731874  0.83861439  1
  Ca2+  Ca9  1  0.66390400  0.58203445  0.17196514  1
  Ca2+  Ca10  1  0.66697580  0.58480489  0.50787176  1
  Ca2+  Ca11  1  0.66502057  0.58239126  0.83028965  1
  Ca2+  Ca12  1  0.08310838  0.32297120  0.15510763  1
  Ca2+  Ca13  1  0.08569062  0.32859616  0.49628918  1
  Ca2+  Ca14  1  0.08638329  0.33145146  0.83337986  1
  Ca2+  Ca15  1  0.08412141  0.84297687  0.16495378  1
  Ca2+  Ca16  1  0.07641154  0.83650595  0.49079667  1
  Ca2+  Ca17  1  0.08667689  0.83390662  0.83245535  1
  Ca2+  Ca18  1  0.57443501  0.32941966  0.15907107  1
  Ca2+  Ca19  1  0.58381257  0.33230298  0.50348182  1
  Ca2+  Ca20  1  0.57106078  0.33090531  0.82427766  1
  Ca2+  Ca21  1  0.57901706  0.82970691  0.16476326  1
  Ca2+  Ca22  1  0.57376230  0.82319416  0.49446271  1
  Ca2+  Ca23  1  0.57870725  0.83122930  0.82504918  1
  Ca2+  Ca24  1  0.33466866  0.42218242  0.16662370  1
  Ca2+  Ca25  1  0.33098705  0.42037437  0.50587986  1
  Ca2+  Ca26  1  0.32897928  0.41358912  0.84079533  1
  Ca2+  Ca27  1  0.32299088  0.92664594  0.17543158  1
  Ca2+  Ca28  1  0.33648247  0.91405128  0.49786939  1
  Ca2+  Ca29  1  0.33348610  0.92196342  0.84337523  1
  Ca2+  Ca30  1  0.83436810  0.41236324  0.16664545  1
  Ca2+  Ca31  1  0.82468354  0.42558842  0.51364923  1
  Ca2+  Ca32  1  0.82774683  0.41660985  0.83479273  1
  Ca2+  Ca33  1  0.83200574  0.91823355  0.16707779  1
  Ca2+  Ca34  1  0.83425248  0.92066508  0.50574359  1
  Ca2+  Ca35  1  0.82353609  0.92984510  0.84095209  1
  Ca2+  Ca36  1  0.40906676  0.16863290  0.15896562  1
  Ca2+  Ca37  1  0.41680871  0.17101105  0.50004583  1
  Ca2+  Ca38  1  0.41581339  0.17449980  0.82795768  1
  Ca2+  Ca39  1  0.41312619  0.66565318  0.16569655  1
  Ca2+  Ca40  1  0.42298702  0.67235611  0.49273308  1
  Ca2+  Ca41  1  0.41877775  0.67307145  0.82505355  1
  Ca2+  Ca42  1  0.92952010  0.16696793  0.15640375  1
  Ca2+  Ca43  1  0.92297612  0.16527953  0.49379194  1
  Ca2+  Ca44  1  0.91784458  0.16489425  0.83442478  1
  Ca2+  Ca45  1  0.91889541  0.67542443  0.16402749  1
  Ca2+  Ca46  1  0.91555957  0.67068471  0.49416542  1
  Ca2+  Ca47  1  0.91765482  0.66595144  0.82810896  1
  Al0+  Al48  1  -0.00241909  -0.00030087  -0.00092075  1
  Al0+  Al49  1  0.00027250  0.00128528  0.32850083  1
  Al0+  Al50  1  0.00067370  0.00052067  0.67111790  1
  Al0+  Al51  1  -0.00027794  0.50067566  0.00066949  1
  Al0+  Al52  1  -0.00187473  0.50070711  0.33329300  1
  Al0+  Al53  1  0.00132758  0.49965599  0.67257232  1
  Al0+  Al54  1  0.50145449  -0.00192654  0.00757532  1
  Al0+  Al55  1  0.50099606  -0.00070378  0.33441670  1
  Al0+  Al56  1  0.49932245  0.00114559  0.65868039  1
  Al0+  Al57  1  0.50203200  0.49960599  -0.00172297  1
  Al0+  Al58  1  0.50021973  0.49849058  0.33499135  1
  Al0+  Al59  1  0.49978347  0.50132263  0.66300701  1
  Al0+  Al60  1  0.24824869  0.25003425  -0.00236417  1
  Al0+  Al61  1  0.25035137  0.24898359  0.33387090  1
  Al0+  Al62  1  0.24907389  0.24786196  0.66504400  1
  Al0+  Al63  1  0.25049123  0.74931765  0.00537776  1
  Al0+  Al64  1  0.24937954  0.74919209  0.33836784  1
  Al0+  Al65  1  0.24682812  0.74951323  0.66196832  1
  Al0+  Al66  1  0.75118539  0.25095343  0.00217340  1
  Al0+  Al67  1  0.74854878  0.25000962  0.33351664  1
  Al0+  Al68  1  0.75159496  0.25241034  0.67116806  1
  Al0+  Al69  1  0.74982825  0.74884974  0.00187532  1
  Al0+  Al70  1  0.75029422  0.74957770  0.32536739  1
  Al0+  Al71  1  0.75091125  0.75248596  0.66756750  1
  Al0+  Al72  1  0.92799902  0.32329220  0.98263006  1
  Al0+  Al73  1  0.07050726  0.18181659  0.31988474  1
  Al0+  Al74  1  0.56928982  0.67758648  0.31594150  1
  Al0+  Al75  1  0.93043472  0.82062091  0.31921845  1
  Al0+  Al76  1  0.42515327  0.82237655  0.65164456  1
  Al0+  Al77  1  0.81975308  0.07292645  0.01738268  1
  Al0+  Al78  1  0.32120742  0.07200758  0.01263050  1
  Al0+  Al79  1  0.17791951  0.42835446  0.01559702  1
  Al0+  Al80  1  0.17748036  0.93039188  0.34989410  1
  Al0+  Al81  1  0.07048729  0.17757435  0.98157762  1
  Al0+  Al82  1  0.67858633  0.92607621  0.01630418  1
  Al0+  Al83  1  0.32419160  0.57005365  0.01326933  1
  Al0+  Al84  1  0.82129811  0.57415884  0.68178734  1
  Al0+  Al85  1  0.32355733  0.07267106  0.35179815  1
  Al0+  Al86  1  0.42956575  0.32046902  0.98740147  1
  Al0+  Al87  1  0.17850042  0.92738628  0.01359460  1
  Al0+  Al88  1  0.32160631  0.56989506  0.34936258  1
  Al0+  Al89  1  0.67675070  0.43010995  0.68316815  1
  Al0+  Al90  1  0.42682620  0.82159144  0.31452567  1
  Al0+  Al91  1  0.42632766  0.32110074  0.65018688  1
  Al0+  Al92  1  0.57362389  0.18064467  0.65276344  1
  Al0+  Al93  1  0.57254338  0.68038763  0.65235647  1
  Al0+  Al94  1  0.18087830  0.42703771  0.68026023  1
  Al0+  Al95  1  0.82244144  0.07188214  0.67992883  1
  Si0+  Si96  1  0.42946236  0.82000675  0.98749028  1
  Si0+  Si97  1  0.57474408  0.17820626  0.31787025  1
  Si0+  Si98  1  0.57180487  0.17606335  0.98632753  1
  Si0+  Si99  1  0.17697915  0.42822013  0.34929451  1
  Si0+  Si100  1  0.68037343  0.92684556  0.34969094  1
  Si0+  Si101  1  0.93168336  0.82197407  0.65426293  1
  Si0+  Si102  1  0.07189126  0.68011763  0.98520156  1
  Si0+  Si103  1  0.67679842  0.93027900  0.68028401  1
  Si0+  Si104  1  0.81930641  0.07045140  0.34799065  1
  Si0+  Si105  1  0.06970267  0.17714543  0.65045953  1
  Si0+  Si106  1  0.92587330  0.32304562  0.31916526  1
  Si0+  Si107  1  0.06922884  0.67694013  0.65171925  1
  Si0+  Si108  1  0.57267001  0.67844672  0.98343089  1
  Si0+  Si109  1  0.07224854  0.67490830  0.31644382  1
  Si0+  Si110  1  0.67960975  0.42806948  0.34825087  1
  Si0+  Si111  1  0.32087460  0.57320949  0.68177989  1
  Si0+  Si112  1  0.93040204  0.32245742  0.65193033  1
  Si0+  Si113  1  0.32134778  0.06920931  0.68037439  1
  Si0+  Si114  1  0.82033234  0.57170950  0.34648099  1
  Si0+  Si115  1  0.17829901  0.92848007  0.68077672  1
  Si0+  Si116  1  0.43073843  0.31869813  0.31887321  1
  Si0+  Si117  1  0.92713632  0.81972564  0.98249512  1
  Si0+  Si118  1  0.67968460  0.43018685  0.01568215  1
  Si0+  Si119  1  0.82167464  0.57169876  0.01690665  1
  O2-  O120  1  0.24706480  0.00237820  0.06267855  1
  O2-  O121  1  0.25343284  -0.00234211  0.40138527  1
  O2-  O122  1  0.25501508  -0.00674696  0.72144227  1
  O2-  O123  1  0.25353060  0.49700622  0.06412652  1
  O2-  O124  1  0.24346020  0.49785923  0.39498968  1
  O2-  O125  1  0.25857932  0.49909373  0.72620223  1
  O2-  O126  1  0.74949554  -0.00093992  0.06710533  1
  O2-  O127  1  0.74889463  0.00030874  0.39270824  1
  O2-  O128  1  0.74137300  0.00289032  0.72448089  1
  O2-  O129  1  0.75255107  0.49898581  0.05922185  1
  O2-  O130  1  0.75123309  0.49943588  0.38845188  1
  O2-  O131  1  0.74789689  0.50409778  0.73244547  1
  O2-  O132  1  -0.00285781  0.25849501  0.27489974  1
  O2-  O133  1  -0.00058814  0.24979076  0.60892150  1
  O2-  O134  1  -0.00064169  0.25124481  0.93154494  1
  O2-  O135  1  0.00761590  0.74791751  0.27261160  1
  O2-  O136  1  -0.00237051  0.74759348  0.60988352  1
  O2-  O137  1  0.00201173  0.75215444  0.94100496  1
  O2-  O138  1  0.49831347  0.24388386  0.27680471  1
  O2-  O139  1  0.50186613  0.25197350  0.60034572  1
  O2-  O140  1  0.50034620  0.24122664  0.94208252  1
  O2-  O141  1  0.49674416  0.74737689  0.26380632  1
  O2-  O142  1  0.49757155  0.74958143  0.60344101  1
  O2-  O143  1  0.50092074  0.74975882  0.94364661  1
  O2-  O144  1  0.06947099  0.17887882  0.09529646  1
  O2-  O145  1  0.06718828  0.18249582  0.43393995  1
  O2-  O146  1  0.06966845  0.17451564  0.75481088  1
  O2-  O147  1  0.06900744  0.67976089  0.09016413  1
  O2-  O148  1  0.06598638  0.67013417  0.42224147  1
  O2-  O149  1  0.07116374  0.67928997  0.75685622  1
  O2-  O150  1  0.57260945  0.17959545  0.09249395  1
  O2-  O151  1  0.58244162  0.18307248  0.42226966  1
  O2-  O152  1  0.57076015  0.17918964  0.76633879  1
  O2-  O153  1  0.57464105  0.67726615  0.08823746  1
  O2-  O154  1  0.57259564  0.67893831  0.42908858  1
  O2-  O155  1  0.57258792  0.68422455  0.76651060  1
  O2-  O156  1  0.17674146  0.42899136  0.24423103  1
  O2-  O157  1  0.17857847  0.43004751  0.56667882  1
  O2-  O158  1  0.17867514  0.43170090  0.90185991  1
  O2-  O159  1  0.17556754  0.93546048  0.23702744  1
  O2-  O160  1  0.17173929  0.93125529  0.57638758  1
  O2-  O161  1  0.18385804  0.92460081  0.89905767  1
  O2-  O162  1  0.68077752  0.42619928  0.24286281  1
  O2-  O163  1  0.68257833  0.42865839  0.56894842  1
  O2-  O164  1  0.67809443  0.43293259  0.91130423  1
  O2-  O165  1  0.68286290  0.92776947  0.24479967  1
  O2-  O166  1  0.68207762  0.92890935  0.57454212  1
  O2-  O167  1  0.67960859  0.92419420  0.90243186  1
  O2-  O168  1  0.43475446  0.32312144  0.10104540  1
  O2-  O169  1  0.43263208  0.31969615  0.42373788  1
  O2-  O170  1  0.42439013  0.31695100  0.76368526  1
  O2-  O171  1  0.43009414  0.81827040  0.09185782  1
  O2-  O172  1  0.43186876  0.81958368  0.42815949  1
  O2-  O173  1  0.42464262  0.82197334  0.76613620  1
  O2-  O174  1  0.92847804  0.32262141  0.09694126  1
  O2-  O175  1  0.92381859  0.32216855  0.42497743  1
  O2-  O176  1  0.93140307  0.32345875  0.75636172  1
  O2-  O177  1  0.92503633  0.81639294  0.08757651  1
  O2-  O178  1  0.92897079  0.81851292  0.43313588  1
  O2-  O179  1  0.93525849  0.82252744  0.75915490  1
  O2-  O180  1  0.32092324  0.07622221  0.23873265  1
  O2-  O181  1  0.31836543  0.07179543  0.57563757  1
  O2-  O182  1  0.32363108  0.06790919  0.89829870  1
  O2-  O183  1  0.32247712  0.56473887  0.23652111  1
  O2-  O184  1  0.31538750  0.57415661  0.57623175  1
  O2-  O185  1  0.32265505  0.57257360  0.89955606  1
  O2-  O186  1  0.81646928  0.07161721  0.24354877  1
  O2-  O187  1  0.82614453  0.06721674  0.56607142  1
  O2-  O188  1  0.81718020  0.07102658  0.90349306  1
  O2-  O189  1  0.82142972  0.57025701  0.24130185  1
  O2-  O190  1  0.82354492  0.57244783  0.56757053  1
  O2-  O191  1  0.82003790  0.57504524  0.91222067  1
  O2-  O192  1  0.03690683  0.08756668  0.26509311  1
  O2-  O193  1  0.03824327  0.08610003  0.60281366  1
  O2-  O194  1  0.04045374  0.07857263  0.92882153  1
  O2-  O195  1  0.04107147  0.58368378  0.26740033  1
  O2-  O196  1  0.04151084  0.58538319  0.60389495  1
  O2-  O197  1  0.04134422  0.58957831  0.93701689  1
  O2-  O198  1  0.55385477  0.08389227  0.27379678  1
  O2-  O199  1  0.54776560  0.08274431  0.59724222  1
  O2-  O200  1  0.55220853  0.07996595  0.94315517  1
  O2-  O201  1  0.54349116  0.57685302  0.26525778  1
  O2-  O202  1  0.54978953  0.58093690  0.59978773  1
  O2-  O203  1  0.54566739  0.58701283  0.93554669  1
  O2-  O204  1  0.16751046  0.21124558  0.26661451  1
  O2-  O205  1  0.16079648  0.20476506  0.60209669  1
  O2-  O206  1  0.16899662  0.20482622  0.92830138  1
  O2-  O207  1  0.16775622  0.69518045  0.27444572  1
  O2-  O208  1  0.15907859  0.70536854  0.60107992  1
  O2-  O209  1  0.16385845  0.70753688  0.93741964  1
  O2-  O210  1  0.66329506  0.21212847  0.26642354  1
  O2-  O211  1  0.67326719  0.20938991  0.60015999  1
  O2-  O212  1  0.66446523  0.20569939  0.94149291  1
  O2-  O213  1  0.66755263  0.70640144  0.26189619  1
  O2-  O214  1  0.67144985  0.71051601  0.59934123  1
  O2-  O215  1  0.66474566  0.70665484  0.93648703  1
  O2-  O216  1  0.08049558  0.46058386  0.06873671  1
  O2-  O217  1  0.08158416  0.45203521  0.39462808  1
  O2-  O218  1  0.08638674  0.46071223  0.73558818  1
  O2-  O219  1  0.07662624  0.94843193  0.06053719  1
  O2-  O220  1  0.07880112  0.96355276  0.40254564  1
  O2-  O221  1  0.08991368  0.96111292  0.73222851  1
  O2-  O222  1  0.58998758  0.46114498  0.06535558  1
  O2-  O223  1  0.58875615  0.45513692  0.39641996  1
  O2-  O224  1  0.57684759  0.45632670  0.73432340  1
  O2-  O225  1  0.58194103  0.95280013  0.07296314  1
  O2-  O226  1  0.58797086  0.95154807  0.39607161  1
  O2-  O227  1  0.58106486  0.95118817  0.72361814  1
  O2-  O228  1  0.20333233  0.32932506  0.06623901  1
  O2-  O229  1  0.20465582  0.33566604  0.39582626  1
  O2-  O230  1  0.20764204  0.32873746  0.73253580  1
  O2-  O231  1  0.20632049  0.83063073  0.06904085  1
  O2-  O232  1  0.19685558  0.82884239  0.40087041  1
  O2-  O233  1  0.19901237  0.83347831  0.72532050  1
  O2-  O234  1  0.70529913  0.33858380  0.06479166  1
  O2-  O235  1  0.70828882  0.33683896  0.39695527  1
  O2-  O236  1  0.70813145  0.33361450  0.73750527  1
  O2-  O237  1  0.71067793  0.82878382  0.07015864  1
  O2-  O238  1  0.71293297  0.83536241  0.39483301  1
  O2-  O239  1  0.70686603  0.83934895  0.72879342  1
  O2-  O240  1  0.46371065  0.40841696  0.27101527  1
  O2-  O241  1  0.45057930  0.42107830  0.59910910  1
  O2-  O242  1  0.46535026  0.41521868  0.93218302  1
  O2-  O243  1  0.45772254  0.92108792  0.26492571  1
  O2-  O244  1  0.45214559  0.91983770  0.59685607  1
  O2-  O245  1  0.45795127  0.91238050  0.94090641  1
  O2-  O246  1  0.94627728  0.41842210  0.27405683  1
  O2-  O247  1  0.96030793  0.41402453  0.60416523  1
  O2-  O248  1  0.95330410  0.42382511  0.93187748  1
  O2-  O249  1  0.95788543  0.91703832  0.26428986  1
  O2-  O250  1  0.96428884  0.91205151  0.60542294  1
  O2-  O251  1  0.94980049  0.91248185  0.93543430  1
  O2-  O252  1  0.33766110  0.29495440  0.27274846  1
  O2-  O253  1  0.32951586  0.28769071  0.59553476  1
  O2-  O254  1  0.33237243  0.29446253  0.93387649  1
  O2-  O255  1  0.32544638  0.79550513  0.26746311  1
  O2-  O256  1  0.32650232  0.79458794  0.59786693  1
  O2-  O257  1  0.33748962  0.79206292  0.94000668  1
  O2-  O258  1  0.83310480  0.29512065  0.27202619  1
  O2-  O259  1  0.83813241  0.29692204  0.60472495  1
  O2-  O260  1  0.82794529  0.29560517  0.93206835  1
  O2-  O261  1  0.83695129  0.78629065  0.26156867  1
  O2-  O262  1  0.83861058  0.79968380  0.60715515  1
  O2-  O263  1  0.83718009  0.78583006  0.93484828  1
  O2-  O264  1  0.41894224  0.04541553  0.06721357  1
  O2-  O265  1  0.42451169  0.04848501  0.40240838  1
  O2-  O266  1  0.41522966  0.04624681  0.72554551  1
  O2-  O267  1  0.42292260  0.54245763  0.06635869  1
  O2-  O268  1  0.41719480  0.53504197  0.40330336  1
  O2-  O269  1  0.41741393  0.55642435  0.72331299  1
  O2-  O270  1  0.91785587  0.04214345  0.06802169  1
  O2-  O271  1  0.91130574  0.04249514  0.39401586  1
  O2-  O272  1  0.91563522  0.03458577  0.73643406  1
  O2-  O273  1  0.91358252  0.54688712  0.06501541  1
  O2-  O274  1  0.91252414  0.54669705  0.39544859  1
  O2-  O275  1  0.91877211  0.54428223  0.73551195  1
  O2-  O276  1  0.29418540  0.17058010  0.06464138  1
  O2-  O277  1  0.29046492  0.17035215  0.40527481  1
  O2-  O278  1  0.28821282  0.15884003  0.72820332  1
  O2-  O279  1  0.29204815  0.66585326  0.06859048  1
  O2-  O280  1  0.29334018  0.66638433  0.40395736  1
  O2-  O281  1  0.28805302  0.66509948  0.72816207  1
  O2-  O282  1  0.79221823  0.17109442  0.07137758  1
  O2-  O283  1  0.79149785  0.16300396  0.39546627  1
  O2-  O284  1  0.79822021  0.16943187  0.73323840  1
  O2-  O285  1  0.79115573  0.66176003  0.06606085  1
  O2-  O286  1  0.79175401  0.66373344  0.39271310  1
  O2-  O287  1  0.79679818  0.67383782  0.73502804  1
