# generated using pymatgen
data_Ca2Al2SiO7
_symmetry_space_group_name_H-M   'P 1'
_cell_length_a   15.46131769
_cell_length_b   15.45979907
_cell_length_c   15.28532897
_cell_angle_alpha   89.98610591
_cell_angle_beta   90.00943564
_cell_angle_gamma   89.99352999
_symmetry_Int_Tables_number   1
_chemical_formula_structural   Ca2Al2SiO7
_chemical_formula_sum   'Ca48 Al48 Si24 O168'
_cell_volume   3653.63465271
_cell_formula_units_Z   24
loop_
 _symmetry_equiv_pos_site_id
 _symmetry_equiv_pos_as_xyz
  1  'x, y, z'
loop_
 _atom_type_symbol
 _atom_type_oxidation_number
  Ca2+  2.0
  Al0+  0.0
  Si0+  0.0
  O2-  -2.0
loop_
 _atom_site_type_symbol
 _atom_site_label
 _atom_site_symmetry_multiplicity
 _atom_site_fract_x
 _atom_site_fract_y
 _atom_site_fract_z
 _atom_site_occupancy
  Ca2+  Ca0  1  0.17378274  0.08932982  0.17685589  1
  Ca2+  Ca1  1  0.16919066  0.09311703  0.50300009  1
  Ca2+  Ca2  1  0.16233230  0.08467150  0.83414831  1
  Ca2+  Ca3  1  0.16287992  0.57818677  0.17748258  1
  Ca2+  Ca4  1  0.16047511  0.57537328  0.50944053  1
  Ca2+  Ca5  1  0.16620452  0.58294158  0.83081952  1
  Ca2+  Ca6  1  0.67381134  0.07706766  0.17581683  1
  Ca2+  Ca7  1  0.66792732  0.07373035  0.50817518  1
  Ca2+  Ca8  1  0.67628652  0.08244475  0.83342676  1
  Ca2+  Ca9  1  0.66895463  0.58372027  0.16725467  1
  Ca2+  Ca10  1  0.67232067  0.58742647  0.50822973  1
  Ca2+  Ca11  1  0.67359676  0.58432112  0.84037157  1
  Ca2+  Ca12  1  0.07309032  0.33378211  0.17010406  1
  Ca2+  Ca13  1  0.08136354  0.33143227  0.49354226  1
  Ca2+  Ca14  1  0.07661317  0.33034367  0.82631739  1
  Ca2+  Ca15  1  0.07150242  0.83301474  0.16403167  1
  Ca2+  Ca16  1  0.07520546  0.82067412  0.49310100  1
  Ca2+  Ca17  1  0.07361569  0.82748596  0.82758939  1
  Ca2+  Ca18  1  0.58997393  0.32720677  0.16176329  1
  Ca2+  Ca19  1  0.58615623  0.31818186  0.49537859  1
  Ca2+  Ca20  1  0.58764925  0.33150496  0.82861427  1
  Ca2+  Ca21  1  0.59290621  0.82247515  0.16758622  1
  Ca2+  Ca22  1  0.59222372  0.82632207  0.49556577  1
  Ca2+  Ca23  1  0.58876470  0.82379749  0.82838554  1
  Ca2+  Ca24  1  0.32391150  0.41708189  0.17607948  1
  Ca2+  Ca25  1  0.31904844  0.42226334  0.50672554  1
  Ca2+  Ca26  1  0.32816242  0.42051116  0.83018209  1
  Ca2+  Ca27  1  0.33045124  0.92270443  0.17551436  1
  Ca2+  Ca28  1  0.33317116  0.92180013  0.50025847  1
  Ca2+  Ca29  1  0.32972482  0.91578257  0.83445514  1
  Ca2+  Ca30  1  0.83684548  0.41857798  0.16554756  1
  Ca2+  Ca31  1  0.83760237  0.42259018  0.50426375  1
  Ca2+  Ca32  1  0.83144629  0.42896824  0.84174995  1
  Ca2+  Ca33  1  0.83480928  0.91674348  0.17089078  1
  Ca2+  Ca34  1  0.82511335  0.91726285  0.50515738  1
  Ca2+  Ca35  1  0.83416921  0.92613488  0.83578860  1
  Ca2+  Ca36  1  0.42238831  0.16160998  0.16960758  1
  Ca2+  Ca37  1  0.42669621  0.16145276  0.49381134  1
  Ca2+  Ca38  1  0.42637859  0.17108132  0.82394187  1
  Ca2+  Ca39  1  0.43057265  0.66205994  0.16346124  1
  Ca2+  Ca40  1  0.42762514  0.66018705  0.49884427  1
  Ca2+  Ca41  1  0.42792100  0.66185757  0.82572892  1
  Ca2+  Ca42  1  0.91285114  0.17785950  0.16136980  1
  Ca2+  Ca43  1  0.92532825  0.17024827  0.49364044  1
  Ca2+  Ca44  1  0.91178541  0.17118058  0.82725099  1
  Ca2+  Ca45  1  0.91519478  0.67704250  0.16493871  1
  Ca2+  Ca46  1  0.92303086  0.66620951  0.49415345  1
  Ca2+  Ca47  1  0.91075500  0.66908383  0.82843717  1
  Al0+  Al48  1  0.00106911  -0.00130683  0.00081259  1
  Al0+  Al49  1  0.00225854  0.00012518  0.32818695  1
  Al0+  Al50  1  0.00019028  0.00181022  0.66508817  1
  Al0+  Al51  1  0.00063538  0.49881236  0.00066457  1
  Al0+  Al52  1  -0.00046473  0.49940917  0.33037103  1
  Al0+  Al53  1  -0.00148788  0.49990499  0.67362162  1
  Al0+  Al54  1  0.49931927  -0.00078611  -0.00072564  1
  Al0+  Al55  1  0.50043861  -0.00103447  0.33668880  1
  Al0+  Al56  1  0.49898182  -0.00104301  0.66890109  1
  Al0+  Al57  1  0.49902527  0.49779054  -0.00079785  1
  Al0+  Al58  1  0.50029527  0.49812887  0.33065113  1
  Al0+  Al59  1  0.49728685  0.50006459  0.66402488  1
  Al0+  Al60  1  0.25219100  0.25022299  0.00010437  1
  Al0+  Al61  1  0.25097435  0.25191308  0.33952254  1
  Al0+  Al62  1  0.24893277  0.25130839  0.66976118  1
  Al0+  Al63  1  0.25104773  0.75050185  0.00226924  1
  Al0+  Al64  1  0.25318605  0.75003513  0.33173986  1
  Al0+  Al65  1  0.24974837  0.75057832  0.66696875  1
  Al0+  Al66  1  0.75138600  0.24954712  0.00142822  1
  Al0+  Al67  1  0.74980636  0.25003306  0.32651334  1
  Al0+  Al68  1  0.74904666  0.24988024  0.66357214  1
  Al0+  Al69  1  0.75121420  0.75053051  -0.00536472  1
  Al0+  Al70  1  0.75040283  0.74947475  0.33024169  1
  Al0+  Al71  1  0.74787464  0.75150196  0.67034465  1
  Al0+  Al72  1  0.31926689  0.07014776  0.34833851  1
  Al0+  Al73  1  0.67802837  0.42958381  0.01496600  1
  Al0+  Al74  1  0.07064519  0.17910352  0.65364376  1
  Al0+  Al75  1  0.17751581  0.42845275  0.68463219  1
  Al0+  Al76  1  0.82220312  0.57328462  0.01767532  1
  Al0+  Al77  1  0.68219858  0.92876191  0.34625449  1
  Al0+  Al78  1  0.07404366  0.17995992  0.31896246  1
  Al0+  Al79  1  0.92864652  0.82095744  0.31983710  1
  Al0+  Al80  1  0.06945116  0.67872021  0.65521542  1
  Al0+  Al81  1  0.57068746  0.67984870  0.65285731  1
  Al0+  Al82  1  0.56919888  0.67899854  0.98498748  1
  Al0+  Al83  1  0.92883298  0.32063301  0.98330314  1
  Al0+  Al84  1  0.57077720  0.67744653  0.31967986  1
  Al0+  Al85  1  0.17810454  0.43260005  0.34754976  1
  Al0+  Al86  1  0.57040747  0.17658002  0.31860140  1
  Al0+  Al87  1  0.32126618  0.57299157  0.68189276  1
  Al0+  Al88  1  0.92778295  0.32110206  0.31805333  1
  Al0+  Al89  1  0.67696997  0.92896262  0.68387850  1
  Al0+  Al90  1  0.82194924  0.07021812  0.01497195  1
  Al0+  Al91  1  0.07283523  0.67793985  0.31969094  1
  Al0+  Al92  1  0.81967297  0.57069307  0.67860361  1
  Al0+  Al93  1  0.57086806  0.17893568  0.65331089  1
  Al0+  Al94  1  0.82237225  0.07197247  0.67936565  1
  Al0+  Al95  1  0.93008433  0.82149731  0.98337145  1
  Si0+  Si96  1  0.32159842  0.07128395  0.01446280  1
  Si0+  Si97  1  0.57080706  0.17782027  0.98502422  1
  Si0+  Si98  1  0.67664407  0.42652652  0.34866039  1
  Si0+  Si99  1  0.32095326  0.57083390  0.01583086  1
  Si0+  Si100  1  0.81805485  0.56925220  0.34736777  1
  Si0+  Si101  1  0.92748925  0.32254570  0.65134302  1
  Si0+  Si102  1  0.32501486  0.57303402  0.34939668  1
  Si0+  Si103  1  0.42970757  0.32017625  0.31696218  1
  Si0+  Si104  1  0.07447966  0.67801482  0.98365003  1
  Si0+  Si105  1  0.67641615  0.42731721  0.67913678  1
  Si0+  Si106  1  0.42733809  0.31960150  0.98409690  1
  Si0+  Si107  1  0.18010389  0.92857008  0.01534771  1
  Si0+  Si108  1  0.92760777  0.82292918  0.65052096  1
  Si0+  Si109  1  0.17669204  0.92568352  0.35092501  1
  Si0+  Si110  1  0.82391954  0.07452037  0.34881165  1
  Si0+  Si111  1  0.42675252  0.32182162  0.64864344  1
  Si0+  Si112  1  0.17854059  0.92895163  0.68102834  1
  Si0+  Si113  1  0.67694823  0.92905221  0.01695592  1
  Si0+  Si114  1  0.42598199  0.82283224  0.64934015  1
  Si0+  Si115  1  0.42620128  0.82292136  0.98299269  1
  Si0+  Si116  1  0.18042805  0.42789020  0.01663302  1
  Si0+  Si117  1  0.07399724  0.17953387  0.98425064  1
  Si0+  Si118  1  0.32064964  0.07127250  0.68304011  1
  Si0+  Si119  1  0.42909577  0.82276071  0.31680969  1
  O2-  O120  1  0.25058995  0.00077419  0.05665652  1
  O2-  O121  1  0.24204303  -0.00211394  0.39542653  1
  O2-  O122  1  0.24840700  0.00139889  0.72494521  1
  O2-  O123  1  0.24719198  0.50334400  0.05867133  1
  O2-  O124  1  0.24959190  0.51170408  0.39240687  1
  O2-  O125  1  0.24827112  0.50279626  0.73376907  1
  O2-  O126  1  0.74621131  -0.00352477  0.06169173  1
  O2-  O127  1  0.75685435  0.00399399  0.39238988  1
  O2-  O128  1  0.75016284  0.00101604  0.73141050  1
  O2-  O129  1  0.74902836  0.50145899  0.06715556  1
  O2-  O130  1  0.74749175  0.49761098  0.39040817  1
  O2-  O131  1  0.74234275  0.49776491  0.72364382  1
  O2-  O132  1  -0.00295518  0.24545389  0.26824993  1
  O2-  O133  1  -0.00437537  0.25309253  0.60789297  1
  O2-  O134  1  0.00357446  0.24478443  0.93846451  1
  O2-  O135  1  0.00467990  0.75286713  0.26923839  1
  O2-  O136  1  -0.00672671  0.75089957  0.60754653  1
  O2-  O137  1  0.00243801  0.74285393  0.93907718  1
  O2-  O138  1  0.49846274  0.25319690  0.26979609  1
  O2-  O139  1  0.49628426  0.25353516  0.60555151  1
  O2-  O140  1  0.50160267  0.25124817  0.94318500  1
  O2-  O141  1  0.49481145  0.75121200  0.27292453  1
  O2-  O142  1  0.49547541  0.75459820  0.60629903  1
  O2-  O143  1  0.49463808  0.75478234  0.93903827  1
  O2-  O144  1  0.07888337  0.18275579  0.08932147  1
  O2-  O145  1  0.07370249  0.18362080  0.43249867  1
  O2-  O146  1  0.07132199  0.17944653  0.76712852  1
  O2-  O147  1  0.07893590  0.68222194  0.08898582  1
  O2-  O148  1  0.06909235  0.67710102  0.43341083  1
  O2-  O149  1  0.06974947  0.68302309  0.76845800  1
  O2-  O150  1  0.56672158  0.17575544  0.09005403  1
  O2-  O151  1  0.56916201  0.17703282  0.43163046  1
  O2-  O152  1  0.56871953  0.18166033  0.76709731  1
  O2-  O153  1  0.56680868  0.67992098  0.09833045  1
  O2-  O154  1  0.57090272  0.67722713  0.43255442  1
  O2-  O155  1  0.56899332  0.67962613  0.76589854  1
  O2-  O156  1  0.18158517  0.43234311  0.23366514  1
  O2-  O157  1  0.17838977  0.42843536  0.57118910  1
  O2-  O158  1  0.18361379  0.42514220  0.91194256  1
  O2-  O159  1  0.18104830  0.92451859  0.24500924  1
  O2-  O160  1  0.18062385  0.92832046  0.57641241  1
  O2-  O161  1  0.18202370  0.92817381  0.90995960  1
  O2-  O162  1  0.67460713  0.42769945  0.24387511  1
  O2-  O163  1  0.67832354  0.42639429  0.57322970  1
  O2-  O164  1  0.67678413  0.43036941  0.90105401  1
  O2-  O165  1  0.68255623  0.92911947  0.23282351  1
  O2-  O166  1  0.67800228  0.92882966  0.57003208  1
  O2-  O167  1  0.67364926  0.93288765  0.91176873  1
  O2-  O168  1  0.42194754  0.31706337  0.08884369  1
  O2-  O169  1  0.43254735  0.31966833  0.42222388  1
  O2-  O170  1  0.42691494  0.31963313  0.75500125  1
  O2-  O171  1  0.42326838  0.82426580  0.08825853  1
  O2-  O172  1  0.42850905  0.82406493  0.42216947  1
  O2-  O173  1  0.42463412  0.82370904  0.75521547  1
  O2-  O174  1  0.93156311  0.32016075  0.09599666  1
  O2-  O175  1  0.92788760  0.32296355  0.43175853  1
  O2-  O176  1  0.92777844  0.32142089  0.75699363  1
  O2-  O177  1  0.93309560  0.82296199  0.09622553  1
  O2-  O178  1  0.92696975  0.81691941  0.43355099  1
  O2-  O179  1  0.93137700  0.82451502  0.75630838  1
  O2-  O180  1  0.31977952  0.06788845  0.23437340  1
  O2-  O181  1  0.32166221  0.07047910  0.57828778  1
  O2-  O182  1  0.32194239  0.07156613  0.90932372  1
  O2-  O183  1  0.32758333  0.56870595  0.24327819  1
  O2-  O184  1  0.32221022  0.57024016  0.56852219  1
  O2-  O185  1  0.32089672  0.57009850  0.91109662  1
  O2-  O186  1  0.82028254  0.07481069  0.24297462  1
  O2-  O187  1  0.82288081  0.07061567  0.56588892  1
  O2-  O188  1  0.82033852  0.07046334  0.90194297  1
  O2-  O189  1  0.81647580  0.57020911  0.24256570  1
  O2-  O190  1  0.82049936  0.56942581  0.56489310  1
  O2-  O191  1  0.82007552  0.57195677  0.90386790  1
  O2-  O192  1  0.05755949  0.07822939  0.26842971  1
  O2-  O193  1  0.04451462  0.08196994  0.59831325  1
  O2-  O194  1  0.05273725  0.08358181  0.94180369  1
  O2-  O195  1  0.04108773  0.58222530  0.26479773  1
  O2-  O196  1  0.03933851  0.58077262  0.60433034  1
  O2-  O197  1  0.05462061  0.58200580  0.94140579  1
  O2-  O198  1  0.53527505  0.08146999  0.26454361  1
  O2-  O199  1  0.53694240  0.08227349  0.60181214  1
  O2-  O200  1  0.53879943  0.08737719  0.93692810  1
  O2-  O201  1  0.53982513  0.58106640  0.26451018  1
  O2-  O202  1  0.54042655  0.58265863  0.59871480  1
  O2-  O203  1  0.53575885  0.58216978  0.93293142  1
  O2-  O204  1  0.17199565  0.21321172  0.26701821  1
  O2-  O205  1  0.16877355  0.20915572  0.60253475  1
  O2-  O206  1  0.16756103  0.20692601  0.93692997  1
  O2-  O207  1  0.17440199  0.69975205  0.26928755  1
  O2-  O208  1  0.16613874  0.71010207  0.60203851  1
  O2-  O209  1  0.16741910  0.70803971  0.93717510  1
  O2-  O210  1  0.66594870  0.20632526  0.26318251  1
  O2-  O211  1  0.66626485  0.20896981  0.59680176  1
  O2-  O212  1  0.66265879  0.20455219  0.93885850  1
  O2-  O213  1  0.66529442  0.71077644  0.26428343  1
  O2-  O214  1  0.66736215  0.71158480  0.59922227  1
  O2-  O215  1  0.66547536  0.70928982  0.93149046  1
  O2-  O216  1  0.08761052  0.45168932  0.06275130  1
  O2-  O217  1  0.08059585  0.46054302  0.40095277  1
  O2-  O218  1  0.08033433  0.45606137  0.73945547  1
  O2-  O219  1  0.08908130  0.95516927  0.06347595  1
  O2-  O220  1  0.08134653  0.94617405  0.39477176  1
  O2-  O221  1  0.08753633  0.95738933  0.72960859  1
  O2-  O222  1  0.57743464  0.45358500  0.06748389  1
  O2-  O223  1  0.58434796  0.45286386  0.39578010  1
  O2-  O224  1  0.58113598  0.44847323  0.72323783  1
  O2-  O225  1  0.58249561  0.95448076  0.06309009  1
  O2-  O226  1  0.58537077  0.95809864  0.39984512  1
  O2-  O227  1  0.57804782  0.95634337  0.73697072  1
  O2-  O228  1  0.21507846  0.33789760  0.06418543  1
  O2-  O229  1  0.21353158  0.33857322  0.40297625  1
  O2-  O230  1  0.21050724  0.33162450  0.73983207  1
  O2-  O231  1  0.20945581  0.83795682  0.06469303  1
  O2-  O232  1  0.20713833  0.83324928  0.39773948  1
  O2-  O233  1  0.20830858  0.83933217  0.73186396  1
  O2-  O234  1  0.70604521  0.33055877  0.06671059  1
  O2-  O235  1  0.70454856  0.33377225  0.39433390  1
  O2-  O236  1  0.70215752  0.33437809  0.72631090  1
  O2-  O237  1  0.70315929  0.83455460  0.05941692  1
  O2-  O238  1  0.71305428  0.83167366  0.40008375  1
  O2-  O239  1  0.70569196  0.83180639  0.73798378  1
  O2-  O240  1  0.45267638  0.41368305  0.26905826  1
  O2-  O241  1  0.44908763  0.41532100  0.60215239  1
  O2-  O242  1  0.45209298  0.41165031  0.93622244  1
  O2-  O243  1  0.45711551  0.91480361  0.26905686  1
  O2-  O244  1  0.45015289  0.91715141  0.60424648  1
  O2-  O245  1  0.45024622  0.91722302  0.93616646  1
  O2-  O246  1  0.96046123  0.41706727  0.26297636  1
  O2-  O247  1  0.95510980  0.41585757  0.60652812  1
  O2-  O248  1  0.96087127  0.41785725  0.93088596  1
  O2-  O249  1  0.95327370  0.91996802  0.26579653  1
  O2-  O250  1  0.95719491  0.91453976  0.60354678  1
  O2-  O251  1  0.96650612  0.91686467  0.92919119  1
  O2-  O252  1  0.33656054  0.29265130  0.27138742  1
  O2-  O253  1  0.33354459  0.29383493  0.60432482  1
  O2-  O254  1  0.33833506  0.28705160  0.93298971  1
  O2-  O255  1  0.33488295  0.80155139  0.26929666  1
  O2-  O256  1  0.33258803  0.79881916  0.60234380  1
  O2-  O257  1  0.33242629  0.79733838  0.93631503  1
  O2-  O258  1  0.82953205  0.29686884  0.26241636  1
  O2-  O259  1  0.83375132  0.30017898  0.60440833  1
  O2-  O260  1  0.83167116  0.28979889  0.93046732  1
  O2-  O261  1  0.83358458  0.78751980  0.26347324  1
  O2-  O262  1  0.83249701  0.79989975  0.60819940  1
  O2-  O263  1  0.83310878  0.79529266  0.92877498  1
  O2-  O264  1  0.41307081  0.04271307  0.06272971  1
  O2-  O265  1  0.41429587  0.03560165  0.40317393  1
  O2-  O266  1  0.41064315  0.04170001  0.73317273  1
  O2-  O267  1  0.41082201  0.53858195  0.06400864  1
  O2-  O268  1  0.41600801  0.53972113  0.39681979  1
  O2-  O269  1  0.41862920  0.53975327  0.73587632  1
  O2-  O270  1  0.91961924  0.04050877  0.06754863  1
  O2-  O271  1  0.92006227  0.05211175  0.39065545  1
  O2-  O272  1  0.92088886  0.04423537  0.73372351  1
  O2-  O273  1  0.92195006  0.54456378  0.06831927  1
  O2-  O274  1  0.91014202  0.54069925  0.39348650  1
  O2-  O275  1  0.91340120  0.54002603  0.73733238  1
  O2-  O276  1  0.29434829  0.16299367  0.06267083  1
  O2-  O277  1  0.29309738  0.16691245  0.40363587  1
  O2-  O278  1  0.29456799  0.16294569  0.73154535  1
  O2-  O279  1  0.29824252  0.66455886  0.06264106  1
  O2-  O280  1  0.31019421  0.67011001  0.39138754  1
  O2-  O281  1  0.29576953  0.67229273  0.73514502  1
  O2-  O282  1  0.79014366  0.16612440  0.06872310  1
  O2-  O283  1  0.79660875  0.16836063  0.39313982  1
  O2-  O284  1  0.79169477  0.17060539  0.73185732  1
  O2-  O285  1  0.79288443  0.67305118  0.06740606  1
  O2-  O286  1  0.78906318  0.66023362  0.39505999  1
  O2-  O287  1  0.79057109  0.66710294  0.73282612  1
