# generated using pymatgen
data_Ca2Al2SiO7
_symmetry_space_group_name_H-M   'P 1'
_cell_length_a   15.45647520
_cell_length_b   15.45664700
_cell_length_c   15.28264768
_cell_angle_alpha   89.99794493
_cell_angle_beta   90.00935904
_cell_angle_gamma   89.97611978
_symmetry_Int_Tables_number   1
_chemical_formula_structural   Ca2Al2SiO7
_chemical_formula_sum   'Ca48 Al48 Si24 O168'
_cell_volume   3651.10487310
_cell_formula_units_Z   24
loop_
 _symmetry_equiv_pos_site_id
 _symmetry_equiv_pos_as_xyz
  1  'x, y, z'
loop_
 _atom_type_symbol
 _atom_type_oxidation_number
  Ca2+  2.0
  Al0+  0.0
  Si0+  0.0
  O2-  -2.0
loop_
 _atom_site_type_symbol
 _atom_site_label
 _atom_site_symmetry_multiplicity
 _atom_site_fract_x
 _atom_site_fract_y
 _atom_site_fract_z
 _atom_site_occupancy
  Ca2+  Ca0  1  0.16001722  0.07083456  0.16908712  1
  Ca2+  Ca1  1  0.16371092  0.07337713  0.50128327  1
  Ca2+  Ca2  1  0.16569131  0.07629742  0.84395657  1
  Ca2+  Ca3  1  0.15784009  0.57433237  0.17162293  1
  Ca2+  Ca4  1  0.16773786  0.58380745  0.50358829  1
  Ca2+  Ca5  1  0.17134486  0.58524501  0.84129058  1
  Ca2+  Ca6  1  0.66918868  0.08737230  0.17544273  1
  Ca2+  Ca7  1  0.67621718  0.07820343  0.50797614  1
  Ca2+  Ca8  1  0.66924494  0.08113589  0.83626192  1
  Ca2+  Ca9  1  0.66983333  0.58646024  0.17292153  1
  Ca2+  Ca10  1  0.67056424  0.59427306  0.50329111  1
  Ca2+  Ca11  1  0.66529375  0.58845385  0.83695002  1
  Ca2+  Ca12  1  0.08127555  0.33207330  0.15642726  1
  Ca2+  Ca13  1  0.08410406  0.33270520  0.49488905  1
  Ca2+  Ca14  1  0.08394141  0.33203120  0.83783693  1
  Ca2+  Ca15  1  0.08412223  0.82713772  0.16371530  1
  Ca2+  Ca16  1  0.07673682  0.82487270  0.49293559  1
  Ca2+  Ca17  1  0.08447283  0.82454501  0.82785308  1
  Ca2+  Ca18  1  0.58025667  0.32132676  0.15862912  1
  Ca2+  Ca19  1  0.57644347  0.32981427  0.49558643  1
  Ca2+  Ca20  1  0.57207859  0.33070932  0.83202643  1
  Ca2+  Ca21  1  0.57949670  0.82327802  0.15966286  1
  Ca2+  Ca22  1  0.58961383  0.82642631  0.49786109  1
  Ca2+  Ca23  1  0.58153783  0.82646735  0.82974452  1
  Ca2+  Ca24  1  0.32227720  0.41068786  0.16820999  1
  Ca2+  Ca25  1  0.32919023  0.42139633  0.50688786  1
  Ca2+  Ca26  1  0.33414389  0.41997894  0.83843748  1
  Ca2+  Ca27  1  0.32314900  0.90772038  0.16663030  1
  Ca2+  Ca28  1  0.32644852  0.91277815  0.50021666  1
  Ca2+  Ca29  1  0.32884489  0.91390425  0.84438232  1
  Ca2+  Ca30  1  0.83617046  0.42337442  0.17205470  1
  Ca2+  Ca31  1  0.83102502  0.42698737  0.49987405  1
  Ca2+  Ca32  1  0.83327968  0.41727182  0.84100536  1
  Ca2+  Ca33  1  0.83530830  0.92398591  0.17608872  1
  Ca2+  Ca34  1  0.83597890  0.92185445  0.50801527  1
  Ca2+  Ca35  1  0.83095416  0.91409309  0.83058471  1
  Ca2+  Ca36  1  0.42720921  0.16886061  0.15845230  1
  Ca2+  Ca37  1  0.42188065  0.17184832  0.49478645  1
  Ca2+  Ca38  1  0.41354004  0.17883566  0.83203254  1
  Ca2+  Ca39  1  0.42625995  0.66979491  0.16073833  1
  Ca2+  Ca40  1  0.42670213  0.66042036  0.49902191  1
  Ca2+  Ca41  1  0.42235337  0.66723193  0.82922326  1
  Ca2+  Ca42  1  0.92012278  0.17282069  0.15963707  1
  Ca2+  Ca43  1  0.91005012  0.16428154  0.49640566  1
  Ca2+  Ca44  1  0.91940758  0.16745266  0.83477904  1
  Ca2+  Ca45  1  0.92433733  0.66807558  0.16705759  1
  Ca2+  Ca46  1  0.92031453  0.67910519  0.49118118  1
  Ca2+  Ca47  1  0.93252508  0.67070332  0.82626065  1
  Al0+  Al48  1  -0.00136813  0.00079429  0.00162553  1
  Al0+  Al49  1  -0.00025281  0.00018756  0.33943957  1
  Al0+  Al50  1  0.00029791  0.00140868  0.66937516  1
  Al0+  Al51  1  0.00041083  0.50161550  -0.00439506  1
  Al0+  Al52  1  -0.00153120  0.50016250  0.34136543  1
  Al0+  Al53  1  0.00026461  0.49653510  0.66381092  1
  Al0+  Al54  1  0.50119174  -0.00157727  -0.00534231  1
  Al0+  Al55  1  0.49877497  0.00072480  0.33041101  1
  Al0+  Al56  1  0.50003145  0.00039397  0.67048508  1
  Al0+  Al57  1  0.50237337  0.49893170  -0.00289035  1
  Al0+  Al58  1  0.49779752  0.49868358  0.32755747  1
  Al0+  Al59  1  0.49815018  0.49979112  0.66206519  1
  Al0+  Al60  1  0.25022116  0.24925975  -0.00195269  1
  Al0+  Al61  1  0.24866863  0.24973117  0.33844471  1
  Al0+  Al62  1  0.24875666  0.25012273  0.66161861  1
  Al0+  Al63  1  0.25123783  0.74939209  -0.00032243  1
  Al0+  Al64  1  0.24987561  0.74754682  0.33573375  1
  Al0+  Al65  1  0.25209452  0.74779812  0.66704734  1
  Al0+  Al66  1  0.75000861  0.25126647  -0.00608762  1
  Al0+  Al67  1  0.74893611  0.25125683  0.33482740  1
  Al0+  Al68  1  0.75065999  0.25007999  0.67101164  1
  Al0+  Al69  1  0.75088309  0.75129629  -0.00051838  1
  Al0+  Al70  1  0.75062914  0.75145543  0.32820731  1
  Al0+  Al71  1  0.75134361  0.75145004  0.66603199  1
  Al0+  Al72  1  0.93139781  0.82123342  0.65202380  1
  Al0+  Al73  1  0.67863168  0.92740380  0.68349327  1
  Al0+  Al74  1  0.57335938  0.67871443  0.98425753  1
  Al0+  Al75  1  0.81950212  0.07215184  0.34583448  1
  Al0+  Al76  1  0.17844338  0.92788159  0.01357728  1
  Al0+  Al77  1  0.82249419  0.07247659  0.68644335  1
  Al0+  Al78  1  0.42770081  0.32030270  0.98582477  1
  Al0+  Al79  1  0.81858368  0.57247040  0.34683241  1
  Al0+  Al80  1  0.57139644  0.67905109  0.31920814  1
  Al0+  Al81  1  0.42860378  0.81921519  0.98532152  1
  Al0+  Al82  1  0.17981128  0.43036671  0.01239430  1
  Al0+  Al83  1  0.42856699  0.32019903  0.65041072  1
  Al0+  Al84  1  0.07068850  0.17692020  0.98697571  1
  Al0+  Al85  1  0.92998843  0.82406250  0.31695286  1
  Al0+  Al86  1  0.07128021  0.67730572  0.31781956  1
  Al0+  Al87  1  0.32059794  0.56926936  0.68107751  1
  Al0+  Al88  1  0.17832955  0.42852648  0.34808042  1
  Al0+  Al89  1  0.57066954  0.18010735  0.32200936  1
  Al0+  Al90  1  0.07016842  0.67984776  0.98755609  1
  Al0+  Al91  1  0.07425810  0.67649833  0.65034981  1
  Al0+  Al92  1  0.93005967  0.32283783  0.98609510  1
  Al0+  Al93  1  0.57307954  0.17700722  0.98277642  1
  Al0+  Al94  1  0.17945832  0.92746489  0.34831389  1
  Al0+  Al95  1  0.56962475  0.68096776  0.65253959  1
  Si0+  Si96  1  0.57260681  0.17786560  0.64977864  1
  Si0+  Si97  1  0.82178105  0.57057801  0.68182755  1
  Si0+  Si98  1  0.81894363  0.07231941  0.01659031  1
  Si0+  Si99  1  0.06994156  0.17995607  0.65022783  1
  Si0+  Si100  1  0.67915640  0.42842582  0.01489631  1
  Si0+  Si101  1  0.67632703  0.42860305  0.34882640  1
  Si0+  Si102  1  0.82118034  0.57142648  0.01364563  1
  Si0+  Si103  1  0.07151664  0.17906833  0.32056356  1
  Si0+  Si104  1  0.67872686  0.92854904  0.01679894  1
  Si0+  Si105  1  0.32262603  0.07190551  0.35030970  1
  Si0+  Si106  1  0.67592616  0.92873842  0.34756036  1
  Si0+  Si107  1  0.92603439  0.32066006  0.64906919  1
  Si0+  Si108  1  0.92921775  0.32094231  0.32122844  1
  Si0+  Si109  1  0.18142313  0.92969630  0.68163510  1
  Si0+  Si110  1  0.92782238  0.82423723  0.98382694  1
  Si0+  Si111  1  0.32472214  0.57149411  0.01804689  1
  Si0+  Si112  1  0.42714145  0.82523975  0.64928655  1
  Si0+  Si113  1  0.32329289  0.07177940  0.01604717  1
  Si0+  Si114  1  0.32389113  0.57078494  0.34976531  1
  Si0+  Si115  1  0.17708974  0.42588950  0.68510952  1
  Si0+  Si116  1  0.42521537  0.32085379  0.31577363  1
  Si0+  Si117  1  0.67881594  0.43012382  0.68124884  1
  Si0+  Si118  1  0.42674781  0.82259846  0.31749136  1
  Si0+  Si119  1  0.32050158  0.07312458  0.68085130  1
  O2-  O120  1  0.25386323  0.00333618  0.06008173  1
  O2-  O121  1  0.25518265  0.00206373  0.39497238  1
  O2-  O122  1  0.25484308  -0.00187312  0.72397854  1
  O2-  O123  1  0.25522368  0.50310792  0.06192924  1
  O2-  O124  1  0.25345109  0.50317332  0.39324537  1
  O2-  O125  1  0.24203477  0.49822618  0.72788361  1
  O2-  O126  1  0.74732053  0.00210106  0.05923769  1
  O2-  O127  1  0.74500946  -0.00298136  0.39170343  1
  O2-  O128  1  0.74941721  0.00065954  0.73466909  1
  O2-  O129  1  0.74901226  0.50102652  0.05622135  1
  O2-  O130  1  0.73871280  0.50247099  0.39428825  1
  O2-  O131  1  0.75007547  0.50048909  0.72483659  1
  O2-  O132  1  0.00061377  0.25042638  0.27922360  1
  O2-  O133  1  -0.00264947  0.24951958  0.60766553  1
  O2-  O134  1  0.00127631  0.25049876  0.93525686  1
  O2-  O135  1  0.00201655  0.75185034  0.26739344  1
  O2-  O136  1  0.00142469  0.74791095  0.60146395  1
  O2-  O137  1  -0.00083047  0.75795188  0.94095588  1
  O2-  O138  1  0.49519911  0.25289442  0.27348052  1
  O2-  O139  1  0.50294169  0.24475478  0.60434952  1
  O2-  O140  1  0.49843258  0.24723947  0.93477391  1
  O2-  O141  1  0.49698810  0.75480470  0.27450661  1
  O2-  O142  1  0.49785629  0.75860248  0.60521892  1
  O2-  O143  1  0.49983366  0.74795317  0.93367469  1
  O2-  O144  1  0.06676074  0.17579807  0.10096785  1
  O2-  O145  1  0.07179686  0.18035165  0.42607969  1
  O2-  O146  1  0.07241267  0.18085269  0.75491410  1
  O2-  O147  1  0.06653962  0.67680917  0.10029109  1
  O2-  O148  1  0.06972339  0.67830312  0.43115124  1
  O2-  O149  1  0.07368881  0.67839292  0.76437506  1
  O2-  O150  1  0.57432015  0.17970736  0.09695808  1
  O2-  O151  1  0.56911224  0.18264709  0.43511639  1
  O2-  O152  1  0.57167678  0.18040562  0.75500042  1
  O2-  O153  1  0.57440950  0.68056364  0.09800512  1
  O2-  O154  1  0.57012053  0.67984668  0.43240535  1
  O2-  O155  1  0.56798190  0.67954836  0.76509487  1
  O2-  O156  1  0.17820702  0.42550383  0.23503399  1
  O2-  O157  1  0.17880831  0.42317711  0.57933640  1
  O2-  O158  1  0.17953816  0.43310570  0.89946416  1
  O2-  O159  1  0.18014529  0.92936000  0.23528092  1
  O2-  O160  1  0.18183849  0.93240549  0.57635350  1
  O2-  O161  1  0.17941722  0.92974279  0.90001847  1
  O2-  O162  1  0.68028635  0.42580498  0.24333159  1
  O2-  O163  1  0.68134256  0.42886649  0.57594457  1
  O2-  O164  1  0.67971863  0.42813678  0.90954599  1
  O2-  O165  1  0.67519098  0.93148713  0.24171727  1
  O2-  O166  1  0.67836552  0.92947926  0.56945497  1
  O2-  O167  1  0.68164922  0.92639017  0.91211229  1
  O2-  O168  1  0.42969004  0.31837906  0.09970482  1
  O2-  O169  1  0.42615834  0.32042247  0.42163149  1
  O2-  O170  1  0.42878950  0.31891611  0.76303938  1
  O2-  O171  1  0.43023678  0.81792500  0.09935106  1
  O2-  O172  1  0.42727058  0.82399255  0.42317966  1
  O2-  O173  1  0.42530637  0.82453633  0.75445254  1
  O2-  O174  1  0.92939890  0.32235030  0.10023445  1
  O2-  O175  1  0.92850316  0.31924746  0.42663298  1
  O2-  O176  1  0.92581724  0.32324110  0.75371845  1
  O2-  O177  1  0.92615573  0.82414485  0.08927645  1
  O2-  O178  1  0.93059332  0.82413756  0.43038867  1
  O2-  O179  1  0.93445084  0.81931220  0.76608052  1
  O2-  O180  1  0.32250842  0.07440966  0.24519775  1
  O2-  O181  1  0.31795272  0.07358455  0.57553955  1
  O2-  O182  1  0.32107674  0.07127039  0.90997076  1
  O2-  O183  1  0.32713701  0.56944846  0.24448101  1
  O2-  O184  1  0.32228502  0.56596592  0.56780579  1
  O2-  O185  1  0.32421090  0.57068142  0.91228779  1
  O2-  O186  1  0.81865274  0.07461452  0.23249974  1
  O2-  O187  1  0.81998431  0.07422849  0.57259152  1
  O2-  O188  1  0.81954358  0.07138829  0.91185923  1
  O2-  O189  1  0.81997193  0.56776990  0.23347029  1
  O2-  O190  1  0.82029721  0.56881725  0.57671416  1
  O2-  O191  1  0.82032045  0.57024199  0.90821980  1
  O2-  O192  1  0.04317555  0.08752982  0.27476703  1
  O2-  O193  1  0.04321316  0.08776585  0.60327505  1
  O2-  O194  1  0.03885752  0.08045346  0.93171398  1
  O2-  O195  1  0.03726945  0.57836329  0.26860782  1
  O2-  O196  1  0.04811164  0.57576970  0.60133830  1
  O2-  O197  1  0.03620510  0.58681080  0.92953611  1
  O2-  O198  1  0.54218155  0.08341959  0.26665279  1
  O2-  O199  1  0.54761917  0.08336150  0.60538491  1
  O2-  O200  1  0.54947834  0.07793556  0.93113733  1
  O2-  O201  1  0.54225253  0.58155523  0.26513535  1
  O2-  O202  1  0.53796898  0.58517960  0.59726633  1
  O2-  O203  1  0.55021152  0.57876635  0.93360518  1
  O2-  O204  1  0.16380045  0.20583451  0.27410296  1
  O2-  O205  1  0.16008254  0.20877592  0.59959938  1
  O2-  O206  1  0.16938365  0.20147687  0.93398821  1
  O2-  O207  1  0.17212687  0.70093946  0.26807458  1
  O2-  O208  1  0.17293713  0.70531596  0.59876248  1
  O2-  O209  1  0.16789202  0.70695716  0.93538816  1
  O2-  O210  1  0.66614467  0.21381100  0.26688988  1
  O2-  O211  1  0.66644755  0.20639622  0.60569311  1
  O2-  O212  1  0.66886141  0.20931181  0.92826090  1
  O2-  O213  1  0.66699290  0.70857552  0.26356020  1
  O2-  O214  1  0.66761089  0.70978140  0.60036659  1
  O2-  O215  1  0.67143482  0.70947338  0.93184419  1
  O2-  O216  1  0.08215249  0.46201265  0.06529341  1
  O2-  O217  1  0.08264348  0.45681192  0.40506463  1
  O2-  O218  1  0.08042091  0.44479154  0.72779046  1
  O2-  O219  1  0.08182014  0.95999330  0.06789962  1
  O2-  O220  1  0.08578533  0.96276635  0.40509493  1
  O2-  O221  1  0.09118879  0.96099727  0.72917018  1
  O2-  O222  1  0.58740468  0.45388177  0.06385044  1
  O2-  O223  1  0.57946703  0.44739690  0.39091788  1
  O2-  O224  1  0.58692832  0.45867132  0.72691223  1
  O2-  O225  1  0.58510075  0.95281749  0.06239787  1
  O2-  O226  1  0.58184627  0.95319194  0.39393969  1
  O2-  O227  1  0.57875655  0.95368738  0.73595600  1
  O2-  O228  1  0.20749430  0.33154104  0.06542670  1
  O2-  O229  1  0.20866402  0.33212543  0.40473217  1
  O2-  O230  1  0.20692074  0.33257962  0.72974717  1
  O2-  O231  1  0.21080963  0.83185012  0.06846711  1
  O2-  O232  1  0.21088414  0.83139787  0.40333595  1
  O2-  O233  1  0.20715473  0.83681474  0.72731472  1
  O2-  O234  1  0.70910358  0.33685135  0.06241044  1
  O2-  O235  1  0.70816557  0.33862999  0.39906738  1
  O2-  O236  1  0.70651083  0.33888920  0.72996036  1
  O2-  O237  1  0.70919452  0.83752289  0.06538770  1
  O2-  O238  1  0.70115760  0.83466178  0.39169638  1
  O2-  O239  1  0.70990805  0.82976023  0.73765999  1
  O2-  O240  1  0.44761801  0.41417925  0.26882291  1
  O2-  O241  1  0.46212622  0.41442729  0.59440764  1
  O2-  O242  1  0.45903064  0.41732802  0.93244003  1
  O2-  O243  1  0.44859396  0.91676525  0.27076182  1
  O2-  O244  1  0.44847196  0.92079753  0.60430699  1
  O2-  O245  1  0.45422582  0.91766716  0.93194088  1
  O2-  O246  1  0.95690898  0.41271873  0.27530244  1
  O2-  O247  1  0.95370890  0.41171620  0.59969973  1
  O2-  O248  1  0.95816095  0.41925602  0.92965353  1
  O2-  O249  1  0.95924349  0.92351098  0.26609664  1
  O2-  O250  1  0.95982751  0.92105825  0.60185059  1
  O2-  O251  1  0.94981394  0.91844517  0.93860593  1
  O2-  O252  1  0.33156949  0.29227940  0.27170495  1
  O2-  O253  1  0.33231951  0.28842848  0.59557646  1
  O2-  O254  1  0.33035251  0.29324875  0.93061018  1
  O2-  O255  1  0.33418405  0.79395264  0.27171564  1
  O2-  O256  1  0.33479344  0.79670309  0.60250224  1
  O2-  O257  1  0.33073692  0.79225940  0.93130420  1
  O2-  O258  1  0.83748903  0.29408581  0.27336894  1
  O2-  O259  1  0.83399272  0.29283618  0.60181135  1
  O2-  O260  1  0.83278041  0.29518003  0.93126751  1
  O2-  O261  1  0.83156065  0.79746916  0.26362892  1
  O2-  O262  1  0.83247862  0.79471472  0.60007999  1
  O2-  O263  1  0.83570124  0.79546473  0.93716236  1
  O2-  O264  1  0.41798692  0.04589510  0.06052570  1
  O2-  O265  1  0.41635869  0.04664619  0.39758375  1
  O2-  O266  1  0.41417011  0.05315345  0.72747900  1
  O2-  O267  1  0.41922632  0.54536690  0.06289546  1
  O2-  O268  1  0.41685116  0.54156860  0.39703329  1
  O2-  O269  1  0.41655051  0.53441346  0.73433678  1
  O2-  O270  1  0.91064565  0.04458129  0.06455413  1
  O2-  O271  1  0.91578358  0.04468635  0.40210217  1
  O2-  O272  1  0.92179152  0.04486564  0.73846000  1
  O2-  O273  1  0.91167441  0.54082268  0.06137982  1
  O2-  O274  1  0.91085156  0.53612062  0.40543189  1
  O2-  O275  1  0.91363217  0.53939388  0.72810490  1
  O2-  O276  1  0.29966425  0.16551747  0.06224639  1
  O2-  O277  1  0.29507395  0.16397270  0.39936290  1
  O2-  O278  1  0.28667342  0.16331799  0.72804418  1
  O2-  O279  1  0.30010677  0.66530903  0.06335762  1
  O2-  O280  1  0.30148661  0.66439630  0.39707825  1
  O2-  O281  1  0.29511361  0.66762120  0.73520777  1
  O2-  O282  1  0.79205876  0.16590042  0.06156618  1
  O2-  O283  1  0.78824381  0.16847773  0.40151215  1
  O2-  O284  1  0.79459994  0.17180724  0.73886040  1
  O2-  O285  1  0.79455297  0.66360027  0.06131722  1
  O2-  O286  1  0.79002330  0.67046746  0.39939870  1
  O2-  O287  1  0.79580190  0.66238979  0.72887728  1
