# generated using pymatgen
data_Ca2Al2SiO7
_symmetry_space_group_name_H-M   'P 1'
_cell_length_a   15.45824988
_cell_length_b   15.46000031
_cell_length_c   15.28471629
_cell_angle_alpha   90.01841750
_cell_angle_beta   89.99299587
_cell_angle_gamma   89.99797255
_symmetry_Int_Tables_number   1
_chemical_formula_structural   Ca2Al2SiO7
_chemical_formula_sum   'Ca48 Al48 Si24 O168'
_cell_volume   3652.81079453
_cell_formula_units_Z   24
loop_
 _symmetry_equiv_pos_site_id
 _symmetry_equiv_pos_as_xyz
  1  'x, y, z'
loop_
 _atom_type_symbol
 _atom_type_oxidation_number
  Ca2+  2.0
  Al0+  0.0
  Si0+  0.0
  O2-  -2.0
loop_
 _atom_site_type_symbol
 _atom_site_label
 _atom_site_symmetry_multiplicity
 _atom_site_fract_x
 _atom_site_fract_y
 _atom_site_fract_z
 _atom_site_occupancy
  Ca2+  Ca0  1  0.17695047  0.07546942  0.17707796  1
  Ca2+  Ca1  1  0.16843091  0.07075462  0.50138639  1
  Ca2+  Ca2  1  0.16464793  0.07655143  0.83581839  1
  Ca2+  Ca3  1  0.16762130  0.58167330  0.16672611  1
  Ca2+  Ca4  1  0.17393364  0.59188617  0.50118383  1
  Ca2+  Ca5  1  0.16255103  0.58323021  0.83947404  1
  Ca2+  Ca6  1  0.66346677  0.07914073  0.16840236  1
  Ca2+  Ca7  1  0.66415861  0.08354967  0.49948545  1
  Ca2+  Ca8  1  0.66852799  0.07450940  0.83930752  1
  Ca2+  Ca9  1  0.67224174  0.57920891  0.16833452  1
  Ca2+  Ca10  1  0.67170579  0.57449384  0.50237742  1
  Ca2+  Ca11  1  0.67366288  0.57668282  0.84464910  1
  Ca2+  Ca12  1  0.07991647  0.33562770  0.15562939  1
  Ca2+  Ca13  1  0.07561880  0.33508073  0.49954308  1
  Ca2+  Ca14  1  0.06920381  0.34344905  0.83286574  1
  Ca2+  Ca15  1  0.07562480  0.82785683  0.16080126  1
  Ca2+  Ca16  1  0.07938484  0.83586762  0.49680489  1
  Ca2+  Ca17  1  0.07593499  0.82274532  0.82623639  1
  Ca2+  Ca18  1  0.58376433  0.33412850  0.16263491  1
  Ca2+  Ca19  1  0.58538527  0.33220204  0.49519978  1
  Ca2+  Ca20  1  0.57453425  0.34686723  0.83006280  1
  Ca2+  Ca21  1  0.57259710  0.82947343  0.15539110  1
  Ca2+  Ca22  1  0.57543324  0.83032449  0.48965384  1
  Ca2+  Ca23  1  0.58709840  0.82687149  0.83841705  1
  Ca2+  Ca24  1  0.33074162  0.42065233  0.16854111  1
  Ca2+  Ca25  1  0.33801720  0.42333881  0.50379658  1
  Ca2+  Ca26  1  0.32885693  0.41371472  0.84225885  1
  Ca2+  Ca27  1  0.33033313  0.91423209  0.17807941  1
  Ca2+  Ca28  1  0.32451014  0.91545007  0.50096271  1
  Ca2+  Ca29  1  0.32827480  0.91336663  0.83829148  1
  Ca2+  Ca30  1  0.83029247  0.43115905  0.17075315  1
  Ca2+  Ca31  1  0.82399759  0.41822339  0.50483391  1
  Ca2+  Ca32  1  0.82630765  0.41809357  0.84523099  1
  Ca2+  Ca33  1  0.82834226  0.90572822  0.16789666  1
  Ca2+  Ca34  1  0.83923060  0.91461565  0.50390409  1
  Ca2+  Ca35  1  0.83351652  0.91200987  0.84104782  1
  Ca2+  Ca36  1  0.42154676  0.16776751  0.16280272  1
  Ca2+  Ca37  1  0.42062637  0.17115747  0.49221985  1
  Ca2+  Ca38  1  0.41767468  0.18046121  0.83102437  1
  Ca2+  Ca39  1  0.41812941  0.67312696  0.16156384  1
  Ca2+  Ca40  1  0.41589338  0.66995336  0.49116111  1
  Ca2+  Ca41  1  0.42410812  0.66679988  0.83674653  1
  Ca2+  Ca42  1  0.91925446  0.17537338  0.16158265  1
  Ca2+  Ca43  1  0.91438243  0.17310206  0.49864937  1
  Ca2+  Ca44  1  0.91195041  0.18022357  0.83152437  1
  Ca2+  Ca45  1  0.91486976  0.67027541  0.15832645  1
  Ca2+  Ca46  1  0.92101311  0.67479767  0.49458833  1
  Ca2+  Ca47  1  0.92426881  0.66744408  0.83130393  1
  Al0+  Al48  1  0.00155206  0.00061809  -0.00087864  1
  Al0+  Al49  1  -0.00132802  0.00064107  0.33162210  1
  Al0+  Al50  1  0.00064420  0.00075693  0.67023133  1
  Al0+  Al51  1  0.00010885  0.49928852  0.00123521  1
  Al0+  Al52  1  -0.00114581  0.50145387  0.33798100  1
  Al0+  Al53  1  0.00171509  0.50154627  0.65527005  1
  Al0+  Al54  1  0.50012350  0.00157985  -0.00217876  1
  Al0+  Al55  1  0.49989145  0.00209866  0.33016541  1
  Al0+  Al56  1  0.50001770  0.00130658  0.66916966  1
  Al0+  Al57  1  0.49928452  0.50061439  -0.00283729  1
  Al0+  Al58  1  0.49891172  0.49850183  0.34037803  1
  Al0+  Al59  1  0.50026337  0.50103561  0.66563646  1
  Al0+  Al60  1  0.25094802  0.24886253  0.00092069  1
  Al0+  Al61  1  0.24978620  0.24898457  0.33816973  1
  Al0+  Al62  1  0.25128196  0.25105634  0.66155272  1
  Al0+  Al63  1  0.24946647  0.75015296  -0.00632705  1
  Al0+  Al64  1  0.24789793  0.74827339  0.33664254  1
  Al0+  Al65  1  0.25088060  0.75076471  0.67016578  1
  Al0+  Al66  1  0.74973663  0.24720558  0.00026140  1
  Al0+  Al67  1  0.74898612  0.24843608  0.33123426  1
  Al0+  Al68  1  0.74809323  0.24883789  0.66760565  1
  Al0+  Al69  1  0.74801443  0.75113038  0.00114675  1
  Al0+  Al70  1  0.75018794  0.74868126  0.33556553  1
  Al0+  Al71  1  0.75045120  0.74877801  0.66279397  1
  Al0+  Al72  1  0.82232244  0.57387845  0.35207119  1
  Al0+  Al73  1  0.82159942  0.57117326  0.01339391  1
  Al0+  Al74  1  0.68030098  0.42729703  0.34895052  1
  Al0+  Al75  1  0.57098631  0.18029212  0.31831017  1
  Al0+  Al76  1  0.32399443  0.07159163  0.34946427  1
  Al0+  Al77  1  0.07392337  0.67932541  0.64799313  1
  Al0+  Al78  1  0.67584241  0.42701664  0.01538238  1
  Al0+  Al79  1  0.17962449  0.92968899  0.68375991  1
  Al0+  Al80  1  0.42926633  0.32218720  0.65100292  1
  Al0+  Al81  1  0.92812741  0.82232260  0.98572034  1
  Al0+  Al82  1  0.67950341  0.93005487  0.01377267  1
  Al0+  Al83  1  0.42981242  0.32039841  0.98872996  1
  Al0+  Al84  1  0.42841166  0.81941235  0.32203661  1
  Al0+  Al85  1  0.31925972  0.56891564  0.34552764  1
  Al0+  Al86  1  0.57111830  0.67849730  0.98627854  1
  Al0+  Al87  1  0.68029886  0.42912188  0.68236729  1
  Al0+  Al88  1  0.17753158  0.92876408  0.34733602  1
  Al0+  Al89  1  0.17953809  0.42875470  0.01105300  1
  Al0+  Al90  1  0.07054720  0.67779762  0.98607481  1
  Al0+  Al91  1  0.92884947  0.82161196  0.65092272  1
  Al0+  Al92  1  0.92704500  0.32070472  0.65222343  1
  Al0+  Al93  1  0.92912646  0.31979640  0.98937910  1
  Al0+  Al94  1  0.42780080  0.82384987  0.98405951  1
  Al0+  Al95  1  0.92885899  0.82153309  0.31789875  1
  Si0+  Si96  1  0.57083866  0.67966084  0.65019318  1
  Si0+  Si97  1  0.32142847  0.57124750  0.68374887  1
  Si0+  Si98  1  0.07179847  0.67690142  0.31519695  1
  Si0+  Si99  1  0.42643131  0.32319605  0.31660097  1
  Si0+  Si100  1  0.82051927  0.07090210  0.34799191  1
  Si0+  Si101  1  0.43064703  0.82231339  0.65211864  1
  Si0+  Si102  1  0.17611186  0.42573597  0.35158944  1
  Si0+  Si103  1  0.32186873  0.57343829  0.01508641  1
  Si0+  Si104  1  0.32023498  0.07106295  0.01434866  1
  Si0+  Si105  1  0.92985091  0.32096887  0.31865888  1
  Si0+  Si106  1  0.07195858  0.17789487  0.64959610  1
  Si0+  Si107  1  0.67808304  0.92734436  0.67996444  1
  Si0+  Si108  1  0.17967696  0.92795340  0.01515368  1
  Si0+  Si109  1  0.82073428  0.07080614  0.68163025  1
  Si0+  Si110  1  0.67868533  0.92926694  0.34717500  1
  Si0+  Si111  1  0.57140496  0.67601334  0.31832529  1
  Si0+  Si112  1  0.57265580  0.17771316  0.98124710  1
  Si0+  Si113  1  0.17918276  0.42843229  0.68005787  1
  Si0+  Si114  1  0.32273493  0.07345788  0.68532815  1
  Si0+  Si115  1  0.82319366  0.57146961  0.68289637  1
  Si0+  Si116  1  0.07127383  0.17950637  0.31931694  1
  Si0+  Si117  1  0.07395204  0.17811246  0.98393517  1
  Si0+  Si118  1  0.82428551  0.07180163  0.01790910  1
  Si0+  Si119  1  0.57060795  0.17635156  0.65002897  1
  O2-  O120  1  0.25326831  -0.00350458  0.05707592  1
  O2-  O121  1  0.25241730  -0.00161267  0.39794992  1
  O2-  O122  1  0.25447085  0.00510873  0.73066274  1
  O2-  O123  1  0.25340684  0.50381567  0.05811045  1
  O2-  O124  1  0.24605534  0.49357327  0.39496874  1
  O2-  O125  1  0.24949569  0.49978673  0.72337336  1
  O2-  O126  1  0.75771805  0.00093334  0.06174365  1
  O2-  O127  1  0.75201720  -0.00251687  0.39075286  1
  O2-  O128  1  0.75277391  -0.00453181  0.72122893  1
  O2-  O129  1  0.74890926  0.49883368  0.06313868  1
  O2-  O130  1  0.75128994  0.49966232  0.40012835  1
  O2-  O131  1  0.75864812  0.49979270  0.72838932  1
  O2-  O132  1  0.00615104  0.25538765  0.27649033  1
  O2-  O133  1  0.00299047  0.24659154  0.60517427  1
  O2-  O134  1  0.00397810  0.24568996  0.94037105  1
  O2-  O135  1  0.00115414  0.74426147  0.27248812  1
  O2-  O136  1  0.00171909  0.75183328  0.59940930  1
  O2-  O137  1  -0.00129215  0.74968989  0.93563287  1
  O2-  O138  1  0.49488763  0.25418306  0.27292877  1
  O2-  O139  1  0.50365089  0.24663016  0.60621124  1
  O2-  O140  1  0.50930792  0.25205518  0.93870132  1
  O2-  O141  1  0.50330699  0.74561500  0.27493571  1
  O2-  O142  1  0.50218885  0.75319548  0.60827351  1
  O2-  O143  1  0.50006240  0.75165592  0.93481979  1
  O2-  O144  1  0.07429644  0.17847199  0.08987854  1
  O2-  O145  1  0.06749915  0.17873608  0.42444292  1
  O2-  O146  1  0.07166310  0.17804200  0.75515585  1
  O2-  O147  1  0.07380197  0.68035812  0.09959417  1
  O2-  O148  1  0.07287806  0.67824109  0.42067556  1
  O2-  O149  1  0.07299661  0.67808482  0.76124382  1
  O2-  O150  1  0.56961155  0.17431016  0.08671449  1
  O2-  O151  1  0.57201621  0.18060345  0.43172505  1
  O2-  O152  1  0.56923990  0.17180500  0.75520544  1
  O2-  O153  1  0.56803405  0.67921307  0.10000025  1
  O2-  O154  1  0.56983016  0.67916436  0.42478264  1
  O2-  O155  1  0.57090426  0.68000140  0.75487365  1
  O2-  O156  1  0.17563276  0.42438806  0.24599409  1
  O2-  O157  1  0.18159623  0.42732522  0.57487785  1
  O2-  O158  1  0.18063615  0.42757712  0.89767742  1
  O2-  O159  1  0.17801496  0.93133847  0.23342528  1
  O2-  O160  1  0.18109882  0.93134291  0.57077515  1
  O2-  O161  1  0.17971026  0.93122009  0.91001096  1
  O2-  O162  1  0.68210344  0.42714472  0.23586621  1
  O2-  O163  1  0.68063961  0.42977715  0.56936473  1
  O2-  O164  1  0.67774330  0.42929650  0.90138367  1
  O2-  O165  1  0.67857349  0.93084243  0.24253474  1
  O2-  O166  1  0.67432855  0.92979516  0.57468915  1
  O2-  O167  1  0.67907386  0.93358688  0.89996478  1
  O2-  O168  1  0.42645778  0.31595449  0.10144570  1
  O2-  O169  1  0.42726085  0.32240000  0.42240024  1
  O2-  O170  1  0.42809139  0.32112037  0.76420495  1
  O2-  O171  1  0.42675918  0.82313201  0.09781818  1
  O2-  O172  1  0.43122094  0.81807998  0.43597287  1
  O2-  O173  1  0.43247440  0.82228762  0.75679869  1
  O2-  O174  1  0.93234993  0.31772538  0.10268677  1
  O2-  O175  1  0.92965744  0.31676015  0.42405441  1
  O2-  O176  1  0.92748788  0.31966255  0.76523127  1
  O2-  O177  1  0.93174698  0.82314115  0.09936760  1
  O2-  O178  1  0.93111378  0.82416393  0.43085311  1
  O2-  O179  1  0.92726882  0.82047390  0.76391444  1
  O2-  O180  1  0.32125959  0.07227410  0.23545539  1
  O2-  O181  1  0.32435225  0.07120904  0.58010415  1
  O2-  O182  1  0.31691913  0.07309892  0.90912251  1
  O2-  O183  1  0.31885913  0.56816150  0.23262133  1
  O2-  O184  1  0.32232607  0.57156486  0.57838984  1
  O2-  O185  1  0.32214862  0.57212859  0.90920473  1
  O2-  O186  1  0.82071923  0.07359037  0.24336914  1
  O2-  O187  1  0.81947039  0.07281730  0.57616412  1
  O2-  O188  1  0.82268317  0.07383107  0.91200839  1
  O2-  O189  1  0.82360097  0.57286307  0.23878243  1
  O2-  O190  1  0.81832528  0.57179481  0.57742580  1
  O2-  O191  1  0.82278528  0.56816856  0.89940468  1
  O2-  O192  1  0.03867968  0.09079956  0.26906188  1
  O2-  O193  1  0.04395194  0.08519418  0.60340503  1
  O2-  O194  1  0.04876509  0.08492402  0.93708955  1
  O2-  O195  1  0.04878194  0.58104240  0.27211568  1
  O2-  O196  1  0.04994752  0.58141955  0.59193531  1
  O2-  O197  1  0.04347224  0.57927285  0.93277686  1
  O2-  O198  1  0.54110339  0.08425114  0.26256844  1
  O2-  O199  1  0.54366279  0.08323761  0.60200831  1
  O2-  O200  1  0.54068322  0.08760686  0.93175820  1
  O2-  O201  1  0.54409527  0.58211873  0.27530090  1
  O2-  O202  1  0.53871998  0.58990002  0.60169620  1
  O2-  O203  1  0.54092018  0.58227137  0.92958290  1
  O2-  O204  1  0.16544024  0.20206801  0.27384200  1
  O2-  O205  1  0.16495195  0.20339259  0.60236958  1
  O2-  O206  1  0.16652015  0.20337694  0.93655994  1
  O2-  O207  1  0.16487308  0.70341705  0.26930205  1
  O2-  O208  1  0.17381655  0.70985028  0.59837398  1
  O2-  O209  1  0.16813276  0.70506847  0.93076025  1
  O2-  O210  1  0.66777877  0.20841871  0.26268258  1
  O2-  O211  1  0.66470405  0.20016925  0.60434403  1
  O2-  O212  1  0.66866280  0.19436752  0.93726221  1
  O2-  O213  1  0.66534756  0.70105616  0.27446343  1
  O2-  O214  1  0.66230828  0.70562688  0.60140451  1
  O2-  O215  1  0.66756953  0.70923504  0.93096750  1
  O2-  O216  1  0.08442329  0.45765658  0.06791166  1
  O2-  O217  1  0.08306831  0.45164267  0.39838247  1
  O2-  O218  1  0.08554157  0.45644527  0.72388726  1
  O2-  O219  1  0.08856893  0.95817010  0.06246440  1
  O2-  O220  1  0.08097922  0.96471957  0.40057971  1
  O2-  O221  1  0.08347319  0.96233319  0.73822195  1
  O2-  O222  1  0.57667913  0.45516802  0.06666835  1
  O2-  O223  1  0.58125373  0.45281494  0.40246088  1
  O2-  O224  1  0.58343072  0.46464811  0.73305168  1
  O2-  O225  1  0.58312837  0.96513587  0.06680902  1
  O2-  O226  1  0.58861829  0.96098175  0.39584743  1
  O2-  O227  1  0.58827404  0.95863389  0.72971377  1
  O2-  O228  1  0.21048353  0.33229927  0.06663059  1
  O2-  O229  1  0.19870515  0.33196322  0.39881961  1
  O2-  O230  1  0.20632577  0.33593470  0.72635063  1
  O2-  O231  1  0.20592987  0.83509521  0.06042025  1
  O2-  O232  1  0.20336043  0.83056552  0.40093338  1
  O2-  O233  1  0.21310960  0.83403028  0.73786391  1
  O2-  O234  1  0.70088510  0.32586335  0.06377515  1
  O2-  O235  1  0.71159765  0.32868825  0.40138760  1
  O2-  O236  1  0.70442231  0.32948164  0.73363243  1
  O2-  O237  1  0.70397041  0.83333463  0.06935076  1
  O2-  O238  1  0.70215201  0.83693153  0.39549812  1
  O2-  O239  1  0.70331506  0.83427344  0.72579377  1
  O2-  O240  1  0.45216143  0.41721540  0.27213184  1
  O2-  O241  1  0.46036080  0.41905828  0.59778905  1
  O2-  O242  1  0.45288608  0.41789406  0.93321716  1
  O2-  O243  1  0.45818693  0.91612732  0.26898521  1
  O2-  O244  1  0.45716690  0.91527475  0.60605842  1
  O2-  O245  1  0.45592993  0.92211901  0.93057994  1
  O2-  O246  1  0.95398714  0.41503484  0.27488887  1
  O2-  O247  1  0.95830505  0.41499830  0.59491904  1
  O2-  O248  1  0.96110487  0.41439918  0.93375964  1
  O2-  O249  1  0.95766318  0.91923127  0.26451433  1
  O2-  O250  1  0.95553247  0.92282443  0.60187697  1
  O2-  O251  1  0.95649993  0.92178848  0.93365780  1
  O2-  O252  1  0.33091083  0.29875588  0.27366767  1
  O2-  O253  1  0.33301424  0.29275443  0.59539005  1
  O2-  O254  1  0.33518174  0.28369923  0.93279126  1
  O2-  O255  1  0.33113470  0.78884901  0.26994019  1
  O2-  O256  1  0.33905949  0.79254058  0.60659256  1
  O2-  O257  1  0.33109111  0.79438605  0.92905191  1
  O2-  O258  1  0.84100279  0.28619050  0.27139874  1
  O2-  O259  1  0.83176668  0.28452402  0.59842194  1
  O2-  O260  1  0.83358094  0.28648091  0.93409851  1
  O2-  O261  1  0.82967589  0.79274733  0.26795224  1
  O2-  O262  1  0.82945138  0.79493832  0.59737322  1
  O2-  O263  1  0.82771249  0.79974961  0.93615846  1
  O2-  O264  1  0.41401446  0.04822153  0.05925677  1
  O2-  O265  1  0.42286188  0.04478519  0.40214237  1
  O2-  O266  1  0.41637975  0.04807467  0.73224017  1
  O2-  O267  1  0.41473511  0.54782703  0.06132811  1
  O2-  O268  1  0.41455846  0.54062075  0.40454255  1
  O2-  O269  1  0.41296773  0.54218183  0.73047608  1
  O2-  O270  1  0.91976603  0.05116177  0.06281731  1
  O2-  O271  1  0.91238932  0.04565200  0.39658269  1
  O2-  O272  1  0.91326566  0.04933603  0.72988909  1
  O2-  O273  1  0.91850733  0.54099054  0.06844447  1
  O2-  O274  1  0.92097585  0.54619584  0.40515518  1
  O2-  O275  1  0.92033015  0.54918558  0.72191106  1
  O2-  O276  1  0.28911950  0.16009969  0.06499211  1
  O2-  O277  1  0.29433429  0.16937188  0.40382955  1
  O2-  O278  1  0.29558542  0.16807256  0.72906272  1
  O2-  O279  1  0.29513928  0.66727489  0.06029966  1
  O2-  O280  1  0.28806535  0.66398145  0.40319542  1
  O2-  O281  1  0.29554504  0.66284440  0.73185198  1
  O2-  O282  1  0.79578225  0.16364413  0.06620820  1
  O2-  O283  1  0.78935945  0.16066874  0.39784026  1
  O2-  O284  1  0.78798781  0.15988553  0.73173831  1
  O2-  O285  1  0.79304580  0.66939011  0.06588273  1
  O2-  O286  1  0.79168304  0.67129951  0.40668742  1
  O2-  O287  1  0.79365952  0.66470290  0.72782107  1
