# generated using pymatgen
data_Ca2Al2SiO7
_symmetry_space_group_name_H-M   'P 1'
_cell_length_a   15.45345113
_cell_length_b   15.45322877
_cell_length_c   15.27998032
_cell_angle_alpha   90.00487809
_cell_angle_beta   90.00834340
_cell_angle_gamma   90.00683669
_symmetry_Int_Tables_number   1
_chemical_formula_structural   Ca2Al2SiO7
_chemical_formula_sum   'Ca48 Al48 Si24 O168'
_cell_volume   3648.94655819
_cell_formula_units_Z   24
loop_
 _symmetry_equiv_pos_site_id
 _symmetry_equiv_pos_as_xyz
  1  'x, y, z'
loop_
 _atom_type_symbol
 _atom_type_oxidation_number
  Ca2+  2.0
  Al0+  0.0
  Si0+  0.0
  O2-  -2.0
loop_
 _atom_site_type_symbol
 _atom_site_label
 _atom_site_symmetry_multiplicity
 _atom_site_fract_x
 _atom_site_fract_y
 _atom_site_fract_z
 _atom_site_occupancy
  Ca2+  Ca0  1  0.17117354  0.07800103  0.17759783  1
  Ca2+  Ca1  1  0.17656915  0.08651324  0.49993108  1
  Ca2+  Ca2  1  0.17668768  0.07780015  0.83702693  1
  Ca2+  Ca3  1  0.16876470  0.56915286  0.17143757  1
  Ca2+  Ca4  1  0.16247505  0.57409167  0.50661146  1
  Ca2+  Ca5  1  0.16505936  0.57607048  0.83482790  1
  Ca2+  Ca6  1  0.66430793  0.07896469  0.17043341  1
  Ca2+  Ca7  1  0.66706318  0.07395224  0.51249870  1
  Ca2+  Ca8  1  0.66596736  0.08705523  0.83120637  1
  Ca2+  Ca9  1  0.66691541  0.58120056  0.16940521  1
  Ca2+  Ca10  1  0.67170809  0.57927361  0.50597378  1
  Ca2+  Ca11  1  0.65507395  0.57355728  0.83523734  1
  Ca2+  Ca12  1  0.09216447  0.32847326  0.16674468  1
  Ca2+  Ca13  1  0.08254477  0.33207335  0.49531163  1
  Ca2+  Ca14  1  0.07637724  0.34165036  0.82465085  1
  Ca2+  Ca15  1  0.07841467  0.84317282  0.16435321  1
  Ca2+  Ca16  1  0.07853741  0.83066646  0.49191458  1
  Ca2+  Ca17  1  0.08707339  0.82752138  0.82636765  1
  Ca2+  Ca18  1  0.57067829  0.33043178  0.15430337  1
  Ca2+  Ca19  1  0.58135544  0.32634678  0.49702967  1
  Ca2+  Ca20  1  0.58468268  0.32725268  0.82661837  1
  Ca2+  Ca21  1  0.58568602  0.82840473  0.16229559  1
  Ca2+  Ca22  1  0.58588865  0.83677446  0.50088076  1
  Ca2+  Ca23  1  0.58217117  0.82250652  0.82148235  1
  Ca2+  Ca24  1  0.32962419  0.40714145  0.17098765  1
  Ca2+  Ca25  1  0.32245234  0.40854538  0.50180978  1
  Ca2+  Ca26  1  0.32269729  0.41162571  0.83889199  1
  Ca2+  Ca27  1  0.32235863  0.92347226  0.17615037  1
  Ca2+  Ca28  1  0.33602119  0.92820230  0.50684675  1
  Ca2+  Ca29  1  0.33753871  0.91990235  0.83255316  1
  Ca2+  Ca30  1  0.82382049  0.42397520  0.17072721  1
  Ca2+  Ca31  1  0.83281084  0.42049306  0.50863368  1
  Ca2+  Ca32  1  0.81975759  0.40961461  0.83224275  1
  Ca2+  Ca33  1  0.82707426  0.91551067  0.17730808  1
  Ca2+  Ca34  1  0.82579686  0.91954738  0.50382077  1
  Ca2+  Ca35  1  0.82977214  0.92218084  0.83025393  1
  Ca2+  Ca36  1  0.41645533  0.17384225  0.16462516  1
  Ca2+  Ca37  1  0.41575359  0.16619723  0.49643612  1
  Ca2+  Ca38  1  0.42550410  0.16833774  0.82959089  1
  Ca2+  Ca39  1  0.42309182  0.66882824  0.15970739  1
  Ca2+  Ca40  1  0.42162465  0.67254106  0.50223098  1
  Ca2+  Ca41  1  0.42504128  0.67247892  0.82507622  1
  Ca2+  Ca42  1  0.92719017  0.16300119  0.16603938  1
  Ca2+  Ca43  1  0.91899537  0.16992888  0.49853226  1
  Ca2+  Ca44  1  0.91761715  0.17250032  0.82271310  1
  Ca2+  Ca45  1  0.91203385  0.67031033  0.17036267  1
  Ca2+  Ca46  1  0.91940607  0.66855156  0.49473168  1
  Ca2+  Ca47  1  0.92522415  0.66675323  0.82570072  1
  Al0+  Al48  1  -0.00116720  0.00067752  0.00045996  1
  Al0+  Al49  1  -0.00116636  -0.00009576  0.32837278  1
  Al0+  Al50  1  0.00090977  0.00038304  0.67010821  1
  Al0+  Al51  1  0.00030279  0.50123981  0.00643583  1
  Al0+  Al52  1  -0.00128975  0.50089623  0.33814049  1
  Al0+  Al53  1  -0.00085369  0.50022474  0.66249335  1
  Al0+  Al54  1  0.50089523  0.00118162  -0.00115891  1
  Al0+  Al55  1  0.49981499  -0.00131233  0.33804093  1
  Al0+  Al56  1  0.49991716  0.00012545  0.66978008  1
  Al0+  Al57  1  0.49782524  0.50019204  -0.00346004  1
  Al0+  Al58  1  0.49933458  0.49965078  0.32894945  1
  Al0+  Al59  1  0.49808067  0.50102934  0.66431792  1
  Al0+  Al60  1  0.24972771  0.24767761  -0.00120082  1
  Al0+  Al61  1  0.24991031  0.24966019  0.33292351  1
  Al0+  Al62  1  0.24895032  0.24835365  0.67834713  1
  Al0+  Al63  1  0.24797561  0.74981876  0.00522614  1
  Al0+  Al64  1  0.25033311  0.74755159  0.33365810  1
  Al0+  Al65  1  0.25081381  0.74823791  0.65667925  1
  Al0+  Al66  1  0.75160743  0.25072985  0.00534509  1
  Al0+  Al67  1  0.74989036  0.24982627  0.32998161  1
  Al0+  Al68  1  0.75083207  0.25111071  0.66286548  1
  Al0+  Al69  1  0.75147465  0.75111863  -0.00637102  1
  Al0+  Al70  1  0.75185917  0.74895320  0.33723463  1
  Al0+  Al71  1  0.75189197  0.74979480  0.66781561  1
  Al0+  Al72  1  0.68009579  0.92973199  0.34585899  1
  Al0+  Al73  1  0.67923264  0.92824675  0.68445802  1
  Al0+  Al74  1  0.32157974  0.07083129  0.68342331  1
  Al0+  Al75  1  0.06908514  0.18185366  0.32074237  1
  Al0+  Al76  1  0.57172449  0.68032532  0.98645352  1
  Al0+  Al77  1  0.31952702  0.07004940  0.34841820  1
  Al0+  Al78  1  0.57040821  0.18118781  0.65238941  1
  Al0+  Al79  1  0.81849203  0.56920699  0.34757190  1
  Al0+  Al80  1  0.57371321  0.17917438  0.98441386  1
  Al0+  Al81  1  0.17876581  0.43052911  0.68056101  1
  Al0+  Al82  1  0.57339725  0.67677402  0.64887477  1
  Al0+  Al83  1  0.07068971  0.67893561  0.65254093  1
  Al0+  Al84  1  0.67751950  0.42919133  0.01364741  1
  Al0+  Al85  1  0.17561436  0.92716111  0.34918909  1
  Al0+  Al86  1  0.82223202  0.07232752  0.68090548  1
  Al0+  Al87  1  0.17840473  0.42860800  0.01473604  1
  Al0+  Al88  1  0.67775877  0.43028843  0.67744321  1
  Al0+  Al89  1  0.17857579  0.92864374  0.01340528  1
  Al0+  Al90  1  0.18168411  0.43008401  0.34743616  1
  Al0+  Al91  1  0.43033188  0.82201547  0.65047604  1
  Al0+  Al92  1  0.42643823  0.32061305  0.98218122  1
  Al0+  Al93  1  0.43060216  0.31958385  0.32081477  1
  Al0+  Al94  1  0.92947278  0.31971547  0.65334825  1
  Al0+  Al95  1  0.93057311  0.81895087  0.31995831  1
  Si0+  Si96  1  0.32580478  0.57327332  0.35067793  1
  Si0+  Si97  1  0.82238703  0.57162774  0.68420046  1
  Si0+  Si98  1  0.82162145  0.07157637  0.01695733  1
  Si0+  Si99  1  0.92951735  0.82425254  0.65008779  1
  Si0+  Si100  1  0.07331595  0.67546368  0.31414981  1
  Si0+  Si101  1  0.93145926  0.32234416  0.98760103  1
  Si0+  Si102  1  0.42436640  0.32140865  0.65105202  1
  Si0+  Si103  1  0.32132987  0.57237753  0.01634678  1
  Si0+  Si104  1  0.42836538  0.82252264  0.31730083  1
  Si0+  Si105  1  0.32113840  0.57373525  0.68275625  1
  Si0+  Si106  1  0.92593556  0.32562906  0.31436942  1
  Si0+  Si107  1  0.57316644  0.17532034  0.31725264  1
  Si0+  Si108  1  0.92936859  0.82287424  0.98294342  1
  Si0+  Si109  1  0.06973040  0.17752736  0.98380409  1
  Si0+  Si110  1  0.68074504  0.92813614  0.01372115  1
  Si0+  Si111  1  0.67572566  0.42702582  0.34844380  1
  Si0+  Si112  1  0.57112937  0.68068296  0.31825991  1
  Si0+  Si113  1  0.17887121  0.92546798  0.68112294  1
  Si0+  Si114  1  0.07016341  0.67880934  0.98737191  1
  Si0+  Si115  1  0.07382955  0.17677070  0.65227299  1
  Si0+  Si116  1  0.32328860  0.07038960  0.01823670  1
  Si0+  Si117  1  0.42592872  0.82168379  0.98619398  1
  Si0+  Si118  1  0.82213256  0.57402848  0.01603273  1
  Si0+  Si119  1  0.82249841  0.07390443  0.34824465  1
  O2-  O120  1  0.25457606  0.00092837  0.06083292  1
  O2-  O121  1  0.24995992  -0.00427987  0.39944784  1
  O2-  O122  1  0.24729187  -0.00675530  0.72699470  1
  O2-  O123  1  0.25698609  0.49948848  0.06078575  1
  O2-  O124  1  0.25447598  0.50683053  0.39378189  1
  O2-  O125  1  0.25474145  0.50334584  0.72818985  1
  O2-  O126  1  0.74848224  0.00157865  0.05745254  1
  O2-  O127  1  0.74961367  0.00979057  0.39104314  1
  O2-  O128  1  0.75009023  0.00209050  0.73408497  1
  O2-  O129  1  0.74990689  0.50783369  0.05852477  1
  O2-  O130  1  0.74838679  0.49029257  0.39349076  1
  O2-  O131  1  0.74886545  0.50792633  0.72741422  1
  O2-  O132  1  -0.00587298  0.25602075  0.27068581  1
  O2-  O133  1  0.00448568  0.24467211  0.60833282  1
  O2-  O134  1  0.00359539  0.25351256  0.94301313  1
  O2-  O135  1  0.00911115  0.74894015  0.26989866  1
  O2-  O136  1  -0.00141489  0.75609811  0.60655751  1
  O2-  O137  1  0.00143563  0.75157911  0.94350123  1
  O2-  O138  1  0.50803740  0.24742362  0.27372814  1
  O2-  O139  1  0.49469651  0.25510397  0.60589297  1
  O2-  O140  1  0.50322337  0.25260104  0.93397529  1
  O2-  O141  1  0.49876085  0.75040436  0.27502985  1
  O2-  O142  1  0.50534208  0.75283297  0.59949773  1
  O2-  O143  1  0.49629769  0.75518287  0.94191394  1
  O2-  O144  1  0.06746749  0.17581146  0.08903378  1
  O2-  O145  1  0.06859431  0.18392261  0.43367849  1
  O2-  O146  1  0.07228640  0.17675445  0.75835732  1
  O2-  O147  1  0.06806534  0.67779268  0.09210077  1
  O2-  O148  1  0.06996640  0.67360537  0.41947903  1
  O2-  O149  1  0.06913980  0.67972797  0.76683743  1
  O2-  O150  1  0.57240381  0.17746158  0.09847852  1
  O2-  O151  1  0.57427204  0.17567301  0.42254831  1
  O2-  O152  1  0.57087689  0.18388599  0.76542499  1
  O2-  O153  1  0.57295809  0.68392145  0.10047833  1
  O2-  O154  1  0.57051728  0.67988926  0.42264980  1
  O2-  O155  1  0.56923084  0.67663598  0.76273228  1
  O2-  O156  1  0.18388256  0.43010230  0.23392761  1
  O2-  O157  1  0.17974256  0.42978513  0.56755964  1
  O2-  O158  1  0.17338555  0.43392014  0.90196737  1
  O2-  O159  1  0.17757750  0.93140579  0.23503060  1
  O2-  O160  1  0.17709535  0.92724161  0.57608140  1
  O2-  O161  1  0.17814510  0.92887564  0.90022378  1
  O2-  O162  1  0.67552937  0.43053465  0.24255120  1
  O2-  O163  1  0.68116941  0.43036718  0.56427332  1
  O2-  O164  1  0.68124383  0.42783780  0.90073840  1
  O2-  O165  1  0.68140339  0.92865693  0.23160755  1
  O2-  O166  1  0.68264242  0.92920191  0.57070928  1
  O2-  O167  1  0.68384015  0.92602140  0.90949712  1
  O2-  O168  1  0.42623225  0.31688661  0.09619006  1
  O2-  O169  1  0.43134910  0.31930859  0.43389202  1
  O2-  O170  1  0.42432173  0.32015058  0.75655190  1
  O2-  O171  1  0.42698520  0.82021500  0.09228369  1
  O2-  O172  1  0.42936620  0.82299055  0.42167878  1
  O2-  O173  1  0.42805858  0.81756016  0.76484817  1
  O2-  O174  1  0.93205375  0.32083024  0.09267751  1
  O2-  O175  1  0.92514080  0.32489530  0.41968487  1
  O2-  O176  1  0.93080299  0.32049765  0.76737521  1
  O2-  O177  1  0.92661920  0.82344623  0.08800935  1
  O2-  O178  1  0.92938096  0.81596482  0.43255965  1
  O2-  O179  1  0.93169862  0.82374078  0.75644061  1
  O2-  O180  1  0.31914457  0.06881181  0.23438470  1
  O2-  O181  1  0.31873133  0.07360890  0.57068457  1
  O2-  O182  1  0.32278736  0.06892246  0.91266213  1
  O2-  O183  1  0.32717859  0.57388138  0.24471539  1
  O2-  O184  1  0.31987184  0.57345108  0.57716813  1
  O2-  O185  1  0.31649536  0.57729936  0.91116959  1
  O2-  O186  1  0.82234697  0.07207815  0.24187667  1
  O2-  O187  1  0.82291691  0.07021881  0.56733703  1
  O2-  O188  1  0.82584351  0.07094089  0.91242105  1
  O2-  O189  1  0.81426774  0.57083280  0.23376655  1
  O2-  O190  1  0.82379844  0.56929549  0.57857502  1
  O2-  O191  1  0.82782092  0.57384045  0.91107841  1
  O2-  O192  1  0.03757152  0.08632260  0.26326449  1
  O2-  O193  1  0.04964558  0.08267092  0.60656773  1
  O2-  O194  1  0.03606698  0.08807454  0.93518929  1
  O2-  O195  1  0.04045208  0.58376401  0.26746510  1
  O2-  O196  1  0.03574866  0.58516922  0.59630843  1
  O2-  O197  1  0.03936455  0.58773701  0.93946339  1
  O2-  O198  1  0.54450627  0.08218716  0.27102236  1
  O2-  O199  1  0.54119419  0.08317349  0.60198778  1
  O2-  O200  1  0.54580987  0.07974280  0.93229372  1
  O2-  O201  1  0.54416714  0.58885462  0.26927208  1
  O2-  O202  1  0.54129963  0.57980914  0.59427157  1
  O2-  O203  1  0.54082483  0.58424007  0.93298151  1
  O2-  O204  1  0.16424691  0.21378497  0.26413670  1
  O2-  O205  1  0.16716690  0.20550729  0.60851828  1
  O2-  O206  1  0.16353102  0.19862893  0.93860851  1
  O2-  O207  1  0.16982379  0.69319465  0.27027364  1
  O2-  O208  1  0.16651674  0.70364113  0.59537878  1
  O2-  O209  1  0.16261781  0.70525408  0.94042960  1
  O2-  O210  1  0.66847312  0.19586743  0.27078736  1
  O2-  O211  1  0.66585061  0.21193683  0.59655146  1
  O2-  O212  1  0.67475541  0.20594776  0.93575202  1
  O2-  O213  1  0.66202304  0.71137526  0.27096773  1
  O2-  O214  1  0.67466443  0.70177763  0.60037167  1
  O2-  O215  1  0.66785674  0.71009401  0.93095986  1
  O2-  O216  1  0.08415758  0.46298143  0.07207793  1
  O2-  O217  1  0.08352561  0.45783447  0.39927570  1
  O2-  O218  1  0.08232080  0.46549334  0.73301442  1
  O2-  O219  1  0.08169076  0.96214191  0.06600021  1
  O2-  O220  1  0.07640200  0.95629826  0.39861784  1
  O2-  O221  1  0.08572054  0.95009438  0.72949142  1
  O2-  O222  1  0.57948224  0.45857423  0.06574849  1
  O2-  O223  1  0.58360090  0.45661009  0.39411039  1
  O2-  O224  1  0.57954525  0.45737764  0.73096005  1
  O2-  O225  1  0.58712635  0.95210997  0.06024393  1
  O2-  O226  1  0.58311018  0.95476401  0.40031176  1
  O2-  O227  1  0.58063025  0.95388581  0.73665569  1
  O2-  O228  1  0.20563231  0.32908230  0.06487791  1
  O2-  O229  1  0.21396550  0.33469766  0.40129450  1
  O2-  O230  1  0.20526886  0.33465102  0.73802168  1
  O2-  O231  1  0.20405602  0.83148372  0.06963107  1
  O2-  O232  1  0.19811343  0.82487945  0.39569951  1
  O2-  O233  1  0.20491137  0.83063837  0.72486997  1
  O2-  O234  1  0.71232240  0.33518906  0.07118911  1
  O2-  O235  1  0.69648897  0.33043354  0.39030664  1
  O2-  O236  1  0.71419328  0.33590818  0.73178914  1
  O2-  O237  1  0.71266321  0.83718454  0.06160719  1
  O2-  O238  1  0.71554973  0.83580197  0.40036844  1
  O2-  O239  1  0.71067857  0.82974926  0.73702812  1
  O2-  O240  1  0.45768060  0.41693428  0.26415327  1
  O2-  O241  1  0.44476662  0.41651643  0.60637855  1
  O2-  O242  1  0.44646614  0.42199622  0.93296544  1
  O2-  O243  1  0.45759843  0.91359734  0.26889518  1
  O2-  O244  1  0.45675798  0.92115084  0.59943213  1
  O2-  O245  1  0.44945267  0.91611418  0.94185055  1
  O2-  O246  1  0.95176642  0.41962061  0.26944728  1
  O2-  O247  1  0.96103655  0.41492580  0.59791931  1
  O2-  O248  1  0.95827755  0.41534131  0.94167096  1
  O2-  O249  1  0.95519280  0.91610105  0.26267094  1
  O2-  O250  1  0.95451897  0.91811101  0.60446482  1
  O2-  O251  1  0.95776512  0.91441397  0.93542934  1
  O2-  O252  1  0.33548534  0.28590068  0.26565932  1
  O2-  O253  1  0.33061305  0.29083736  0.60786928  1
  O2-  O254  1  0.32844255  0.28881838  0.92939929  1
  O2-  O255  1  0.33606103  0.79451141  0.26956673  1
  O2-  O256  1  0.33414604  0.79140099  0.59403731  1
  O2-  O257  1  0.33223078  0.79440622  0.94096742  1
  O2-  O258  1  0.83152044  0.30122014  0.26745734  1
  O2-  O259  1  0.83524706  0.28994966  0.59529161  1
  O2-  O260  1  0.83979079  0.29259519  0.94169619  1
  O2-  O261  1  0.83516125  0.78227073  0.26453366  1
  O2-  O262  1  0.83612795  0.79790387  0.60536284  1
  O2-  O263  1  0.83949257  0.79425204  0.93257908  1
  O2-  O264  1  0.41742161  0.04638455  0.06450919  1
  O2-  O265  1  0.41816985  0.04338469  0.40116031  1
  O2-  O266  1  0.41662026  0.03935120  0.73908864  1
  O2-  O267  1  0.41624094  0.55154295  0.06156422  1
  O2-  O268  1  0.41885226  0.54583070  0.39642299  1
  O2-  O269  1  0.41550006  0.55104737  0.72813239  1
  O2-  O270  1  0.91182010  0.03954033  0.06583232  1
  O2-  O271  1  0.91434164  0.04455284  0.39368843  1
  O2-  O272  1  0.92052086  0.04360508  0.73690082  1
  O2-  O273  1  0.91301182  0.54560842  0.06686152  1
  O2-  O274  1  0.91570964  0.54338375  0.40215566  1
  O2-  O275  1  0.91408506  0.54057055  0.73109988  1
  O2-  O276  1  0.29453194  0.16330389  0.06318749  1
  O2-  O277  1  0.28751204  0.16679439  0.40142046  1
  O2-  O278  1  0.28802652  0.16361759  0.74316435  1
  O2-  O279  1  0.29220560  0.66357018  0.06699521  1
  O2-  O280  1  0.30330149  0.66759507  0.39630456  1
  O2-  O281  1  0.29233985  0.66667260  0.72877256  1
  O2-  O282  1  0.79757899  0.16285814  0.06713256  1
  O2-  O283  1  0.80337033  0.17031884  0.39152303  1
  O2-  O284  1  0.79433048  0.17112411  0.73297668  1
  O2-  O285  1  0.79704820  0.66907763  0.06060486  1
  O2-  O286  1  0.78522882  0.66305082  0.40386155  1
  O2-  O287  1  0.80496621  0.66728531  0.72911482  1
