# generated using pymatgen
data_Ca2Al2SiO7
_symmetry_space_group_name_H-M   'P 1'
_cell_length_a   15.46331606
_cell_length_b   15.46150737
_cell_length_c   15.28713316
_cell_angle_alpha   90.00285839
_cell_angle_beta   89.99051764
_cell_angle_gamma   89.99777860
_symmetry_Int_Tables_number   1
_chemical_formula_structural   Ca2Al2SiO7
_chemical_formula_sum   'Ca48 Al48 Si24 O168'
_cell_volume   3654.94213836
_cell_formula_units_Z   24
loop_
 _symmetry_equiv_pos_site_id
 _symmetry_equiv_pos_as_xyz
  1  'x, y, z'
loop_
 _atom_type_symbol
 _atom_type_oxidation_number
  Ca2+  2.0
  Al0+  0.0
  Si0+  0.0
  O2-  -2.0
loop_
 _atom_site_type_symbol
 _atom_site_label
 _atom_site_symmetry_multiplicity
 _atom_site_fract_x
 _atom_site_fract_y
 _atom_site_fract_z
 _atom_site_occupancy
  Ca2+  Ca0  1  0.17440212  0.07565502  0.17728604  1
  Ca2+  Ca1  1  0.17884069  0.07785602  0.50363973  1
  Ca2+  Ca2  1  0.17399214  0.08644565  0.83257338  1
  Ca2+  Ca3  1  0.17262197  0.58288370  0.17757015  1
  Ca2+  Ca4  1  0.16963456  0.59416633  0.50097942  1
  Ca2+  Ca5  1  0.16663941  0.58549583  0.83266890  1
  Ca2+  Ca6  1  0.66975997  0.08124721  0.16451817  1
  Ca2+  Ca7  1  0.66769968  0.07650259  0.51349924  1
  Ca2+  Ca8  1  0.66962352  0.07481049  0.83228391  1
  Ca2+  Ca9  1  0.67196972  0.57601187  0.16897039  1
  Ca2+  Ca10  1  0.66552373  0.57991171  0.50255900  1
  Ca2+  Ca11  1  0.66805468  0.58193224  0.84405363  1
  Ca2+  Ca12  1  0.07540762  0.33159991  0.15940312  1
  Ca2+  Ca13  1  0.07721318  0.33173265  0.50057309  1
  Ca2+  Ca14  1  0.06782760  0.33188935  0.82772959  1
  Ca2+  Ca15  1  0.08662768  0.82879277  0.16882114  1
  Ca2+  Ca16  1  0.08213303  0.82857628  0.49580940  1
  Ca2+  Ca17  1  0.07274415  0.82656186  0.82345632  1
  Ca2+  Ca18  1  0.58190334  0.33943571  0.16034470  1
  Ca2+  Ca19  1  0.58414214  0.32678838  0.50036138  1
  Ca2+  Ca20  1  0.57661076  0.33199040  0.82641538  1
  Ca2+  Ca21  1  0.58033541  0.82887286  0.16090867  1
  Ca2+  Ca22  1  0.57785015  0.83422691  0.50047167  1
  Ca2+  Ca23  1  0.59067070  0.82623628  0.82559248  1
  Ca2+  Ca24  1  0.33578543  0.42300482  0.17247181  1
  Ca2+  Ca25  1  0.33578511  0.42358252  0.50569081  1
  Ca2+  Ca26  1  0.33634346  0.41235309  0.83684310  1
  Ca2+  Ca27  1  0.32869561  0.91906147  0.18104506  1
  Ca2+  Ca28  1  0.33762264  0.91944579  0.50512732  1
  Ca2+  Ca29  1  0.34137486  0.92005907  0.82880049  1
  Ca2+  Ca30  1  0.82486636  0.42305690  0.16984909  1
  Ca2+  Ca31  1  0.83123683  0.42144470  0.50207311  1
  Ca2+  Ca32  1  0.82807604  0.41961389  0.84310106  1
  Ca2+  Ca33  1  0.82680827  0.91850418  0.16545655  1
  Ca2+  Ca34  1  0.82887105  0.92180561  0.51469101  1
  Ca2+  Ca35  1  0.82355673  0.91899739  0.83770566  1
  Ca2+  Ca36  1  0.41626738  0.17261536  0.16087579  1
  Ca2+  Ca37  1  0.41810407  0.16259440  0.49979667  1
  Ca2+  Ca38  1  0.42359628  0.17500188  0.82254530  1
  Ca2+  Ca39  1  0.42015530  0.66954488  0.16405758  1
  Ca2+  Ca40  1  0.41916578  0.67710078  0.49647382  1
  Ca2+  Ca41  1  0.43442476  0.67251157  0.82556655  1
  Ca2+  Ca42  1  0.91590416  0.17092016  0.15706560  1
  Ca2+  Ca43  1  0.90473219  0.17345245  0.50016358  1
  Ca2+  Ca44  1  0.90178425  0.17491417  0.82886438  1
  Ca2+  Ca45  1  0.91847093  0.65638438  0.16535313  1
  Ca2+  Ca46  1  0.92438782  0.67003802  0.49672470  1
  Ca2+  Ca47  1  0.91673433  0.67133288  0.82381627  1
  Al0+  Al48  1  0.00311788  -0.00149613  0.00309572  1
  Al0+  Al49  1  0.00022296  0.00050573  0.33569227  1
  Al0+  Al50  1  0.00252008  0.00258577  0.66879243  1
  Al0+  Al51  1  0.00231646  0.49746083  -0.00128195  1
  Al0+  Al52  1  -0.00139262  0.49985411  0.33184336  1
  Al0+  Al53  1  0.00099739  0.49768199  0.65935893  1
  Al0+  Al54  1  0.49814086  0.00126884  0.00426118  1
  Al0+  Al55  1  0.50143543  0.00136976  0.32959349  1
  Al0+  Al56  1  0.50065753  0.00041463  0.67070553  1
  Al0+  Al57  1  0.49869253  0.50244636  -0.00402519  1
  Al0+  Al58  1  0.49969974  0.49905686  0.34175893  1
  Al0+  Al59  1  0.49913690  0.50079729  0.66094959  1
  Al0+  Al60  1  0.24901136  0.25027968  -0.00265165  1
  Al0+  Al61  1  0.24948842  0.24943784  0.33473941  1
  Al0+  Al62  1  0.24762123  0.25204904  0.66821185  1
  Al0+  Al63  1  0.25028354  0.75057975  -0.00170325  1
  Al0+  Al64  1  0.24804130  0.74957353  0.33188925  1
  Al0+  Al65  1  0.25178718  0.74917189  0.66532849  1
  Al0+  Al66  1  0.74857799  0.24897085  0.00325093  1
  Al0+  Al67  1  0.74745424  0.25044132  0.33332679  1
  Al0+  Al68  1  0.74753228  0.25213881  0.66137339  1
  Al0+  Al69  1  0.75167045  0.75016832  0.00617409  1
  Al0+  Al70  1  0.75066053  0.74983475  0.33569396  1
  Al0+  Al71  1  0.75245857  0.74856858  0.66056742  1
  Al0+  Al72  1  0.32073435  0.07177100  0.68240374  1
  Al0+  Al73  1  0.82269063  0.07414625  0.68046874  1
  Al0+  Al74  1  0.31981541  0.57067597  0.34722510  1
  Al0+  Al75  1  0.82430218  0.57119685  0.01302748  1
  Al0+  Al76  1  0.06848822  0.68011205  0.31745324  1
  Al0+  Al77  1  0.82227486  0.57137750  0.35122059  1
  Al0+  Al78  1  0.43100309  0.82149527  0.65317441  1
  Al0+  Al79  1  0.82210664  0.07079421  0.01514058  1
  Al0+  Al80  1  0.43074705  0.82074598  0.31915792  1
  Al0+  Al81  1  0.67845333  0.42809142  0.35141357  1
  Al0+  Al82  1  0.17826346  0.92834210  0.34975328  1
  Al0+  Al83  1  0.57164929  0.68192848  0.98944091  1
  Al0+  Al84  1  0.57475046  0.67755812  0.65018219  1
  Al0+  Al85  1  0.32314127  0.07152993  0.34843184  1
  Al0+  Al86  1  0.67712065  0.92760029  0.01685963  1
  Al0+  Al87  1  0.56936928  0.18014315  0.65230873  1
  Al0+  Al88  1  0.67585131  0.42948764  0.01220867  1
  Al0+  Al89  1  0.42914581  0.32129278  0.98783162  1
  Al0+  Al90  1  0.92765299  0.31873997  0.65184658  1
  Al0+  Al91  1  0.92922728  0.82409095  0.65307542  1
  Al0+  Al92  1  0.92833872  0.31916743  0.98734743  1
  Al0+  Al93  1  0.68017937  0.92634735  0.68068218  1
  Al0+  Al94  1  0.42579674  0.32141905  0.64960918  1
  Al0+  Al95  1  0.07069036  0.67852743  0.65198575  1
  Si0+  Si96  1  0.67912464  0.92942019  0.34752243  1
  Si0+  Si97  1  0.17972408  0.42811360  0.01456695  1
  Si0+  Si98  1  0.31918983  0.57142245  0.01315296  1
  Si0+  Si99  1  0.92791661  0.31919130  0.31626826  1
  Si0+  Si100  1  0.92633885  0.82484297  0.31455575  1
  Si0+  Si101  1  0.07131711  0.17885557  0.31818720  1
  Si0+  Si102  1  0.17803958  0.42997638  0.68311007  1
  Si0+  Si103  1  0.07189673  0.17603460  0.98313911  1
  Si0+  Si104  1  0.67777879  0.43101753  0.68190100  1
  Si0+  Si105  1  0.32156897  0.57158335  0.68398060  1
  Si0+  Si106  1  0.07303968  0.67798876  0.98575321  1
  Si0+  Si107  1  0.93102349  0.82119033  0.98739383  1
  Si0+  Si108  1  0.31881552  0.07267451  0.01494874  1
  Si0+  Si109  1  0.17919780  0.92592293  0.68580665  1
  Si0+  Si110  1  0.17679893  0.42697438  0.34961815  1
  Si0+  Si111  1  0.57141336  0.17976935  0.31533262  1
  Si0+  Si112  1  0.42800875  0.32143606  0.31882067  1
  Si0+  Si113  1  0.07390729  0.17827506  0.64936850  1
  Si0+  Si114  1  0.18042583  0.92727974  0.01541599  1
  Si0+  Si115  1  0.82052578  0.07078148  0.34701669  1
  Si0+  Si116  1  0.42625590  0.82345366  0.98407082  1
  Si0+  Si117  1  0.82310306  0.56810611  0.67983231  1
  Si0+  Si118  1  0.57262701  0.67614368  0.31568671  1
  Si0+  Si119  1  0.57129176  0.17582270  0.98325601  1
  O2-  O120  1  0.25205163  -0.00204413  0.05716038  1
  O2-  O121  1  0.25396127  -0.00302845  0.39825389  1
  O2-  O122  1  0.24710158  -0.00424821  0.73044073  1
  O2-  O123  1  0.24991649  0.49928165  0.05700256  1
  O2-  O124  1  0.24469549  0.49582478  0.39401983  1
  O2-  O125  1  0.25069887  0.49949670  0.72589343  1
  O2-  O126  1  0.74906674  0.00060632  0.06669522  1
  O2-  O127  1  0.75445456  -0.00403556  0.38869117  1
  O2-  O128  1  0.75528376  -0.00296331  0.72883867  1
  O2-  O129  1  0.75072985  0.49937029  0.06121612  1
  O2-  O130  1  0.74842073  0.50179717  0.40167740  1
  O2-  O131  1  0.74788181  0.50288320  0.72393934  1
  O2-  O132  1  -0.00019285  0.24853938  0.27438226  1
  O2-  O133  1  -0.00217508  0.23901721  0.60532412  1
  O2-  O134  1  -0.00169538  0.23971301  0.93992884  1
  O2-  O135  1  -0.00739451  0.75352742  0.26945549  1
  O2-  O136  1  0.00239323  0.75374358  0.60256580  1
  O2-  O137  1  -0.00227049  0.74503265  0.94581505  1
  O2-  O138  1  0.49886783  0.25088643  0.27524915  1
  O2-  O139  1  0.49501447  0.24792613  0.59887117  1
  O2-  O140  1  0.50510780  0.24834661  0.94153651  1
  O2-  O141  1  0.50438370  0.74547649  0.27112835  1
  O2-  O142  1  0.50391306  0.75154292  0.60215346  1
  O2-  O143  1  0.50113297  0.76081149  0.94247149  1
  O2-  O144  1  0.07533400  0.17905172  0.08906360  1
  O2-  O145  1  0.07187181  0.18072885  0.42276411  1
  O2-  O146  1  0.07884220  0.18389117  0.75493938  1
  O2-  O147  1  0.07744237  0.67958197  0.09052992  1
  O2-  O148  1  0.06780612  0.68107940  0.42977193  1
  O2-  O149  1  0.06809918  0.67768888  0.76670358  1
  O2-  O150  1  0.56726761  0.17384378  0.08938860  1
  O2-  O151  1  0.57375259  0.17882367  0.41976858  1
  O2-  O152  1  0.56988094  0.18350272  0.76609336  1
  O2-  O153  1  0.56601616  0.68001262  0.10255174  1
  O2-  O154  1  0.57161113  0.67773556  0.42089184  1
  O2-  O155  1  0.57332852  0.67514664  0.76433094  1
  O2-  O156  1  0.17870950  0.42631359  0.24331084  1
  O2-  O157  1  0.17700702  0.42960998  0.57815617  1
  O2-  O158  1  0.17848509  0.42836268  0.90969726  1
  O2-  O159  1  0.17899967  0.93185702  0.23506361  1
  O2-  O160  1  0.17956947  0.92586250  0.58067145  1
  O2-  O161  1  0.17942017  0.92566077  0.91075800  1
  O2-  O162  1  0.67931339  0.42676231  0.23757590  1
  O2-  O163  1  0.67975806  0.43038494  0.57695321  1
  O2-  O164  1  0.67563466  0.43158844  0.89843075  1
  O2-  O165  1  0.67893926  0.93169607  0.24228909  1
  O2-  O166  1  0.68021052  0.92939791  0.56649506  1
  O2-  O167  1  0.67910007  0.92621624  0.90396946  1
  O2-  O168  1  0.42566686  0.31960307  0.10141298  1
  O2-  O169  1  0.42614168  0.31998969  0.42310824  1
  O2-  O170  1  0.42852470  0.32132127  0.76365398  1
  O2-  O171  1  0.42092859  0.82023274  0.08962223  1
  O2-  O172  1  0.43394792  0.82216863  0.43154759  1
  O2-  O173  1  0.43001404  0.81719049  0.76730904  1
  O2-  O174  1  0.93420986  0.31933379  0.10070744  1
  O2-  O175  1  0.92846200  0.31718936  0.42132398  1
  O2-  O176  1  0.92945746  0.32182127  0.76500498  1
  O2-  O177  1  0.93478509  0.82424496  0.09236060  1
  O2-  O178  1  0.92820586  0.82778905  0.41955130  1
  O2-  O179  1  0.92952770  0.81995628  0.76759080  1
  O2-  O180  1  0.31912487  0.07374043  0.23398001  1
  O2-  O181  1  0.31770560  0.07226958  0.56982164  1
  O2-  O182  1  0.31674328  0.07415038  0.91018619  1
  O2-  O183  1  0.31973524  0.56741862  0.23304621  1
  O2-  O184  1  0.31982712  0.57142278  0.57903002  1
  O2-  O185  1  0.31600644  0.57229215  0.90827691  1
  O2-  O186  1  0.81982681  0.07202958  0.24186978  1
  O2-  O187  1  0.81804848  0.07371363  0.56609295  1
  O2-  O188  1  0.82280820  0.06855160  0.90242255  1
  O2-  O189  1  0.82280406  0.56648508  0.23748201  1
  O2-  O190  1  0.82464786  0.56400690  0.57514559  1
  O2-  O191  1  0.82602110  0.57068322  0.89908464  1
  O2-  O192  1  0.04405111  0.08682994  0.27027030  1
  O2-  O193  1  0.05979324  0.08160740  0.60692922  1
  O2-  O194  1  0.05420380  0.07994030  0.93958357  1
  O2-  O195  1  0.04071430  0.58125726  0.26352075  1
  O2-  O196  1  0.04248693  0.58163503  0.59728095  1
  O2-  O197  1  0.05167968  0.58425982  0.93963967  1
  O2-  O198  1  0.54439925  0.08901863  0.26537356  1
  O2-  O199  1  0.54363776  0.08066170  0.60153689  1
  O2-  O200  1  0.54101462  0.08360232  0.93688731  1
  O2-  O201  1  0.54432652  0.58151177  0.27304866  1
  O2-  O202  1  0.54178550  0.58168235  0.59591677  1
  O2-  O203  1  0.53624854  0.58852190  0.93207566  1
  O2-  O204  1  0.16263237  0.20771553  0.26885183  1
  O2-  O205  1  0.16230344  0.21421239  0.59978031  1
  O2-  O206  1  0.16255268  0.20837462  0.93477266  1
  O2-  O207  1  0.16466635  0.71057411  0.26129617  1
  O2-  O208  1  0.17042039  0.70406627  0.60213816  1
  O2-  O209  1  0.16264351  0.71032222  0.93575151  1
  O2-  O210  1  0.66233275  0.20968738  0.26616513  1
  O2-  O211  1  0.66461672  0.21211254  0.59513723  1
  O2-  O212  1  0.66663192  0.19644047  0.94071567  1
  O2-  O213  1  0.66722011  0.70187686  0.27133202  1
  O2-  O214  1  0.67277136  0.70112559  0.59579763  1
  O2-  O215  1  0.67081032  0.70765527  0.93787912  1
  O2-  O216  1  0.08913059  0.45560368  0.06420846  1
  O2-  O217  1  0.08261862  0.45072871  0.39383408  1
  O2-  O218  1  0.08677603  0.46108332  0.73091614  1
  O2-  O219  1  0.09003438  0.95445106  0.06566064  1
  O2-  O220  1  0.08095384  0.96045424  0.40263018  1
  O2-  O221  1  0.08585884  0.95201069  0.73299504  1
  O2-  O222  1  0.57805673  0.46136468  0.06605021  1
  O2-  O223  1  0.57989698  0.45188509  0.40512542  1
  O2-  O224  1  0.58440611  0.45731556  0.72705877  1
  O2-  O225  1  0.57781939  0.95594734  0.06992512  1
  O2-  O226  1  0.58934370  0.96289770  0.39392404  1
  O2-  O227  1  0.58316629  0.95542392  0.73563823  1
  O2-  O228  1  0.20686623  0.33610072  0.06275367  1
  O2-  O229  1  0.20182196  0.33370222  0.39591513  1
  O2-  O230  1  0.20310597  0.33882351  0.73304872  1
  O2-  O231  1  0.20892326  0.83542056  0.06355722  1
  O2-  O232  1  0.20166667  0.82854498  0.39893231  1
  O2-  O233  1  0.20633332  0.83260415  0.73274259  1
  O2-  O234  1  0.69945075  0.33014516  0.06513320  1
  O2-  O235  1  0.71023710  0.32974548  0.40321394  1
  O2-  O236  1  0.70695863  0.33939116  0.72771897  1
  O2-  O237  1  0.70830220  0.83164513  0.07319283  1
  O2-  O238  1  0.70021301  0.83578771  0.39316258  1
  O2-  O239  1  0.70930561  0.82653033  0.73151706  1
  O2-  O240  1  0.45616592  0.41420186  0.27287143  1
  O2-  O241  1  0.45479692  0.41910157  0.59737466  1
  O2-  O242  1  0.45466911  0.41850240  0.93298592  1
  O2-  O243  1  0.46127693  0.91756378  0.26358224  1
  O2-  O244  1  0.45496241  0.92121521  0.60276418  1
  O2-  O245  1  0.44513611  0.92032784  0.94271117  1
  O2-  O246  1  0.95639904  0.41063276  0.26939352  1
  O2-  O247  1  0.96606443  0.41091767  0.59469172  1
  O2-  O248  1  0.96533463  0.41346950  0.93184954  1
  O2-  O249  1  0.95512302  0.91817579  0.26790677  1
  O2-  O250  1  0.95498982  0.92439533  0.60260424  1
  O2-  O251  1  0.96456010  0.91064767  0.93875984  1
  O2-  O252  1  0.33538335  0.29471715  0.27067560  1
  O2-  O253  1  0.32501433  0.29829393  0.60031521  1
  O2-  O254  1  0.33237557  0.28997741  0.93336340  1
  O2-  O255  1  0.33326921  0.79063336  0.26609890  1
  O2-  O256  1  0.33341672  0.79094846  0.60044183  1
  O2-  O257  1  0.33523613  0.79245197  0.93521834  1
  O2-  O258  1  0.83640273  0.28901615  0.26975977  1
  O2-  O259  1  0.83197972  0.29217608  0.59483003  1
  O2-  O260  1  0.82962134  0.29319251  0.93547989  1
  O2-  O261  1  0.83118657  0.80137894  0.27005332  1
  O2-  O262  1  0.83376443  0.79476502  0.59666225  1
  O2-  O263  1  0.83782010  0.79722124  0.94232238  1
  O2-  O264  1  0.41161695  0.05099096  0.06264575  1
  O2-  O265  1  0.42335056  0.04621935  0.39754663  1
  O2-  O266  1  0.41636598  0.04238535  0.73861011  1
  O2-  O267  1  0.41039520  0.54429997  0.06077598  1
  O2-  O268  1  0.41451200  0.54080561  0.40364650  1
  O2-  O269  1  0.41380737  0.54249491  0.73014250  1
  O2-  O270  1  0.92189124  0.04249240  0.06796434  1
  O2-  O271  1  0.91397429  0.04995492  0.39345329  1
  O2-  O272  1  0.92528920  0.05810138  0.72983537  1
  O2-  O273  1  0.92300587  0.54033716  0.06571251  1
  O2-  O274  1  0.92018683  0.53891317  0.40278400  1
  O2-  O275  1  0.91413753  0.53597975  0.72649753  1
  O2-  O276  1  0.28652812  0.16319436  0.06326414  1
  O2-  O277  1  0.29139472  0.16919813  0.40062077  1
  O2-  O278  1  0.28582388  0.16824210  0.73602010  1
  O2-  O279  1  0.28938900  0.66276945  0.06120016  1
  O2-  O280  1  0.28714867  0.66621872  0.40014192  1
  O2-  O281  1  0.29239585  0.66217347  0.73322853  1
  O2-  O282  1  0.79466176  0.16884411  0.07012443  1
  O2-  O283  1  0.78865460  0.16147466  0.39336306  1
  O2-  O284  1  0.78725263  0.17181173  0.73120171  1
  O2-  O285  1  0.80035730  0.66896136  0.06847079  1
  O2-  O286  1  0.79930432  0.67234557  0.40094657  1
  O2-  O287  1  0.80126831  0.66268081  0.72349498  1
