# generated using pymatgen
data_Ca2Al2SiO7
_symmetry_space_group_name_H-M   'P 1'
_cell_length_a   15.46100500
_cell_length_b   15.45943496
_cell_length_c   15.28462254
_cell_angle_alpha   90.01307158
_cell_angle_beta   90.00654490
_cell_angle_gamma   90.01099846
_symmetry_Int_Tables_number   1
_chemical_formula_structural   Ca2Al2SiO7
_chemical_formula_sum   'Ca48 Al48 Si24 O168'
_cell_volume   3653.30585611
_cell_formula_units_Z   24
loop_
 _symmetry_equiv_pos_site_id
 _symmetry_equiv_pos_as_xyz
  1  'x, y, z'
loop_
 _atom_type_symbol
 _atom_type_oxidation_number
  Ca2+  2.0
  Al0+  0.0
  Si0+  0.0
  O2-  -2.0
loop_
 _atom_site_type_symbol
 _atom_site_label
 _atom_site_symmetry_multiplicity
 _atom_site_fract_x
 _atom_site_fract_y
 _atom_site_fract_z
 _atom_site_occupancy
  Ca2+  Ca0  1  0.17680885  0.08126099  0.17452355  1
  Ca2+  Ca1  1  0.17417394  0.07483102  0.50290199  1
  Ca2+  Ca2  1  0.16434563  0.07583383  0.83324206  1
  Ca2+  Ca3  1  0.16672724  0.57165501  0.17025342  1
  Ca2+  Ca4  1  0.16191951  0.57729899  0.50769373  1
  Ca2+  Ca5  1  0.16274509  0.57559737  0.83379222  1
  Ca2+  Ca6  1  0.67138070  0.07459857  0.17083572  1
  Ca2+  Ca7  1  0.67420320  0.07796984  0.50958110  1
  Ca2+  Ca8  1  0.66642807  0.07678154  0.83042888  1
  Ca2+  Ca9  1  0.65950989  0.57839110  0.17213567  1
  Ca2+  Ca10  1  0.67511288  0.58142673  0.50422644  1
  Ca2+  Ca11  1  0.66833499  0.57810379  0.83831929  1
  Ca2+  Ca12  1  0.08657070  0.33412934  0.16208046  1
  Ca2+  Ca13  1  0.07676731  0.34125202  0.49937593  1
  Ca2+  Ca14  1  0.07888509  0.33675672  0.82394702  1
  Ca2+  Ca15  1  0.06835008  0.83530362  0.16201930  1
  Ca2+  Ca16  1  0.08053278  0.82850016  0.49668939  1
  Ca2+  Ca17  1  0.07739810  0.82846523  0.82375075  1
  Ca2+  Ca18  1  0.58147575  0.33577194  0.15806989  1
  Ca2+  Ca19  1  0.59589110  0.32884129  0.49859193  1
  Ca2+  Ca20  1  0.58513965  0.33358840  0.82510176  1
  Ca2+  Ca21  1  0.58122701  0.82213181  0.15835103  1
  Ca2+  Ca22  1  0.58424028  0.82849631  0.49131136  1
  Ca2+  Ca23  1  0.58463569  0.83567521  0.83298898  1
  Ca2+  Ca24  1  0.32553155  0.41135698  0.16994375  1
  Ca2+  Ca25  1  0.32090099  0.41760271  0.50278809  1
  Ca2+  Ca26  1  0.32372016  0.41164088  0.84029964  1
  Ca2+  Ca27  1  0.34101191  0.91856893  0.17254297  1
  Ca2+  Ca28  1  0.33536240  0.91871318  0.50490659  1
  Ca2+  Ca29  1  0.32936529  0.91248409  0.83658581  1
  Ca2+  Ca30  1  0.81909038  0.42727675  0.17587439  1
  Ca2+  Ca31  1  0.82655860  0.42664362  0.50724800  1
  Ca2+  Ca32  1  0.82616788  0.41916388  0.83162395  1
  Ca2+  Ca33  1  0.83150262  0.91443751  0.17169240  1
  Ca2+  Ca34  1  0.83454699  0.92608566  0.50595888  1
  Ca2+  Ca35  1  0.82309205  0.91572897  0.83759845  1
  Ca2+  Ca36  1  0.41622436  0.17109512  0.16183787  1
  Ca2+  Ca37  1  0.42299911  0.16482733  0.49795567  1
  Ca2+  Ca38  1  0.42470560  0.17404970  0.82940522  1
  Ca2+  Ca39  1  0.42651489  0.67391957  0.16201594  1
  Ca2+  Ca40  1  0.42518874  0.67400553  0.49020651  1
  Ca2+  Ca41  1  0.42399007  0.66773427  0.83438899  1
  Ca2+  Ca42  1  0.91692973  0.16597818  0.16587944  1
  Ca2+  Ca43  1  0.90686394  0.17203315  0.49835871  1
  Ca2+  Ca44  1  0.91123761  0.17546696  0.82355108  1
  Ca2+  Ca45  1  0.90778528  0.67616309  0.16683805  1
  Ca2+  Ca46  1  0.91619218  0.66511696  0.49633811  1
  Ca2+  Ca47  1  0.91853533  0.66768997  0.82753964  1
  Al0+  Al48  1  0.00117327  0.00031520  -0.00447562  1
  Al0+  Al49  1  0.00187628  0.00097189  0.33250570  1
  Al0+  Al50  1  0.00219248  0.00211884  0.67336308  1
  Al0+  Al51  1  -0.00040388  0.49909131  0.00633712  1
  Al0+  Al52  1  -0.00257934  0.49872148  0.33660657  1
  Al0+  Al53  1  0.00022497  0.50026668  0.66620962  1
  Al0+  Al54  1  0.50134533  0.00032194  0.00050567  1
  Al0+  Al55  1  0.50049546  0.00284505  0.33416429  1
  Al0+  Al56  1  0.50042324  0.00333492  0.66652295  1
  Al0+  Al57  1  0.49741358  0.50020959  -0.00537094  1
  Al0+  Al58  1  0.49599592  0.49704695  0.33467530  1
  Al0+  Al59  1  0.49787650  0.50208622  0.66590636  1
  Al0+  Al60  1  0.25032445  0.24785133  -0.00166110  1
  Al0+  Al61  1  0.24977113  0.24685643  0.34312932  1
  Al0+  Al62  1  0.25023972  0.24946005  0.66875821  1
  Al0+  Al63  1  0.24913985  0.74853453  -0.00050812  1
  Al0+  Al64  1  0.24867426  0.74822418  0.32646018  1
  Al0+  Al65  1  0.24910211  0.74984694  0.66586634  1
  Al0+  Al66  1  0.75191356  0.25052916  0.00467194  1
  Al0+  Al67  1  0.75060412  0.24897972  0.33456968  1
  Al0+  Al68  1  0.74964859  0.25060830  0.66437919  1
  Al0+  Al69  1  0.75059919  0.75117779  -0.00481760  1
  Al0+  Al70  1  0.75027369  0.74823216  0.32869127  1
  Al0+  Al71  1  0.75023780  0.75110956  0.67253550  1
  Al0+  Al72  1  0.67787558  0.92888828  0.68075898  1
  Al0+  Al73  1  0.57101911  0.67845546  0.98215121  1
  Al0+  Al74  1  0.82315154  0.06928866  0.34586924  1
  Al0+  Al75  1  0.42834680  0.82341397  0.98343508  1
  Al0+  Al76  1  0.67980796  0.92948731  0.01560726  1
  Al0+  Al77  1  0.57095819  0.67702352  0.31935018  1
  Al0+  Al78  1  0.17902298  0.42867319  0.34817662  1
  Al0+  Al79  1  0.18077380  0.92797898  0.67958877  1
  Al0+  Al80  1  0.92974986  0.82182636  0.98352139  1
  Al0+  Al81  1  0.93045426  0.31977406  0.65235129  1
  Al0+  Al82  1  0.67771647  0.43025617  0.68133990  1
  Al0+  Al83  1  0.32312258  0.06892452  0.34754056  1
  Al0+  Al84  1  0.42851056  0.31982315  0.98706744  1
  Al0+  Al85  1  0.82188561  0.07266061  0.68185842  1
  Al0+  Al86  1  0.82214848  0.57195182  0.68329078  1
  Al0+  Al87  1  0.81889318  0.57329933  0.34822800  1
  Al0+  Al88  1  0.42836293  0.82350811  0.31944411  1
  Al0+  Al89  1  0.17947436  0.42815244  0.01392679  1
  Al0+  Al90  1  0.67769924  0.42930498  0.01292747  1
  Al0+  Al91  1  0.06986939  0.68027635  0.65312116  1
  Al0+  Al92  1  0.56967554  0.18164500  0.65194009  1
  Al0+  Al93  1  0.67461755  0.42844221  0.34818436  1
  Al0+  Al94  1  0.18046680  0.42991138  0.68078547  1
  Al0+  Al95  1  0.93140410  0.82195493  0.32156117  1
  Si0+  Si96  1  0.82445966  0.07223943  0.01753378  1
  Si0+  Si97  1  0.57264264  0.67885153  0.65123233  1
  Si0+  Si98  1  0.07087629  0.67597391  0.98448407  1
  Si0+  Si99  1  0.32024230  0.57309991  0.34939159  1
  Si0+  Si100  1  0.17768462  0.92732619  0.01524705  1
  Si0+  Si101  1  0.42952084  0.82076782  0.65285124  1
  Si0+  Si102  1  0.57456839  0.17923664  0.98469930  1
  Si0+  Si103  1  0.92996168  0.32054139  0.98744932  1
  Si0+  Si104  1  0.07192069  0.18066569  0.31920286  1
  Si0+  Si105  1  0.07238108  0.17958384  0.98449029  1
  Si0+  Si106  1  0.92826992  0.32107375  0.31660202  1
  Si0+  Si107  1  0.42541218  0.32396009  0.64808494  1
  Si0+  Si108  1  0.32174494  0.57271955  0.01754989  1
  Si0+  Si109  1  0.67905381  0.92841627  0.34727417  1
  Si0+  Si110  1  0.92748216  0.82392992  0.65093388  1
  Si0+  Si111  1  0.32192912  0.57384717  0.68372579  1
  Si0+  Si112  1  0.17840024  0.92675332  0.34650385  1
  Si0+  Si113  1  0.31965076  0.06885964  0.01368055  1
  Si0+  Si114  1  0.42570094  0.31738040  0.32022490  1
  Si0+  Si115  1  0.32284885  0.07158053  0.68604120  1
  Si0+  Si116  1  0.82201345  0.57188150  0.01728022  1
  Si0+  Si117  1  0.07170320  0.67400651  0.31483251  1
  Si0+  Si118  1  0.07473090  0.17600010  0.64822525  1
  Si0+  Si119  1  0.57303445  0.18051566  0.31682189  1
  O2-  O120  1  0.25300304  -0.00608687  0.05726439  1
  O2-  O121  1  0.25509922  -0.01355142  0.39063421  1
  O2-  O122  1  0.25362665  0.00324806  0.72945300  1
  O2-  O123  1  0.25421050  0.50196174  0.06147108  1
  O2-  O124  1  0.24823765  0.50836798  0.39438738  1
  O2-  O125  1  0.25764459  0.50102963  0.72832283  1
  O2-  O126  1  0.75699089  0.00262216  0.06167832  1
  O2-  O127  1  0.75032595  -0.00646696  0.39222663  1
  O2-  O128  1  0.75328592  -0.00234724  0.73115920  1
  O2-  O129  1  0.74886702  0.50690147  0.06012741  1
  O2-  O130  1  0.74463376  0.50290090  0.39644598  1
  O2-  O131  1  0.74700945  0.50328072  0.73322843  1
  O2-  O132  1  0.00141024  0.25116144  0.27471040  1
  O2-  O133  1  0.00480221  0.24348509  0.60464418  1
  O2-  O134  1  0.00039185  0.24962552  0.94384175  1
  O2-  O135  1  0.00438983  0.74531901  0.27272108  1
  O2-  O136  1  -0.00487598  0.75474348  0.60594749  1
  O2-  O137  1  0.00479466  0.74637506  0.93949998  1
  O2-  O138  1  0.50197830  0.25262483  0.27627548  1
  O2-  O139  1  0.49760594  0.25911956  0.60385021  1
  O2-  O140  1  0.50955725  0.25190765  0.94101164  1
  O2-  O141  1  0.50060260  0.75181511  0.27013424  1
  O2-  O142  1  0.50294103  0.75256529  0.61049396  1
  O2-  O143  1  0.50063322  0.75296541  0.93211741  1
  O2-  O144  1  0.07456524  0.17896990  0.09003170  1
  O2-  O145  1  0.07259526  0.18003686  0.42362434  1
  O2-  O146  1  0.07658841  0.17793989  0.75424181  1
  O2-  O147  1  0.06987764  0.67612498  0.09020756  1
  O2-  O148  1  0.07330273  0.67475197  0.42032353  1
  O2-  O149  1  0.07063728  0.68181456  0.76643939  1
  O2-  O150  1  0.57239373  0.17879213  0.09079389  1
  O2-  O151  1  0.57285934  0.17936456  0.42164192  1
  O2-  O152  1  0.56596713  0.18062931  0.76529311  1
  O2-  O153  1  0.56856947  0.67788980  0.09577037  1
  O2-  O154  1  0.56974789  0.67965027  0.43356035  1
  O2-  O155  1  0.57022634  0.67668227  0.75588122  1
  O2-  O156  1  0.18239189  0.42612088  0.23470483  1
  O2-  O157  1  0.18122998  0.43160374  0.56762899  1
  O2-  O158  1  0.17855128  0.42842511  0.90124847  1
  O2-  O159  1  0.17493685  0.93301010  0.24072129  1
  O2-  O160  1  0.18442526  0.92798830  0.56622983  1
  O2-  O161  1  0.17691797  0.93012720  0.91029569  1
  O2-  O162  1  0.67608318  0.42744427  0.23397566  1
  O2-  O163  1  0.67966587  0.43192912  0.56807466  1
  O2-  O164  1  0.68194210  0.42605677  0.90045773  1
  O2-  O165  1  0.67894566  0.93194650  0.24155542  1
  O2-  O166  1  0.67669051  0.92915361  0.56682151  1
  O2-  O167  1  0.67912785  0.93376184  0.90299176  1
  O2-  O168  1  0.42468427  0.31452355  0.10058362  1
  O2-  O169  1  0.42213515  0.31356441  0.42485023  1
  O2-  O170  1  0.42296454  0.32046515  0.75376196  1
  O2-  O171  1  0.42942211  0.82302308  0.09672616  1
  O2-  O172  1  0.42972583  0.82250755  0.43373168  1
  O2-  O173  1  0.42800716  0.81884980  0.75769473  1
  O2-  O174  1  0.93156630  0.31794436  0.09277459  1
  O2-  O175  1  0.92869064  0.32024062  0.42132979  1
  O2-  O176  1  0.93264664  0.31912566  0.76628532  1
  O2-  O177  1  0.93198706  0.82435073  0.09704514  1
  O2-  O178  1  0.93569640  0.82586231  0.43415472  1
  O2-  O179  1  0.93037304  0.82280356  0.75657086  1
  O2-  O180  1  0.31887764  0.07397337  0.23407218  1
  O2-  O181  1  0.32326176  0.06991723  0.58028664  1
  O2-  O182  1  0.31591163  0.07077744  0.90893555  1
  O2-  O183  1  0.32026073  0.57055742  0.24385108  1
  O2-  O184  1  0.32054359  0.57495088  0.57796833  1
  O2-  O185  1  0.31921052  0.57363216  0.91198847  1
  O2-  O186  1  0.82197345  0.06962911  0.23244126  1
  O2-  O187  1  0.82035637  0.07024017  0.56796600  1
  O2-  O188  1  0.82476622  0.07476810  0.91258768  1
  O2-  O189  1  0.82097041  0.57058958  0.23438297  1
  O2-  O190  1  0.82055886  0.57257864  0.56987540  1
  O2-  O191  1  0.82669796  0.56742025  0.91209583  1
  O2-  O192  1  0.04500249  0.08969608  0.26884087  1
  O2-  O193  1  0.05237072  0.08076494  0.60388912  1
  O2-  O194  1  0.04650217  0.08785636  0.93604010  1
  O2-  O195  1  0.04393795  0.58058343  0.26905986  1
  O2-  O196  1  0.04010378  0.58416375  0.59854721  1
  O2-  O197  1  0.04257936  0.58216849  0.93951779  1
  O2-  O198  1  0.54320611  0.08942729  0.26886243  1
  O2-  O199  1  0.53526954  0.08610807  0.59623131  1
  O2-  O200  1  0.54350111  0.08794365  0.93802788  1
  O2-  O201  1  0.53797526  0.57835040  0.26809728  1
  O2-  O202  1  0.54231105  0.58835254  0.60221169  1
  O2-  O203  1  0.53898800  0.58177435  0.92729141  1
  O2-  O204  1  0.16402182  0.20989969  0.27185268  1
  O2-  O205  1  0.16897332  0.20168671  0.60284264  1
  O2-  O206  1  0.16257605  0.20744553  0.93473943  1
  O2-  O207  1  0.16557096  0.69554256  0.26695118  1
  O2-  O208  1  0.16631813  0.71179153  0.59755855  1
  O2-  O209  1  0.16546228  0.69804301  0.93939138  1
  O2-  O210  1  0.66452632  0.20674723  0.26758282  1
  O2-  O211  1  0.66611760  0.20932560  0.59659075  1
  O2-  O212  1  0.67006079  0.20106142  0.94131227  1
  O2-  O213  1  0.66910003  0.70176848  0.26443692  1
  O2-  O214  1  0.66532157  0.70641520  0.60578623  1
  O2-  O215  1  0.67003293  0.70446106  0.93072553  1
  O2-  O216  1  0.08372708  0.45818154  0.07088964  1
  O2-  O217  1  0.08083948  0.45505195  0.39959668  1
  O2-  O218  1  0.08528018  0.46291104  0.73457042  1
  O2-  O219  1  0.08782435  0.96176313  0.06298815  1
  O2-  O220  1  0.09016819  0.96241086  0.39614571  1
  O2-  O221  1  0.08595151  0.95865279  0.73708023  1
  O2-  O222  1  0.57771576  0.45530623  0.06261785  1
  O2-  O223  1  0.57338772  0.44667283  0.39918986  1
  O2-  O224  1  0.57631234  0.45449219  0.73055843  1
  O2-  O225  1  0.58351562  0.96241838  0.06984155  1
  O2-  O226  1  0.58706770  0.95768355  0.39401982  1
  O2-  O227  1  0.58089448  0.96281045  0.73415475  1
  O2-  O228  1  0.21106105  0.33030432  0.06627460  1
  O2-  O229  1  0.21324334  0.33470307  0.40425963  1
  O2-  O230  1  0.20776259  0.33147807  0.73361803  1
  O2-  O231  1  0.19826951  0.83341653  0.06114424  1
  O2-  O232  1  0.19373378  0.82914107  0.38728351  1
  O2-  O233  1  0.21257385  0.83271174  0.73518637  1
  O2-  O234  1  0.71028453  0.33343711  0.06902007  1
  O2-  O235  1  0.70907452  0.33095675  0.39861510  1
  O2-  O236  1  0.70732164  0.33182411  0.73231347  1
  O2-  O237  1  0.71056330  0.83168501  0.06684746  1
  O2-  O238  1  0.70040396  0.83308526  0.38964893  1
  O2-  O239  1  0.70210287  0.83106005  0.73589994  1
  O2-  O240  1  0.44452356  0.41150933  0.27396806  1
  O2-  O241  1  0.44381447  0.42015588  0.60458644  1
  O2-  O242  1  0.44785403  0.41799304  0.93289887  1
  O2-  O243  1  0.45406191  0.92393591  0.26880013  1
  O2-  O244  1  0.45333517  0.91471110  0.60802317  1
  O2-  O245  1  0.45442672  0.92328038  0.93174839  1
  O2-  O246  1  0.95551445  0.41288838  0.26901787  1
  O2-  O247  1  0.96425238  0.41489396  0.59783925  1
  O2-  O248  1  0.95862550  0.41253695  0.94179910  1
  O2-  O249  1  0.96539471  0.91728053  0.26449660  1
  O2-  O250  1  0.95605367  0.91846712  0.60815125  1
  O2-  O251  1  0.96233072  0.91807756  0.92948428  1
  O2-  O252  1  0.33587909  0.28189275  0.27238481  1
  O2-  O253  1  0.33323374  0.29252782  0.60143231  1
  O2-  O254  1  0.33491538  0.28118662  0.93079831  1
  O2-  O255  1  0.32890607  0.79800874  0.26552980  1
  O2-  O256  1  0.33908852  0.79069489  0.60417733  1
  O2-  O257  1  0.32788814  0.79482365  0.93324165  1
  O2-  O258  1  0.83787202  0.28962762  0.26791679  1
  O2-  O259  1  0.83464582  0.28949328  0.59712203  1
  O2-  O260  1  0.83834850  0.29211938  0.94002189  1
  O2-  O261  1  0.83493579  0.79310004  0.26577414  1
  O2-  O262  1  0.83248066  0.80099924  0.60705203  1
  O2-  O263  1  0.83385241  0.79304470  0.92923234  1
  O2-  O264  1  0.41282258  0.04711302  0.06107031  1
  O2-  O265  1  0.42068606  0.04537766  0.40323748  1
  O2-  O266  1  0.41521991  0.04566437  0.73301134  1
  O2-  O267  1  0.41529379  0.54757792  0.06242560  1
  O2-  O268  1  0.41110709  0.54360050  0.39847233  1
  O2-  O269  1  0.41644794  0.55251328  0.72913831  1
  O2-  O270  1  0.91990146  0.04773090  0.06155660  1
  O2-  O271  1  0.92077999  0.04248421  0.39942407  1
  O2-  O272  1  0.92250578  0.05322655  0.73405151  1
  O2-  O273  1  0.91298430  0.54230384  0.06714018  1
  O2-  O274  1  0.91672089  0.54262683  0.40085838  1
  O2-  O275  1  0.91914789  0.53974262  0.73594728  1
  O2-  O276  1  0.28598327  0.15814739  0.06323144  1
  O2-  O277  1  0.28466439  0.15970561  0.40680642  1
  O2-  O278  1  0.29674917  0.16514801  0.73158313  1
  O2-  O279  1  0.29400392  0.66534532  0.06551786  1
  O2-  O280  1  0.29844574  0.66881711  0.39349920  1
  O2-  O281  1  0.29174623  0.66500010  0.73133126  1
  O2-  O282  1  0.79881197  0.16507594  0.06608268  1
  O2-  O283  1  0.79122888  0.16536130  0.39856626  1
  O2-  O284  1  0.78913301  0.16939959  0.73459752  1
  O2-  O285  1  0.80033847  0.66788403  0.05880339  1
  O2-  O286  1  0.79503743  0.67294342  0.40089170  1
  O2-  O287  1  0.79778122  0.67103386  0.73598173  1
