# generated using pymatgen
data_Ca2Al2SiO7
_symmetry_space_group_name_H-M   'P 1'
_cell_length_a   15.45506708
_cell_length_b   15.45513989
_cell_length_c   15.28217425
_cell_angle_alpha   90.00138997
_cell_angle_beta   90.00019766
_cell_angle_gamma   90.00293878
_symmetry_Int_Tables_number   1
_chemical_formula_structural   Ca2Al2SiO7
_chemical_formula_sum   'Ca48 Al48 Si24 O168'
_cell_volume   3650.30355651
_cell_formula_units_Z   24
loop_
 _symmetry_equiv_pos_site_id
 _symmetry_equiv_pos_as_xyz
  1  'x, y, z'
loop_
 _atom_type_symbol
 _atom_type_oxidation_number
  Ca2+  2.0
  Al0+  0.0
  Si0+  0.0
  O2-  -2.0
loop_
 _atom_site_type_symbol
 _atom_site_label
 _atom_site_symmetry_multiplicity
 _atom_site_fract_x
 _atom_site_fract_y
 _atom_site_fract_z
 _atom_site_occupancy
  Ca2+  Ca0  1  0.17197906  0.08398998  0.17743689  1
  Ca2+  Ca1  1  0.17552922  0.08636393  0.50913182  1
  Ca2+  Ca2  1  0.17011483  0.08748661  0.82806218  1
  Ca2+  Ca3  1  0.15945914  0.57659212  0.17615536  1
  Ca2+  Ca4  1  0.16292455  0.57362239  0.50751090  1
  Ca2+  Ca5  1  0.16877240  0.58419939  0.82512265  1
  Ca2+  Ca6  1  0.67829722  0.08181343  0.17741119  1
  Ca2+  Ca7  1  0.66764424  0.08900369  0.49770370  1
  Ca2+  Ca8  1  0.67183746  0.08648007  0.83679003  1
  Ca2+  Ca9  1  0.67551119  0.57527688  0.17357260  1
  Ca2+  Ca10  1  0.67524997  0.57847839  0.50503475  1
  Ca2+  Ca11  1  0.66100706  0.56742823  0.83616206  1
  Ca2+  Ca12  1  0.07277883  0.33103669  0.17043168  1
  Ca2+  Ca13  1  0.08692495  0.32822660  0.49153075  1
  Ca2+  Ca14  1  0.07700776  0.32995466  0.82528878  1
  Ca2+  Ca15  1  0.07694206  0.82693971  0.16409485  1
  Ca2+  Ca16  1  0.09507268  0.82087367  0.49885913  1
  Ca2+  Ca17  1  0.08084982  0.83271615  0.82454663  1
  Ca2+  Ca18  1  0.59107219  0.32586933  0.16497338  1
  Ca2+  Ca19  1  0.57894904  0.32646128  0.50128828  1
  Ca2+  Ca20  1  0.58284392  0.33022654  0.82076622  1
  Ca2+  Ca21  1  0.58227503  0.83930319  0.17105042  1
  Ca2+  Ca22  1  0.57137974  0.84092458  0.49315893  1
  Ca2+  Ca23  1  0.57589524  0.82931644  0.82374531  1
  Ca2+  Ca24  1  0.32263276  0.41907765  0.17595975  1
  Ca2+  Ca25  1  0.32240341  0.41861196  0.51071986  1
  Ca2+  Ca26  1  0.32943542  0.41365870  0.82888724  1
  Ca2+  Ca27  1  0.33326442  0.92232511  0.17723695  1
  Ca2+  Ca28  1  0.33382586  0.92494457  0.50690606  1
  Ca2+  Ca29  1  0.32835574  0.91675993  0.82655172  1
  Ca2+  Ca30  1  0.83552495  0.41450181  0.17344224  1
  Ca2+  Ca31  1  0.83371074  0.41653044  0.50011146  1
  Ca2+  Ca32  1  0.82206200  0.40960132  0.83758925  1
  Ca2+  Ca33  1  0.83225323  0.92599016  0.17473454  1
  Ca2+  Ca34  1  0.82879542  0.92198295  0.49997725  1
  Ca2+  Ca35  1  0.83705025  0.92419604  0.84150285  1
  Ca2+  Ca36  1  0.42165437  0.16309925  0.17084380  1
  Ca2+  Ca37  1  0.42257013  0.16146466  0.49541258  1
  Ca2+  Ca38  1  0.42480023  0.17306887  0.81816358  1
  Ca2+  Ca39  1  0.41669196  0.67425984  0.16685776  1
  Ca2+  Ca40  1  0.40490274  0.67901272  0.49917578  1
  Ca2+  Ca41  1  0.41374705  0.66974926  0.82166803  1
  Ca2+  Ca42  1  0.91175464  0.17215010  0.16440745  1
  Ca2+  Ca43  1  0.92992350  0.17170563  0.49140894  1
  Ca2+  Ca44  1  0.91783862  0.17041365  0.82921517  1
  Ca2+  Ca45  1  0.91718522  0.66825740  0.16652312  1
  Ca2+  Ca46  1  0.92702008  0.66155263  0.49306851  1
  Ca2+  Ca47  1  0.92153828  0.67516039  0.82774261  1
  Al0+  Al48  1  0.00251876  -0.00104693  0.00115384  1
  Al0+  Al49  1  0.00121088  -0.00233021  0.33544036  1
  Al0+  Al50  1  -0.00118745  0.00160421  0.66595623  1
  Al0+  Al51  1  0.00021291  0.49898694  -0.00713392  1
  Al0+  Al52  1  -0.00044745  0.49894281  0.33294070  1
  Al0+  Al53  1  -0.00144250  0.50270943  0.67017626  1
  Al0+  Al54  1  0.49933534  -0.00020193  -0.00222302  1
  Al0+  Al55  1  0.49907247  0.00053849  0.32961962  1
  Al0+  Al56  1  0.50190418  -0.00050153  0.66537532  1
  Al0+  Al57  1  0.49889620  0.49956550  0.00724365  1
  Al0+  Al58  1  0.49935827  0.50221248  0.33273818  1
  Al0+  Al59  1  0.50175175  0.50011264  0.66851410  1
  Al0+  Al60  1  0.25094900  0.25062774  0.00192412  1
  Al0+  Al61  1  0.25051040  0.25020162  0.33562378  1
  Al0+  Al62  1  0.24994514  0.25105476  0.67117462  1
  Al0+  Al63  1  0.25085691  0.75023783  0.00074469  1
  Al0+  Al64  1  0.25029082  0.75006624  0.32014598  1
  Al0+  Al65  1  0.24838225  0.75045345  0.66738389  1
  Al0+  Al66  1  0.75049475  0.24874125  0.00337342  1
  Al0+  Al67  1  0.74915319  0.24958775  0.33140222  1
  Al0+  Al68  1  0.75031661  0.25044883  0.66568677  1
  Al0+  Al69  1  0.74858346  0.74860091  -0.00587880  1
  Al0+  Al70  1  0.74854039  0.74846469  0.34158454  1
  Al0+  Al71  1  0.74999585  0.75184333  0.66790873  1
  Al0+  Al72  1  0.42851667  0.32341727  0.65251906  1
  Al0+  Al73  1  0.68179363  0.42995813  0.67846539  1
  Al0+  Al74  1  0.82385944  0.07328089  0.35067733  1
  Al0+  Al75  1  0.06926017  0.67893667  0.31942386  1
  Al0+  Al76  1  0.56917938  0.18059753  0.31769635  1
  Al0+  Al77  1  0.57240090  0.17849618  0.65109528  1
  Al0+  Al78  1  0.42991447  0.81877410  0.65346048  1
  Al0+  Al79  1  0.32006232  0.57111039  0.67950328  1
  Al0+  Al80  1  0.31910130  0.06981872  0.34607830  1
  Al0+  Al81  1  0.82083178  0.56947247  0.34641389  1
  Al0+  Al82  1  0.67908139  0.42885476  0.01556506  1
  Al0+  Al83  1  0.17835806  0.92972857  0.68047296  1
  Al0+  Al84  1  0.32389614  0.07184134  0.68264015  1
  Al0+  Al85  1  0.92915597  0.82143405  0.98759753  1
  Al0+  Al86  1  0.06835872  0.68125463  0.65291794  1
  Al0+  Al87  1  0.07062548  0.17993938  0.65453230  1
  Al0+  Al88  1  0.17628008  0.42704956  0.68361403  1
  Al0+  Al89  1  0.43059684  0.82033707  0.31817025  1
  Al0+  Al90  1  0.07409109  0.17572986  0.31897917  1
  Al0+  Al91  1  0.82166073  0.06860771  0.01323774  1
  Al0+  Al92  1  0.93000149  0.31911335  0.31974736  1
  Al0+  Al93  1  0.17997927  0.43106182  0.34559613  1
  Al0+  Al94  1  0.92842705  0.31946034  0.98469243  1
  Al0+  Al95  1  0.67896339  0.93002382  0.34868676  1
  Si0+  Si96  1  0.42901069  0.82111482  0.98279843  1
  Si0+  Si97  1  0.92569376  0.82449917  0.64825139  1
  Si0+  Si98  1  0.56900308  0.67684776  0.98519543  1
  Si0+  Si99  1  0.92430761  0.82096543  0.31876294  1
  Si0+  Si100  1  0.82002605  0.07040374  0.68199224  1
  Si0+  Si101  1  0.56991721  0.18002493  0.98565990  1
  Si0+  Si102  1  0.92790815  0.32253725  0.65110193  1
  Si0+  Si103  1  0.57463169  0.67650807  0.31599132  1
  Si0+  Si104  1  0.57407746  0.67699239  0.64960810  1
  Si0+  Si105  1  0.82235995  0.57506016  0.68635617  1
  Si0+  Si106  1  0.32267676  0.57451305  0.34790885  1
  Si0+  Si107  1  0.42766126  0.32466924  0.31620878  1
  Si0+  Si108  1  0.07321776  0.67791930  0.98098345  1
  Si0+  Si109  1  0.32034552  0.57241496  0.01725447  1
  Si0+  Si110  1  0.67539834  0.42697504  0.35090489  1
  Si0+  Si111  1  0.42801453  0.32181173  0.98656884  1
  Si0+  Si112  1  0.32174594  0.07114173  0.01530163  1
  Si0+  Si113  1  0.67875820  0.92801472  0.68331849  1
  Si0+  Si114  1  0.07482441  0.17792720  0.98338019  1
  Si0+  Si115  1  0.17829042  0.42923706  0.01578727  1
  Si0+  Si116  1  0.18076130  0.92753759  0.01668889  1
  Si0+  Si117  1  0.82230010  0.57259071  0.01457009  1
  Si0+  Si118  1  0.67614740  0.92584120  0.01471075  1
  Si0+  Si119  1  0.17791136  0.92451608  0.34762802  1
  O2-  O120  1  0.25081015  0.00009870  0.05786089  1
  O2-  O121  1  0.24018159  -0.00104774  0.39065256  1
  O2-  O122  1  0.24892130  0.00235091  0.73306077  1
  O2-  O123  1  0.24708262  0.50312288  0.05816467  1
  O2-  O124  1  0.25678305  0.50398567  0.39106567  1
  O2-  O125  1  0.25163841  0.49718412  0.73286226  1
  O2-  O126  1  0.74799036  -0.00872145  0.05771971  1
  O2-  O127  1  0.75132069  0.00090753  0.39989401  1
  O2-  O128  1  0.74985182  -0.00137247  0.72548871  1
  O2-  O129  1  0.75655201  0.50183037  0.06017954  1
  O2-  O130  1  0.74503832  0.49563183  0.39287166  1
  O2-  O131  1  0.75385583  0.50568299  0.72927365  1
  O2-  O132  1  -0.00294718  0.24232901  0.26840934  1
  O2-  O133  1  0.00262124  0.26055904  0.60830669  1
  O2-  O134  1  0.00378735  0.24456649  0.93968311  1
  O2-  O135  1  -0.00505878  0.75442283  0.27356338  1
  O2-  O136  1  -0.00647574  0.75514524  0.60489437  1
  O2-  O137  1  0.00318911  0.74662494  0.93940148  1
  O2-  O138  1  0.49811352  0.25882919  0.26957866  1
  O2-  O139  1  0.49500090  0.24602836  0.60298732  1
  O2-  O140  1  0.49971220  0.25175176  0.94421886  1
  O2-  O141  1  0.50589936  0.74543417  0.27129036  1
  O2-  O142  1  0.50412056  0.74399868  0.60580091  1
  O2-  O143  1  0.49999103  0.74958034  0.94201260  1
  O2-  O144  1  0.07850946  0.17954409  0.08857284  1
  O2-  O145  1  0.07569882  0.18013845  0.43226242  1
  O2-  O146  1  0.06432166  0.17864221  0.76837837  1
  O2-  O147  1  0.07392477  0.67735221  0.08665656  1
  O2-  O148  1  0.07067194  0.67953643  0.43206708  1
  O2-  O149  1  0.06629196  0.68403028  0.76659434  1
  O2-  O150  1  0.56807971  0.17844096  0.09056767  1
  O2-  O151  1  0.56773057  0.18115384  0.43007865  1
  O2-  O152  1  0.57522823  0.18081246  0.76587446  1
  O2-  O153  1  0.56805631  0.67671515  0.09009329  1
  O2-  O154  1  0.57504698  0.67393088  0.42092484  1
  O2-  O155  1  0.57464325  0.67963261  0.75611451  1
  O2-  O156  1  0.18044819  0.43319621  0.23131868  1
  O2-  O157  1  0.17447924  0.43024219  0.57034909  1
  O2-  O158  1  0.18064094  0.42759336  0.91128486  1
  O2-  O159  1  0.18137232  0.92271302  0.24114216  1
  O2-  O160  1  0.18111821  0.92809084  0.56731791  1
  O2-  O161  1  0.18198070  0.92421827  0.91205960  1
  O2-  O162  1  0.67500899  0.42947567  0.24474805  1
  O2-  O163  1  0.68478665  0.43076897  0.56574212  1
  O2-  O164  1  0.67681741  0.42984987  0.90250370  1
  O2-  O165  1  0.68110404  0.93060978  0.23412593  1
  O2-  O166  1  0.67956905  0.92475589  0.57903348  1
  O2-  O167  1  0.67316568  0.92777045  0.90897160  1
  O2-  O168  1  0.42566434  0.32010937  0.09161722  1
  O2-  O169  1  0.42842767  0.32558448  0.42105442  1
  O2-  O170  1  0.43371728  0.32259395  0.76742966  1
  O2-  O171  1  0.42914498  0.82178033  0.08771952  1
  O2-  O172  1  0.42906948  0.81884177  0.43071258  1
  O2-  O173  1  0.43287470  0.81693639  0.76756828  1
  O2-  O174  1  0.92981009  0.32079018  0.09719986  1
  O2-  O175  1  0.93283186  0.32170784  0.43315977  1
  O2-  O176  1  0.92461749  0.31799589  0.75722654  1
  O2-  O177  1  0.93080630  0.81983265  0.10055578  1
  O2-  O178  1  0.92295988  0.81897407  0.42403436  1
  O2-  O179  1  0.92511472  0.82358950  0.75455911  1
  O2-  O180  1  0.31941882  0.06715265  0.23164779  1
  O2-  O181  1  0.32506411  0.06857951  0.56944483  1
  O2-  O182  1  0.32326058  0.07102961  0.91083813  1
  O2-  O183  1  0.32238016  0.57282897  0.24136017  1
  O2-  O184  1  0.31673487  0.57282432  0.56626720  1
  O2-  O185  1  0.32254055  0.57427481  0.91272302  1
  O2-  O186  1  0.82139787  0.07115085  0.23648247  1
  O2-  O187  1  0.81972038  0.06991491  0.57764994  1
  O2-  O188  1  0.81861640  0.06857954  0.89954737  1
  O2-  O189  1  0.81917949  0.56992655  0.23266109  1
  O2-  O190  1  0.82222010  0.57599552  0.58087261  1
  O2-  O191  1  0.81863066  0.57406745  0.90922333  1
  O2-  O192  1  0.05370476  0.07344383  0.26936248  1
  O2-  O193  1  0.03661080  0.08498318  0.59990493  1
  O2-  O194  1  0.05284121  0.08262100  0.93977252  1
  O2-  O195  1  0.03523077  0.58451170  0.26346319  1
  O2-  O196  1  0.03725940  0.58384861  0.60071925  1
  O2-  O197  1  0.04965203  0.58461609  0.93389249  1
  O2-  O198  1  0.53485859  0.08622073  0.26112191  1
  O2-  O199  1  0.55045679  0.07829949  0.60058244  1
  O2-  O200  1  0.54221272  0.08777553  0.93781123  1
  O2-  O201  1  0.54768658  0.58374071  0.26689435  1
  O2-  O202  1  0.55307692  0.58274925  0.60507488  1
  O2-  O203  1  0.53712347  0.58533266  0.93888445  1
  O2-  O204  1  0.17089934  0.20956735  0.26430350  1
  O2-  O205  1  0.17015215  0.20357723  0.60530561  1
  O2-  O206  1  0.16780452  0.20738082  0.93674435  1
  O2-  O207  1  0.16372833  0.70838216  0.25928203  1
  O2-  O208  1  0.16448362  0.71206455  0.59955039  1
  O2-  O209  1  0.16710476  0.70674155  0.93689859  1
  O2-  O210  1  0.66603612  0.20962285  0.26265682  1
  O2-  O211  1  0.66876693  0.21263012  0.59777603  1
  O2-  O212  1  0.66200189  0.20706108  0.93933805  1
  O2-  O213  1  0.66781922  0.70353789  0.26923680  1
  O2-  O214  1  0.66771933  0.70486291  0.60481927  1
  O2-  O215  1  0.66056983  0.70082608  0.93533178  1
  O2-  O216  1  0.08500955  0.45674644  0.06042746  1
  O2-  O217  1  0.08513111  0.46362964  0.39935248  1
  O2-  O218  1  0.07895379  0.46019407  0.73798460  1
  O2-  O219  1  0.08890147  0.95315930  0.06451190  1
  O2-  O220  1  0.08192606  0.93787406  0.39179318  1
  O2-  O221  1  0.07869243  0.95705093  0.73345719  1
  O2-  O222  1  0.58340427  0.46087300  0.07157072  1
  O2-  O223  1  0.58170549  0.45433515  0.39562599  1
  O2-  O224  1  0.58596760  0.45980408  0.73544979  1
  O2-  O225  1  0.58292357  0.95449754  0.06098926  1
  O2-  O226  1  0.58060464  0.96100120  0.39854253  1
  O2-  O227  1  0.58788445  0.95528071  0.73265058  1
  O2-  O228  1  0.20970035  0.33861357  0.06405322  1
  O2-  O229  1  0.21024177  0.33507987  0.39908741  1
  O2-  O230  1  0.20230315  0.32971097  0.74018613  1
  O2-  O231  1  0.21047035  0.83615666  0.06524032  1
  O2-  O232  1  0.21185879  0.83212763  0.39088814  1
  O2-  O233  1  0.20990111  0.83348812  0.73689524  1
  O2-  O234  1  0.70898375  0.33226427  0.06883644  1
  O2-  O235  1  0.70036139  0.33349645  0.39507308  1
  O2-  O236  1  0.71458324  0.33410630  0.73467922  1
  O2-  O237  1  0.69731786  0.82989231  0.05778406  1
  O2-  O238  1  0.70196847  0.83107785  0.40272324  1
  O2-  O239  1  0.70564382  0.83611757  0.73303657  1
  O2-  O240  1  0.44947146  0.42002753  0.26981232  1
  O2-  O241  1  0.46083951  0.42029220  0.59918210  1
  O2-  O242  1  0.45409438  0.41551106  0.94258460  1
  O2-  O243  1  0.46288896  0.91486111  0.26056751  1
  O2-  O244  1  0.46251752  0.91452155  0.60066766  1
  O2-  O245  1  0.45647014  0.91301891  0.93517503  1
  O2-  O246  1  0.96311420  0.41530319  0.26405145  1
  O2-  O247  1  0.94522135  0.41988741  0.61105247  1
  O2-  O248  1  0.95674039  0.41632204  0.92906662  1
  O2-  O249  1  0.94905670  0.91492379  0.27297690  1
  O2-  O250  1  0.94964220  0.91813970  0.60342418  1
  O2-  O251  1  0.96204124  0.91729466  0.93238419  1
  O2-  O252  1  0.33559473  0.29541914  0.26860824  1
  O2-  O253  1  0.32670865  0.30307222  0.60578029  1
  O2-  O254  1  0.33667993  0.29309002  0.93844392  1
  O2-  O255  1  0.33729233  0.78830785  0.25687897  1
  O2-  O256  1  0.33357134  0.78832123  0.60058105  1
  O2-  O257  1  0.33683950  0.79198053  0.93696134  1
  O2-  O258  1  0.82977012  0.29683483  0.26699699  1
  O2-  O259  1  0.83771846  0.29078413  0.60303991  1
  O2-  O260  1  0.83146449  0.28624979  0.93170850  1
  O2-  O261  1  0.83144591  0.79223414  0.27250257  1
  O2-  O262  1  0.83124325  0.79923693  0.60390497  1
  O2-  O263  1  0.83181665  0.79355275  0.93140596  1
  O2-  O264  1  0.41383021  0.04142583  0.06230505  1
  O2-  O265  1  0.41428779  0.03467253  0.39768451  1
  O2-  O266  1  0.42197108  0.03991194  0.73618668  1
  O2-  O267  1  0.41047465  0.54350989  0.06757900  1
  O2-  O268  1  0.41803911  0.55528956  0.39249906  1
  O2-  O269  1  0.42043155  0.54821642  0.73248867  1
  O2-  O270  1  0.91972648  0.04104820  0.06598029  1
  O2-  O271  1  0.92280034  0.04460629  0.40261886  1
  O2-  O272  1  0.91082550  0.04244734  0.73141516  1
  O2-  O273  1  0.91854167  0.54993049  0.05656688  1
  O2-  O274  1  0.91559872  0.53669511  0.40145463  1
  O2-  O275  1  0.91505733  0.55119334  0.73420063  1
  O2-  O276  1  0.29532715  0.16343525  0.06304589  1
  O2-  O277  1  0.29555745  0.16775161  0.39911358  1
  O2-  O278  1  0.29715122  0.16993110  0.73737025  1
  O2-  O279  1  0.29444945  0.66532639  0.06473369  1
  O2-  O280  1  0.29383060  0.66877984  0.38900989  1
  O2-  O281  1  0.28693937  0.66696033  0.73646722  1
  O2-  O282  1  0.78756426  0.16316703  0.06799812  1
  O2-  O283  1  0.79300547  0.17161076  0.40163165  1
  O2-  O284  1  0.79049097  0.16168842  0.72997710  1
  O2-  O285  1  0.79329892  0.66571644  0.06077865  1
  O2-  O286  1  0.79145107  0.66411359  0.40423808  1
  O2-  O287  1  0.79614469  0.66927081  0.73222846  1
