# generated using pymatgen
data_Ca2Al2SiO7
_symmetry_space_group_name_H-M   'P 1'
_cell_length_a   15.45621972
_cell_length_b   15.45621416
_cell_length_c   15.28280190
_cell_angle_alpha   90.00277377
_cell_angle_beta   90.00928775
_cell_angle_gamma   90.00599854
_symmetry_Int_Tables_number   1
_chemical_formula_structural   Ca2Al2SiO7
_chemical_formula_sum   'Ca48 Al48 Si24 O168'
_cell_volume   3650.97941757
_cell_formula_units_Z   24
loop_
 _symmetry_equiv_pos_site_id
 _symmetry_equiv_pos_as_xyz
  1  'x, y, z'
loop_
 _atom_type_symbol
 _atom_type_oxidation_number
  Ca2+  2.0
  Al0+  0.0
  Si0+  0.0
  O2-  -2.0
loop_
 _atom_site_type_symbol
 _atom_site_label
 _atom_site_symmetry_multiplicity
 _atom_site_fract_x
 _atom_site_fract_y
 _atom_site_fract_z
 _atom_site_occupancy
  Ca2+  Ca0  1  0.15664143  0.07925008  0.16881278  1
  Ca2+  Ca1  1  0.16760496  0.07826562  0.50600166  1
  Ca2+  Ca2  1  0.16389211  0.07332766  0.84026089  1
  Ca2+  Ca3  1  0.16424180  0.58438320  0.17017654  1
  Ca2+  Ca4  1  0.16734024  0.57340633  0.50578803  1
  Ca2+  Ca5  1  0.17726220  0.58290287  0.83735979  1
  Ca2+  Ca6  1  0.67861724  0.07731095  0.17287055  1
  Ca2+  Ca7  1  0.66587616  0.08836909  0.49806118  1
  Ca2+  Ca8  1  0.66973300  0.08020461  0.84242018  1
  Ca2+  Ca9  1  0.67472686  0.57960438  0.16400771  1
  Ca2+  Ca10  1  0.66848687  0.57727914  0.50657396  1
  Ca2+  Ca11  1  0.66886460  0.57090841  0.84284968  1
  Ca2+  Ca12  1  0.08070969  0.32238759  0.15866786  1
  Ca2+  Ca13  1  0.08816202  0.33152561  0.49036916  1
  Ca2+  Ca14  1  0.07967622  0.33266228  0.83228789  1
  Ca2+  Ca15  1  0.07921925  0.82417852  0.15450145  1
  Ca2+  Ca16  1  0.08688941  0.82642307  0.49477213  1
  Ca2+  Ca17  1  0.08290220  0.83386764  0.83578853  1
  Ca2+  Ca18  1  0.58964060  0.32837999  0.16193479  1
  Ca2+  Ca19  1  0.58148349  0.32776055  0.50073773  1
  Ca2+  Ca20  1  0.58362373  0.33251800  0.82326146  1
  Ca2+  Ca21  1  0.58057432  0.84348360  0.16429626  1
  Ca2+  Ca22  1  0.57022317  0.83822138  0.49236931  1
  Ca2+  Ca23  1  0.57819744  0.83297461  0.82703800  1
  Ca2+  Ca24  1  0.32561264  0.42471409  0.17136071  1
  Ca2+  Ca25  1  0.32317276  0.41880074  0.51064321  1
  Ca2+  Ca26  1  0.33603389  0.42506218  0.83665263  1
  Ca2+  Ca27  1  0.32810565  0.91506758  0.16807085  1
  Ca2+  Ca28  1  0.33170108  0.91337154  0.50613675  1
  Ca2+  Ca29  1  0.32250694  0.91021735  0.83568981  1
  Ca2+  Ca30  1  0.83817046  0.41583467  0.16217111  1
  Ca2+  Ca31  1  0.82827018  0.41724187  0.50540229  1
  Ca2+  Ca32  1  0.82325183  0.41579510  0.84286414  1
  Ca2+  Ca33  1  0.83151866  0.92309795  0.16967784  1
  Ca2+  Ca34  1  0.82949956  0.92476865  0.49971494  1
  Ca2+  Ca35  1  0.82745139  0.92174767  0.84852043  1
  Ca2+  Ca36  1  0.42430169  0.16648197  0.16519127  1
  Ca2+  Ca37  1  0.42716078  0.17058943  0.49678308  1
  Ca2+  Ca38  1  0.42640838  0.17532251  0.82252904  1
  Ca2+  Ca39  1  0.41495619  0.67108006  0.16305016  1
  Ca2+  Ca40  1  0.40738168  0.67620130  0.50052173  1
  Ca2+  Ca41  1  0.41154661  0.66718370  0.82813860  1
  Ca2+  Ca42  1  0.92134127  0.16427015  0.15848861  1
  Ca2+  Ca43  1  0.92270146  0.16851962  0.49202231  1
  Ca2+  Ca44  1  0.91695765  0.16678830  0.83872711  1
  Ca2+  Ca45  1  0.92600146  0.66875678  0.15447907  1
  Ca2+  Ca46  1  0.92436981  0.66899422  0.49206107  1
  Ca2+  Ca47  1  0.91641380  0.66764756  0.83685351  1
  Al0+  Al48  1  0.00048263  -0.00219358  -0.00002065  1
  Al0+  Al49  1  -0.00155129  -0.00006302  0.33649266  1
  Al0+  Al50  1  -0.00094807  -0.00013742  0.66895899  1
  Al0+  Al51  1  0.00072312  0.49831626  -0.00730074  1
  Al0+  Al52  1  0.00060534  0.50020984  0.33433616  1
  Al0+  Al53  1  0.00036255  0.50060928  0.66915219  1
  Al0+  Al54  1  0.49748195  0.00085494  0.00028230  1
  Al0+  Al55  1  0.49853967  0.00120302  0.32745553  1
  Al0+  Al56  1  0.50109929  -0.00019355  0.65902797  1
  Al0+  Al57  1  0.49872603  0.50112870  0.01075330  1
  Al0+  Al58  1  0.49925317  0.50338774  0.33493090  1
  Al0+  Al59  1  0.50060485  0.49990739  0.66782054  1
  Al0+  Al60  1  0.25259125  0.24983377  -0.00524702  1
  Al0+  Al61  1  0.25007977  0.24985298  0.33233459  1
  Al0+  Al62  1  0.24990983  0.24861227  0.66751709  1
  Al0+  Al63  1  0.25031925  0.75030649  0.00475147  1
  Al0+  Al64  1  0.25105307  0.75014757  0.32493723  1
  Al0+  Al65  1  0.24839341  0.74943680  0.66928394  1
  Al0+  Al66  1  0.75062551  0.24744326  0.00330671  1
  Al0+  Al67  1  0.74998051  0.25052547  0.33382648  1
  Al0+  Al68  1  0.75330299  0.25031800  0.66586375  1
  Al0+  Al69  1  0.74740837  0.74713261  0.00288658  1
  Al0+  Al70  1  0.74739840  0.75006383  0.33953774  1
  Al0+  Al71  1  0.75140513  0.75290528  0.66365762  1
  Al0+  Al72  1  0.18043918  0.93088649  0.01515707  1
  Al0+  Al73  1  0.82329772  0.57014621  0.01396852  1
  Al0+  Al74  1  0.07355748  0.67791027  0.98161107  1
  Al0+  Al75  1  0.67635773  0.92970136  0.35105333  1
  Al0+  Al76  1  0.07173190  0.17827257  0.32157444  1
  Al0+  Al77  1  0.43028580  0.82046134  0.31695386  1
  Al0+  Al78  1  0.42855827  0.81837415  0.65448939  1
  Al0+  Al79  1  0.31970104  0.57016092  0.68065098  1
  Al0+  Al80  1  0.92814397  0.31962443  0.98366268  1
  Al0+  Al81  1  0.57093726  0.18206095  0.31664715  1
  Al0+  Al82  1  0.92652524  0.81935546  0.98575606  1
  Al0+  Al83  1  0.82188879  0.07205833  0.35123964  1
  Al0+  Al84  1  0.17684099  0.42486657  0.68375814  1
  Al0+  Al85  1  0.57415227  0.17951488  0.65126315  1
  Al0+  Al86  1  0.17990848  0.42939615  0.34485321  1
  Al0+  Al87  1  0.67880074  0.42727918  0.01648662  1
  Al0+  Al88  1  0.31928801  0.57088007  0.01677879  1
  Al0+  Al89  1  0.17939645  0.92989602  0.67946673  1
  Al0+  Al90  1  0.68165984  0.42994979  0.67839239  1
  Al0+  Al91  1  0.06946831  0.67919934  0.32040844  1
  Al0+  Al92  1  0.67494034  0.92701157  0.01307302  1
  Al0+  Al93  1  0.07332465  0.17695911  0.98293531  1
  Al0+  Al94  1  0.82121163  0.06909186  0.01508942  1
  Al0+  Al95  1  0.42748604  0.32360416  0.65161135  1
  Si0+  Si96  1  0.42982776  0.82117892  0.98424538  1
  Si0+  Si97  1  0.32075431  0.07129140  0.34798462  1
  Si0+  Si98  1  0.42772219  0.32425673  0.31615161  1
  Si0+  Si99  1  0.56937544  0.67685853  0.98623240  1
  Si0+  Si100  1  0.43054432  0.32385698  0.98644796  1
  Si0+  Si101  1  0.57412656  0.67617684  0.31551960  1
  Si0+  Si102  1  0.82170503  0.57079525  0.34890417  1
  Si0+  Si103  1  0.92801704  0.32249155  0.31832586  1
  Si0+  Si104  1  0.17973767  0.92811296  0.34706379  1
  Si0+  Si105  1  0.06990941  0.17708039  0.65195605  1
  Si0+  Si106  1  0.67778119  0.42940368  0.34951113  1
  Si0+  Si107  1  0.56944820  0.17961955  0.98605271  1
  Si0+  Si108  1  0.82115989  0.07032323  0.68281329  1
  Si0+  Si109  1  0.93110901  0.32165866  0.65094210  1
  Si0+  Si110  1  0.32220626  0.07449671  0.01649050  1
  Si0+  Si111  1  0.92774881  0.82379592  0.64946133  1
  Si0+  Si112  1  0.67803039  0.92952842  0.68048891  1
  Si0+  Si113  1  0.32478851  0.07115374  0.68170558  1
  Si0+  Si114  1  0.17838278  0.42550277  0.01556837  1
  Si0+  Si115  1  0.92609042  0.82128366  0.31874706  1
  Si0+  Si116  1  0.06933124  0.68041418  0.65138065  1
  Si0+  Si117  1  0.57482413  0.67819697  0.65082384  1
  Si0+  Si118  1  0.82283477  0.57548840  0.68222717  1
  Si0+  Si119  1  0.32161753  0.57400805  0.35119410  1
  O2-  O120  1  0.25016074  0.01023267  0.06199045  1
  O2-  O121  1  0.24835890  0.00103223  0.39007941  1
  O2-  O122  1  0.25522231  0.00370284  0.72612140  1
  O2-  O123  1  0.24205961  0.49796139  0.06163318  1
  O2-  O124  1  0.25495738  0.50292046  0.39357603  1
  O2-  O125  1  0.25260766  0.49401431  0.73169062  1
  O2-  O126  1  0.75075017  -0.00553388  0.06299137  1
  O2-  O127  1  0.74818079  0.00164890  0.40225958  1
  O2-  O128  1  0.74754638  0.00106105  0.72297754  1
  O2-  O129  1  0.75438636  0.49603249  0.06604061  1
  O2-  O130  1  0.74911887  0.50095488  0.39104437  1
  O2-  O131  1  0.75221778  0.50846513  0.72460589  1
  O2-  O132  1  -0.00432998  0.25193453  0.27653626  1
  O2-  O133  1  0.00621328  0.25464241  0.60893006  1
  O2-  O134  1  0.00196554  0.24957232  0.93249142  1
  O2-  O135  1  -0.00572456  0.75305053  0.27443227  1
  O2-  O136  1  -0.00316735  0.75020181  0.60830170  1
  O2-  O137  1  -0.00163996  0.74806101  0.93280598  1
  O2-  O138  1  0.49928200  0.25996803  0.26967926  1
  O2-  O139  1  0.49989700  0.25085505  0.60266380  1
  O2-  O140  1  0.50197138  0.25355202  0.94361385  1
  O2-  O141  1  0.50773708  0.74745375  0.27199863  1
  O2-  O142  1  0.50458184  0.74537240  0.60650732  1
  O2-  O143  1  0.50256284  0.75164527  0.94298342  1
  O2-  O144  1  0.07343468  0.17928605  0.09677356  1
  O2-  O145  1  0.07226473  0.17940401  0.43547388  1
  O2-  O146  1  0.06525776  0.17296808  0.75625392  1
  O2-  O147  1  0.07315044  0.68069539  0.09561602  1
  O2-  O148  1  0.06879156  0.68035199  0.43441207  1
  O2-  O149  1  0.06910460  0.68148153  0.75572974  1
  O2-  O150  1  0.56637192  0.17937958  0.09105845  1
  O2-  O151  1  0.56905367  0.18448838  0.42968699  1
  O2-  O152  1  0.57393959  0.17903129  0.76531073  1
  O2-  O153  1  0.56655749  0.67485020  0.09119890  1
  O2-  O154  1  0.57378711  0.67269528  0.42122189  1
  O2-  O155  1  0.57859403  0.68138713  0.75629533  1
  O2-  O156  1  0.18061338  0.43005763  0.23208985  1
  O2-  O157  1  0.17445821  0.42845271  0.56953423  1
  O2-  O158  1  0.18415929  0.42397048  0.91022378  1
  O2-  O159  1  0.18069045  0.92859367  0.24236890  1
  O2-  O160  1  0.17929852  0.93050415  0.56554870  1
  O2-  O161  1  0.18403365  0.92965394  0.90177155  1
  O2-  O162  1  0.67762950  0.43004032  0.24495116  1
  O2-  O163  1  0.68542680  0.43085298  0.56463907  1
  O2-  O164  1  0.67576449  0.42895049  0.90273976  1
  O2-  O165  1  0.67870816  0.93080948  0.23799035  1
  O2-  O166  1  0.67956615  0.92793209  0.57569440  1
  O2-  O167  1  0.67147455  0.93153694  0.89855961  1
  O2-  O168  1  0.42957561  0.32167857  0.09165919  1
  O2-  O169  1  0.42787548  0.32203710  0.42158614  1
  O2-  O170  1  0.43130545  0.32221528  0.76567195  1
  O2-  O171  1  0.43051217  0.82163570  0.08928856  1
  O2-  O172  1  0.42683502  0.81789581  0.43037982  1
  O2-  O173  1  0.43049462  0.81804433  0.76763108  1
  O2-  O174  1  0.93045744  0.31851661  0.09763150  1
  O2-  O175  1  0.92890011  0.32381394  0.42470529  1
  O2-  O176  1  0.92783829  0.31955761  0.75519639  1
  O2-  O177  1  0.92917201  0.81851923  0.09963011  1
  O2-  O178  1  0.92875160  0.81951712  0.42532891  1
  O2-  O179  1  0.92474030  0.82518706  0.75375981  1
  O2-  O180  1  0.32066659  0.07138365  0.24298088  1
  O2-  O181  1  0.32304228  0.06993608  0.57564297  1
  O2-  O182  1  0.32632137  0.07152392  0.91098572  1
  O2-  O183  1  0.32202723  0.57323834  0.24571811  1
  O2-  O184  1  0.31349576  0.57380973  0.56694871  1
  O2-  O185  1  0.32274005  0.56957654  0.90391471  1
  O2-  O186  1  0.82357969  0.07043058  0.23856258  1
  O2-  O187  1  0.82415782  0.06918574  0.57777969  1
  O2-  O188  1  0.81603177  0.07004863  0.90064541  1
  O2-  O189  1  0.82294418  0.57038485  0.24454781  1
  O2-  O190  1  0.82357697  0.57443473  0.57581199  1
  O2-  O191  1  0.81643530  0.57084902  0.90020316  1
  O2-  O192  1  0.04176512  0.08039055  0.26993074  1
  O2-  O193  1  0.03569237  0.08756395  0.60247930  1
  O2-  O194  1  0.04415346  0.07849560  0.93118593  1
  O2-  O195  1  0.03848127  0.58273277  0.26704094  1
  O2-  O196  1  0.04175648  0.58784871  0.60398837  1
  O2-  O197  1  0.05079479  0.57852473  0.92909974  1
  O2-  O198  1  0.53589534  0.08744926  0.26267171  1
  O2-  O199  1  0.54615381  0.08185464  0.59612589  1
  O2-  O200  1  0.53732449  0.08939842  0.93717683  1
  O2-  O201  1  0.54579655  0.58374424  0.26777209  1
  O2-  O202  1  0.55182647  0.58400616  0.60548984  1
  O2-  O203  1  0.53619132  0.58600950  0.93952139  1
  O2-  O204  1  0.16810501  0.20742438  0.26653978  1
  O2-  O205  1  0.16505737  0.19583064  0.60740697  1
  O2-  O206  1  0.17312606  0.20292031  0.93001195  1
  O2-  O207  1  0.16492486  0.70909231  0.26524196  1
  O2-  O208  1  0.15955801  0.71127271  0.60309113  1
  O2-  O209  1  0.17171956  0.71279133  0.93141328  1
  O2-  O210  1  0.66865703  0.21154151  0.26446250  1
  O2-  O211  1  0.67208866  0.21042074  0.59791172  1
  O2-  O212  1  0.66245864  0.20299790  0.94029517  1
  O2-  O213  1  0.66947973  0.69896068  0.27196011  1
  O2-  O214  1  0.66781597  0.70486041  0.60205007  1
  O2-  O215  1  0.66191537  0.69827783  0.93813080  1
  O2-  O216  1  0.08222195  0.44521284  0.05681011  1
  O2-  O217  1  0.08339496  0.45978068  0.40084802  1
  O2-  O218  1  0.07906613  0.45674616  0.73564012  1
  O2-  O219  1  0.08296189  0.95617361  0.06863276  1
  O2-  O220  1  0.08719792  0.95174677  0.39518283  1
  O2-  O221  1  0.08312550  0.96158548  0.73336521  1
  O2-  O222  1  0.58344670  0.45963979  0.07316724  1
  O2-  O223  1  0.58573654  0.45809666  0.39677311  1
  O2-  O224  1  0.58408577  0.45583500  0.73177343  1
  O2-  O225  1  0.57800747  0.96038325  0.06646032  1
  O2-  O226  1  0.57637780  0.96020709  0.40013982  1
  O2-  O227  1  0.58498385  0.95518755  0.72613183  1
  O2-  O228  1  0.20930683  0.33299778  0.06174268  1
  O2-  O229  1  0.21056409  0.33252061  0.39951185  1
  O2-  O230  1  0.19869174  0.32396339  0.73381173  1
  O2-  O231  1  0.21643455  0.83709509  0.07074628  1
  O2-  O232  1  0.21159219  0.83654661  0.39315502  1
  O2-  O233  1  0.21006983  0.83454513  0.73438150  1
  O2-  O234  1  0.70559149  0.32880342  0.06857847  1
  O2-  O235  1  0.70629976  0.33840242  0.39740440  1
  O2-  O236  1  0.71626584  0.33452018  0.73219745  1
  O2-  O237  1  0.69387655  0.82624436  0.06355980  1
  O2-  O238  1  0.70107775  0.82978471  0.40485356  1
  O2-  O239  1  0.70649999  0.83727564  0.72716101  1
  O2-  O240  1  0.44947577  0.42050681  0.27364820  1
  O2-  O241  1  0.45528398  0.42205204  0.59785543  1
  O2-  O242  1  0.45908495  0.41653084  0.94179594  1
  O2-  O243  1  0.45704373  0.91730707  0.26189466  1
  O2-  O244  1  0.45751765  0.91446519  0.59810192  1
  O2-  O245  1  0.45440607  0.91390073  0.93644327  1
  O2-  O246  1  0.95477436  0.41542433  0.27238120  1
  O2-  O247  1  0.95318108  0.41596912  0.60443850  1
  O2-  O248  1  0.95174098  0.41803560  0.92840992  1
  O2-  O249  1  0.95138812  0.91534916  0.27527082  1
  O2-  O250  1  0.95929024  0.91430542  0.60115019  1
  O2-  O251  1  0.95568227  0.91712974  0.93208951  1
  O2-  O252  1  0.33614346  0.29417677  0.26876950  1
  O2-  O253  1  0.32829154  0.29417505  0.59932596  1
  O2-  O254  1  0.34012227  0.29701480  0.93622851  1
  O2-  O255  1  0.33584226  0.78786189  0.25976395  1
  O2-  O256  1  0.33174644  0.78683312  0.59986861  1
  O2-  O257  1  0.33879370  0.78990921  0.93852551  1
  O2-  O258  1  0.83370804  0.30052499  0.27332551  1
  O2-  O259  1  0.84194018  0.28948642  0.60044321  1
  O2-  O260  1  0.82935354  0.28783042  0.93133042  1
  O2-  O261  1  0.83102500  0.79661103  0.27685097  1
  O2-  O262  1  0.83610801  0.79776482  0.59932168  1
  O2-  O263  1  0.82653024  0.79174049  0.93337514  1
  O2-  O264  1  0.41299501  0.04330441  0.06547045  1
  O2-  O265  1  0.41155681  0.04142471  0.39540992  1
  O2-  O266  1  0.41892783  0.04503285  0.72640721  1
  O2-  O267  1  0.41311478  0.53857538  0.07530512  1
  O2-  O268  1  0.41670152  0.55316472  0.39687532  1
  O2-  O269  1  0.42092529  0.54949245  0.73144686  1
  O2-  O270  1  0.92016667  0.04293862  0.06649608  1
  O2-  O271  1  0.91937388  0.04085590  0.40737750  1
  O2-  O272  1  0.91100543  0.03912914  0.73123577  1
  O2-  O273  1  0.92387814  0.54422984  0.06393780  1
  O2-  O274  1  0.91193337  0.54108850  0.39920362  1
  O2-  O275  1  0.91553262  0.54938799  0.72798387  1
  O2-  O276  1  0.30310966  0.17007613  0.06114816  1
  O2-  O277  1  0.29417988  0.16298369  0.39631973  1
  O2-  O278  1  0.30157929  0.16490557  0.72782613  1
  O2-  O279  1  0.29112854  0.66741548  0.07141729  1
  O2-  O280  1  0.29219150  0.66768148  0.39480689  1
  O2-  O281  1  0.28653221  0.66626022  0.73575348  1
  O2-  O282  1  0.79141626  0.16557451  0.06968312  1
  O2-  O283  1  0.79432037  0.17197124  0.40304742  1
  O2-  O284  1  0.79584195  0.16297107  0.72863511  1
  O2-  O285  1  0.79124365  0.66598022  0.06985884  1
  O2-  O286  1  0.79559318  0.66213341  0.39901525  1
  O2-  O287  1  0.79989298  0.67082563  0.72577389  1
