# generated using pymatgen
data_Ca2Al2SiO7
_symmetry_space_group_name_H-M   'P 1'
_cell_length_a   15.46377826
_cell_length_b   15.46180003
_cell_length_c   15.28737454
_cell_angle_alpha   90.00706098
_cell_angle_beta   89.98796826
_cell_angle_gamma   90.01571848
_symmetry_Int_Tables_number   1
_chemical_formula_structural   Ca2Al2SiO7
_chemical_formula_sum   'Ca48 Al48 Si24 O168'
_cell_volume   3655.17809460
_cell_formula_units_Z   24
loop_
 _symmetry_equiv_pos_site_id
 _symmetry_equiv_pos_as_xyz
  1  'x, y, z'
loop_
 _atom_type_symbol
 _atom_type_oxidation_number
  Ca2+  2.0
  Al0+  0.0
  Si0+  0.0
  O2-  -2.0
loop_
 _atom_site_type_symbol
 _atom_site_label
 _atom_site_symmetry_multiplicity
 _atom_site_fract_x
 _atom_site_fract_y
 _atom_site_fract_z
 _atom_site_occupancy
  Ca2+  Ca0  1  0.17482215  0.07575791  0.17080472  1
  Ca2+  Ca1  1  0.17257443  0.07493304  0.50321419  1
  Ca2+  Ca2  1  0.18176278  0.08154165  0.83639340  1
  Ca2+  Ca3  1  0.17499086  0.58176002  0.17029433  1
  Ca2+  Ca4  1  0.17094534  0.57367614  0.50532695  1
  Ca2+  Ca5  1  0.17696843  0.58239119  0.83301047  1
  Ca2+  Ca6  1  0.66750768  0.07821578  0.17423043  1
  Ca2+  Ca7  1  0.66955304  0.07628519  0.49614262  1
  Ca2+  Ca8  1  0.66426474  0.08116165  0.83924659  1
  Ca2+  Ca9  1  0.66844059  0.57442155  0.17560841  1
  Ca2+  Ca10  1  0.66684479  0.58092811  0.50546005  1
  Ca2+  Ca11  1  0.66003218  0.57676822  0.83318605  1
  Ca2+  Ca12  1  0.07783311  0.33991467  0.16875059  1
  Ca2+  Ca13  1  0.07992705  0.33965200  0.48991531  1
  Ca2+  Ca14  1  0.08622656  0.33442156  0.82674858  1
  Ca2+  Ca15  1  0.07839223  0.83654895  0.16251051  1
  Ca2+  Ca16  1  0.07946827  0.83433041  0.49592469  1
  Ca2+  Ca17  1  0.07124799  0.83389374  0.82998969  1
  Ca2+  Ca18  1  0.58601965  0.32971125  0.15755898  1
  Ca2+  Ca19  1  0.58798166  0.33694793  0.49606468  1
  Ca2+  Ca20  1  0.58433422  0.33365783  0.83511445  1
  Ca2+  Ca21  1  0.57894250  0.83004513  0.16667932  1
  Ca2+  Ca22  1  0.57546547  0.82106504  0.49331526  1
  Ca2+  Ca23  1  0.57214163  0.82359661  0.82480347  1
  Ca2+  Ca24  1  0.33615678  0.42252881  0.16815319  1
  Ca2+  Ca25  1  0.32236595  0.42096264  0.50943463  1
  Ca2+  Ca26  1  0.33909817  0.43018817  0.83773388  1
  Ca2+  Ca27  1  0.33872811  0.91848313  0.17196532  1
  Ca2+  Ca28  1  0.33564770  0.91444014  0.50374661  1
  Ca2+  Ca29  1  0.34625257  0.92383258  0.83822304  1
  Ca2+  Ca30  1  0.82307411  0.41916564  0.17831116  1
  Ca2+  Ca31  1  0.82564408  0.42799304  0.50266971  1
  Ca2+  Ca32  1  0.82135858  0.42372626  0.83491939  1
  Ca2+  Ca33  1  0.82744258  0.92210829  0.17676230  1
  Ca2+  Ca34  1  0.82735682  0.91378634  0.50257362  1
  Ca2+  Ca35  1  0.83450892  0.91168484  0.83771361  1
  Ca2+  Ca36  1  0.42370975  0.17386272  0.15422193  1
  Ca2+  Ca37  1  0.41508611  0.16711626  0.49838326  1
  Ca2+  Ca38  1  0.41667337  0.16775885  0.83283971  1
  Ca2+  Ca39  1  0.41910802  0.67486233  0.16245612  1
  Ca2+  Ca40  1  0.42469653  0.66665282  0.49492835  1
  Ca2+  Ca41  1  0.41418503  0.67205961  0.82435272  1
  Ca2+  Ca42  1  0.91217254  0.17146833  0.16775489  1
  Ca2+  Ca43  1  0.91572566  0.17520246  0.48993486  1
  Ca2+  Ca44  1  0.92132979  0.16988793  0.82805349  1
  Ca2+  Ca45  1  0.91601331  0.66904967  0.16436345  1
  Ca2+  Ca46  1  0.91137782  0.66355767  0.49764315  1
  Ca2+  Ca47  1  0.91183039  0.67504070  0.82574059  1
  Al0+  Al48  1  0.00034302  0.00114949  -0.00428109  1
  Al0+  Al49  1  0.00406963  0.00266118  0.33903095  1
  Al0+  Al50  1  0.00018696  0.00131355  0.66240641  1
  Al0+  Al51  1  0.00046576  0.50089995  -0.00265205  1
  Al0+  Al52  1  -0.00004545  0.50037967  0.33279606  1
  Al0+  Al53  1  -0.00310689  0.50055250  0.67476177  1
  Al0+  Al54  1  0.50205830  0.00004467  -0.00121268  1
  Al0+  Al55  1  0.50142490  0.00207015  0.33446387  1
  Al0+  Al56  1  0.50168947  0.00073125  0.66549887  1
  Al0+  Al57  1  0.49984310  0.49875626  0.00715042  1
  Al0+  Al58  1  0.50046191  0.50070236  0.33209408  1
  Al0+  Al59  1  0.49853075  0.49710490  0.66905467  1
  Al0+  Al60  1  0.24953706  0.24921884  0.00126377  1
  Al0+  Al61  1  0.24929547  0.24909537  0.33397302  1
  Al0+  Al62  1  0.24998310  0.24532762  0.67158309  1
  Al0+  Al63  1  0.24805528  0.74947699  -0.00068217  1
  Al0+  Al64  1  0.24894237  0.75178745  0.33355543  1
  Al0+  Al65  1  0.24430251  0.75099952  0.66647549  1
  Al0+  Al66  1  0.75153082  0.24948451  -0.00201296  1
  Al0+  Al67  1  0.75097847  0.25070183  0.33577122  1
  Al0+  Al68  1  0.75129047  0.24912767  0.66936462  1
  Al0+  Al69  1  0.74996383  0.75013815  -0.00320672  1
  Al0+  Al70  1  0.74930749  0.75064281  0.33434035  1
  Al0+  Al71  1  0.74812149  0.75117767  0.66284645  1
  Al0+  Al72  1  0.32248896  0.06670976  0.68073099  1
  Al0+  Al73  1  0.67765878  0.92859868  0.34909892  1
  Al0+  Al74  1  0.92914924  0.82060848  0.98867252  1
  Al0+  Al75  1  0.42847921  0.82150934  0.31774060  1
  Al0+  Al76  1  0.32049413  0.57233293  0.01531384  1
  Al0+  Al77  1  0.57309465  0.67715975  0.31580160  1
  Al0+  Al78  1  0.81844284  0.57419028  0.68367175  1
  Al0+  Al79  1  0.92889132  0.82141107  0.65033360  1
  Al0+  Al80  1  0.68143842  0.42905598  0.01536049  1
  Al0+  Al81  1  0.67686415  0.42899838  0.34829303  1
  Al0+  Al82  1  0.18020376  0.92782837  0.34662264  1
  Al0+  Al83  1  0.42614862  0.82282667  0.65166572  1
  Al0+  Al84  1  0.17744903  0.42720743  0.68164294  1
  Al0+  Al85  1  0.93024469  0.32113680  0.31995362  1
  Al0+  Al86  1  0.82178622  0.57218988  0.34635745  1
  Al0+  Al87  1  0.32012739  0.57176976  0.67983634  1
  Al0+  Al88  1  0.18091305  0.42942104  0.34409483  1
  Al0+  Al89  1  0.57267623  0.17916207  0.98469650  1
  Al0+  Al90  1  0.82234128  0.07153090  0.34776423  1
  Al0+  Al91  1  0.42854737  0.81994485  0.98681795  1
  Al0+  Al92  1  0.32291819  0.06988403  0.01513040  1
  Al0+  Al93  1  0.67799728  0.42623723  0.68362399  1
  Al0+  Al94  1  0.42768105  0.32197695  0.98457502  1
  Al0+  Al95  1  0.56796667  0.67576391  0.65206893  1
  Si0+  Si96  1  0.07226550  0.17993400  0.65007668  1
  Si0+  Si97  1  0.93015747  0.82402138  0.31968189  1
  Si0+  Si98  1  0.82227234  0.07035535  0.68288973  1
  Si0+  Si99  1  0.17449617  0.92866611  0.68467969  1
  Si0+  Si100  1  0.82348462  0.07037569  0.01338973  1
  Si0+  Si101  1  0.42795407  0.31799237  0.65199479  1
  Si0+  Si102  1  0.07397312  0.17755691  0.31447426  1
  Si0+  Si103  1  0.42601096  0.32062687  0.32043474  1
  Si0+  Si104  1  0.68040534  0.92832730  0.01350129  1
  Si0+  Si105  1  0.92959782  0.32162786  0.98370773  1
  Si0+  Si106  1  0.07052862  0.67909882  0.31824206  1
  Si0+  Si107  1  0.17607347  0.42719450  0.01750249  1
  Si0+  Si108  1  0.57151431  0.67728335  0.98435016  1
  Si0+  Si109  1  0.32256951  0.07189762  0.34917185  1
  Si0+  Si110  1  0.07052441  0.17872680  0.98404055  1
  Si0+  Si111  1  0.82285534  0.57346468  0.01659944  1
  Si0+  Si112  1  0.68027940  0.93066891  0.68277013  1
  Si0+  Si113  1  0.92962389  0.32041012  0.65224248  1
  Si0+  Si114  1  0.17662692  0.92971251  0.01492340  1
  Si0+  Si115  1  0.57356136  0.17894556  0.64961605  1
  Si0+  Si116  1  0.06924625  0.67617432  0.64859489  1
  Si0+  Si117  1  0.57108723  0.18133775  0.31983923  1
  Si0+  Si118  1  0.07200064  0.67661837  0.98170089  1
  Si0+  Si119  1  0.32164141  0.57291908  0.34886143  1
  O2-  O120  1  0.25066785  -0.00808923  0.06014679  1
  O2-  O121  1  0.25807454  -0.00071057  0.39276738  1
  O2-  O122  1  0.25143823  -0.01174062  0.72816200  1
  O2-  O123  1  0.24652394  0.49473388  0.06017539  1
  O2-  O124  1  0.25681058  0.50045200  0.39252106  1
  O2-  O125  1  0.25003293  0.49799334  0.73144891  1
  O2-  O126  1  0.75223515  -0.00026369  0.05452408  1
  O2-  O127  1  0.75461673  -0.00354491  0.39897304  1
  O2-  O128  1  0.75318143  -0.00074048  0.72713289  1
  O2-  O129  1  0.75618972  0.50391869  0.06123310  1
  O2-  O130  1  0.74551677  0.50483971  0.39625319  1
  O2-  O131  1  0.74509527  0.50327976  0.73300241  1
  O2-  O132  1  0.00413866  0.24566197  0.27092666  1
  O2-  O133  1  0.00538525  0.25488959  0.60893210  1
  O2-  O134  1  0.00358162  0.25360688  0.94112979  1
  O2-  O135  1  -0.00059041  0.75138290  0.27701022  1
  O2-  O136  1  0.00125403  0.74509916  0.60319787  1
  O2-  O137  1  0.00096125  0.74445238  0.94003010  1
  O2-  O138  1  0.50111010  0.25357363  0.27875768  1
  O2-  O139  1  0.50241511  0.25054945  0.60858271  1
  O2-  O140  1  0.49971350  0.24975832  0.93384216  1
  O2-  O141  1  0.50015034  0.74955139  0.26715286  1
  O2-  O142  1  0.49232303  0.74508811  0.60324226  1
  O2-  O143  1  0.49974413  0.74245081  0.93986332  1
  O2-  O144  1  0.06740905  0.17497277  0.08872458  1
  O2-  O145  1  0.07647628  0.17876582  0.41999996  1
  O2-  O146  1  0.06928835  0.17789544  0.75562094  1
  O2-  O147  1  0.07177350  0.67540446  0.08756553  1
  O2-  O148  1  0.07109052  0.67827881  0.42304419  1
  O2-  O149  1  0.06908185  0.67817946  0.75430731  1
  O2-  O150  1  0.57405718  0.17945017  0.09864212  1
  O2-  O151  1  0.56954543  0.18015224  0.42528627  1
  O2-  O152  1  0.57451154  0.17706740  0.75442798  1
  O2-  O153  1  0.57447949  0.68147177  0.08957714  1
  O2-  O154  1  0.56997301  0.67566096  0.42909840  1
  O2-  O155  1  0.56841722  0.67905148  0.76625419  1
  O2-  O156  1  0.18175081  0.43160382  0.23098824  1
  O2-  O157  1  0.17838913  0.42750398  0.56775442  1
  O2-  O158  1  0.17323508  0.42826887  0.91224023  1
  O2-  O159  1  0.17649550  0.93130703  0.23342901  1
  O2-  O160  1  0.17033443  0.93417953  0.57929934  1
  O2-  O161  1  0.17144263  0.93466231  0.90970425  1
  O2-  O162  1  0.68013605  0.42587083  0.23458505  1
  O2-  O163  1  0.68289146  0.42146175  0.57070357  1
  O2-  O164  1  0.68359825  0.42851070  0.90256770  1
  O2-  O165  1  0.67888598  0.93212897  0.23473747  1
  O2-  O166  1  0.68123411  0.93433050  0.57808094  1
  O2-  O167  1  0.68261754  0.92854917  0.90818033  1
  O2-  O168  1  0.42854621  0.31968561  0.09884223  1
  O2-  O169  1  0.42237095  0.31673855  0.42568257  1
  O2-  O170  1  0.42649563  0.31587396  0.75663897  1
  O2-  O171  1  0.43110917  0.82099278  0.09964418  1
  O2-  O172  1  0.42765593  0.81963273  0.43094434  1
  O2-  O173  1  0.43220519  0.82459145  0.76550565  1
  O2-  O174  1  0.92965595  0.32029305  0.08870674  1
  O2-  O175  1  0.93329945  0.31974506  0.43309308  1
  O2-  O176  1  0.92946496  0.31499431  0.75782318  1
  O2-  O177  1  0.93131786  0.82282983  0.10188234  1
  O2-  O178  1  0.93312807  0.82472839  0.42452001  1
  O2-  O179  1  0.93215201  0.82382550  0.76386776  1
  O2-  O180  1  0.32092107  0.07383380  0.24363876  1
  O2-  O181  1  0.31929715  0.07012711  0.56758062  1
  O2-  O182  1  0.32039359  0.06924202  0.90206344  1
  O2-  O183  1  0.31867262  0.57298092  0.24301350  1
  O2-  O184  1  0.31878162  0.56763498  0.56608061  1
  O2-  O185  1  0.31807909  0.57361884  0.90252775  1
  O2-  O186  1  0.82036689  0.07043484  0.23339786  1
  O2-  O187  1  0.82157167  0.07199117  0.57834158  1
  O2-  O188  1  0.82570215  0.06973856  0.90797814  1
  O2-  O189  1  0.82441558  0.56884076  0.23230022  1
  O2-  O190  1  0.82096585  0.57019918  0.57058922  1
  O2-  O191  1  0.82241912  0.57361319  0.91133953  1
  O2-  O192  1  0.04852874  0.08377502  0.26840291  1
  O2-  O193  1  0.03993137  0.09050730  0.60099901  1
  O2-  O194  1  0.03804808  0.09028462  0.93240302  1
  O2-  O195  1  0.04165631  0.58909795  0.26778365  1
  O2-  O196  1  0.04237059  0.58159009  0.60486517  1
  O2-  O197  1  0.04858569  0.58297736  0.93429598  1
  O2-  O198  1  0.54313654  0.09021672  0.27117788  1
  O2-  O199  1  0.54407246  0.08838294  0.60099315  1
  O2-  O200  1  0.54564962  0.08066875  0.93147888  1
  O2-  O201  1  0.54451912  0.57822213  0.26251429  1
  O2-  O202  1  0.54407627  0.57523439  0.60063648  1
  O2-  O203  1  0.54855544  0.58183866  0.94287419  1
  O2-  O204  1  0.16661671  0.20496263  0.26651041  1
  O2-  O205  1  0.16576763  0.20184240  0.60354466  1
  O2-  O206  1  0.16304054  0.20365302  0.93692865  1
  O2-  O207  1  0.16140508  0.70791010  0.26931493  1
  O2-  O208  1  0.16228873  0.70116486  0.60098713  1
  O2-  O209  1  0.16347539  0.70519825  0.93371304  1
  O2-  O210  1  0.66329831  0.20679075  0.27247333  1
  O2-  O211  1  0.66619754  0.20618736  0.60318614  1
  O2-  O212  1  0.67176131  0.20615925  0.93058244  1
  O2-  O213  1  0.67211866  0.70627117  0.26320057  1
  O2-  O214  1  0.66483900  0.70899682  0.59947228  1
  O2-  O215  1  0.66383464  0.70561723  0.93649481  1
  O2-  O216  1  0.08240360  0.45584926  0.06347656  1
  O2-  O217  1  0.08552425  0.46222796  0.39774128  1
  O2-  O218  1  0.07969395  0.45421853  0.73621157  1
  O2-  O219  1  0.08549013  0.96333184  0.06290295  1
  O2-  O220  1  0.08699827  0.96229784  0.40482129  1
  O2-  O221  1  0.08448270  0.96526046  0.73241144  1
  O2-  O222  1  0.58454757  0.45540200  0.06984214  1
  O2-  O223  1  0.57641216  0.45185269  0.39972492  1
  O2-  O224  1  0.57758542  0.44811364  0.73452582  1
  O2-  O225  1  0.59034396  0.95772692  0.06212037  1
  O2-  O226  1  0.58260348  0.96465976  0.40390140  1
  O2-  O227  1  0.59022266  0.96252076  0.73071607  1
  O2-  O228  1  0.19684322  0.33218507  0.06226096  1
  O2-  O229  1  0.20704461  0.33148369  0.39804468  1
  O2-  O230  1  0.20284890  0.32725939  0.73248798  1
  O2-  O231  1  0.19342451  0.83340732  0.05759583  1
  O2-  O232  1  0.20506346  0.83086401  0.40241948  1
  O2-  O233  1  0.18662865  0.83164160  0.72696595  1
  O2-  O234  1  0.71498864  0.33145888  0.06670766  1
  O2-  O235  1  0.70788820  0.33189178  0.40126813  1
  O2-  O236  1  0.71318506  0.32947197  0.73782611  1
  O2-  O237  1  0.70890947  0.83687509  0.06116284  1
  O2-  O238  1  0.70320906  0.83019979  0.40126785  1
  O2-  O239  1  0.70628962  0.83871274  0.72949387  1
  O2-  O240  1  0.44842532  0.41416647  0.27478031  1
  O2-  O241  1  0.45111979  0.41043872  0.60456205  1
  O2-  O242  1  0.45756896  0.42126708  0.93461920  1
  O2-  O243  1  0.45771326  0.92195658  0.26793096  1
  O2-  O244  1  0.46084562  0.91977247  0.59878294  1
  O2-  O245  1  0.46375665  0.91526287  0.93350766  1
  O2-  O246  1  0.96341147  0.41607661  0.26340462  1
  O2-  O247  1  0.95252246  0.41477102  0.60893935  1
  O2-  O248  1  0.95447778  0.41441386  0.93659187  1
  O2-  O249  1  0.96126936  0.91593472  0.27351042  1
  O2-  O250  1  0.96139386  0.91819622  0.59680166  1
  O2-  O251  1  0.96109000  0.91645731  0.93210723  1
  O2-  O252  1  0.33649371  0.28920084  0.27028909  1
  O2-  O253  1  0.33714465  0.28459055  0.60455376  1
  O2-  O254  1  0.32796436  0.29449072  0.93367345  1
  O2-  O255  1  0.32845922  0.79521480  0.26564804  1
  O2-  O256  1  0.32226707  0.80543920  0.60598177  1
  O2-  O257  1  0.32912538  0.79578243  0.93516657  1
  O2-  O258  1  0.83425568  0.28748711  0.26546244  1
  O2-  O259  1  0.84001236  0.28581474  0.60510356  1
  O2-  O260  1  0.84080993  0.28879014  0.93419867  1
  O2-  O261  1  0.83741203  0.80020769  0.27288609  1
  O2-  O262  1  0.83122704  0.79513280  0.59773925  1
  O2-  O263  1  0.83278614  0.79254952  0.93212232  1
  O2-  O264  1  0.42076078  0.04194448  0.06782182  1
  O2-  O265  1  0.41703132  0.05215878  0.39495266  1
  O2-  O266  1  0.42092738  0.04180733  0.73421192  1
  O2-  O267  1  0.41586205  0.54243686  0.07170795  1
  O2-  O268  1  0.41603332  0.54984862  0.39233652  1
  O2-  O269  1  0.41730102  0.54272298  0.73419661  1
  O2-  O270  1  0.91478635  0.04231355  0.06140724  1
  O2-  O271  1  0.92268702  0.05154503  0.39935539  1
  O2-  O272  1  0.91514498  0.04375104  0.72944881  1
  O2-  O273  1  0.91842052  0.54969527  0.05983230  1
  O2-  O274  1  0.91845356  0.53974467  0.40035824  1
  O2-  O275  1  0.91542315  0.54453780  0.73938217  1
  O2-  O276  1  0.28849207  0.16574042  0.06877670  1
  O2-  O277  1  0.29163799  0.16319583  0.39719138  1
  O2-  O278  1  0.28715877  0.16065649  0.73719918  1
  O2-  O279  1  0.28553814  0.66789558  0.06998891  1
  O2-  O280  1  0.29146001  0.66441705  0.39482889  1
  O2-  O281  1  0.28912337  0.67040979  0.73220601  1
  O2-  O282  1  0.79680625  0.16246236  0.06001925  1
  O2-  O283  1  0.78990788  0.16736951  0.40267515  1
  O2-  O284  1  0.79413073  0.16116130  0.73215665  1
  O2-  O285  1  0.79738821  0.66783853  0.06154882  1
  O2-  O286  1  0.80200335  0.67284182  0.39659770  1
  O2-  O287  1  0.79267983  0.67454046  0.73416771  1
