# generated using pymatgen
data_Ca2Al2SiO7
_symmetry_space_group_name_H-M   'P 1'
_cell_length_a   15.46333241
_cell_length_b   15.46341739
_cell_length_c   15.28823260
_cell_angle_alpha   90.01160634
_cell_angle_beta   89.99788118
_cell_angle_gamma   90.00266320
_symmetry_Int_Tables_number   1
_chemical_formula_structural   Ca2Al2SiO7
_chemical_formula_sum   'Ca48 Al48 Si24 O168'
_cell_volume   3655.66038366
_cell_formula_units_Z   24
loop_
 _symmetry_equiv_pos_site_id
 _symmetry_equiv_pos_as_xyz
  1  'x, y, z'
loop_
 _atom_type_symbol
 _atom_type_oxidation_number
  Ca2+  2.0
  Al0+  0.0
  Si0+  0.0
  O2-  -2.0
loop_
 _atom_site_type_symbol
 _atom_site_label
 _atom_site_symmetry_multiplicity
 _atom_site_fract_x
 _atom_site_fract_y
 _atom_site_fract_z
 _atom_site_occupancy
  Ca2+  Ca0  1  0.16893212  0.09369001  0.16780058  1
  Ca2+  Ca1  1  0.16233105  0.07907906  0.50113014  1
  Ca2+  Ca2  1  0.16973325  0.07919273  0.84309582  1
  Ca2+  Ca3  1  0.17731289  0.57064972  0.17017629  1
  Ca2+  Ca4  1  0.16736376  0.57751264  0.49540540  1
  Ca2+  Ca5  1  0.17521387  0.57538584  0.84406639  1
  Ca2+  Ca6  1  0.66318025  0.07982465  0.17204029  1
  Ca2+  Ca7  1  0.67589447  0.09642119  0.49556482  1
  Ca2+  Ca8  1  0.66522636  0.07686466  0.84406244  1
  Ca2+  Ca9  1  0.66966889  0.57394215  0.16629754  1
  Ca2+  Ca10  1  0.67279071  0.57674341  0.49370909  1
  Ca2+  Ca11  1  0.67126680  0.57917762  0.84717640  1
  Ca2+  Ca12  1  0.08727962  0.32951079  0.16293216  1
  Ca2+  Ca13  1  0.07401308  0.33011880  0.48783761  1
  Ca2+  Ca14  1  0.08289763  0.33137977  0.83394908  1
  Ca2+  Ca15  1  0.06904695  0.82999649  0.16229022  1
  Ca2+  Ca16  1  0.08085443  0.83259132  0.49142180  1
  Ca2+  Ca17  1  0.08019730  0.83417390  0.83237466  1
  Ca2+  Ca18  1  0.57812356  0.33532085  0.16005175  1
  Ca2+  Ca19  1  0.57812973  0.33014722  0.48561943  1
  Ca2+  Ca20  1  0.58059020  0.33516252  0.83860978  1
  Ca2+  Ca21  1  0.58844650  0.82465690  0.15651098  1
  Ca2+  Ca22  1  0.57577206  0.83181036  0.49707925  1
  Ca2+  Ca23  1  0.57951904  0.82861114  0.83580131  1
  Ca2+  Ca24  1  0.32965476  0.41457599  0.17171964  1
  Ca2+  Ca25  1  0.33084426  0.41507253  0.49370145  1
  Ca2+  Ca26  1  0.32874191  0.41915116  0.84959349  1
  Ca2+  Ca27  1  0.33604635  0.92837454  0.16840764  1
  Ca2+  Ca28  1  0.32624660  0.91745917  0.51045259  1
  Ca2+  Ca29  1  0.33138767  0.91944511  0.83803811  1
  Ca2+  Ca30  1  0.82361672  0.41990311  0.17721609  1
  Ca2+  Ca31  1  0.83183431  0.40742504  0.49966667  1
  Ca2+  Ca32  1  0.82944524  0.42250236  0.84375937  1
  Ca2+  Ca33  1  0.83317278  0.91964174  0.17060241  1
  Ca2+  Ca34  1  0.83831776  0.92433457  0.49620882  1
  Ca2+  Ca35  1  0.82688272  0.91707818  0.84550604  1
  Ca2+  Ca36  1  0.42479137  0.17735864  0.15936584  1
  Ca2+  Ca37  1  0.42471024  0.17354888  0.48815412  1
  Ca2+  Ca38  1  0.41802966  0.16679307  0.84146604  1
  Ca2+  Ca39  1  0.41945798  0.66064441  0.15905504  1
  Ca2+  Ca40  1  0.41017739  0.67212669  0.49452198  1
  Ca2+  Ca41  1  0.42388272  0.66296896  0.83245935  1
  Ca2+  Ca42  1  0.92532740  0.16869818  0.16757006  1
  Ca2+  Ca43  1  0.92124743  0.17475249  0.48805341  1
  Ca2+  Ca44  1  0.92286365  0.17416336  0.83236824  1
  Ca2+  Ca45  1  0.89836058  0.67550267  0.16212539  1
  Ca2+  Ca46  1  0.91504646  0.67410588  0.48978908  1
  Ca2+  Ca47  1  0.91180072  0.67025955  0.83670788  1
  Al0+  Al48  1  -0.00141754  -0.00029657  -0.01036254  1
  Al0+  Al49  1  -0.00182508  -0.00141996  0.32939587  1
  Al0+  Al50  1  0.00008239  -0.00022612  0.67250476  1
  Al0+  Al51  1  0.00151940  0.50423912  0.00693781  1
  Al0+  Al52  1  0.00181446  0.50256059  0.33699181  1
  Al0+  Al53  1  -0.00020693  0.50117274  0.66371697  1
  Al0+  Al54  1  0.49923972  -0.00013052  0.00530047  1
  Al0+  Al55  1  0.49813704  -0.00137700  0.33362570  1
  Al0+  Al56  1  0.50104587  -0.00109011  0.66195769  1
  Al0+  Al57  1  0.50204565  0.50119648  -0.00456701  1
  Al0+  Al58  1  0.50037190  0.50307268  0.34016610  1
  Al0+  Al59  1  0.50250264  0.49927745  0.66426656  1
  Al0+  Al60  1  0.24987074  0.24716441  -0.00278076  1
  Al0+  Al61  1  0.25192786  0.24962320  0.33440308  1
  Al0+  Al62  1  0.25155853  0.24876070  0.66626038  1
  Al0+  Al63  1  0.24616012  0.75111796  0.00384811  1
  Al0+  Al64  1  0.24807404  0.75097983  0.33421699  1
  Al0+  Al65  1  0.24948676  0.74986398  0.66826207  1
  Al0+  Al66  1  0.75140329  0.24860215  -0.00142142  1
  Al0+  Al67  1  0.75163208  0.24658716  0.33442376  1
  Al0+  Al68  1  0.75038460  0.25038101  0.66731505  1
  Al0+  Al69  1  0.74664558  0.75251284  -0.00426722  1
  Al0+  Al70  1  0.74674815  0.75043554  0.33633543  1
  Al0+  Al71  1  0.74984146  0.74975037  0.66451247  1
  Al0+  Al72  1  0.07123279  0.17878660  0.31938597  1
  Al0+  Al73  1  0.93050558  0.32063971  0.65422081  1
  Al0+  Al74  1  0.92860639  0.32440363  0.31737201  1
  Al0+  Al75  1  0.67899790  0.93139597  0.01282290  1
  Al0+  Al76  1  0.57233444  0.17689422  0.31837851  1
  Al0+  Al77  1  0.17939656  0.42589363  0.35007024  1
  Al0+  Al78  1  0.43144737  0.32330241  0.31863002  1
  Al0+  Al79  1  0.17874958  0.92855620  0.68149607  1
  Al0+  Al80  1  0.82123624  0.06878496  0.34567537  1
  Al0+  Al81  1  0.17919858  0.42677893  0.01396180  1
  Al0+  Al82  1  0.31941114  0.06859706  0.01437070  1
  Al0+  Al83  1  0.82088471  0.57271160  0.01316696  1
  Al0+  Al84  1  0.43026555  0.32088337  0.98461389  1
  Al0+  Al85  1  0.68077190  0.42731088  0.34890962  1
  Al0+  Al86  1  0.92848206  0.81798889  0.32028100  1
  Al0+  Al87  1  0.32284680  0.57274487  0.01219792  1
  Al0+  Al88  1  0.92860344  0.81904692  0.98469069  1
  Al0+  Al89  1  0.42969068  0.81871789  0.65418684  1
  Al0+  Al90  1  0.32137982  0.57275389  0.34975435  1
  Al0+  Al91  1  0.56851118  0.67965589  0.98693504  1
  Al0+  Al92  1  0.57354438  0.17663797  0.98494067  1
  Al0+  Al93  1  0.07066452  0.18033063  0.98438488  1
  Al0+  Al94  1  0.68057164  0.42614706  0.01353612  1
  Al0+  Al95  1  0.82156483  0.57313280  0.34896103  1
  Si0+  Si96  1  0.42493644  0.82119903  0.31799286  1
  Si0+  Si97  1  0.42450332  0.82326961  0.98626747  1
  Si0+  Si98  1  0.92842174  0.32594254  0.98561940  1
  Si0+  Si99  1  0.82445617  0.07186618  0.01519381  1
  Si0+  Si100  1  0.57337302  0.67621257  0.64651548  1
  Si0+  Si101  1  0.17382290  0.92841714  0.01829310  1
  Si0+  Si102  1  0.32227196  0.07014775  0.35015532  1
  Si0+  Si103  1  0.82131753  0.57243549  0.68162579  1
  Si0+  Si104  1  0.67904682  0.92788089  0.68130519  1
  Si0+  Si105  1  0.07264217  0.17686903  0.65078015  1
  Si0+  Si106  1  0.56879635  0.68203623  0.31907036  1
  Si0+  Si107  1  0.07064691  0.68004950  0.65143342  1
  Si0+  Si108  1  0.81998670  0.07124272  0.68320419  1
  Si0+  Si109  1  0.07388812  0.67796170  0.98217228  1
  Si0+  Si110  1  0.67966553  0.42851108  0.68264080  1
  Si0+  Si111  1  0.57064713  0.17881913  0.65200374  1
  Si0+  Si112  1  0.92793313  0.82182121  0.65103742  1
  Si0+  Si113  1  0.17889543  0.42867730  0.68064684  1
  Si0+  Si114  1  0.32430535  0.07165260  0.68316238  1
  Si0+  Si115  1  0.42861983  0.32236248  0.65118056  1
  Si0+  Si116  1  0.32148563  0.56973444  0.68108268  1
  Si0+  Si117  1  0.67533936  0.92759708  0.35267912  1
  Si0+  Si118  1  0.07415840  0.67831389  0.31543305  1
  Si0+  Si119  1  0.17915732  0.93062934  0.34631889  1
  O2-  O120  1  0.24354267  -0.00464860  0.06266642  1
  O2-  O121  1  0.24981428  0.00029484  0.39175237  1
  O2-  O122  1  0.25306136  0.00468212  0.72622843  1
  O2-  O123  1  0.25517167  0.49652026  0.06089731  1
  O2-  O124  1  0.25101700  0.49925406  0.40046344  1
  O2-  O125  1  0.25472938  0.49469376  0.72294708  1
  O2-  O126  1  0.75054725  0.00874337  0.05868865  1
  O2-  O127  1  0.74252943  -0.00149980  0.39573413  1
  O2-  O128  1  0.75062599  -0.00201361  0.72407604  1
  O2-  O129  1  0.75691779  0.49385769  0.06227236  1
  O2-  O130  1  0.75832145  0.49377587  0.40095651  1
  O2-  O131  1  0.75022912  0.50112904  0.72274181  1
  O2-  O132  1  0.00465255  0.25563819  0.26921950  1
  O2-  O133  1  0.00613378  0.24700127  0.60714941  1
  O2-  O134  1  -0.00209063  0.25820864  0.93960498  1
  O2-  O135  1  -0.00337241  0.73787689  0.27283954  1
  O2-  O136  1  0.00012141  0.75223528  0.60931815  1
  O2-  O137  1  0.00329408  0.74474577  0.93691877  1
  O2-  O138  1  0.50653050  0.25427723  0.26958577  1
  O2-  O139  1  0.49900354  0.24969666  0.61119427  1
  O2-  O140  1  0.50398090  0.25031950  0.93318953  1
  O2-  O141  1  0.49538025  0.75049805  0.27674521  1
  O2-  O142  1  0.50216174  0.74344379  0.60382266  1
  O2-  O143  1  0.48841982  0.75027639  0.94172557  1
  O2-  O144  1  0.06854410  0.17768032  0.09665118  1
  O2-  O145  1  0.06838432  0.17499139  0.43380835  1
  O2-  O146  1  0.07218413  0.17726595  0.75617365  1
  O2-  O147  1  0.07888837  0.68137882  0.08679855  1
  O2-  O148  1  0.07813082  0.68568982  0.42181978  1
  O2-  O149  1  0.06968815  0.67912547  0.75632649  1
  O2-  O150  1  0.57010603  0.17391498  0.09739659  1
  O2-  O151  1  0.56745065  0.17667758  0.43346598  1
  O2-  O152  1  0.57152338  0.17701124  0.75666841  1
  O2-  O153  1  0.57073763  0.68250436  0.09985326  1
  O2-  O154  1  0.56933858  0.68591808  0.42479125  1
  O2-  O155  1  0.57425542  0.67589794  0.75182531  1
  O2-  O156  1  0.18258790  0.42533787  0.23726722  1
  O2-  O157  1  0.17845787  0.42984837  0.57607884  1
  O2-  O158  1  0.17908549  0.42972795  0.89872913  1
  O2-  O159  1  0.18154016  0.92960950  0.24183994  1
  O2-  O160  1  0.17831432  0.92948128  0.56790320  1
  O2-  O161  1  0.17561037  0.92912181  0.91211029  1
  O2-  O162  1  0.67728706  0.43065207  0.23623333  1
  O2-  O163  1  0.67898270  0.42686971  0.57792854  1
  O2-  O164  1  0.68185543  0.42944878  0.89863114  1
  O2-  O165  1  0.67499799  0.92514108  0.24747508  1
  O2-  O166  1  0.67956190  0.92663201  0.57642624  1
  O2-  O167  1  0.68044458  0.93058955  0.89867444  1
  O2-  O168  1  0.42988525  0.32077650  0.09737420  1
  O2-  O169  1  0.43129454  0.31842122  0.43368937  1
  O2-  O170  1  0.42760985  0.32516940  0.75569449  1
  O2-  O171  1  0.42686201  0.82428971  0.09180539  1
  O2-  O172  1  0.42501890  0.82162364  0.42372268  1
  O2-  O173  1  0.43193324  0.81844573  0.76685247  1
  O2-  O174  1  0.92767940  0.32421395  0.09038629  1
  O2-  O175  1  0.92971006  0.31813488  0.43188568  1
  O2-  O176  1  0.93114045  0.32011974  0.76736833  1
  O2-  O177  1  0.92901503  0.81976292  0.09751595  1
  O2-  O178  1  0.93319621  0.82047133  0.43439164  1
  O2-  O179  1  0.92548221  0.81998475  0.75581866  1
  O2-  O180  1  0.32462368  0.06751121  0.24562411  1
  O2-  O181  1  0.32472603  0.07080484  0.57742876  1
  O2-  O182  1  0.31895860  0.06509134  0.90051108  1
  O2-  O183  1  0.31977908  0.57688552  0.23720587  1
  O2-  O184  1  0.31944139  0.57099226  0.57634925  1
  O2-  O185  1  0.31959793  0.57238919  0.89731663  1
  O2-  O186  1  0.82575188  0.06318211  0.23351957  1
  O2-  O187  1  0.82061840  0.07089252  0.57814687  1
  O2-  O188  1  0.82456473  0.06832973  0.90858881  1
  O2-  O189  1  0.81141660  0.57879292  0.23677252  1
  O2-  O190  1  0.82071448  0.57561722  0.57709984  1
  O2-  O191  1  0.81892708  0.57164911  0.89820794  1
  O2-  O192  1  0.03937270  0.08211273  0.26553347  1
  O2-  O193  1  0.04471491  0.08257927  0.60682096  1
  O2-  O194  1  0.03731792  0.08577927  0.92619772  1
  O2-  O195  1  0.06111351  0.58110503  0.27559230  1
  O2-  O196  1  0.04178545  0.58955487  0.60205331  1
  O2-  O197  1  0.04982393  0.58395057  0.93556490  1
  O2-  O198  1  0.53897214  0.07875342  0.26806864  1
  O2-  O199  1  0.54519467  0.08730650  0.60285407  1
  O2-  O200  1  0.53894893  0.07855790  0.93198342  1
  O2-  O201  1  0.54349341  0.58933620  0.27462460  1
  O2-  O202  1  0.54979972  0.58203291  0.60065820  1
  O2-  O203  1  0.54265701  0.58487811  0.92641097  1
  O2-  O204  1  0.17209323  0.20143451  0.27046201  1
  O2-  O205  1  0.16835407  0.19779161  0.60641034  1
  O2-  O206  1  0.16683778  0.20705558  0.92730964  1
  O2-  O207  1  0.16300430  0.71480158  0.26698717  1
  O2-  O208  1  0.16214103  0.70806932  0.60389567  1
  O2-  O209  1  0.16576536  0.70744043  0.93243984  1
  O2-  O210  1  0.67468869  0.19169498  0.27204593  1
  O2-  O211  1  0.66245799  0.20868381  0.60544950  1
  O2-  O212  1  0.67364688  0.19957792  0.93088393  1
  O2-  O213  1  0.65846883  0.71418275  0.27161304  1
  O2-  O214  1  0.66580295  0.70627584  0.60008840  1
  O2-  O215  1  0.66042884  0.71798126  0.92759522  1
  O2-  O216  1  0.08304975  0.45733533  0.06850686  1
  O2-  O217  1  0.08157980  0.45595001  0.40478565  1
  O2-  O218  1  0.08836377  0.46145577  0.72764407  1
  O2-  O219  1  0.07957702  0.95640896  0.06001381  1
  O2-  O220  1  0.08779268  0.95869123  0.39462703  1
  O2-  O221  1  0.08203955  0.95708310  0.73728271  1
  O2-  O222  1  0.58343705  0.46025088  0.06319555  1
  O2-  O223  1  0.58551241  0.46311172  0.40563719  1
  O2-  O224  1  0.58712254  0.45647566  0.72899901  1
  O2-  O225  1  0.58262405  0.95568866  0.06898841  1
  O2-  O226  1  0.58059368  0.95124983  0.39866230  1
  O2-  O227  1  0.58694783  0.95683444  0.72721960  1
  O2-  O228  1  0.20460375  0.32731589  0.06315846  1
  O2-  O229  1  0.20976917  0.32836722  0.40600486  1
  O2-  O230  1  0.20232474  0.33422890  0.72550201  1
  O2-  O231  1  0.19522793  0.83445804  0.06419085  1
  O2-  O232  1  0.20673984  0.83972580  0.39630488  1
  O2-  O233  1  0.21001948  0.83220412  0.73606915  1
  O2-  O234  1  0.70191439  0.32555928  0.06394294  1
  O2-  O235  1  0.70383975  0.32686244  0.40156215  1
  O2-  O236  1  0.70775672  0.33699658  0.73040544  1
  O2-  O237  1  0.71327688  0.83649150  0.06612668  1
  O2-  O238  1  0.70339826  0.83629387  0.40195265  1
  O2-  O239  1  0.70640851  0.83519577  0.72791990  1
  O2-  O240  1  0.45489708  0.42492487  0.27209470  1
  O2-  O241  1  0.45793929  0.41338650  0.60278362  1
  O2-  O242  1  0.45803371  0.41868985  0.92892411  1
  O2-  O243  1  0.45278131  0.91298205  0.27184747  1
  O2-  O244  1  0.46089120  0.91466019  0.59725746  1
  O2-  O245  1  0.45605471  0.91408515  0.93832322  1
  O2-  O246  1  0.94892590  0.42703148  0.27128873  1
  O2-  O247  1  0.95826786  0.41804744  0.60025809  1
  O2-  O248  1  0.95370842  0.42073762  0.94071601  1
  O2-  O249  1  0.96418173  0.91110808  0.26459234  1
  O2-  O250  1  0.95551340  0.91528950  0.60679736  1
  O2-  O251  1  0.95953879  0.91353868  0.92590362  1
  O2-  O252  1  0.33396539  0.29100370  0.26873291  1
  O2-  O253  1  0.33629665  0.29506239  0.60380195  1
  O2-  O254  1  0.33347506  0.28799371  0.92971682  1
  O2-  O255  1  0.33292369  0.79627323  0.27091452  1
  O2-  O256  1  0.33215230  0.78906829  0.60012193  1
  O2-  O257  1  0.32826310  0.80421704  0.94248646  1
  O2-  O258  1  0.83135056  0.29137670  0.26700335  1
  O2-  O259  1  0.83354941  0.28786955  0.60149621  1
  O2-  O260  1  0.83607755  0.29877354  0.93663144  1
  O2-  O261  1  0.82869855  0.79288823  0.27040634  1
  O2-  O262  1  0.83650094  0.79370850  0.60270091  1
  O2-  O263  1  0.83325307  0.78787928  0.92784218  1
  O2-  O264  1  0.41360356  0.03638938  0.07107325  1
  O2-  O265  1  0.41218828  0.03877161  0.40045099  1
  O2-  O266  1  0.41750870  0.04239597  0.72803816  1
  O2-  O267  1  0.42353780  0.55088736  0.06021861  1
  O2-  O268  1  0.41937125  0.54957763  0.40643286  1
  O2-  O269  1  0.41652470  0.54588510  0.72443596  1
  O2-  O270  1  0.91576740  0.03799293  0.05938691  1
  O2-  O271  1  0.91551880  0.03119031  0.40277457  1
  O2-  O272  1  0.91207035  0.04542746  0.73096716  1
  O2-  O273  1  0.92239336  0.56022559  0.06357798  1
  O2-  O274  1  0.92459298  0.56031755  0.39780354  1
  O2-  O275  1  0.91394476  0.54562678  0.72802598  1
  O2-  O276  1  0.28876538  0.16471102  0.06693538  1
  O2-  O277  1  0.29644104  0.16129238  0.39905912  1
  O2-  O278  1  0.30135359  0.16644632  0.72850726  1
  O2-  O279  1  0.29320962  0.67057353  0.06556549  1
  O2-  O280  1  0.28749784  0.67108543  0.40373712  1
  O2-  O281  1  0.29100643  0.66018588  0.72873298  1
  O2-  O282  1  0.80747268  0.16758927  0.05787442  1
  O2-  O283  1  0.79421996  0.16427742  0.40482807  1
  O2-  O284  1  0.78969731  0.16201155  0.73114310  1
  O2-  O285  1  0.78252074  0.66863974  0.06255824  1
  O2-  O286  1  0.78341484  0.66847151  0.40607557  1
  O2-  O287  1  0.79277868  0.66483403  0.72870764  1
