# generated using pymatgen
data_Ca2Al2SiO7
_symmetry_space_group_name_H-M   'P 1'
_cell_length_a   15.45508022
_cell_length_b   15.45506068
_cell_length_c   15.28205671
_cell_angle_alpha   89.99879877
_cell_angle_beta   89.99861897
_cell_angle_gamma   89.99310242
_symmetry_Int_Tables_number   1
_chemical_formula_structural   Ca2Al2SiO7
_chemical_formula_sum   'Ca48 Al48 Si24 O168'
_cell_volume   3650.25985110
_cell_formula_units_Z   24
loop_
 _symmetry_equiv_pos_site_id
 _symmetry_equiv_pos_as_xyz
  1  'x, y, z'
loop_
 _atom_type_symbol
 _atom_type_oxidation_number
  Ca2+  2.0
  Al0+  0.0
  Si0+  0.0
  O2-  -2.0
loop_
 _atom_site_type_symbol
 _atom_site_label
 _atom_site_symmetry_multiplicity
 _atom_site_fract_x
 _atom_site_fract_y
 _atom_site_fract_z
 _atom_site_occupancy
  Ca2+  Ca0  1  0.16161920  0.08106960  0.17265971  1
  Ca2+  Ca1  1  0.16577781  0.07313811  0.50833396  1
  Ca2+  Ca2  1  0.16641154  0.08554106  0.83220778  1
  Ca2+  Ca3  1  0.16852653  0.56837876  0.16657072  1
  Ca2+  Ca4  1  0.16353975  0.57636428  0.50631526  1
  Ca2+  Ca5  1  0.17306702  0.57858485  0.84352290  1
  Ca2+  Ca6  1  0.67709323  0.08861516  0.16610984  1
  Ca2+  Ca7  1  0.67457710  0.08485116  0.50296979  1
  Ca2+  Ca8  1  0.66949643  0.07567005  0.84722598  1
  Ca2+  Ca9  1  0.67044652  0.58879730  0.16162224  1
  Ca2+  Ca10  1  0.67151214  0.58712745  0.50782917  1
  Ca2+  Ca11  1  0.67279920  0.59123809  0.84068091  1
  Ca2+  Ca12  1  0.08468257  0.32447244  0.15777360  1
  Ca2+  Ca13  1  0.08818925  0.31939964  0.49461149  1
  Ca2+  Ca14  1  0.08457854  0.32546150  0.83438109  1
  Ca2+  Ca15  1  0.07736753  0.83581922  0.16137316  1
  Ca2+  Ca16  1  0.09488603  0.82862736  0.49885266  1
  Ca2+  Ca17  1  0.07819217  0.82914370  0.82763272  1
  Ca2+  Ca18  1  0.57719150  0.32698601  0.15435753  1
  Ca2+  Ca19  1  0.57455545  0.33578797  0.49996975  1
  Ca2+  Ca20  1  0.57270354  0.33154452  0.83277033  1
  Ca2+  Ca21  1  0.57999704  0.83183971  0.15891164  1
  Ca2+  Ca22  1  0.57054770  0.83394279  0.50021401  1
  Ca2+  Ca23  1  0.58423238  0.82443142  0.82951144  1
  Ca2+  Ca24  1  0.32660303  0.41537442  0.16401499  1
  Ca2+  Ca25  1  0.32730446  0.41245203  0.50471853  1
  Ca2+  Ca26  1  0.33136442  0.41750734  0.84393502  1
  Ca2+  Ca27  1  0.32748914  0.91719563  0.17468940  1
  Ca2+  Ca28  1  0.32783346  0.91793757  0.50952635  1
  Ca2+  Ca29  1  0.33104912  0.91653462  0.83258124  1
  Ca2+  Ca30  1  0.83960000  0.41922268  0.16439873  1
  Ca2+  Ca31  1  0.82937897  0.42287447  0.50812209  1
  Ca2+  Ca32  1  0.83879526  0.42844094  0.84124341  1
  Ca2+  Ca33  1  0.83223955  0.92646452  0.16231878  1
  Ca2+  Ca34  1  0.83462368  0.92306884  0.50147471  1
  Ca2+  Ca35  1  0.82822708  0.91943109  0.84649359  1
  Ca2+  Ca36  1  0.42249873  0.17256899  0.15522474  1
  Ca2+  Ca37  1  0.41019444  0.16763419  0.50309496  1
  Ca2+  Ca38  1  0.41274622  0.17608992  0.83013576  1
  Ca2+  Ca39  1  0.41890144  0.67067418  0.15892402  1
  Ca2+  Ca40  1  0.41426256  0.68092362  0.49831760  1
  Ca2+  Ca41  1  0.42699787  0.66637787  0.82689995  1
  Ca2+  Ca42  1  0.92443459  0.16597729  0.15637325  1
  Ca2+  Ca43  1  0.92811381  0.16039900  0.49416917  1
  Ca2+  Ca44  1  0.92557096  0.16631818  0.83412803  1
  Ca2+  Ca45  1  0.91567786  0.67386385  0.15579911  1
  Ca2+  Ca46  1  0.92139820  0.66461447  0.50307865  1
  Ca2+  Ca47  1  0.91539107  0.66943653  0.82846840  1
  Al0+  Al48  1  -0.00094475  -0.00159747  -0.00564797  1
  Al0+  Al49  1  0.00044624  -0.00143740  0.33817323  1
  Al0+  Al50  1  -0.00011360  -0.00035002  0.66717016  1
  Al0+  Al51  1  0.00163305  0.49908493  0.00700869  1
  Al0+  Al52  1  0.00051852  0.49959185  0.33879650  1
  Al0+  Al53  1  -0.00208411  0.50053133  0.66693444  1
  Al0+  Al54  1  0.49808199  -0.00127376  0.00169792  1
  Al0+  Al55  1  0.50096766  -0.00006254  0.32906384  1
  Al0+  Al56  1  0.50029852  0.00191387  0.66694566  1
  Al0+  Al57  1  0.50090566  0.50247151  -0.00201773  1
  Al0+  Al58  1  0.50129217  0.50161001  0.33313232  1
  Al0+  Al59  1  0.50032599  0.49784168  0.65664728  1
  Al0+  Al60  1  0.24965346  0.24827756  -0.00248026  1
  Al0+  Al61  1  0.25010904  0.25027742  0.33221096  1
  Al0+  Al62  1  0.24899886  0.24831240  0.66174870  1
  Al0+  Al63  1  0.24988892  0.75000934  0.00570981  1
  Al0+  Al64  1  0.25061160  0.74874652  0.33020468  1
  Al0+  Al65  1  0.24835189  0.74855641  0.66432127  1
  Al0+  Al66  1  0.75187326  0.25130477  -0.00487991  1
  Al0+  Al67  1  0.75055181  0.25225766  0.34029140  1
  Al0+  Al68  1  0.74873435  0.25196014  0.66837369  1
  Al0+  Al69  1  0.74877879  0.75192738  0.00222789  1
  Al0+  Al70  1  0.74972526  0.75086623  0.33532464  1
  Al0+  Al71  1  0.75118208  0.75100130  0.66391336  1
  Al0+  Al72  1  0.92951320  0.81902768  0.98755263  1
  Al0+  Al73  1  0.42937494  0.32080562  0.98610489  1
  Al0+  Al74  1  0.17978597  0.42656345  0.01425539  1
  Al0+  Al75  1  0.81909506  0.57040577  0.68109407  1
  Al0+  Al76  1  0.42848128  0.82117744  0.31772698  1
  Al0+  Al77  1  0.07127620  0.17672726  0.98388855  1
  Al0+  Al78  1  0.56964781  0.68175747  0.98736915  1
  Al0+  Al79  1  0.06842032  0.17952234  0.65038502  1
  Al0+  Al80  1  0.06950876  0.17825110  0.31986786  1
  Al0+  Al81  1  0.42871907  0.82200428  0.65337983  1
  Al0+  Al82  1  0.67639501  0.92881372  0.01559903  1
  Al0+  Al83  1  0.57340022  0.67878679  0.64991980  1
  Al0+  Al84  1  0.32423507  0.57254556  0.01433701  1
  Al0+  Al85  1  0.07019585  0.67782445  0.65458224  1
  Al0+  Al86  1  0.32081865  0.07149058  0.68287731  1
  Al0+  Al87  1  0.82117584  0.57165408  0.01410331  1
  Al0+  Al88  1  0.57254523  0.17653182  0.98563504  1
  Al0+  Al89  1  0.18002487  0.42839413  0.34937195  1
  Al0+  Al90  1  0.82197861  0.07290843  0.01288961  1
  Al0+  Al91  1  0.17836237  0.92626428  0.68438982  1
  Al0+  Al92  1  0.42857379  0.31957148  0.65113917  1
  Al0+  Al93  1  0.92913080  0.32407007  0.98546739  1
  Al0+  Al94  1  0.82040960  0.07113854  0.34750712  1
  Al0+  Al95  1  0.18010159  0.92872913  0.34646306  1
  Si0+  Si96  1  0.67519307  0.42789671  0.68477843  1
  Si0+  Si97  1  0.32154523  0.56987235  0.67850895  1
  Si0+  Si98  1  0.32301637  0.57067283  0.35171218  1
  Si0+  Si99  1  0.82051941  0.57287420  0.34942396  1
  Si0+  Si100  1  0.92662707  0.32274431  0.64917067  1
  Si0+  Si101  1  0.92848604  0.82231533  0.64829194  1
  Si0+  Si102  1  0.32458777  0.07217853  0.34814119  1
  Si0+  Si103  1  0.07048154  0.67626769  0.31726008  1
  Si0+  Si104  1  0.57377039  0.18077877  0.31970821  1
  Si0+  Si105  1  0.92687134  0.32317664  0.31883441  1
  Si0+  Si106  1  0.57400617  0.17791323  0.64879231  1
  Si0+  Si107  1  0.82168643  0.07252348  0.68237415  1
  Si0+  Si108  1  0.67696893  0.92786876  0.35188781  1
  Si0+  Si109  1  0.57318861  0.67862874  0.31509306  1
  Si0+  Si110  1  0.92827088  0.81951174  0.31879293  1
  Si0+  Si111  1  0.17921229  0.42853323  0.68081356  1
  Si0+  Si112  1  0.31996376  0.07071037  0.01552407  1
  Si0+  Si113  1  0.07285401  0.67780246  0.98679944  1
  Si0+  Si114  1  0.42384518  0.82276629  0.98366945  1
  Si0+  Si115  1  0.17822926  0.92855990  0.01484286  1
  Si0+  Si116  1  0.67985516  0.93101318  0.68021244  1
  Si0+  Si117  1  0.67811587  0.42855043  0.01543374  1
  Si0+  Si118  1  0.67778296  0.42971081  0.34911321  1
  Si0+  Si119  1  0.42974877  0.32187267  0.31759053  1
  O2-  O120  1  0.24900633  -0.00044468  0.05749055  1
  O2-  O121  1  0.25646491  0.00258943  0.39146590  1
  O2-  O122  1  0.25077123  -0.00198303  0.73405464  1
  O2-  O123  1  0.25302384  0.49881084  0.06316551  1
  O2-  O124  1  0.25500657  0.50229110  0.39774856  1
  O2-  O125  1  0.25077146  0.49930891  0.72194002  1
  O2-  O126  1  0.74555933  0.00526575  0.06351591  1
  O2-  O127  1  0.74470554  -0.00237614  0.39617607  1
  O2-  O128  1  0.74911225  0.00310072  0.72292466  1
  O2-  O129  1  0.74901734  0.49445578  0.06177153  1
  O2-  O130  1  0.74895836  0.50153885  0.39012422  1
  O2-  O131  1  0.74268823  0.49785390  0.72794177  1
  O2-  O132  1  -0.00522581  0.25392124  0.27524273  1
  O2-  O133  1  -0.00815730  0.25227228  0.60277563  1
  O2-  O134  1  -0.00043259  0.25056234  0.93578064  1
  O2-  O135  1  -0.00073986  0.74794153  0.27649118  1
  O2-  O136  1  -0.00065148  0.75531847  0.60453223  1
  O2-  O137  1  0.00225347  0.74286025  0.94086396  1
  O2-  O138  1  0.50028587  0.24935906  0.27750089  1
  O2-  O139  1  0.50412779  0.24525252  0.60384276  1
  O2-  O140  1  0.50058000  0.24825810  0.93554170  1
  O2-  O141  1  0.50424054  0.74709096  0.27202578  1
  O2-  O142  1  0.49928907  0.74911657  0.60111172  1
  O2-  O143  1  0.49294790  0.75412133  0.94082050  1
  O2-  O144  1  0.07084702  0.17539398  0.09794282  1
  O2-  O145  1  0.06854220  0.17820734  0.43308032  1
  O2-  O146  1  0.06799733  0.18123223  0.76277470  1
  O2-  O147  1  0.07172790  0.68142775  0.09299400  1
  O2-  O148  1  0.06903898  0.67520158  0.42256494  1
  O2-  O149  1  0.06807537  0.67606470  0.76730067  1
  O2-  O150  1  0.57001899  0.17974419  0.10039440  1
  O2-  O151  1  0.57497062  0.18283766  0.42492252  1
  O2-  O152  1  0.57686929  0.17874668  0.75352549  1
  O2-  O153  1  0.56955963  0.68348678  0.10090131  1
  O2-  O154  1  0.57428727  0.67833811  0.42047557  1
  O2-  O155  1  0.57425426  0.68052305  0.76322821  1
  O2-  O156  1  0.18060718  0.42843711  0.23701016  1
  O2-  O157  1  0.18039695  0.42960580  0.57510568  1
  O2-  O158  1  0.18070923  0.42889877  0.90015342  1
  O2-  O159  1  0.17877660  0.93049081  0.23297797  1
  O2-  O160  1  0.17968628  0.92752577  0.57034464  1
  O2-  O161  1  0.17982591  0.92516253  0.91031900  1
  O2-  O162  1  0.67611778  0.42740842  0.24462460  1
  O2-  O163  1  0.67799986  0.42611818  0.57833702  1
  O2-  O164  1  0.67608714  0.43160628  0.91022634  1
  O2-  O165  1  0.67761203  0.92619120  0.24702863  1
  O2-  O166  1  0.68158272  0.93290118  0.57451586  1
  O2-  O167  1  0.67948964  0.92701769  0.90144097  1
  O2-  O168  1  0.43047415  0.31811564  0.10054862  1
  O2-  O169  1  0.43089297  0.32235904  0.42281145  1
  O2-  O170  1  0.42940574  0.32151386  0.76343000  1
  O2-  O171  1  0.42322319  0.82180212  0.08963797  1
  O2-  O172  1  0.42942349  0.82099870  0.43066494  1
  O2-  O173  1  0.43090038  0.81975959  0.76659624  1
  O2-  O174  1  0.93134562  0.32378753  0.09974864  1
  O2-  O175  1  0.92618577  0.32373522  0.42468389  1
  O2-  O176  1  0.92815482  0.32381275  0.75412922  1
  O2-  O177  1  0.93255178  0.82013289  0.10144507  1
  O2-  O178  1  0.92583548  0.81717093  0.42392402  1
  O2-  O179  1  0.92607508  0.82050815  0.75359885  1
  O2-  O180  1  0.32527642  0.07198092  0.24231112  1
  O2-  O181  1  0.31882356  0.07113156  0.56861230  1
  O2-  O182  1  0.32087590  0.07104622  0.91085888  1
  O2-  O183  1  0.32355832  0.56859513  0.24646481  1
  O2-  O184  1  0.31878710  0.56839424  0.57298845  1
  O2-  O185  1  0.32230669  0.57390272  0.90016571  1
  O2-  O186  1  0.81935187  0.07177403  0.23520187  1
  O2-  O187  1  0.82065125  0.07104417  0.57652237  1
  O2-  O188  1  0.82245581  0.06753951  0.89912263  1
  O2-  O189  1  0.82076393  0.57446713  0.24466809  1
  O2-  O190  1  0.81898039  0.56756370  0.56699211  1
  O2-  O191  1  0.81964876  0.57278366  0.90132367  1
  O2-  O192  1  0.03800162  0.08062160  0.26848358  1
  O2-  O193  1  0.03732403  0.08180426  0.59786079  1
  O2-  O194  1  0.04166438  0.08011622  0.92878198  1
  O2-  O195  1  0.04026447  0.58458605  0.27102846  1
  O2-  O196  1  0.03494675  0.58314621  0.59711968  1
  O2-  O197  1  0.05185002  0.58255880  0.94440594  1
  O2-  O198  1  0.55076782  0.08782271  0.27312792  1
  O2-  O199  1  0.54996864  0.08462822  0.60120675  1
  O2-  O200  1  0.54401333  0.07734270  0.93520148  1
  O2-  O201  1  0.54880822  0.58414461  0.26977311  1
  O2-  O202  1  0.54918305  0.57976011  0.59622849  1
  O2-  O203  1  0.54388074  0.58491153  0.93218343  1
  O2-  O204  1  0.16740343  0.20779523  0.26741158  1
  O2-  O205  1  0.16378475  0.21153895  0.59524033  1
  O2-  O206  1  0.16905856  0.20519903  0.93073604  1
  O2-  O207  1  0.16247492  0.70230032  0.27043045  1
  O2-  O208  1  0.16649395  0.70406107  0.59712164  1
  O2-  O209  1  0.16579131  0.70617434  0.94120438  1
  O2-  O210  1  0.66477545  0.21304194  0.27336018  1
  O2-  O211  1  0.66708540  0.20661078  0.60091653  1
  O2-  O212  1  0.67076055  0.20232085  0.93263502  1
  O2-  O213  1  0.66754608  0.70499846  0.27039027  1
  O2-  O214  1  0.67045398  0.71097011  0.59532810  1
  O2-  O215  1  0.66505536  0.71514239  0.93348823  1
  O2-  O216  1  0.08423452  0.45650517  0.07236090  1
  O2-  O217  1  0.08346645  0.45952796  0.40468318  1
  O2-  O218  1  0.08699498  0.45647556  0.72586524  1
  O2-  O219  1  0.08618219  0.95702002  0.06108786  1
  O2-  O220  1  0.08426156  0.95694051  0.40288972  1
  O2-  O221  1  0.07862289  0.95488711  0.73449295  1
  O2-  O222  1  0.58625944  0.45720314  0.06408012  1
  O2-  O223  1  0.58644558  0.45852209  0.39823143  1
  O2-  O224  1  0.57974866  0.45140492  0.72665966  1
  O2-  O225  1  0.57633852  0.95179141  0.06850082  1
  O2-  O226  1  0.58317781  0.95503281  0.39722718  1
  O2-  O227  1  0.58801106  0.95625856  0.72750139  1
  O2-  O228  1  0.20960385  0.32834072  0.06764803  1
  O2-  O229  1  0.21275791  0.33173628  0.40306290  1
  O2-  O230  1  0.20783858  0.33667470  0.72566514  1
  O2-  O231  1  0.20455817  0.83779598  0.06585975  1
  O2-  O232  1  0.20950739  0.83002641  0.39770616  1
  O2-  O233  1  0.20457779  0.82618032  0.73524935  1
  O2-  O234  1  0.70120928  0.33401193  0.06097349  1
  O2-  O235  1  0.70531217  0.34002425  0.40148958  1
  O2-  O236  1  0.70009609  0.33418513  0.73081870  1
  O2-  O237  1  0.71057489  0.83402444  0.07197144  1
  O2-  O238  1  0.70482841  0.83490017  0.39915588  1
  O2-  O239  1  0.70981620  0.83928802  0.72578860  1
  O2-  O240  1  0.45955575  0.41376523  0.27175883  1
  O2-  O241  1  0.45959068  0.41368189  0.59113542  1
  O2-  O242  1  0.45728767  0.41928846  0.93417449  1
  O2-  O243  1  0.45777572  0.91839332  0.26349556  1
  O2-  O244  1  0.45905398  0.92023744  0.59959135  1
  O2-  O245  1  0.44724487  0.91679611  0.93906251  1
  O2-  O246  1  0.95237271  0.41789802  0.27478393  1
  O2-  O247  1  0.95353303  0.41557236  0.60194317  1
  O2-  O248  1  0.96001271  0.42288209  0.93390086  1
  O2-  O249  1  0.95805557  0.91103358  0.27309305  1
  O2-  O250  1  0.95167529  0.91652756  0.60262295  1
  O2-  O251  1  0.96090001  0.91260928  0.92984101  1
  O2-  O252  1  0.33809115  0.29480150  0.27054612  1
  O2-  O253  1  0.33359312  0.28723157  0.59445835  1
  O2-  O254  1  0.33219451  0.29130858  0.93280988  1
  O2-  O255  1  0.33255928  0.78905511  0.26261875  1
  O2-  O256  1  0.33090333  0.79228366  0.59937788  1
  O2-  O257  1  0.32994576  0.79710939  0.93873971  1
  O2-  O258  1  0.83161897  0.30025915  0.27505147  1
  O2-  O259  1  0.83082073  0.30047701  0.60478030  1
  O2-  O260  1  0.83017306  0.30263483  0.93126077  1
  O2-  O261  1  0.83624814  0.79149496  0.27174643  1
  O2-  O262  1  0.83678244  0.79452585  0.59895353  1
  O2-  O263  1  0.83311512  0.78928155  0.93426104  1
  O2-  O264  1  0.41115537  0.04372185  0.06504181  1
  O2-  O265  1  0.41931447  0.04879379  0.39368728  1
  O2-  O266  1  0.42164189  0.04835789  0.73354351  1
  O2-  O267  1  0.42253090  0.54584394  0.06862401  1
  O2-  O268  1  0.41779344  0.54680751  0.39696378  1
  O2-  O269  1  0.41505639  0.54160648  0.72159914  1
  O2-  O270  1  0.91866295  0.03661458  0.06583673  1
  O2-  O271  1  0.91417485  0.03532923  0.40407310  1
  O2-  O272  1  0.91256642  0.04331183  0.72894789  1
  O2-  O273  1  0.91753909  0.54437056  0.07089744  1
  O2-  O274  1  0.91179258  0.54494909  0.39812052  1
  O2-  O275  1  0.91534850  0.53837944  0.73501383  1
  O2-  O276  1  0.29268304  0.16195915  0.06417767  1
  O2-  O277  1  0.29951450  0.16618709  0.39321658  1
  O2-  O278  1  0.28835517  0.16988312  0.73388228  1
  O2-  O279  1  0.29350868  0.66931451  0.07094075  1
  O2-  O280  1  0.29519442  0.66451216  0.39572522  1
  O2-  O281  1  0.29513095  0.66135250  0.72574505  1
  O2-  O282  1  0.79882386  0.17341310  0.06454165  1
  O2-  O283  1  0.79027671  0.16745769  0.40437482  1
  O2-  O284  1  0.79661501  0.16605594  0.72672585  1
  O2-  O285  1  0.78622613  0.66598559  0.07024515  1
  O2-  O286  1  0.79209660  0.66401743  0.39844802  1
  O2-  O287  1  0.79201232  0.66955600  0.73141291  1
