# generated using pymatgen
data_Ca2Al2SiO7
_symmetry_space_group_name_H-M   'P 1'
_cell_length_a   15.46492238
_cell_length_b   15.46342145
_cell_length_c   15.28801326
_cell_angle_alpha   90.00763108
_cell_angle_beta   90.01425597
_cell_angle_gamma   89.99126201
_symmetry_Int_Tables_number   1
_chemical_formula_structural   Ca2Al2SiO7
_chemical_formula_sum   'Ca48 Al48 Si24 O168'
_cell_volume   3655.98466560
_cell_formula_units_Z   24
loop_
 _symmetry_equiv_pos_site_id
 _symmetry_equiv_pos_as_xyz
  1  'x, y, z'
loop_
 _atom_type_symbol
 _atom_type_oxidation_number
  Ca2+  2.0
  Al0+  0.0
  Si0+  0.0
  O2-  -2.0
loop_
 _atom_site_type_symbol
 _atom_site_label
 _atom_site_symmetry_multiplicity
 _atom_site_fract_x
 _atom_site_fract_y
 _atom_site_fract_z
 _atom_site_occupancy
  Ca2+  Ca0  1  0.15811708  0.08093709  0.17413022  1
  Ca2+  Ca1  1  0.15705997  0.07482977  0.50431708  1
  Ca2+  Ca2  1  0.15906133  0.08015253  0.83408898  1
  Ca2+  Ca3  1  0.16752917  0.58617395  0.17460929  1
  Ca2+  Ca4  1  0.16058374  0.57702191  0.50500261  1
  Ca2+  Ca5  1  0.16535850  0.57620479  0.83284935  1
  Ca2+  Ca6  1  0.67742526  0.08187730  0.16940962  1
  Ca2+  Ca7  1  0.68191836  0.09021405  0.50594811  1
  Ca2+  Ca8  1  0.67741796  0.08370012  0.84241603  1
  Ca2+  Ca9  1  0.67156782  0.57551624  0.17766770  1
  Ca2+  Ca10  1  0.66712434  0.57548157  0.49784914  1
  Ca2+  Ca11  1  0.66314342  0.57004685  0.83737322  1
  Ca2+  Ca12  1  0.07316362  0.32341566  0.16377866  1
  Ca2+  Ca13  1  0.07952905  0.32354123  0.49121336  1
  Ca2+  Ca14  1  0.08261822  0.32104607  0.82518412  1
  Ca2+  Ca15  1  0.07231169  0.83404718  0.16996930  1
  Ca2+  Ca16  1  0.07633444  0.83494172  0.49293584  1
  Ca2+  Ca17  1  0.07069257  0.83913467  0.82634083  1
  Ca2+  Ca18  1  0.58498534  0.33393139  0.16432564  1
  Ca2+  Ca19  1  0.58551238  0.33455533  0.49566121  1
  Ca2+  Ca20  1  0.59410308  0.32350369  0.83003718  1
  Ca2+  Ca21  1  0.59439954  0.82729173  0.16352651  1
  Ca2+  Ca22  1  0.57693095  0.82857781  0.49456422  1
  Ca2+  Ca23  1  0.57820123  0.84043799  0.82626288  1
  Ca2+  Ca24  1  0.33371819  0.41478479  0.17412541  1
  Ca2+  Ca25  1  0.32849863  0.41395830  0.50364899  1
  Ca2+  Ca26  1  0.32611207  0.41180253  0.83175580  1
  Ca2+  Ca27  1  0.32391039  0.92263784  0.17565580  1
  Ca2+  Ca28  1  0.32003353  0.91205139  0.50575820  1
  Ca2+  Ca29  1  0.32797475  0.91443099  0.83281643  1
  Ca2+  Ca30  1  0.82403159  0.41716978  0.17879246  1
  Ca2+  Ca31  1  0.83035185  0.41842327  0.50098959  1
  Ca2+  Ca32  1  0.82152430  0.41426078  0.83701949  1
  Ca2+  Ca33  1  0.84154245  0.92517764  0.16865720  1
  Ca2+  Ca34  1  0.84399069  0.92593953  0.50330368  1
  Ca2+  Ca35  1  0.83561664  0.92525478  0.83848932  1
  Ca2+  Ca36  1  0.42383932  0.17343602  0.16289934  1
  Ca2+  Ca37  1  0.42659025  0.17229794  0.49603933  1
  Ca2+  Ca38  1  0.43533523  0.16101523  0.82841245  1
  Ca2+  Ca39  1  0.42513739  0.66651636  0.16753747  1
  Ca2+  Ca40  1  0.42114532  0.66954501  0.49600320  1
  Ca2+  Ca41  1  0.41987283  0.67501043  0.82624531  1
  Ca2+  Ca42  1  0.91979586  0.16069068  0.16852371  1
  Ca2+  Ca43  1  0.92279380  0.16533017  0.49419037  1
  Ca2+  Ca44  1  0.92210533  0.15751166  0.82931225  1
  Ca2+  Ca45  1  0.90775148  0.67791527  0.16762113  1
  Ca2+  Ca46  1  0.91767229  0.67755206  0.48863280  1
  Ca2+  Ca47  1  0.91029503  0.68214338  0.82931988  1
  Al0+  Al48  1  0.00018840  -0.00158889  -0.00350028  1
  Al0+  Al49  1  0.00046496  -0.00164228  0.33475394  1
  Al0+  Al50  1  0.00073363  -0.00015346  0.66780763  1
  Al0+  Al51  1  0.00088618  0.50008969  -0.00039864  1
  Al0+  Al52  1  0.00004581  0.49956531  0.33012572  1
  Al0+  Al53  1  -0.00069032  0.50081541  0.67600465  1
  Al0+  Al54  1  0.49827498  0.00000999  0.00152574  1
  Al0+  Al55  1  0.49902242  0.00113532  0.33389997  1
  Al0+  Al56  1  0.49939343  0.00040832  0.65359907  1
  Al0+  Al57  1  0.49701429  0.50105608  0.00138483  1
  Al0+  Al58  1  0.49879966  0.50089604  0.32991243  1
  Al0+  Al59  1  0.49998990  0.50001972  0.67289522  1
  Al0+  Al60  1  0.24910894  0.25000666  -0.00385852  1
  Al0+  Al61  1  0.25349946  0.24931042  0.32631512  1
  Al0+  Al62  1  0.25244425  0.24827467  0.66842777  1
  Al0+  Al63  1  0.25010348  0.74850709  0.00052226  1
  Al0+  Al64  1  0.25007057  0.75115509  0.33395425  1
  Al0+  Al65  1  0.25001064  0.75016718  0.66914828  1
  Al0+  Al66  1  0.75039351  0.25019784  0.00593152  1
  Al0+  Al67  1  0.74982857  0.24822599  0.33828567  1
  Al0+  Al68  1  0.75246420  0.25023755  0.67129975  1
  Al0+  Al69  1  0.74883760  0.74831121  -0.00588893  1
  Al0+  Al70  1  0.74833244  0.74973457  0.32944011  1
  Al0+  Al71  1  0.74882690  0.75073970  0.66081086  1
  Al0+  Al72  1  0.92938572  0.82057726  0.65186990  1
  Al0+  Al73  1  0.67772617  0.42937287  0.34934940  1
  Al0+  Al74  1  0.82075403  0.06892393  0.68091144  1
  Al0+  Al75  1  0.92647376  0.32149428  0.31990849  1
  Al0+  Al76  1  0.42754190  0.82118457  0.65191145  1
  Al0+  Al77  1  0.67890153  0.42963146  0.01554215  1
  Al0+  Al78  1  0.92834290  0.82090920  0.31780011  1
  Al0+  Al79  1  0.18119778  0.93103895  0.34696005  1
  Al0+  Al80  1  0.56914839  0.68097642  0.31952548  1
  Al0+  Al81  1  0.67989478  0.43052810  0.68144188  1
  Al0+  Al82  1  0.43120676  0.32078751  0.32065583  1
  Al0+  Al83  1  0.57467915  0.18040641  0.65246457  1
  Al0+  Al84  1  0.67578185  0.92759746  0.01302166  1
  Al0+  Al85  1  0.07050268  0.17867816  0.31945003  1
  Al0+  Al86  1  0.82275622  0.06905759  0.01684479  1
  Al0+  Al87  1  0.06956501  0.17998316  0.98438517  1
  Al0+  Al88  1  0.18037462  0.93006338  0.68206883  1
  Al0+  Al89  1  0.81990709  0.06800398  0.34903486  1
  Al0+  Al90  1  0.57093646  0.18012119  0.98823311  1
  Al0+  Al91  1  0.92974496  0.81850457  0.98422179  1
  Al0+  Al92  1  0.07140219  0.18028985  0.65295552  1
  Al0+  Al93  1  0.82317582  0.57276186  0.34826981  1
  Al0+  Al94  1  0.07302670  0.67732051  0.32008147  1
  Al0+  Al95  1  0.17816869  0.42646472  0.67944477  1
  Si0+  Si96  1  0.42691308  0.82061191  0.98588772  1
  Si0+  Si97  1  0.42752327  0.32383289  0.98089163  1
  Si0+  Si98  1  0.56901125  0.67807992  0.98360555  1
  Si0+  Si99  1  0.82184455  0.57578725  0.68451558  1
  Si0+  Si100  1  0.32532216  0.07169023  0.68336166  1
  Si0+  Si101  1  0.57039926  0.67572719  0.65005619  1
  Si0+  Si102  1  0.32171309  0.57160224  0.68440749  1
  Si0+  Si103  1  0.32415005  0.07490458  0.35120406  1
  Si0+  Si104  1  0.07528814  0.67682827  0.98103679  1
  Si0+  Si105  1  0.42936923  0.32273431  0.65200005  1
  Si0+  Si106  1  0.32125981  0.07181427  0.01440160  1
  Si0+  Si107  1  0.31879509  0.57153109  0.01672222  1
  Si0+  Si108  1  0.92759842  0.32459800  0.98264885  1
  Si0+  Si109  1  0.42727304  0.82328653  0.31530932  1
  Si0+  Si110  1  0.57353073  0.17674750  0.31627523  1
  Si0+  Si111  1  0.67554897  0.92748391  0.67866317  1
  Si0+  Si112  1  0.07148072  0.67640305  0.65295826  1
  Si0+  Si113  1  0.82232482  0.57233963  0.01546853  1
  Si0+  Si114  1  0.17979290  0.42710672  0.34524742  1
  Si0+  Si115  1  0.32039952  0.57091848  0.34784670  1
  Si0+  Si116  1  0.67469814  0.92685976  0.35103994  1
  Si0+  Si117  1  0.17944094  0.42751240  0.01650550  1
  Si0+  Si118  1  0.92865712  0.32462103  0.65265878  1
  Si0+  Si119  1  0.18003119  0.92912888  0.01484007  1
  O2-  O120  1  0.24812766  0.00305893  0.05681271  1
  O2-  O121  1  0.25523391  0.00644063  0.39438437  1
  O2-  O122  1  0.25546509  0.00476798  0.72927767  1
  O2-  O123  1  0.24885624  0.49993005  0.05934254  1
  O2-  O124  1  0.24634996  0.50255150  0.38850935  1
  O2-  O125  1  0.25256437  0.50231804  0.72725286  1
  O2-  O126  1  0.74882125  -0.00283444  0.06470147  1
  O2-  O127  1  0.74378551  -0.00591126  0.39583180  1
  O2-  O128  1  0.74375708  -0.00526126  0.72485004  1
  O2-  O129  1  0.75652085  0.50171396  0.06026782  1
  O2-  O130  1  0.75321857  0.49852126  0.39841112  1
  O2-  O131  1  0.75391012  0.50608105  0.72863913  1
  O2-  O132  1  -0.00187209  0.24960261  0.26868878  1
  O2-  O133  1  0.00065397  0.25943305  0.60879357  1
  O2-  O134  1  -0.00533950  0.25455205  0.93785506  1
  O2-  O135  1  -0.00249976  0.74464469  0.26903306  1
  O2-  O136  1  0.00240063  0.74291247  0.60795524  1
  O2-  O137  1  0.00442319  0.74281770  0.93745967  1
  O2-  O138  1  0.50611091  0.24736672  0.27306020  1
  O2-  O139  1  0.50050119  0.25726196  0.60795482  1
  O2-  O140  1  0.49873006  0.25724387  0.93856145  1
  O2-  O141  1  0.49963312  0.75981220  0.26968602  1
  O2-  O142  1  0.50332033  0.74679037  0.60725120  1
  O2-  O143  1  0.50241822  0.75432936  0.94283292  1
  O2-  O144  1  0.07250033  0.18152556  0.09695822  1
  O2-  O145  1  0.07157917  0.18049002  0.43297863  1
  O2-  O146  1  0.06923276  0.18044531  0.76642894  1
  O2-  O147  1  0.08047069  0.67823876  0.08595382  1
  O2-  O148  1  0.07640830  0.67927601  0.43371648  1
  O2-  O149  1  0.07138233  0.67703051  0.75889034  1
  O2-  O150  1  0.56623399  0.18036087  0.10093662  1
  O2-  O151  1  0.57121478  0.17642843  0.42193118  1
  O2-  O152  1  0.57333867  0.17935916  0.76595029  1
  O2-  O153  1  0.56604719  0.67621620  0.08838636  1
  O2-  O154  1  0.56383652  0.67996801  0.43265281  1
  O2-  O155  1  0.56805138  0.67472241  0.75612117  1
  O2-  O156  1  0.18445319  0.42656329  0.23996333  1
  O2-  O157  1  0.18001603  0.42800555  0.56627917  1
  O2-  O158  1  0.18193774  0.42813370  0.91130759  1
  O2-  O159  1  0.18330721  0.93151064  0.23304066  1
  O2-  O160  1  0.18121685  0.92948770  0.56945727  1
  O2-  O161  1  0.18254643  0.92794232  0.90966675  1
  O2-  O162  1  0.67611059  0.43270538  0.23566125  1
  O2-  O163  1  0.67730031  0.43311639  0.56914387  1
  O2-  O164  1  0.67845484  0.43161159  0.90202289  1
  O2-  O165  1  0.67179263  0.93002097  0.24553781  1
  O2-  O166  1  0.67604898  0.92684909  0.57335622  1
  O2-  O167  1  0.67268102  0.93039285  0.89917785  1
  O2-  O168  1  0.42542984  0.32377027  0.08642008  1
  O2-  O169  1  0.42913722  0.32029044  0.43379565  1
  O2-  O170  1  0.42868954  0.32193838  0.75769136  1
  O2-  O171  1  0.42181053  0.81663853  0.09042287  1
  O2-  O172  1  0.42616224  0.81931123  0.42074711  1
  O2-  O173  1  0.42881945  0.81957209  0.76594993  1
  O2-  O174  1  0.93159642  0.32890405  0.08764770  1
  O2-  O175  1  0.93043405  0.32205308  0.43380404  1
  O2-  O176  1  0.92906355  0.32404714  0.75859660  1
  O2-  O177  1  0.93192849  0.81861460  0.09670989  1
  O2-  O178  1  0.93232658  0.82208980  0.43126036  1
  O2-  O179  1  0.93003727  0.81978562  0.76538762  1
  O2-  O180  1  0.32603853  0.07292229  0.24506565  1
  O2-  O181  1  0.32543340  0.07195704  0.57814280  1
  O2-  O182  1  0.32387942  0.06894560  0.90948778  1
  O2-  O183  1  0.32099513  0.57019449  0.24229338  1
  O2-  O184  1  0.32362942  0.57152947  0.57899645  1
  O2-  O185  1  0.31833323  0.57354584  0.91177503  1
  O2-  O186  1  0.81982000  0.06710897  0.23609777  1
  O2-  O187  1  0.82171477  0.06928838  0.56800912  1
  O2-  O188  1  0.82312925  0.06721887  0.90302107  1
  O2-  O189  1  0.81821905  0.57329239  0.23436525  1
  O2-  O190  1  0.82327474  0.57576096  0.57953569  1
  O2-  O191  1  0.81916489  0.57254376  0.90952582  1
  O2-  O192  1  0.04086263  0.08088497  0.26707659  1
  O2-  O193  1  0.03736886  0.08478374  0.60072117  1
  O2-  O194  1  0.04113863  0.08247340  0.93132685  1
  O2-  O195  1  0.05396078  0.57713567  0.26718543  1
  O2-  O196  1  0.04839832  0.58080488  0.60980442  1
  O2-  O197  1  0.05272396  0.58122229  0.93687934  1
  O2-  O198  1  0.54505708  0.08376420  0.27001344  1
  O2-  O199  1  0.54263345  0.08672129  0.59438937  1
  O2-  O200  1  0.53541269  0.08415390  0.93432257  1
  O2-  O201  1  0.53173501  0.58777982  0.26316303  1
  O2-  O202  1  0.53966952  0.58347059  0.60451895  1
  O2-  O203  1  0.53296707  0.58909659  0.93466853  1
  O2-  O204  1  0.16940543  0.20506758  0.26619812  1
  O2-  O205  1  0.17098307  0.20572446  0.60268483  1
  O2-  O206  1  0.16672022  0.21092834  0.92986172  1
  O2-  O207  1  0.17063924  0.70958777  0.26533677  1
  O2-  O208  1  0.16625349  0.69975148  0.60931957  1
  O2-  O209  1  0.16849660  0.70402039  0.93375041  1
  O2-  O210  1  0.66704664  0.20092878  0.27160389  1
  O2-  O211  1  0.67096108  0.21313622  0.60014674  1
  O2-  O212  1  0.66892071  0.20939134  0.93596428  1
  O2-  O213  1  0.66503178  0.70733086  0.26265079  1
  O2-  O214  1  0.66376010  0.69844713  0.60361781  1
  O2-  O215  1  0.66141545  0.69803692  0.93482610  1
  O2-  O216  1  0.08660725  0.45384402  0.06218171  1
  O2-  O217  1  0.08716242  0.44965563  0.39216771  1
  O2-  O218  1  0.08366706  0.45685594  0.73894647  1
  O2-  O219  1  0.08814014  0.95572910  0.06067196  1
  O2-  O220  1  0.08559203  0.96086977  0.40176446  1
  O2-  O221  1  0.08560429  0.96361104  0.73736016  1
  O2-  O222  1  0.58063586  0.46220641  0.06547439  1
  O2-  O223  1  0.57955834  0.46356446  0.40047742  1
  O2-  O224  1  0.58331958  0.46019732  0.73800006  1
  O2-  O225  1  0.57628883  0.95184366  0.06703539  1
  O2-  O226  1  0.57986765  0.95126533  0.39675446  1
  O2-  O227  1  0.58022371  0.95303150  0.72141343  1
  O2-  O228  1  0.20962311  0.33620860  0.06317991  1
  O2-  O229  1  0.21425496  0.33715647  0.39227418  1
  O2-  O230  1  0.21323862  0.33197341  0.73633880  1
  O2-  O231  1  0.21147784  0.83778108  0.06113406  1
  O2-  O232  1  0.21430931  0.83489671  0.40127661  1
  O2-  O233  1  0.21160193  0.83334840  0.73702829  1
  O2-  O234  1  0.70571287  0.33311963  0.07001876  1
  O2-  O235  1  0.70086240  0.32957741  0.40066534  1
  O2-  O236  1  0.71352240  0.33562282  0.73713559  1
  O2-  O237  1  0.70163306  0.82596663  0.06049511  1
  O2-  O238  1  0.69646886  0.83145008  0.39373557  1
  O2-  O239  1  0.69701160  0.83198893  0.72380908  1
  O2-  O240  1  0.45783961  0.41717865  0.26414453  1
  O2-  O241  1  0.45093509  0.41852428  0.60876819  1
  O2-  O242  1  0.44858146  0.41935968  0.93647477  1
  O2-  O243  1  0.44655058  0.91961736  0.27232115  1
  O2-  O244  1  0.45425950  0.91555048  0.59298213  1
  O2-  O245  1  0.44925987  0.91375723  0.93916392  1
  O2-  O246  1  0.95393214  0.41898905  0.26494828  1
  O2-  O247  1  0.95072471  0.42073913  0.61036719  1
  O2-  O248  1  0.95404432  0.41801273  0.93488618  1
  O2-  O249  1  0.96463701  0.91605776  0.26405693  1
  O2-  O250  1  0.96578736  0.91521763  0.59970182  1
  O2-  O251  1  0.96404517  0.91344893  0.92957465  1
  O2-  O252  1  0.33734727  0.28935874  0.26068432  1
  O2-  O253  1  0.33687964  0.29526584  0.60498992  1
  O2-  O254  1  0.33466989  0.29588661  0.93448398  1
  O2-  O255  1  0.33616031  0.79254779  0.26761789  1
  O2-  O256  1  0.33176056  0.78632723  0.59886535  1
  O2-  O257  1  0.33770203  0.78643526  0.93578815  1
  O2-  O258  1  0.82764903  0.29249170  0.26861637  1
  O2-  O259  1  0.83631537  0.29679256  0.60706704  1
  O2-  O260  1  0.83255171  0.30008863  0.94010174  1
  O2-  O261  1  0.82893240  0.79723951  0.26489636  1
  O2-  O262  1  0.83158991  0.79457451  0.59815427  1
  O2-  O263  1  0.83296106  0.78832527  0.92862710  1
  O2-  O264  1  0.41018344  0.04171253  0.06575621  1
  O2-  O265  1  0.41773710  0.04975759  0.39796160  1
  O2-  O266  1  0.41882693  0.04097252  0.72784248  1
  O2-  O267  1  0.41034907  0.54425858  0.06486600  1
  O2-  O268  1  0.40989674  0.53953840  0.39661519  1
  O2-  O269  1  0.41372065  0.54605365  0.73444767  1
  O2-  O270  1  0.92116040  0.03656782  0.06826306  1
  O2-  O271  1  0.91630775  0.03612842  0.40238042  1
  O2-  O272  1  0.91561116  0.03468470  0.73579653  1
  O2-  O273  1  0.91869431  0.55274951  0.05836941  1
  O2-  O274  1  0.92351272  0.54775542  0.39964560  1
  O2-  O275  1  0.91499886  0.55345217  0.73384428  1
  O2-  O276  1  0.29557813  0.16546423  0.05939586  1
  O2-  O277  1  0.30029651  0.16943297  0.39545847  1
  O2-  O278  1  0.30416813  0.16562833  0.73075080  1
  O2-  O279  1  0.29116170  0.66281192  0.06601869  1
  O2-  O280  1  0.29693576  0.66369198  0.39497410  1
  O2-  O281  1  0.29520200  0.66400190  0.73292181  1
  O2-  O282  1  0.79700076  0.16824043  0.06853880  1
  O2-  O283  1  0.79032452  0.16436935  0.40421642  1
  O2-  O284  1  0.79293100  0.16573590  0.73585521  1
  O2-  O285  1  0.79282905  0.66501273  0.06020231  1
  O2-  O286  1  0.79109053  0.67108221  0.39988835  1
  O2-  O287  1  0.79236819  0.66909257  0.73014338  1
