# generated using pymatgen
data_Ca2Al2SiO7
_symmetry_space_group_name_H-M   'P 1'
_cell_length_a   15.45837727
_cell_length_b   15.45725517
_cell_length_c   15.28384888
_cell_angle_alpha   89.98932431
_cell_angle_beta   89.99829674
_cell_angle_gamma   89.99411191
_symmetry_Int_Tables_number   1
_chemical_formula_structural   Ca2Al2SiO7
_chemical_formula_sum   'Ca48 Al48 Si24 O168'
_cell_volume   3651.98515423
_cell_formula_units_Z   24
loop_
 _symmetry_equiv_pos_site_id
 _symmetry_equiv_pos_as_xyz
  1  'x, y, z'
loop_
 _atom_type_symbol
 _atom_type_oxidation_number
  Ca2+  2.0
  Al0+  0.0
  Si0+  0.0
  O2-  -2.0
loop_
 _atom_site_type_symbol
 _atom_site_label
 _atom_site_symmetry_multiplicity
 _atom_site_fract_x
 _atom_site_fract_y
 _atom_site_fract_z
 _atom_site_occupancy
  Ca2+  Ca0  1  0.17267610  0.08325284  0.17844344  1
  Ca2+  Ca1  1  0.17710130  0.08847889  0.49965862  1
  Ca2+  Ca2  1  0.17388121  0.08116166  0.83427607  1
  Ca2+  Ca3  1  0.16773043  0.57364095  0.17529254  1
  Ca2+  Ca4  1  0.17309877  0.58220042  0.49707543  1
  Ca2+  Ca5  1  0.16357627  0.57858666  0.84452240  1
  Ca2+  Ca6  1  0.66741092  0.08825365  0.16940801  1
  Ca2+  Ca7  1  0.66692568  0.07470714  0.50951543  1
  Ca2+  Ca8  1  0.67453181  0.07654121  0.83811367  1
  Ca2+  Ca9  1  0.67085694  0.58700390  0.17631337  1
  Ca2+  Ca10  1  0.66178652  0.58374569  0.49816876  1
  Ca2+  Ca11  1  0.67108936  0.58868159  0.83929669  1
  Ca2+  Ca12  1  0.09197509  0.33170787  0.16659497  1
  Ca2+  Ca13  1  0.07947252  0.32918209  0.49372326  1
  Ca2+  Ca14  1  0.07532724  0.33524800  0.82856163  1
  Ca2+  Ca15  1  0.07677083  0.82527994  0.16442102  1
  Ca2+  Ca16  1  0.06862250  0.84024208  0.49556962  1
  Ca2+  Ca17  1  0.07776557  0.82595360  0.82946164  1
  Ca2+  Ca18  1  0.58371534  0.32960308  0.16867970  1
  Ca2+  Ca19  1  0.57973590  0.32443081  0.48592292  1
  Ca2+  Ca20  1  0.58869924  0.32420973  0.83183766  1
  Ca2+  Ca21  1  0.57673326  0.82233714  0.16816213  1
  Ca2+  Ca22  1  0.57996966  0.82759734  0.49560315  1
  Ca2+  Ca23  1  0.58612557  0.82320819  0.82498186  1
  Ca2+  Ca24  1  0.32532781  0.41819612  0.17931912  1
  Ca2+  Ca25  1  0.33507173  0.41829030  0.49599240  1
  Ca2+  Ca26  1  0.32323324  0.41900435  0.84006029  1
  Ca2+  Ca27  1  0.33534186  0.92009758  0.17639230  1
  Ca2+  Ca28  1  0.34571565  0.92552288  0.50364904  1
  Ca2+  Ca29  1  0.34174048  0.91958484  0.83022584  1
  Ca2+  Ca30  1  0.82564734  0.43160291  0.17511632  1
  Ca2+  Ca31  1  0.82868413  0.41938088  0.49962686  1
  Ca2+  Ca32  1  0.83411234  0.42174674  0.84015274  1
  Ca2+  Ca33  1  0.83349040  0.91989674  0.17148228  1
  Ca2+  Ca34  1  0.82926530  0.91825296  0.50914861  1
  Ca2+  Ca35  1  0.83366235  0.92227493  0.83270345  1
  Ca2+  Ca36  1  0.42661945  0.16775936  0.16978435  1
  Ca2+  Ca37  1  0.41834997  0.16739305  0.48661265  1
  Ca2+  Ca38  1  0.42158549  0.16455195  0.83059226  1
  Ca2+  Ca39  1  0.42554637  0.65727771  0.16657072  1
  Ca2+  Ca40  1  0.42474041  0.67557587  0.49041002  1
  Ca2+  Ca41  1  0.42958708  0.67183696  0.82330230  1
  Ca2+  Ca42  1  0.92248816  0.16678354  0.16341035  1
  Ca2+  Ca43  1  0.91806929  0.17011516  0.49466889  1
  Ca2+  Ca44  1  0.91073011  0.17024463  0.82546828  1
  Ca2+  Ca45  1  0.91263289  0.66742654  0.16344199  1
  Ca2+  Ca46  1  0.90986807  0.67929946  0.49339685  1
  Ca2+  Ca47  1  0.92100581  0.66574062  0.82935305  1
  Al0+  Al48  1  0.00133570  0.00082231  0.00272444  1
  Al0+  Al49  1  0.00008573  0.00107602  0.32467669  1
  Al0+  Al50  1  0.00405829  0.00006176  0.66809619  1
  Al0+  Al51  1  -0.00087987  0.49978986  0.00538320  1
  Al0+  Al52  1  -0.00153950  0.50125222  0.34396410  1
  Al0+  Al53  1  -0.00015506  0.49742757  0.66081327  1
  Al0+  Al54  1  0.50105033  0.00167933  -0.00364192  1
  Al0+  Al55  1  0.50119413  -0.00128710  0.32860590  1
  Al0+  Al56  1  0.50175604  -0.00122210  0.67556676  1
  Al0+  Al57  1  0.49860369  0.49893626  -0.00733507  1
  Al0+  Al58  1  0.49938868  0.49875193  0.33357706  1
  Al0+  Al59  1  0.49994067  0.49789082  0.66708406  1
  Al0+  Al60  1  0.24964050  0.24905501  0.00154177  1
  Al0+  Al61  1  0.24936768  0.24826115  0.33393370  1
  Al0+  Al62  1  0.24958326  0.25012910  0.67389017  1
  Al0+  Al63  1  0.24847984  0.75097621  -0.00460892  1
  Al0+  Al64  1  0.24526692  0.75096067  0.33551953  1
  Al0+  Al65  1  0.25219322  0.74990748  0.66441737  1
  Al0+  Al66  1  0.75019837  0.24944939  0.00037882  1
  Al0+  Al67  1  0.75285768  0.25189163  0.33208799  1
  Al0+  Al68  1  0.75047454  0.25183052  0.66457320  1
  Al0+  Al69  1  0.74799357  0.75368660  0.00007953  1
  Al0+  Al70  1  0.74935846  0.75353366  0.32825257  1
  Al0+  Al71  1  0.75217853  0.74783319  0.66430123  1
  Al0+  Al72  1  0.06934861  0.18172288  0.32008425  1
  Al0+  Al73  1  0.32121850  0.06676637  0.34481421  1
  Al0+  Al74  1  0.81860657  0.57247682  0.01185237  1
  Al0+  Al75  1  0.42537678  0.82170610  0.31879093  1
  Al0+  Al76  1  0.56891148  0.67888838  0.31806882  1
  Al0+  Al77  1  0.57177905  0.18040348  0.98360095  1
  Al0+  Al78  1  0.82287699  0.07250340  0.67925407  1
  Al0+  Al79  1  0.93201284  0.82072070  0.65492993  1
  Al0+  Al80  1  0.67851369  0.42810262  0.34827518  1
  Al0+  Al81  1  0.82148241  0.07159731  0.01542269  1
  Al0+  Al82  1  0.42819115  0.32079128  0.31934148  1
  Al0+  Al83  1  0.17888940  0.42953931  0.01391975  1
  Al0+  Al84  1  0.17868995  0.42692331  0.35173279  1
  Al0+  Al85  1  0.68051909  0.92622451  0.68248084  1
  Al0+  Al86  1  0.92768996  0.32056475  0.65198481  1
  Al0+  Al87  1  0.57080611  0.67861419  0.98528000  1
  Al0+  Al88  1  0.81892342  0.57509406  0.35088587  1
  Al0+  Al89  1  0.42998048  0.82233412  0.65118975  1
  Al0+  Al90  1  0.06846712  0.67820067  0.98848851  1
  Al0+  Al91  1  0.92813033  0.82148305  0.31788841  1
  Al0+  Al92  1  0.32129047  0.07111419  0.68159328  1
  Al0+  Al93  1  0.57275422  0.67638386  0.64987790  1
  Al0+  Al94  1  0.57448965  0.17712510  0.31995306  1
  Al0+  Al95  1  0.32179685  0.57349272  0.34842330  1
  Si0+  Si96  1  0.92818582  0.82433366  0.98255103  1
  Si0+  Si97  1  0.57025496  0.18014001  0.65408897  1
  Si0+  Si98  1  0.32201589  0.57299529  0.01327782  1
  Si0+  Si99  1  0.93098424  0.31922241  0.98720498  1
  Si0+  Si100  1  0.32174401  0.57138453  0.68276396  1
  Si0+  Si101  1  0.82196593  0.56893823  0.68156933  1
  Si0+  Si102  1  0.07014132  0.67631142  0.31823525  1
  Si0+  Si103  1  0.92829895  0.32512139  0.31482653  1
  Si0+  Si104  1  0.17449404  0.92847693  0.34946082  1
  Si0+  Si105  1  0.42685033  0.82294432  0.98218580  1
  Si0+  Si106  1  0.17877583  0.92807029  0.01554947  1
  Si0+  Si107  1  0.67640775  0.42761809  0.01463463  1
  Si0+  Si108  1  0.42551709  0.32038906  0.98138453  1
  Si0+  Si109  1  0.07403321  0.17900133  0.65213207  1
  Si0+  Si110  1  0.42674121  0.31916348  0.65369461  1
  Si0+  Si111  1  0.17886113  0.43083652  0.68322157  1
  Si0+  Si112  1  0.67786120  0.42842360  0.68276223  1
  Si0+  Si113  1  0.32123731  0.06963036  0.01629928  1
  Si0+  Si114  1  0.67705482  0.92980959  0.01948019  1
  Si0+  Si115  1  0.68025924  0.93186892  0.34643900  1
  Si0+  Si116  1  0.07290561  0.17740281  0.98329965  1
  Si0+  Si117  1  0.17779223  0.92549706  0.68451606  1
  Si0+  Si118  1  0.07346970  0.67554154  0.64902781  1
  Si0+  Si119  1  0.82373767  0.07131838  0.34634830  1
  O2-  O120  1  0.25160726  -0.00284611  0.05756186  1
  O2-  O121  1  0.24944468  -0.00995016  0.39353938  1
  O2-  O122  1  0.24873275  -0.00680716  0.72799241  1
  O2-  O123  1  0.25432823  0.50405676  0.05801356  1
  O2-  O124  1  0.25155396  0.49938500  0.39997679  1
  O2-  O125  1  0.24711441  0.50408693  0.72627542  1
  O2-  O126  1  0.74721926  -0.00246720  0.06350689  1
  O2-  O127  1  0.74884290  0.00559489  0.38851932  1
  O2-  O128  1  0.75321425  -0.00069886  0.73116006  1
  O2-  O129  1  0.73828013  0.50298250  0.05714967  1
  O2-  O130  1  0.74714990  0.50238886  0.40058277  1
  O2-  O131  1  0.74873971  0.50014567  0.72463237  1
  O2-  O132  1  -0.00105582  0.25886320  0.27005782  1
  O2-  O133  1  -0.00040615  0.24151922  0.60878575  1
  O2-  O134  1  0.00004234  0.24682352  0.94211222  1
  O2-  O135  1  -0.00012464  0.74304235  0.27334188  1
  O2-  O136  1  0.00733651  0.74724983  0.60655698  1
  O2-  O137  1  -0.00686727  0.75129657  0.93937361  1
  O2-  O138  1  0.50402082  0.25169262  0.27078307  1
  O2-  O139  1  0.49621568  0.24717945  0.61159455  1
  O2-  O140  1  0.49721223  0.25527853  0.93603757  1
  O2-  O141  1  0.49021354  0.74404109  0.26769808  1
  O2-  O142  1  0.50117380  0.74973081  0.60225101  1
  O2-  O143  1  0.49404786  0.75201884  0.93962588  1
  O2-  O144  1  0.07464270  0.17742355  0.08803398  1
  O2-  O145  1  0.06621159  0.17967669  0.43335380  1
  O2-  O146  1  0.07676397  0.18286148  0.75826505  1
  O2-  O147  1  0.06904729  0.68010182  0.10089063  1
  O2-  O148  1  0.07057792  0.67908784  0.42394307  1
  O2-  O149  1  0.07091197  0.67298498  0.75531450  1
  O2-  O150  1  0.57035990  0.18118833  0.09604663  1
  O2-  O151  1  0.57251411  0.17470148  0.43411237  1
  O2-  O152  1  0.57082906  0.18411511  0.75937142  1
  O2-  O153  1  0.56995109  0.67813471  0.09770453  1
  O2-  O154  1  0.57138854  0.68354274  0.43108906  1
  O2-  O155  1  0.57115990  0.67569886  0.76417149  1
  O2-  O156  1  0.17942322  0.42869821  0.23776542  1
  O2-  O157  1  0.18034184  0.42837283  0.57908200  1
  O2-  O158  1  0.17826609  0.43041359  0.89990319  1
  O2-  O159  1  0.17258262  0.93200597  0.24343228  1
  O2-  O160  1  0.17309562  0.92703695  0.57961040  1
  O2-  O161  1  0.17686160  0.93003981  0.91045426  1
  O2-  O162  1  0.68261303  0.42666811  0.23431669  1
  O2-  O163  1  0.67701836  0.42603228  0.57853736  1
  O2-  O164  1  0.68097089  0.42507865  0.90842168  1
  O2-  O165  1  0.68162152  0.93199418  0.24118824  1
  O2-  O166  1  0.68034221  0.92950586  0.56854644  1
  O2-  O167  1  0.67827022  0.92991720  0.91399173  1
  O2-  O168  1  0.42287961  0.31918609  0.08606917  1
  O2-  O169  1  0.42778752  0.31564674  0.43378001  1
  O2-  O170  1  0.42692345  0.31883706  0.75914727  1
  O2-  O171  1  0.42584275  0.82482962  0.08738050  1
  O2-  O172  1  0.43260435  0.82564074  0.43167893  1
  O2-  O173  1  0.42961888  0.81813286  0.76533218  1
  O2-  O174  1  0.93270882  0.31775757  0.09167908  1
  O2-  O175  1  0.92722277  0.32061704  0.42057908  1
  O2-  O176  1  0.93068360  0.32421309  0.76592546  1
  O2-  O177  1  0.93130571  0.82581820  0.08799350  1
  O2-  O178  1  0.92948280  0.82487534  0.43112947  1
  O2-  O179  1  0.93392569  0.81787058  0.76831615  1
  O2-  O180  1  0.31940934  0.06619549  0.23125632  1
  O2-  O181  1  0.31974759  0.07529783  0.56904787  1
  O2-  O182  1  0.31924813  0.07002607  0.91085208  1
  O2-  O183  1  0.31806183  0.57230226  0.23422869  1
  O2-  O184  1  0.32164160  0.56889627  0.57839008  1
  O2-  O185  1  0.31967582  0.57078671  0.90705019  1
  O2-  O186  1  0.82489505  0.06868488  0.24104363  1
  O2-  O187  1  0.82012963  0.07293729  0.56552099  1
  O2-  O188  1  0.82194656  0.07122257  0.90236396  1
  O2-  O189  1  0.81827649  0.57369463  0.23672461  1
  O2-  O190  1  0.82326908  0.56791826  0.57730174  1
  O2-  O191  1  0.82130091  0.56829436  0.89806908  1
  O2-  O192  1  0.03660161  0.08793606  0.26109565  1
  O2-  O193  1  0.05805538  0.08296201  0.60890688  1
  O2-  O194  1  0.04730876  0.08458210  0.93668762  1
  O2-  O195  1  0.04591379  0.58117655  0.27523900  1
  O2-  O196  1  0.04633229  0.58335628  0.60205340  1
  O2-  O197  1  0.03738702  0.58129205  0.93370753  1
  O2-  O198  1  0.54313260  0.08177179  0.26325934  1
  O2-  O199  1  0.54631678  0.08570732  0.61223546  1
  O2-  O200  1  0.53974752  0.08430134  0.92875498  1
  O2-  O201  1  0.54767202  0.57831365  0.26689143  1
  O2-  O202  1  0.54220019  0.57703924  0.60037314  1
  O2-  O203  1  0.54435188  0.58091441  0.92937792  1
  O2-  O204  1  0.16605716  0.20886320  0.26475350  1
  O2-  O205  1  0.16509979  0.21289170  0.60575641  1
  O2-  O206  1  0.16408269  0.20690161  0.93498513  1
  O2-  O207  1  0.16248274  0.70274710  0.27027913  1
  O2-  O208  1  0.16851197  0.69787709  0.60587819  1
  O2-  O209  1  0.16434736  0.70923528  0.93099798  1
  O2-  O210  1  0.67342730  0.20479119  0.26701425  1
  O2-  O211  1  0.66039343  0.21022743  0.60577007  1
  O2-  O212  1  0.66856973  0.21217654  0.92934502  1
  O2-  O213  1  0.66397608  0.71595967  0.26356904  1
  O2-  O214  1  0.67225173  0.70112318  0.59960107  1
  O2-  O215  1  0.66717436  0.71250398  0.93128117  1
  O2-  O216  1  0.08366387  0.45929784  0.06951034  1
  O2-  O217  1  0.08082690  0.45464891  0.40611573  1
  O2-  O218  1  0.08547993  0.45768017  0.72913207  1
  O2-  O219  1  0.08835859  0.95741735  0.06459117  1
  O2-  O220  1  0.08376293  0.96440480  0.39576463  1
  O2-  O221  1  0.08686371  0.95388079  0.73555730  1
  O2-  O222  1  0.57875288  0.44522197  0.05448079  1
  O2-  O223  1  0.57845921  0.44922011  0.40004216  1
  O2-  O224  1  0.58554236  0.45284489  0.73210266  1
  O2-  O225  1  0.58336843  0.95832654  0.06355943  1
  O2-  O226  1  0.58851517  0.95809194  0.39402967  1
  O2-  O227  1  0.58428373  0.95485254  0.73971956  1
  O2-  O228  1  0.20912892  0.33176304  0.06585854  1
  O2-  O229  1  0.20689938  0.32834907  0.40399435  1
  O2-  O230  1  0.20815192  0.34052598  0.73383616  1
  O2-  O231  1  0.20410963  0.83506586  0.06186515  1
  O2-  O232  1  0.18755334  0.83263555  0.39414023  1
  O2-  O233  1  0.20198808  0.83078393  0.73048824  1
  O2-  O234  1  0.70791084  0.33685947  0.06190077  1
  O2-  O235  1  0.71141850  0.33023097  0.40255153  1
  O2-  O236  1  0.70860081  0.33771232  0.73152830  1
  O2-  O237  1  0.70178948  0.83643979  0.06609336  1
  O2-  O238  1  0.71145479  0.84190519  0.39408309  1
  O2-  O239  1  0.71138174  0.82765816  0.73477007  1
  O2-  O240  1  0.45129045  0.41972434  0.26600936  1
  O2-  O241  1  0.45447769  0.41083431  0.60743296  1
  O2-  O242  1  0.44582981  0.41482640  0.93381101  1
  O2-  O243  1  0.46122300  0.91588386  0.26163990  1
  O2-  O244  1  0.45875443  0.92290064  0.60353309  1
  O2-  O245  1  0.45464745  0.91613333  0.93596586  1
  O2-  O246  1  0.95169146  0.42111552  0.27389201  1
  O2-  O247  1  0.96225493  0.41409176  0.59514379  1
  O2-  O248  1  0.96106601  0.41034211  0.93923838  1
  O2-  O249  1  0.96336814  0.91493847  0.26048514  1
  O2-  O250  1  0.96223179  0.91820620  0.60124262  1
  O2-  O251  1  0.96070201  0.91618500  0.93625179  1
  O2-  O252  1  0.33148501  0.28847718  0.26594466  1
  O2-  O253  1  0.33379878  0.29289722  0.60873792  1
  O2-  O254  1  0.33331970  0.28936267  0.93323121  1
  O2-  O255  1  0.32203262  0.80416298  0.27161687  1
  O2-  O256  1  0.32977565  0.79845437  0.59987251  1
  O2-  O257  1  0.33234764  0.80137862  0.93530703  1
  O2-  O258  1  0.83668628  0.29742187  0.26658053  1
  O2-  O259  1  0.83108420  0.29328225  0.59661893  1
  O2-  O260  1  0.83888801  0.29345672  0.93885885  1
  O2-  O261  1  0.83270855  0.79404979  0.26091273  1
  O2-  O262  1  0.83676331  0.78933643  0.60004312  1
  O2-  O263  1  0.83250246  0.80472823  0.93962746  1
  O2-  O264  1  0.41452858  0.04391931  0.06084595  1
  O2-  O265  1  0.41905825  0.03846245  0.39794687  1
  O2-  O266  1  0.41666005  0.04208131  0.73959856  1
  O2-  O267  1  0.41654181  0.54687569  0.05669324  1
  O2-  O268  1  0.42018256  0.54669098  0.40128153  1
  O2-  O269  1  0.41182109  0.53858442  0.73177425  1
  O2-  O270  1  0.91951314  0.04243477  0.06834504  1
  O2-  O271  1  0.91417024  0.03881564  0.39313974  1
  O2-  O272  1  0.92344226  0.04840614  0.73118831  1
  O2-  O273  1  0.91213712  0.53701129  0.06805835  1
  O2-  O274  1  0.91671697  0.54878936  0.40559916  1
  O2-  O275  1  0.91415175  0.53760853  0.72804023  1
  O2-  O276  1  0.29094765  0.16080568  0.06236969  1
  O2-  O277  1  0.28727769  0.16170241  0.39935152  1
  O2-  O278  1  0.28670037  0.16558868  0.74016570  1
  O2-  O279  1  0.29787395  0.66770843  0.05648669  1
  O2-  O280  1  0.28943290  0.67102644  0.40298099  1
  O2-  O281  1  0.29823048  0.66480216  0.72934319  1
  O2-  O282  1  0.79114431  0.16853048  0.06879449  1
  O2-  O283  1  0.80352701  0.16578861  0.39067969  1
  O2-  O284  1  0.79231438  0.17123228  0.73198482  1
  O2-  O285  1  0.79408315  0.67175128  0.06312091  1
  O2-  O286  1  0.78995933  0.67503610  0.40012084  1
  O2-  O287  1  0.79774678  0.66110304  0.72957519  1
