# generated using pymatgen
data_Ca2Al2SiO7
_symmetry_space_group_name_H-M   'P 1'
_cell_length_a   15.46758141
_cell_length_b   15.46483570
_cell_length_c   15.29090128
_cell_angle_alpha   90.00062062
_cell_angle_beta   90.01206399
_cell_angle_gamma   90.02726565
_symmetry_Int_Tables_number   1
_chemical_formula_structural   Ca2Al2SiO7
_chemical_formula_sum   'Ca48 Al48 Si24 O168'
_cell_volume   3657.63821761
_cell_formula_units_Z   24
loop_
 _symmetry_equiv_pos_site_id
 _symmetry_equiv_pos_as_xyz
  1  'x, y, z'
loop_
 _atom_type_symbol
 _atom_type_oxidation_number
  Ca2+  2.0
  Al0+  0.0
  Si0+  0.0
  O2-  -2.0
loop_
 _atom_site_type_symbol
 _atom_site_label
 _atom_site_symmetry_multiplicity
 _atom_site_fract_x
 _atom_site_fract_y
 _atom_site_fract_z
 _atom_site_occupancy
  Ca2+  Ca0  1  0.15817475  0.07623781  0.17461815  1
  Ca2+  Ca1  1  0.16488151  0.08167338  0.49826063  1
  Ca2+  Ca2  1  0.16282971  0.07529799  0.84191921  1
  Ca2+  Ca3  1  0.15700675  0.57585773  0.16774254  1
  Ca2+  Ca4  1  0.15926955  0.57494373  0.50683591  1
  Ca2+  Ca5  1  0.17018388  0.58477047  0.83948141  1
  Ca2+  Ca6  1  0.67516435  0.07930519  0.17003082  1
  Ca2+  Ca7  1  0.68333923  0.08137503  0.50780621  1
  Ca2+  Ca8  1  0.67436165  0.07234987  0.83299817  1
  Ca2+  Ca9  1  0.67067427  0.57637690  0.16672419  1
  Ca2+  Ca10  1  0.67728249  0.57646705  0.51138911  1
  Ca2+  Ca11  1  0.67366237  0.57761398  0.83583079  1
  Ca2+  Ca12  1  0.07735483  0.32893877  0.15925463  1
  Ca2+  Ca13  1  0.07920434  0.33188186  0.48847122  1
  Ca2+  Ca14  1  0.08767688  0.33194246  0.83349223  1
  Ca2+  Ca15  1  0.09459194  0.82622414  0.16230097  1
  Ca2+  Ca16  1  0.08241539  0.82122809  0.49763745  1
  Ca2+  Ca17  1  0.08416471  0.82283488  0.82652377  1
  Ca2+  Ca18  1  0.58086771  0.33287002  0.15774157  1
  Ca2+  Ca19  1  0.58271758  0.33645241  0.49706571  1
  Ca2+  Ca20  1  0.58678685  0.33927485  0.82904366  1
  Ca2+  Ca21  1  0.58103230  0.83461836  0.15977397  1
  Ca2+  Ca22  1  0.57775944  0.84236451  0.50197670  1
  Ca2+  Ca23  1  0.57711385  0.84050366  0.82405975  1
  Ca2+  Ca24  1  0.31682284  0.41985960  0.16734655  1
  Ca2+  Ca25  1  0.31764814  0.42268323  0.50704290  1
  Ca2+  Ca26  1  0.32017472  0.42950674  0.83619962  1
  Ca2+  Ca27  1  0.31905620  0.92362615  0.17129352  1
  Ca2+  Ca28  1  0.32819901  0.91707712  0.49867472  1
  Ca2+  Ca29  1  0.32845968  0.91419597  0.83756526  1
  Ca2+  Ca30  1  0.83477889  0.40481204  0.16657527  1
  Ca2+  Ca31  1  0.83333870  0.42014005  0.50871491  1
  Ca2+  Ca32  1  0.82956196  0.41901598  0.83515258  1
  Ca2+  Ca33  1  0.83048239  0.92165969  0.17262805  1
  Ca2+  Ca34  1  0.83751003  0.92727368  0.51079432  1
  Ca2+  Ca35  1  0.83332188  0.91599387  0.83502684  1
  Ca2+  Ca36  1  0.41418939  0.16441958  0.16424099  1
  Ca2+  Ca37  1  0.41896471  0.16516123  0.49362852  1
  Ca2+  Ca38  1  0.42080051  0.16940533  0.82696439  1
  Ca2+  Ca39  1  0.41599865  0.66450158  0.15990861  1
  Ca2+  Ca40  1  0.41226815  0.66936230  0.50313187  1
  Ca2+  Ca41  1  0.41307070  0.66809951  0.82398993  1
  Ca2+  Ca42  1  0.92495070  0.17257019  0.16452489  1
  Ca2+  Ca43  1  0.91818549  0.17041449  0.49140046  1
  Ca2+  Ca44  1  0.91798622  0.17025378  0.83385983  1
  Ca2+  Ca45  1  0.93087943  0.66858614  0.16220610  1
  Ca2+  Ca46  1  0.92457001  0.66451361  0.49895881  1
  Ca2+  Ca47  1  0.92740991  0.66829900  0.82432497  1
  Al0+  Al48  1  -0.00065572  0.00093452  0.00203934  1
  Al0+  Al49  1  -0.00224244  -0.00147450  0.33999818  1
  Al0+  Al50  1  0.00217764  0.00094324  0.66833828  1
  Al0+  Al51  1  -0.00034195  0.50127439  -0.00584738  1
  Al0+  Al52  1  -0.00271334  0.50145832  0.32860272  1
  Al0+  Al53  1  -0.00181693  0.49572701  0.67118619  1
  Al0+  Al54  1  0.50182746  0.00014842  0.00293703  1
  Al0+  Al55  1  0.49839872  -0.00046043  0.33276028  1
  Al0+  Al56  1  0.50124912  0.00163708  0.66265095  1
  Al0+  Al57  1  0.50237747  0.50064686  0.00637120  1
  Al0+  Al58  1  0.49940355  0.50009328  0.33166272  1
  Al0+  Al59  1  0.49674346  0.50001700  0.66943327  1
  Al0+  Al60  1  0.25253585  0.25280786  -0.00315836  1
  Al0+  Al61  1  0.25120006  0.25037318  0.33683328  1
  Al0+  Al62  1  0.25250772  0.25009266  0.66863990  1
  Al0+  Al63  1  0.25304069  0.75339057  0.00309947  1
  Al0+  Al64  1  0.25242744  0.75070641  0.33199479  1
  Al0+  Al65  1  0.25115543  0.75086917  0.65854177  1
  Al0+  Al66  1  0.74939372  0.24900455  -0.00093332  1
  Al0+  Al67  1  0.74714848  0.24763727  0.33302222  1
  Al0+  Al68  1  0.75095859  0.24669713  0.67370747  1
  Al0+  Al69  1  0.74860972  0.74894404  0.00530304  1
  Al0+  Al70  1  0.74750782  0.74714858  0.33273959  1
  Al0+  Al71  1  0.74879962  0.75060465  0.66944149  1
  Al0+  Al72  1  0.92740117  0.82273162  0.65326987  1
  Al0+  Al73  1  0.07322508  0.17824471  0.98446047  1
  Al0+  Al74  1  0.42986361  0.82262653  0.65116942  1
  Al0+  Al75  1  0.31710923  0.57326145  0.67957904  1
  Al0+  Al76  1  0.07245153  0.17777709  0.32059981  1
  Al0+  Al77  1  0.17691099  0.42954596  0.01621161  1
  Al0+  Al78  1  0.17842096  0.93136690  0.01139909  1
  Al0+  Al79  1  0.67822883  0.92938774  0.67974781  1
  Al0+  Al80  1  0.81947733  0.06999418  0.34676596  1
  Al0+  Al81  1  0.68175827  0.42893233  0.01509022  1
  Al0+  Al82  1  0.17750239  0.92665434  0.35115687  1
  Al0+  Al83  1  0.67875590  0.92814655  0.01481497  1
  Al0+  Al84  1  0.07264570  0.68246512  0.98615900  1
  Al0+  Al85  1  0.92778305  0.32054112  0.98150272  1
  Al0+  Al86  1  0.82271238  0.57281035  0.68199821  1
  Al0+  Al87  1  0.07123655  0.68069878  0.31880114  1
  Al0+  Al88  1  0.67846857  0.42842770  0.67974752  1
  Al0+  Al89  1  0.06995402  0.67675235  0.65164155  1
  Al0+  Al90  1  0.32096296  0.57290527  0.01540324  1
  Al0+  Al91  1  0.92698518  0.32129089  0.31978489  1
  Al0+  Al92  1  0.82551656  0.07002600  0.68513531  1
  Al0+  Al93  1  0.32111036  0.07179339  0.34852185  1
  Al0+  Al94  1  0.17655428  0.42619981  0.68168781  1
  Al0+  Al95  1  0.17676930  0.43152757  0.34551922  1
  Si0+  Si96  1  0.92509090  0.82116589  0.31821019  1
  Si0+  Si97  1  0.67728787  0.42846068  0.34655290  1
  Si0+  Si98  1  0.32439405  0.57125488  0.35021262  1
  Si0+  Si99  1  0.57091132  0.67708492  0.31660415  1
  Si0+  Si100  1  0.42973043  0.32237370  0.31726862  1
  Si0+  Si101  1  0.18156509  0.93031357  0.68044125  1
  Si0+  Si102  1  0.42905491  0.32154476  0.65031059  1
  Si0+  Si103  1  0.32295830  0.07135603  0.68119342  1
  Si0+  Si104  1  0.82278354  0.57261260  0.01872588  1
  Si0+  Si105  1  0.07473863  0.17916120  0.65169120  1
  Si0+  Si106  1  0.57102932  0.18055390  0.65066903  1
  Si0+  Si107  1  0.92500175  0.82210120  0.98643225  1
  Si0+  Si108  1  0.43275246  0.82138295  0.98549069  1
  Si0+  Si109  1  0.32337415  0.07320623  0.01292017  1
  Si0+  Si110  1  0.81904120  0.57094932  0.34720222  1
  Si0+  Si111  1  0.57138103  0.67563020  0.65049265  1
  Si0+  Si112  1  0.92795154  0.31699427  0.65289174  1
  Si0+  Si113  1  0.43094458  0.82153813  0.31465715  1
  Si0+  Si114  1  0.56969355  0.17818512  0.98363534  1
  Si0+  Si115  1  0.43112512  0.32353698  0.98346752  1
  Si0+  Si116  1  0.67772033  0.92562820  0.34987898  1
  Si0+  Si117  1  0.56951764  0.17854031  0.31710250  1
  Si0+  Si118  1  0.82130777  0.07146732  0.01883255  1
  Si0+  Si119  1  0.57173605  0.67789839  0.98481161  1
  O2-  O120  1  0.24728557  0.01304702  0.05610393  1
  O2-  O121  1  0.24690451  0.00297108  0.39959188  1
  O2-  O122  1  0.25222365  0.00147756  0.72379970  1
  O2-  O123  1  0.24575750  0.50517957  0.06618558  1
  O2-  O124  1  0.25030892  0.50797998  0.39231031  1
  O2-  O125  1  0.24129525  0.50606280  0.72938342  1
  O2-  O126  1  0.75576900  -0.00110842  0.06226135  1
  O2-  O127  1  0.74868512  -0.00885026  0.39332234  1
  O2-  O128  1  0.75682717  -0.00740808  0.73164238  1
  O2-  O129  1  0.75919175  0.49894058  0.06408629  1
  O2-  O130  1  0.75120832  0.49566312  0.38799086  1
  O2-  O131  1  0.74801847  0.50189636  0.73003868  1
  O2-  O132  1  0.00244979  0.25206775  0.27104588  1
  O2-  O133  1  0.00290555  0.25003693  0.61092295  1
  O2-  O134  1  0.00346605  0.25142539  0.93223221  1
  O2-  O135  1  -0.00097476  0.75908157  0.27280267  1
  O2-  O136  1  -0.00509930  0.74682831  0.60226572  1
  O2-  O137  1  -0.00368618  0.75681193  0.94209027  1
  O2-  O138  1  0.49835484  0.24891254  0.27399620  1
  O2-  O139  1  0.50341557  0.25418754  0.60710911  1
  O2-  O140  1  0.50004771  0.25008277  0.94069294  1
  O2-  O141  1  0.50110276  0.74892290  0.27352213  1
  O2-  O142  1  0.50595982  0.74774560  0.60536937  1
  O2-  O143  1  0.50194656  0.74943532  0.94233711  1
  O2-  O144  1  0.07125205  0.17611709  0.09775385  1
  O2-  O145  1  0.07033181  0.18094879  0.43470867  1
  O2-  O146  1  0.07723465  0.17857715  0.75654354  1
  O2-  O147  1  0.07117858  0.68419711  0.09961125  1
  O2-  O148  1  0.06764285  0.67758431  0.43147655  1
  O2-  O149  1  0.07330923  0.68194099  0.76511338  1
  O2-  O150  1  0.56752954  0.17788181  0.08913385  1
  O2-  O151  1  0.57039454  0.18069097  0.42212151  1
  O2-  O152  1  0.56700299  0.17856502  0.75583314  1
  O2-  O153  1  0.57065680  0.67890307  0.09050770  1
  O2-  O154  1  0.57162427  0.67435863  0.42110118  1
  O2-  O155  1  0.56731546  0.67327919  0.75597505  1
  O2-  O156  1  0.17831152  0.43156242  0.23282660  1
  O2-  O157  1  0.17946168  0.42312186  0.56768347  1
  O2-  O158  1  0.18187226  0.42859153  0.90325553  1
  O2-  O159  1  0.18198521  0.92637649  0.23733971  1
  O2-  O160  1  0.18235636  0.93226482  0.57571534  1
  O2-  O161  1  0.18346317  0.92915940  0.89800119  1
  O2-  O162  1  0.67448360  0.43016310  0.24159696  1
  O2-  O163  1  0.67994964  0.42798783  0.56526269  1
  O2-  O164  1  0.67870172  0.43260610  0.90273887  1
  O2-  O165  1  0.67764590  0.92660344  0.24388233  1
  O2-  O166  1  0.67382220  0.93768882  0.56636114  1
  O2-  O167  1  0.67486069  0.93116733  0.90262303  1
  O2-  O168  1  0.43281906  0.32159059  0.08895399  1
  O2-  O169  1  0.43469804  0.32496701  0.42227966  1
  O2-  O170  1  0.42884730  0.31753675  0.75532099  1
  O2-  O171  1  0.43598445  0.82261686  0.09066062  1
  O2-  O172  1  0.43278968  0.82311354  0.41958445  1
  O2-  O173  1  0.43025931  0.82531979  0.76444028  1
  O2-  O174  1  0.92542422  0.31457913  0.09514216  1
  O2-  O175  1  0.92453830  0.32121121  0.43372680  1
  O2-  O176  1  0.92476734  0.31431649  0.75740319  1
  O2-  O177  1  0.92232323  0.81972241  0.09225677  1
  O2-  O178  1  0.92053331  0.81587685  0.42315618  1
  O2-  O179  1  0.93351086  0.82414012  0.76708213  1
  O2-  O180  1  0.32809923  0.06737784  0.23511983  1
  O2-  O181  1  0.32298061  0.07258275  0.57652614  1
  O2-  O182  1  0.32920265  0.06833898  0.90719878  1
  O2-  O183  1  0.33053865  0.56750125  0.24506637  1
  O2-  O184  1  0.31975375  0.56904090  0.56578737  1
  O2-  O185  1  0.32263469  0.57256586  0.90217311  1
  O2-  O186  1  0.81456561  0.06996656  0.23369227  1
  O2-  O187  1  0.82200005  0.07422698  0.57144612  1
  O2-  O188  1  0.81947442  0.07143111  0.91350646  1
  O2-  O189  1  0.81526397  0.57534305  0.24248530  1
  O2-  O190  1  0.82169169  0.56790562  0.56742934  1
  O2-  O191  1  0.81717391  0.57637045  0.91377588  1
  O2-  O192  1  0.04127060  0.07802650  0.27127399  1
  O2-  O193  1  0.04776697  0.08707623  0.60515142  1
  O2-  O194  1  0.04256222  0.07913617  0.93201133  1
  O2-  O195  1  0.03450163  0.58707723  0.26275501  1
  O2-  O196  1  0.04178099  0.57584314  0.60257066  1
  O2-  O197  1  0.04440269  0.58582738  0.93233483  1
  O2-  O198  1  0.54228647  0.08631974  0.26946977  1
  O2-  O199  1  0.53928712  0.09198188  0.59982988  1
  O2-  O200  1  0.53892777  0.08715600  0.93599859  1
  O2-  O201  1  0.54175697  0.58590256  0.26726775  1
  O2-  O202  1  0.54157456  0.58344267  0.60193776  1
  O2-  O203  1  0.54416191  0.58568329  0.93900080  1
  O2-  O204  1  0.17409391  0.19967064  0.27120592  1
  O2-  O205  1  0.16742755  0.20600301  0.60485281  1
  O2-  O206  1  0.17411948  0.20237785  0.93245654  1
  O2-  O207  1  0.17018774  0.70763590  0.26688620  1
  O2-  O208  1  0.16650339  0.70826569  0.59640761  1
  O2-  O209  1  0.16976213  0.71654377  0.93485352  1
  O2-  O210  1  0.65956437  0.20734604  0.26722346  1
  O2-  O211  1  0.66420795  0.20672636  0.60523473  1
  O2-  O212  1  0.66128783  0.20448924  0.93670757  1
  O2-  O213  1  0.66232876  0.70387809  0.26706006  1
  O2-  O214  1  0.66652569  0.69637054  0.60573929  1
  O2-  O215  1  0.66445600  0.70444990  0.93950408  1
  O2-  O216  1  0.07628061  0.45530887  0.06518958  1
  O2-  O217  1  0.07896988  0.46144874  0.39770751  1
  O2-  O218  1  0.07620191  0.44235521  0.73228883  1
  O2-  O219  1  0.08044997  0.95421423  0.06645522  1
  O2-  O220  1  0.07782605  0.94825240  0.40315868  1
  O2-  O221  1  0.09127021  0.95829028  0.72933359  1
  O2-  O222  1  0.58751743  0.46286395  0.07241503  1
  O2-  O223  1  0.58684223  0.46010065  0.39474273  1
  O2-  O224  1  0.57871919  0.45325639  0.73097431  1
  O2-  O225  1  0.58428816  0.96388627  0.07142848  1
  O2-  O226  1  0.58444165  0.95460094  0.39325264  1
  O2-  O227  1  0.58241984  0.96802884  0.73347629  1
  O2-  O228  1  0.21222025  0.33159933  0.06760261  1
  O2-  O229  1  0.21002293  0.33596216  0.39944721  1
  O2-  O230  1  0.21614931  0.33158007  0.73588652  1
  O2-  O231  1  0.21798209  0.83988742  0.06876347  1
  O2-  O232  1  0.21449151  0.83019088  0.40348065  1
  O2-  O233  1  0.21209939  0.83872352  0.72525481  1
  O2-  O234  1  0.70606391  0.32960441  0.06761487  1
  O2-  O235  1  0.69863749  0.33482594  0.39233433  1
  O2-  O236  1  0.70592284  0.33076135  0.73358048  1
  O2-  O237  1  0.70382639  0.83058541  0.07017486  1
  O2-  O238  1  0.69722699  0.82976659  0.39350680  1
  O2-  O239  1  0.69116232  0.82749589  0.72954754  1
  O2-  O240  1  0.46177219  0.41215260  0.26779237  1
  O2-  O241  1  0.45393656  0.41377365  0.60239907  1
  O2-  O242  1  0.46515408  0.41407295  0.93822557  1
  O2-  O243  1  0.46098183  0.91234664  0.26589764  1
  O2-  O244  1  0.46242282  0.91861732  0.59509992  1
  O2-  O245  1  0.46240992  0.91315072  0.93822079  1
  O2-  O246  1  0.94938700  0.42029369  0.26579096  1
  O2-  O247  1  0.95023646  0.41046749  0.60656905  1
  O2-  O248  1  0.94910929  0.42136635  0.93147588  1
  O2-  O249  1  0.94374280  0.91749620  0.27599046  1
  O2-  O250  1  0.96085218  0.92051298  0.60045524  1
  O2-  O251  1  0.94577176  0.91767018  0.94358999  1
  O2-  O252  1  0.33784837  0.29567372  0.27068848  1
  O2-  O253  1  0.33942538  0.28834701  0.60137539  1
  O2-  O254  1  0.34002959  0.29875618  0.93403747  1
  O2-  O255  1  0.33937994  0.79477676  0.26702470  1
  O2-  O256  1  0.33585660  0.79173784  0.59247128  1
  O2-  O257  1  0.34067859  0.79634505  0.93829558  1
  O2-  O258  1  0.82811696  0.28986476  0.26757053  1
  O2-  O259  1  0.83656323  0.28582090  0.60543174  1
  O2-  O260  1  0.82915209  0.28819079  0.92963026  1
  O2-  O261  1  0.83261590  0.79081275  0.26996970  1
  O2-  O262  1  0.82503247  0.80377104  0.60372596  1
  O2-  O263  1  0.83151546  0.79404489  0.94067013  1
  O2-  O264  1  0.41321924  0.04053305  0.06293033  1
  O2-  O265  1  0.41938726  0.03936157  0.40211106  1
  O2-  O266  1  0.41467865  0.04352517  0.72809198  1
  O2-  O267  1  0.41840251  0.54111496  0.06944598  1
  O2-  O268  1  0.41624186  0.54040785  0.39813875  1
  O2-  O269  1  0.41419888  0.54178533  0.73330408  1
  O2-  O270  1  0.91515583  0.04912815  0.06486491  1
  O2-  O271  1  0.91511265  0.04438312  0.40372356  1
  O2-  O272  1  0.92484985  0.04628466  0.73766445  1
  O2-  O273  1  0.91822059  0.55187474  0.06124487  1
  O2-  O274  1  0.91090600  0.54557294  0.39390704  1
  O2-  O275  1  0.91793693  0.54091782  0.73736834  1
  O2-  O276  1  0.30905175  0.17026267  0.05458468  1
  O2-  O277  1  0.30139341  0.17165006  0.40220302  1
  O2-  O278  1  0.29795351  0.16308309  0.72973996  1
  O2-  O279  1  0.30025737  0.67323905  0.06750238  1
  O2-  O280  1  0.30611187  0.66788792  0.39116812  1
  O2-  O281  1  0.29576902  0.67454819  0.72953732  1
  O2-  O282  1  0.78785184  0.16227602  0.06487969  1
  O2-  O283  1  0.78192456  0.16460657  0.40173081  1
  O2-  O284  1  0.78822541  0.16379371  0.74068648  1
  O2-  O285  1  0.79063155  0.66276504  0.06879697  1
  O2-  O286  1  0.78594036  0.66015347  0.39699123  1
  O2-  O287  1  0.79745321  0.67148992  0.73479146  1
