# generated using pymatgen
data_Ca2Al2SiO7
_symmetry_space_group_name_H-M   'P 1'
_cell_length_a   15.45269186
_cell_length_b   15.45271009
_cell_length_c   15.28018689
_cell_angle_alpha   89.99700104
_cell_angle_beta   90.00011879
_cell_angle_gamma   89.99502194
_symmetry_Int_Tables_number   1
_chemical_formula_structural   Ca2Al2SiO7
_chemical_formula_sum   'Ca48 Al48 Si24 O168'
_cell_volume   3648.69418857
_cell_formula_units_Z   24
loop_
 _symmetry_equiv_pos_site_id
 _symmetry_equiv_pos_as_xyz
  1  'x, y, z'
loop_
 _atom_type_symbol
 _atom_type_oxidation_number
  Ca2+  2.0
  Al0+  0.0
  Si0+  0.0
  O2-  -2.0
loop_
 _atom_site_type_symbol
 _atom_site_label
 _atom_site_symmetry_multiplicity
 _atom_site_fract_x
 _atom_site_fract_y
 _atom_site_fract_z
 _atom_site_occupancy
  Ca2+  Ca0  1  0.17733110  0.09492440  0.17178150  1
  Ca2+  Ca1  1  0.16808221  0.08249441  0.50359378  1
  Ca2+  Ca2  1  0.16827496  0.07829659  0.83962149  1
  Ca2+  Ca3  1  0.16344308  0.58332117  0.16974772  1
  Ca2+  Ca4  1  0.15835984  0.57820034  0.49923680  1
  Ca2+  Ca5  1  0.17111792  0.58332308  0.84325687  1
  Ca2+  Ca6  1  0.66527961  0.07738761  0.16980615  1
  Ca2+  Ca7  1  0.67017397  0.08064840  0.50981842  1
  Ca2+  Ca8  1  0.66759585  0.07810856  0.83435959  1
  Ca2+  Ca9  1  0.66796029  0.58007435  0.16217424  1
  Ca2+  Ca10  1  0.67631121  0.58082848  0.50926445  1
  Ca2+  Ca11  1  0.67866447  0.57966722  0.84524064  1
  Ca2+  Ca12  1  0.08537459  0.32725420  0.16069450  1
  Ca2+  Ca13  1  0.07861923  0.33024857  0.49437909  1
  Ca2+  Ca14  1  0.07287194  0.32872590  0.83299636  1
  Ca2+  Ca15  1  0.07891906  0.82400157  0.16203686  1
  Ca2+  Ca16  1  0.07101052  0.83537956  0.49504332  1
  Ca2+  Ca17  1  0.08117100  0.82787572  0.82724383  1
  Ca2+  Ca18  1  0.58687872  0.32791234  0.16123268  1
  Ca2+  Ca19  1  0.58058644  0.31911780  0.49893572  1
  Ca2+  Ca20  1  0.57944490  0.33150774  0.82465879  1
  Ca2+  Ca21  1  0.57770767  0.82845098  0.15358097  1
  Ca2+  Ca22  1  0.58673126  0.83583757  0.49896812  1
  Ca2+  Ca23  1  0.58514489  0.83647070  0.83571421  1
  Ca2+  Ca24  1  0.32684248  0.42571847  0.17141432  1
  Ca2+  Ca25  1  0.32704250  0.41184695  0.50154891  1
  Ca2+  Ca26  1  0.33541702  0.42039381  0.84060803  1
  Ca2+  Ca27  1  0.33566305  0.92573513  0.16701836  1
  Ca2+  Ca28  1  0.32389017  0.92272309  0.50471254  1
  Ca2+  Ca29  1  0.32940103  0.92066631  0.84169434  1
  Ca2+  Ca30  1  0.83719714  0.41794417  0.16090515  1
  Ca2+  Ca31  1  0.83817264  0.42389495  0.50978848  1
  Ca2+  Ca32  1  0.83485227  0.42208353  0.84162310  1
  Ca2+  Ca33  1  0.82767062  0.90919285  0.16758780  1
  Ca2+  Ca34  1  0.83406751  0.92236791  0.51350548  1
  Ca2+  Ca35  1  0.82557281  0.91747112  0.83298569  1
  Ca2+  Ca36  1  0.41803525  0.16084361  0.16287571  1
  Ca2+  Ca37  1  0.42654640  0.16200074  0.49688243  1
  Ca2+  Ca38  1  0.42175543  0.16964760  0.82720424  1
  Ca2+  Ca39  1  0.41883077  0.67412575  0.15129547  1
  Ca2+  Ca40  1  0.41976830  0.67018054  0.49735358  1
  Ca2+  Ca41  1  0.42181711  0.66703674  0.83620723  1
  Ca2+  Ca42  1  0.93322975  0.17169760  0.15705532  1
  Ca2+  Ca43  1  0.91865744  0.16870343  0.49636389  1
  Ca2+  Ca44  1  0.91069965  0.17730761  0.82874562  1
  Ca2+  Ca45  1  0.92531948  0.66590194  0.16245249  1
  Ca2+  Ca46  1  0.91527077  0.67981060  0.49559381  1
  Ca2+  Ca47  1  0.91562118  0.66617045  0.82961718  1
  Al0+  Al48  1  0.00085612  -0.00194415  -0.00267130  1
  Al0+  Al49  1  -0.00139921  0.00155957  0.32271125  1
  Al0+  Al50  1  0.00024747  -0.00093291  0.67320854  1
  Al0+  Al51  1  0.00001506  0.49949846  -0.00350823  1
  Al0+  Al52  1  -0.00101101  0.50187903  0.33601520  1
  Al0+  Al53  1  0.00249516  0.49810718  0.66782168  1
  Al0+  Al54  1  0.49908863  -0.00027375  0.00375066  1
  Al0+  Al55  1  0.50013925  0.00017847  0.33500045  1
  Al0+  Al56  1  0.49872178  -0.00150775  0.66554435  1
  Al0+  Al57  1  0.50049555  0.50034008  0.00583181  1
  Al0+  Al58  1  0.50044657  0.49907622  0.33692489  1
  Al0+  Al59  1  0.49868299  0.50058808  0.65911621  1
  Al0+  Al60  1  0.25079765  0.24884873  -0.00136823  1
  Al0+  Al61  1  0.25142344  0.25265084  0.34100865  1
  Al0+  Al62  1  0.24965696  0.25157677  0.66481307  1
  Al0+  Al63  1  0.24945743  0.75178069  -0.00361140  1
  Al0+  Al64  1  0.25045768  0.75126975  0.33164275  1
  Al0+  Al65  1  0.25151671  0.74876863  0.66832366  1
  Al0+  Al66  1  0.75076276  0.24909770  0.00122641  1
  Al0+  Al67  1  0.74771751  0.24897688  0.32922401  1
  Al0+  Al68  1  0.74940130  0.25070012  0.66006190  1
  Al0+  Al69  1  0.75002501  0.74867097  0.00626011  1
  Al0+  Al70  1  0.74803855  0.74917253  0.33042920  1
  Al0+  Al71  1  0.75118656  0.74929561  0.67015311  1
  Al0+  Al72  1  0.42979401  0.82300659  0.98371478  1
  Al0+  Al73  1  0.17859209  0.92804450  0.67971512  1
  Al0+  Al74  1  0.07511528  0.17719728  0.98306782  1
  Al0+  Al75  1  0.07021598  0.67961178  0.98499068  1
  Al0+  Al76  1  0.82196658  0.56954839  0.67952586  1
  Al0+  Al77  1  0.92908309  0.31878706  0.98476790  1
  Al0+  Al78  1  0.67720807  0.92826665  0.68172504  1
  Al0+  Al79  1  0.67825606  0.42657947  0.01449209  1
  Al0+  Al80  1  0.07227318  0.18129052  0.32139810  1
  Al0+  Al81  1  0.07053000  0.67889680  0.31929553  1
  Al0+  Al82  1  0.32110555  0.07047904  0.34941151  1
  Al0+  Al83  1  0.82176541  0.07422361  0.68110120  1
  Al0+  Al84  1  0.82355793  0.57073351  0.01756534  1
  Al0+  Al85  1  0.17874864  0.43139336  0.34718637  1
  Al0+  Al86  1  0.56964868  0.17845898  0.31670785  1
  Al0+  Al87  1  0.57157155  0.67747242  0.98487757  1
  Al0+  Al88  1  0.68050851  0.93119757  0.01520859  1
  Al0+  Al89  1  0.92978673  0.81956924  0.65588790  1
  Al0+  Al90  1  0.92625487  0.82305308  0.31693663  1
  Al0+  Al91  1  0.31877124  0.07083271  0.01274926  1
  Al0+  Al92  1  0.32054523  0.57243240  0.01235602  1
  Al0+  Al93  1  0.56984538  0.17716069  0.65237903  1
  Al0+  Al94  1  0.42693101  0.32370226  0.65029203  1
  Al0+  Al95  1  0.92960504  0.32139202  0.65196767  1
  Si0+  Si96  1  0.32065504  0.07210176  0.68291643  1
  Si0+  Si97  1  0.57071102  0.17821129  0.98645338  1
  Si0+  Si98  1  0.18006510  0.42845248  0.68370739  1
  Si0+  Si99  1  0.67683377  0.42915733  0.67954156  1
  Si0+  Si100  1  0.57033085  0.67708007  0.31890826  1
  Si0+  Si101  1  0.32353743  0.57457507  0.35120631  1
  Si0+  Si102  1  0.43009411  0.82045043  0.31966528  1
  Si0+  Si103  1  0.81848777  0.57017266  0.34980854  1
  Si0+  Si104  1  0.68021492  0.92879215  0.34806261  1
  Si0+  Si105  1  0.92678963  0.32343291  0.31735978  1
  Si0+  Si106  1  0.67758700  0.42645416  0.35137424  1
  Si0+  Si107  1  0.42863078  0.32255030  0.31519982  1
  Si0+  Si108  1  0.32269911  0.57087224  0.68137033  1
  Si0+  Si109  1  0.92586596  0.82144050  0.98148127  1
  Si0+  Si110  1  0.17931128  0.42882210  0.01480702  1
  Si0+  Si111  1  0.07505683  0.67773075  0.65004743  1
  Si0+  Si112  1  0.57135617  0.67982727  0.65151828  1
  Si0+  Si113  1  0.82390420  0.07277488  0.01857652  1
  Si0+  Si114  1  0.17634708  0.92749756  0.34815701  1
  Si0+  Si115  1  0.82153427  0.07126614  0.34568705  1
  Si0+  Si116  1  0.42972939  0.32133179  0.98857894  1
  Si0+  Si117  1  0.42709542  0.82019751  0.65033216  1
  Si0+  Si118  1  0.07139383  0.17711052  0.65060808  1
  Si0+  Si119  1  0.17612504  0.92712917  0.01832300  1
  O2-  O120  1  0.24099216  0.00009669  0.06162079  1
  O2-  O121  1  0.24256615  -0.00168896  0.39388167  1
  O2-  O122  1  0.25152911  0.00441912  0.72686011  1
  O2-  O123  1  0.24497651  0.49981089  0.06010924  1
  O2-  O124  1  0.25241507  0.50818372  0.39502235  1
  O2-  O125  1  0.25280684  0.49895736  0.72357386  1
  O2-  O126  1  0.75700168  0.00282440  0.06430519  1
  O2-  O127  1  0.75366365  -0.00268602  0.38923092  1
  O2-  O128  1  0.74782985  0.00282250  0.72961674  1
  O2-  O129  1  0.75049789  0.49814647  0.06604154  1
  O2-  O130  1  0.74990676  0.49668931  0.39290813  1
  O2-  O131  1  0.74793150  0.49372339  0.72483436  1
  O2-  O132  1  -0.00274316  0.25592147  0.27486018  1
  O2-  O133  1  0.00092578  0.24351838  0.60525118  1
  O2-  O134  1  -0.00181917  0.24414014  0.93418108  1
  O2-  O135  1  0.00012915  0.75190536  0.26899499  1
  O2-  O136  1  0.00558067  0.74634052  0.60747293  1
  O2-  O137  1  -0.00492630  0.75310899  0.93765025  1
  O2-  O138  1  0.49593354  0.25379984  0.26914740  1
  O2-  O139  1  0.49650400  0.24839992  0.60202710  1
  O2-  O140  1  0.50277117  0.25275862  0.94588510  1
  O2-  O141  1  0.49635097  0.74502875  0.27800210  1
  O2-  O142  1  0.50213550  0.75280769  0.60823228  1
  O2-  O143  1  0.50148100  0.75055194  0.93331181  1
  O2-  O144  1  0.07782544  0.18344282  0.09702917  1
  O2-  O145  1  0.06863283  0.18008737  0.43471409  1
  O2-  O146  1  0.07433880  0.18079436  0.75567830  1
  O2-  O147  1  0.07036268  0.68087677  0.09818079  1
  O2-  O148  1  0.06701547  0.67882054  0.43313927  1
  O2-  O149  1  0.07756294  0.67844037  0.75547847  1
  O2-  O150  1  0.56864203  0.17770995  0.09188231  1
  O2-  O151  1  0.57034929  0.17784354  0.42942213  1
  O2-  O152  1  0.56726531  0.17830167  0.76635454  1
  O2-  O153  1  0.56769395  0.67920562  0.09926141  1
  O2-  O154  1  0.57166564  0.67905677  0.42463716  1
  O2-  O155  1  0.56894922  0.67567471  0.75563764  1
  O2-  O156  1  0.18166298  0.43155480  0.23420408  1
  O2-  O157  1  0.17858279  0.42996393  0.57841412  1
  O2-  O158  1  0.18267324  0.42871806  0.90894358  1
  O2-  O159  1  0.18051253  0.92465078  0.24308725  1
  O2-  O160  1  0.18030378  0.92841078  0.56598906  1
  O2-  O161  1  0.17883652  0.92631048  0.91250803  1
  O2-  O162  1  0.67515684  0.42744774  0.24679204  1
  O2-  O163  1  0.67739719  0.43353768  0.57332924  1
  O2-  O164  1  0.67650745  0.42671670  0.90079711  1
  O2-  O165  1  0.67862401  0.92918706  0.24316604  1
  O2-  O166  1  0.67933787  0.92739578  0.56722954  1
  O2-  O167  1  0.67967540  0.93442176  0.90254911  1
  O2-  O168  1  0.42789749  0.31974782  0.09368044  1
  O2-  O169  1  0.43184718  0.32290416  0.42064475  1
  O2-  O170  1  0.42887869  0.32606757  0.76443084  1
  O2-  O171  1  0.43182211  0.82279929  0.09815040  1
  O2-  O172  1  0.43153395  0.81955965  0.42536260  1
  O2-  O173  1  0.42402798  0.81852343  0.75456627  1
  O2-  O174  1  0.93214756  0.31788482  0.09890246  1
  O2-  O175  1  0.92679664  0.32254880  0.42330634  1
  O2-  O176  1  0.93210425  0.32404706  0.76433382  1
  O2-  O177  1  0.92798024  0.82110995  0.08734628  1
  O2-  O178  1  0.92434289  0.82292802  0.43097838  1
  O2-  O179  1  0.92967912  0.81641257  0.76840925  1
  O2-  O180  1  0.32263842  0.06838738  0.23641027  1
  O2-  O181  1  0.32014949  0.06957748  0.57697965  1
  O2-  O182  1  0.31988672  0.07054683  0.89963892  1
  O2-  O183  1  0.32685452  0.57359031  0.24606548  1
  O2-  O184  1  0.32241151  0.57326000  0.57606577  1
  O2-  O185  1  0.32097655  0.56797662  0.89880111  1
  O2-  O186  1  0.81846731  0.07235764  0.24091278  1
  O2-  O187  1  0.82288890  0.07158007  0.56645779  1
  O2-  O188  1  0.82054704  0.07437585  0.91324557  1
  O2-  O189  1  0.81745740  0.57017647  0.24533008  1
  O2-  O190  1  0.81887639  0.57068742  0.56546354  1
  O2-  O191  1  0.82266431  0.56893054  0.90381129  1
  O2-  O192  1  0.04454282  0.08629589  0.26323973  1
  O2-  O193  1  0.04858609  0.08216666  0.60672098  1
  O2-  O194  1  0.05277193  0.07565079  0.93501904  1
  O2-  O195  1  0.04001747  0.58085412  0.26660652  1
  O2-  O196  1  0.04930584  0.58347425  0.60609552  1
  O2-  O197  1  0.04345414  0.58230911  0.93093739  1
  O2-  O198  1  0.53764733  0.08122316  0.26448582  1
  O2-  O199  1  0.54104126  0.07861141  0.59779935  1
  O2-  O200  1  0.53784741  0.08872132  0.93921910  1
  O2-  O201  1  0.54607223  0.58331413  0.27437970  1
  O2-  O202  1  0.54097767  0.59064324  0.59906459  1
  O2-  O203  1  0.54068448  0.57899418  0.93356199  1
  O2-  O204  1  0.16989965  0.21448164  0.27102017  1
  O2-  O205  1  0.16427322  0.20545636  0.60369154  1
  O2-  O206  1  0.17158748  0.20953849  0.92820888  1
  O2-  O207  1  0.17127761  0.70318427  0.26841587  1
  O2-  O208  1  0.16887818  0.70233449  0.60321332  1
  O2-  O209  1  0.16617413  0.71075996  0.92997292  1
  O2-  O210  1  0.66604493  0.20876654  0.26176610  1
  O2-  O211  1  0.66659813  0.20611849  0.59575814  1
  O2-  O212  1  0.66379222  0.20157779  0.94081612  1
  O2-  O213  1  0.66012422  0.70677446  0.26994128  1
  O2-  O214  1  0.66293921  0.70742005  0.60327353  1
  O2-  O215  1  0.67161708  0.70472577  0.93608802  1
  O2-  O216  1  0.08545303  0.45226349  0.05980997  1
  O2-  O217  1  0.08184449  0.46126676  0.40346426  1
  O2-  O218  1  0.08991334  0.45763044  0.73279345  1
  O2-  O219  1  0.08031233  0.94618430  0.06261169  1
  O2-  O220  1  0.08053874  0.95305028  0.38986483  1
  O2-  O221  1  0.08375344  0.95530349  0.73746452  1
  O2-  O222  1  0.58159006  0.45554615  0.07193343  1
  O2-  O223  1  0.58652514  0.45584362  0.40027997  1
  O2-  O224  1  0.58282249  0.45731471  0.72329021  1
  O2-  O225  1  0.58494519  0.96397942  0.07069976  1
  O2-  O226  1  0.58934749  0.95835242  0.39639187  1
  O2-  O227  1  0.57693320  0.95316173  0.73273683  1
  O2-  O228  1  0.20900789  0.33656618  0.06106396  1
  O2-  O229  1  0.21116548  0.33770867  0.40633902  1
  O2-  O230  1  0.20685723  0.33637292  0.73098145  1
  O2-  O231  1  0.20684107  0.83547996  0.06502294  1
  O2-  O232  1  0.20486066  0.83508212  0.39656707  1
  O2-  O233  1  0.21256998  0.83203701  0.73325178  1
  O2-  O234  1  0.70689195  0.32834793  0.06953940  1
  O2-  O235  1  0.70438913  0.33327615  0.39677259  1
  O2-  O236  1  0.69660408  0.33343926  0.72151848  1
  O2-  O237  1  0.70782912  0.83398954  0.07034562  1
  O2-  O238  1  0.70336526  0.83468995  0.39419464  1
  O2-  O239  1  0.70695523  0.83089850  0.73493866  1
  O2-  O240  1  0.45468131  0.41750539  0.27122526  1
  O2-  O241  1  0.45513392  0.42067954  0.59285591  1
  O2-  O242  1  0.45566499  0.41354751  0.94173223  1
  O2-  O243  1  0.46262697  0.91032290  0.27249393  1
  O2-  O244  1  0.45120772  0.91248084  0.60202156  1
  O2-  O245  1  0.46073674  0.92086238  0.93122639  1
  O2-  O246  1  0.95131099  0.41782331  0.27380134  1
  O2-  O247  1  0.96625379  0.41647383  0.59671384  1
  O2-  O248  1  0.95937943  0.41599232  0.93135226  1
  O2-  O249  1  0.95042001  0.92047126  0.26072309  1
  O2-  O250  1  0.96036827  0.91727939  0.60280239  1
  O2-  O251  1  0.94931417  0.91589618  0.93649616  1
  O2-  O252  1  0.33375725  0.29898284  0.27263165  1
  O2-  O253  1  0.32754644  0.29731837  0.59785944  1
  O2-  O254  1  0.33975667  0.29242055  0.93841265  1
  O2-  O255  1  0.33718797  0.79836694  0.27223449  1
  O2-  O256  1  0.33805974  0.78665712  0.59966439  1
  O2-  O257  1  0.33154356  0.79582343  0.93123555  1
  O2-  O258  1  0.83345535  0.29786687  0.27150267  1
  O2-  O259  1  0.83210662  0.29759298  0.59632603  1
  O2-  O260  1  0.82945318  0.29205974  0.93244866  1
  O2-  O261  1  0.82846287  0.79035415  0.26458972  1
  O2-  O262  1  0.83344903  0.78777541  0.60037238  1
  O2-  O263  1  0.83181444  0.79504633  0.93849655  1
  O2-  O264  1  0.41347066  0.03733669  0.06944308  1
  O2-  O265  1  0.41608718  0.03371406  0.40413096  1
  O2-  O266  1  0.41385118  0.04503409  0.72796146  1
  O2-  O267  1  0.41483890  0.54101669  0.06992953  1
  O2-  O268  1  0.41632567  0.54631911  0.39966105  1
  O2-  O269  1  0.41546795  0.54328520  0.72688023  1
  O2-  O270  1  0.91937847  0.04813193  0.06186986  1
  O2-  O271  1  0.91514899  0.04656718  0.39120328  1
  O2-  O272  1  0.91881608  0.04674176  0.73591908  1
  O2-  O273  1  0.92168951  0.53879800  0.07003583  1
  O2-  O274  1  0.91051851  0.54555387  0.39816414  1
  O2-  O275  1  0.91954207  0.54045009  0.73162089  1
  O2-  O276  1  0.29127199  0.16834441  0.06828620  1
  O2-  O277  1  0.29489604  0.16769191  0.40386782  1
  O2-  O278  1  0.29744314  0.16738575  0.72657359  1
  O2-  O279  1  0.29130285  0.67005560  0.06476907  1
  O2-  O280  1  0.30135498  0.66971505  0.39666863  1
  O2-  O281  1  0.29549829  0.66187341  0.72999484  1
  O2-  O282  1  0.79710424  0.16509651  0.06616276  1
  O2-  O283  1  0.79140921  0.16301356  0.39307779  1
  O2-  O284  1  0.79217364  0.17362662  0.73164196  1
  O2-  O285  1  0.79551680  0.66801883  0.07254874  1
  O2-  O286  1  0.78568120  0.66160373  0.39661899  1
  O2-  O287  1  0.78950769  0.66405366  0.73449532  1
