# generated using pymatgen
data_Ca2Al2SiO7
_symmetry_space_group_name_H-M   'P 1'
_cell_length_a   15.46114833
_cell_length_b   15.46331456
_cell_length_c   15.28807939
_cell_angle_alpha   89.99629144
_cell_angle_beta   89.99903232
_cell_angle_gamma   90.00164596
_symmetry_Int_Tables_number   1
_chemical_formula_structural   Ca2Al2SiO7
_chemical_formula_sum   'Ca48 Al48 Si24 O168'
_cell_volume   3655.08318324
_cell_formula_units_Z   24
loop_
 _symmetry_equiv_pos_site_id
 _symmetry_equiv_pos_as_xyz
  1  'x, y, z'
loop_
 _atom_type_symbol
 _atom_type_oxidation_number
  Ca2+  2.0
  Al0+  0.0
  Si0+  0.0
  O2-  -2.0
loop_
 _atom_site_type_symbol
 _atom_site_label
 _atom_site_symmetry_multiplicity
 _atom_site_fract_x
 _atom_site_fract_y
 _atom_site_fract_z
 _atom_site_occupancy
  Ca2+  Ca0  1  0.16592186  0.08652280  0.16244969  1
  Ca2+  Ca1  1  0.16484951  0.08309217  0.50651257  1
  Ca2+  Ca2  1  0.16872138  0.08355633  0.84565598  1
  Ca2+  Ca3  1  0.16554279  0.57903170  0.16182896  1
  Ca2+  Ca4  1  0.17159631  0.57964475  0.51072417  1
  Ca2+  Ca5  1  0.17436562  0.58267324  0.84103287  1
  Ca2+  Ca6  1  0.67910840  0.08166604  0.16574624  1
  Ca2+  Ca7  1  0.67115023  0.09276833  0.50314509  1
  Ca2+  Ca8  1  0.66895062  0.08117672  0.84246344  1
  Ca2+  Ca9  1  0.67168780  0.57571635  0.17010443  1
  Ca2+  Ca10  1  0.67426195  0.57109275  0.50367367  1
  Ca2+  Ca11  1  0.66348753  0.57053939  0.84043437  1
  Ca2+  Ca12  1  0.06883026  0.33226274  0.15356325  1
  Ca2+  Ca13  1  0.07188292  0.33108429  0.49671630  1
  Ca2+  Ca14  1  0.07594884  0.32796357  0.83104245  1
  Ca2+  Ca15  1  0.08399338  0.82743257  0.15660401  1
  Ca2+  Ca16  1  0.08424252  0.82391134  0.50018516  1
  Ca2+  Ca17  1  0.09586078  0.82281064  0.83350428  1
  Ca2+  Ca18  1  0.58021760  0.34437860  0.16378632  1
  Ca2+  Ca19  1  0.57781637  0.34208302  0.50100567  1
  Ca2+  Ca20  1  0.58148897  0.33147150  0.82545896  1
  Ca2+  Ca21  1  0.58735014  0.82538903  0.15524904  1
  Ca2+  Ca22  1  0.57602263  0.83323697  0.49837997  1
  Ca2+  Ca23  1  0.58016315  0.82857985  0.83051758  1
  Ca2+  Ca24  1  0.32752894  0.41718121  0.16620601  1
  Ca2+  Ca25  1  0.33842488  0.41978899  0.50865751  1
  Ca2+  Ca26  1  0.32991454  0.42465779  0.84131347  1
  Ca2+  Ca27  1  0.32805627  0.92317870  0.16104516  1
  Ca2+  Ca28  1  0.33391508  0.91696459  0.50783818  1
  Ca2+  Ca29  1  0.33167818  0.92390160  0.84194295  1
  Ca2+  Ca30  1  0.82460310  0.41217535  0.17297202  1
  Ca2+  Ca31  1  0.82650038  0.40733049  0.50233479  1
  Ca2+  Ca32  1  0.82537186  0.40530827  0.83723302  1
  Ca2+  Ca33  1  0.83666183  0.92947440  0.16759166  1
  Ca2+  Ca34  1  0.83319995  0.92509967  0.50246364  1
  Ca2+  Ca35  1  0.82691148  0.92604117  0.84487297  1
  Ca2+  Ca36  1  0.41641459  0.17204201  0.16211085  1
  Ca2+  Ca37  1  0.42416143  0.18044038  0.49752282  1
  Ca2+  Ca38  1  0.42157264  0.17110986  0.82458564  1
  Ca2+  Ca39  1  0.42412229  0.66497866  0.15554826  1
  Ca2+  Ca40  1  0.41355644  0.66901589  0.50186554  1
  Ca2+  Ca41  1  0.41614652  0.66649252  0.83048108  1
  Ca2+  Ca42  1  0.91349439  0.17348262  0.15837666  1
  Ca2+  Ca43  1  0.91544892  0.17675969  0.49819569  1
  Ca2+  Ca44  1  0.92263129  0.17238318  0.83164827  1
  Ca2+  Ca45  1  0.91866714  0.66511479  0.15766076  1
  Ca2+  Ca46  1  0.92102448  0.65962745  0.49652199  1
  Ca2+  Ca47  1  0.93156380  0.66479845  0.83077778  1
  Al0+  Al48  1  -0.00004851  0.00039106  0.00461347  1
  Al0+  Al49  1  0.00079610  -0.00307852  0.33945474  1
  Al0+  Al50  1  -0.00010354  -0.00219633  0.66537998  1
  Al0+  Al51  1  -0.00033626  0.50123091  -0.00764454  1
  Al0+  Al52  1  0.00208958  0.49866479  0.33140700  1
  Al0+  Al53  1  -0.00002060  0.50036628  0.65867491  1
  Al0+  Al54  1  0.49942965  0.00010192  0.00955794  1
  Al0+  Al55  1  0.49752203  0.00041237  0.33168500  1
  Al0+  Al56  1  0.50006345  -0.00107000  0.65810587  1
  Al0+  Al57  1  0.50078348  0.50188630  0.00249708  1
  Al0+  Al58  1  0.49944763  0.50193836  0.33294209  1
  Al0+  Al59  1  0.50224574  0.50208535  0.67130317  1
  Al0+  Al60  1  0.24881965  0.25226687  0.00489644  1
  Al0+  Al61  1  0.25173625  0.24922422  0.33079662  1
  Al0+  Al62  1  0.25010808  0.24986283  0.65998839  1
  Al0+  Al63  1  0.25207353  0.75223765  0.00503243  1
  Al0+  Al64  1  0.24996439  0.75080215  0.33204972  1
  Al0+  Al65  1  0.25071301  0.74954568  0.66144216  1
  Al0+  Al66  1  0.74659783  0.25004537  0.00494024  1
  Al0+  Al67  1  0.74859949  0.24758293  0.33805542  1
  Al0+  Al68  1  0.75106400  0.24847006  0.66570898  1
  Al0+  Al69  1  0.74859414  0.74794056  -0.00494929  1
  Al0+  Al70  1  0.75049837  0.75053735  0.33781617  1
  Al0+  Al71  1  0.75081677  0.75008400  0.66698360  1
  Al0+  Al72  1  0.07231883  0.68061684  0.98664106  1
  Al0+  Al73  1  0.43041402  0.81919103  0.65408958  1
  Al0+  Al74  1  0.67794359  0.42960864  0.35012627  1
  Al0+  Al75  1  0.07231120  0.17583202  0.65193374  1
  Al0+  Al76  1  0.92903554  0.31991005  0.65063504  1
  Al0+  Al77  1  0.82385370  0.57197718  0.34749972  1
  Al0+  Al78  1  0.43032910  0.32279120  0.31695894  1
  Al0+  Al79  1  0.92885130  0.31918971  0.31778693  1
  Al0+  Al80  1  0.17618531  0.42945279  0.01360422  1
  Al0+  Al81  1  0.42976509  0.32433685  0.65495912  1
  Al0+  Al82  1  0.82074388  0.07139848  0.01361767  1
  Al0+  Al83  1  0.67958545  0.42911907  0.01354777  1
  Al0+  Al84  1  0.57183224  0.67781367  0.98523528  1
  Al0+  Al85  1  0.92484183  0.32112830  0.98479076  1
  Al0+  Al86  1  0.07176152  0.17846525  0.98689640  1
  Al0+  Al87  1  0.82079949  0.06942575  0.35013392  1
  Al0+  Al88  1  0.17852782  0.92933565  0.01428918  1
  Al0+  Al89  1  0.67823609  0.92598214  0.01346125  1
  Al0+  Al90  1  0.68259232  0.42948196  0.68238141  1
  Al0+  Al91  1  0.32118766  0.57138991  0.01579924  1
  Al0+  Al92  1  0.31999366  0.57100808  0.68018823  1
  Al0+  Al93  1  0.57118845  0.17794238  0.65311400  1
  Al0+  Al94  1  0.32214153  0.07482317  0.01438278  1
  Al0+  Al95  1  0.07054747  0.68046020  0.65225503  1
  Si0+  Si96  1  0.42867925  0.32233129  0.98657609  1
  Si0+  Si97  1  0.32094228  0.07150416  0.35163242  1
  Si0+  Si98  1  0.07178497  0.17542147  0.31660375  1
  Si0+  Si99  1  0.82288895  0.57176761  0.01217305  1
  Si0+  Si100  1  0.18107435  0.92761921  0.35162849  1
  Si0+  Si101  1  0.57015243  0.68225773  0.31950453  1
  Si0+  Si102  1  0.82097128  0.06884270  0.68260856  1
  Si0+  Si103  1  0.92559331  0.82183827  0.64923347  1
  Si0+  Si104  1  0.56831574  0.17843566  0.98832971  1
  Si0+  Si105  1  0.07188559  0.67929970  0.31710802  1
  Si0+  Si106  1  0.17965115  0.92908038  0.68002959  1
  Si0+  Si107  1  0.42986795  0.82312761  0.98489085  1
  Si0+  Si108  1  0.57087942  0.17633462  0.31370129  1
  Si0+  Si109  1  0.57451381  0.67765258  0.64843720  1
  Si0+  Si110  1  0.18014388  0.42794902  0.34856842  1
  Si0+  Si111  1  0.32138462  0.07086792  0.67778684  1
  Si0+  Si112  1  0.82460343  0.57434431  0.68516701  1
  Si0+  Si113  1  0.67678189  0.92810511  0.68051977  1
  Si0+  Si114  1  0.42694464  0.82247484  0.31527613  1
  Si0+  Si115  1  0.67612464  0.92749680  0.35147417  1
  Si0+  Si116  1  0.17626068  0.42652177  0.68134492  1
  Si0+  Si117  1  0.92951013  0.82089268  0.31932196  1
  Si0+  Si118  1  0.31944171  0.57191183  0.34877899  1
  Si0+  Si119  1  0.92715041  0.82284791  0.98418679  1
  O2-  O120  1  0.24614072  0.00580584  0.06403567  1
  O2-  O121  1  0.24986368  0.00041023  0.39437586  1
  O2-  O122  1  0.24572565  0.00511268  0.72056834  1
  O2-  O123  1  0.24828150  0.50072407  0.06610281  1
  O2-  O124  1  0.25127955  0.49884766  0.39184672  1
  O2-  O125  1  0.24752470  0.49333203  0.72466123  1
  O2-  O126  1  0.75234015  -0.00487860  0.06354433  1
  O2-  O127  1  0.74251564  -0.00261724  0.39711328  1
  O2-  O128  1  0.74809690  -0.00167046  0.72276589  1
  O2-  O129  1  0.75781434  0.50100059  0.05797855  1
  O2-  O130  1  0.75549180  0.49716888  0.39867142  1
  O2-  O131  1  0.75782167  0.50418101  0.72906467  1
  O2-  O132  1  0.00271041  0.24291333  0.27240850  1
  O2-  O133  1  0.00311047  0.24934763  0.60080672  1
  O2-  O134  1  -0.00063252  0.24987196  0.93729417  1
  O2-  O135  1  -0.00441287  0.74556866  0.27679108  1
  O2-  O136  1  -0.00791546  0.75100560  0.60447290  1
  O2-  O137  1  -0.00116913  0.75716152  0.93999074  1
  O2-  O138  1  0.50657938  0.24946589  0.26992356  1
  O2-  O139  1  0.50192512  0.25297464  0.60341317  1
  O2-  O140  1  0.49623771  0.24771598  0.94545451  1
  O2-  O141  1  0.50109987  0.75461324  0.27524497  1
  O2-  O142  1  0.50501530  0.74589440  0.60421702  1
  O2-  O143  1  0.49816771  0.75470104  0.94033830  1
  O2-  O144  1  0.06962563  0.18006897  0.10078398  1
  O2-  O145  1  0.07220075  0.17647866  0.42237533  1
  O2-  O146  1  0.07140728  0.17226238  0.76477947  1
  O2-  O147  1  0.06925352  0.68171214  0.10028059  1
  O2-  O148  1  0.07574855  0.68301406  0.42221757  1
  O2-  O149  1  0.07330407  0.68415891  0.76485189  1
  O2-  O150  1  0.56816549  0.17902841  0.09337660  1
  O2-  O151  1  0.56596919  0.17194272  0.41909070  1
  O2-  O152  1  0.56812736  0.17394354  0.76703626  1
  O2-  O153  1  0.57082065  0.67887433  0.09909075  1
  O2-  O154  1  0.56710633  0.68420520  0.42466615  1
  O2-  O155  1  0.57497101  0.67966188  0.75366190  1
  O2-  O156  1  0.17967335  0.43069467  0.24394569  1
  O2-  O157  1  0.17669121  0.42972856  0.57497604  1
  O2-  O158  1  0.17908025  0.42953505  0.89993996  1
  O2-  O159  1  0.18161882  0.92477552  0.24728165  1
  O2-  O160  1  0.18168010  0.92804425  0.57427594  1
  O2-  O161  1  0.18407378  0.92681131  0.90044082  1
  O2-  O162  1  0.67643195  0.43462847  0.23665271  1
  O2-  O163  1  0.68187819  0.43203875  0.56940821  1
  O2-  O164  1  0.67742417  0.42809404  0.90058365  1
  O2-  O165  1  0.67793791  0.92534941  0.24643282  1
  O2-  O166  1  0.67802859  0.92712901  0.57522280  1
  O2-  O167  1  0.67697793  0.92956525  0.89930887  1
  O2-  O168  1  0.43115843  0.32271712  0.09198883  1
  O2-  O169  1  0.42912665  0.32221002  0.42991286  1
  O2-  O170  1  0.42914207  0.32128115  0.76857194  1
  O2-  O171  1  0.43074523  0.82178669  0.09094924  1
  O2-  O172  1  0.42520897  0.82158804  0.42063097  1
  O2-  O173  1  0.43148269  0.82200912  0.76658599  1
  O2-  O174  1  0.92381297  0.31986330  0.09874648  1
  O2-  O175  1  0.93195102  0.31852038  0.43074657  1
  O2-  O176  1  0.92783212  0.31678849  0.76369773  1
  O2-  O177  1  0.92631304  0.81946317  0.09027676  1
  O2-  O178  1  0.93313557  0.82258826  0.42445995  1
  O2-  O179  1  0.92466447  0.82340422  0.75429880  1
  O2-  O180  1  0.32071668  0.07035795  0.24695828  1
  O2-  O181  1  0.32136109  0.06691441  0.57238305  1
  O2-  O182  1  0.32637733  0.07194985  0.90035479  1
  O2-  O183  1  0.31793745  0.57467318  0.24428375  1
  O2-  O184  1  0.31741026  0.57215004  0.56610503  1
  O2-  O185  1  0.32074962  0.57050969  0.90214168  1
  O2-  O186  1  0.82232163  0.06619957  0.23763168  1
  O2-  O187  1  0.82109615  0.06619122  0.57723094  1
  O2-  O188  1  0.81736380  0.07051515  0.89966984  1
  O2-  O189  1  0.82081909  0.57688691  0.23413580  1
  O2-  O190  1  0.82170104  0.57728426  0.57953825  1
  O2-  O191  1  0.82083973  0.57355134  0.90678016  1
  O2-  O192  1  0.04816194  0.07909124  0.27544275  1
  O2-  O193  1  0.04305383  0.07700547  0.59819163  1
  O2-  O194  1  0.04680629  0.07777913  0.93645341  1
  O2-  O195  1  0.05048527  0.58597433  0.27106384  1
  O2-  O196  1  0.04415239  0.58440449  0.59502943  1
  O2-  O197  1  0.04240683  0.58641940  0.92849008  1
  O2-  O198  1  0.54012276  0.08396164  0.26677856  1
  O2-  O199  1  0.54186219  0.08212048  0.59483184  1
  O2-  O200  1  0.54208675  0.08516593  0.94279969  1
  O2-  O201  1  0.54004310  0.59178447  0.27183697  1
  O2-  O202  1  0.54740579  0.58505971  0.60254132  1
  O2-  O203  1  0.53681839  0.58300616  0.93049498  1
  O2-  O204  1  0.16646172  0.19984856  0.27278856  1
  O2-  O205  1  0.17109383  0.19983995  0.59679466  1
  O2-  O206  1  0.17169874  0.20582481  0.93580981  1
  O2-  O207  1  0.16155796  0.71402742  0.26934629  1
  O2-  O208  1  0.16398906  0.71622396  0.59438701  1
  O2-  O209  1  0.16985474  0.71368697  0.93536986  1
  O2-  O210  1  0.66712012  0.19619513  0.27259046  1
  O2-  O211  1  0.66971962  0.20373587  0.60087827  1
  O2-  O212  1  0.65910753  0.20697720  0.94032059  1
  O2-  O213  1  0.66312644  0.70914022  0.27391382  1
  O2-  O214  1  0.66764005  0.70502976  0.60183914  1
  O2-  O215  1  0.66727835  0.70590797  0.92762377  1
  O2-  O216  1  0.07789235  0.46143439  0.06545753  1
  O2-  O217  1  0.08916584  0.45702185  0.39665866  1
  O2-  O218  1  0.08266578  0.45471866  0.72488846  1
  O2-  O219  1  0.07928392  0.95000658  0.06881004  1
  O2-  O220  1  0.08898560  0.95155337  0.40056506  1
  O2-  O221  1  0.08544705  0.94867441  0.72564314  1
  O2-  O222  1  0.58557310  0.46508512  0.06865002  1
  O2-  O223  1  0.58067719  0.46530772  0.40263725  1
  O2-  O224  1  0.58619160  0.46119296  0.73633189  1
  O2-  O225  1  0.58226092  0.95401015  0.07070106  1
  O2-  O226  1  0.58001203  0.95129439  0.39442248  1
  O2-  O227  1  0.58437442  0.95625883  0.72584583  1
  O2-  O228  1  0.20371910  0.33319174  0.07054559  1
  O2-  O229  1  0.20733247  0.33513485  0.39426431  1
  O2-  O230  1  0.19910927  0.33104883  0.72412356  1
  O2-  O231  1  0.21259999  0.83498545  0.07264081  1
  O2-  O232  1  0.21294777  0.83662401  0.39995262  1
  O2-  O233  1  0.21376522  0.83919708  0.72600913  1
  O2-  O234  1  0.70463949  0.33305603  0.07049974  1
  O2-  O235  1  0.69915133  0.32865334  0.40027519  1
  O2-  O236  1  0.71133203  0.33090776  0.73397810  1
  O2-  O237  1  0.70467028  0.82602653  0.06410574  1
  O2-  O238  1  0.70291003  0.83539231  0.40036623  1
  O2-  O239  1  0.70320672  0.83563143  0.72751063  1
  O2-  O240  1  0.45816373  0.42103038  0.26430372  1
  O2-  O241  1  0.45957270  0.42278419  0.60176067  1
  O2-  O242  1  0.46012965  0.41276243  0.93981130  1
  O2-  O243  1  0.45017995  0.91588187  0.26950275  1
  O2-  O244  1  0.46127724  0.91310511  0.59381588  1
  O2-  O245  1  0.45557949  0.91762300  0.94074473  1
  O2-  O246  1  0.96075250  0.41647386  0.26530548  1
  O2-  O247  1  0.95299133  0.41896872  0.59656696  1
  O2-  O248  1  0.95062133  0.41956718  0.93123590  1
  O2-  O249  1  0.96340002  0.91059002  0.27133150  1
  O2-  O250  1  0.95529863  0.91326108  0.60073460  1
  O2-  O251  1  0.94895844  0.91782510  0.94046772  1
  O2-  O252  1  0.33393205  0.28881339  0.26365397  1
  O2-  O253  1  0.33227830  0.29755501  0.59890982  1
  O2-  O254  1  0.33526302  0.29911456  0.94172423  1
  O2-  O255  1  0.33613693  0.79117468  0.26821136  1
  O2-  O256  1  0.33600217  0.78762407  0.59530369  1
  O2-  O257  1  0.33631790  0.79808671  0.93959660  1
  O2-  O258  1  0.82949570  0.28938837  0.26928815  1
  O2-  O259  1  0.83288429  0.28598627  0.59674536  1
  O2-  O260  1  0.82640107  0.28841902  0.93399557  1
  O2-  O261  1  0.83499779  0.79955752  0.27486378  1
  O2-  O262  1  0.83133062  0.79977693  0.60186576  1
  O2-  O263  1  0.83518362  0.79584131  0.93557964  1
  O2-  O264  1  0.41606378  0.04135583  0.07409579  1
  O2-  O265  1  0.41258295  0.04140344  0.39831634  1
  O2-  O266  1  0.41213589  0.03751250  0.72378815  1
  O2-  O267  1  0.41805360  0.54071392  0.06996979  1
  O2-  O268  1  0.41211486  0.54728857  0.39543724  1
  O2-  O269  1  0.41823120  0.54720184  0.73311692  1
  O2-  O270  1  0.91827679  0.04564419  0.06903139  1
  O2-  O271  1  0.91597100  0.03340731  0.40519762  1
  O2-  O272  1  0.91217725  0.03769089  0.72911506  1
  O2-  O273  1  0.91788682  0.55188172  0.05678584  1
  O2-  O274  1  0.92510914  0.54814259  0.39751648  1
  O2-  O275  1  0.92080434  0.55109907  0.72622829  1
  O2-  O276  1  0.29692327  0.17227770  0.07016209  1
  O2-  O277  1  0.29392674  0.16388483  0.39834173  1
  O2-  O278  1  0.30022147  0.16501937  0.72275905  1
  O2-  O279  1  0.29626973  0.67002830  0.06933679  1
  O2-  O280  1  0.28905469  0.66385510  0.39605158  1
  O2-  O281  1  0.28623067  0.66785259  0.73184457  1
  O2-  O282  1  0.78496019  0.16533414  0.07004021  1
  O2-  O283  1  0.79039439  0.16486305  0.40585203  1
  O2-  O284  1  0.79422234  0.16031123  0.72914311  1
  O2-  O285  1  0.79503898  0.66450688  0.05905951  1
  O2-  O286  1  0.79458170  0.67007638  0.40304005  1
  O2-  O287  1  0.79955742  0.66865012  0.73060897  1
