# generated using pymatgen
data_Ca2Al2SiO7
_symmetry_space_group_name_H-M   'P 1'
_cell_length_a   15.46154821
_cell_length_b   15.46165632
_cell_length_c   15.28627872
_cell_angle_alpha   90.01431907
_cell_angle_beta   89.99989244
_cell_angle_gamma   89.99283323
_symmetry_Int_Tables_number   1
_chemical_formula_structural   Ca2Al2SiO7
_chemical_formula_sum   'Ca48 Al48 Si24 O168'
_cell_volume   3654.35514324
_cell_formula_units_Z   24
loop_
 _symmetry_equiv_pos_site_id
 _symmetry_equiv_pos_as_xyz
  1  'x, y, z'
loop_
 _atom_type_symbol
 _atom_type_oxidation_number
  Ca2+  2.0
  Al0+  0.0
  Si0+  0.0
  O2-  -2.0
loop_
 _atom_site_type_symbol
 _atom_site_label
 _atom_site_symmetry_multiplicity
 _atom_site_fract_x
 _atom_site_fract_y
 _atom_site_fract_z
 _atom_site_occupancy
  Ca2+  Ca0  1  0.15584054  0.07038870  0.17304154  1
  Ca2+  Ca1  1  0.15639772  0.07636870  0.49889101  1
  Ca2+  Ca2  1  0.16736467  0.07519079  0.84042217  1
  Ca2+  Ca3  1  0.16454550  0.58577566  0.16626232  1
  Ca2+  Ca4  1  0.16619984  0.58092442  0.50722529  1
  Ca2+  Ca5  1  0.16908278  0.58460426  0.83556492  1
  Ca2+  Ca6  1  0.66594053  0.08039292  0.16997129  1
  Ca2+  Ca7  1  0.67167211  0.08720583  0.50387534  1
  Ca2+  Ca8  1  0.67556023  0.07550522  0.83767679  1
  Ca2+  Ca9  1  0.67839438  0.57275263  0.17497903  1
  Ca2+  Ca10  1  0.67400225  0.57897339  0.49761182  1
  Ca2+  Ca11  1  0.67099848  0.57768130  0.84235773  1
  Ca2+  Ca12  1  0.07230600  0.33696799  0.16051208  1
  Ca2+  Ca13  1  0.07531095  0.33175293  0.49245076  1
  Ca2+  Ca14  1  0.07563221  0.34348290  0.82981895  1
  Ca2+  Ca15  1  0.08435628  0.82470109  0.15967989  1
  Ca2+  Ca16  1  0.08384505  0.82121726  0.49434606  1
  Ca2+  Ca17  1  0.08276897  0.82425475  0.83070922  1
  Ca2+  Ca18  1  0.58560785  0.33683513  0.16664144  1
  Ca2+  Ca19  1  0.57776599  0.32964404  0.48668641  1
  Ca2+  Ca20  1  0.58426469  0.33594688  0.83203296  1
  Ca2+  Ca21  1  0.57738463  0.83589127  0.16184402  1
  Ca2+  Ca22  1  0.56912158  0.83391864  0.49487465  1
  Ca2+  Ca23  1  0.57817991  0.83420038  0.82877990  1
  Ca2+  Ca24  1  0.32924192  0.42181544  0.16950900  1
  Ca2+  Ca25  1  0.32531186  0.41914925  0.51023772  1
  Ca2+  Ca26  1  0.31816131  0.42887645  0.84086218  1
  Ca2+  Ca27  1  0.32063348  0.91357561  0.17383387  1
  Ca2+  Ca28  1  0.33073621  0.91083637  0.49987762  1
  Ca2+  Ca29  1  0.32800846  0.91411558  0.83836937  1
  Ca2+  Ca30  1  0.83004105  0.41408810  0.17492766  1
  Ca2+  Ca31  1  0.83633629  0.41423362  0.49865958  1
  Ca2+  Ca32  1  0.83263488  0.41388501  0.83955220  1
  Ca2+  Ca33  1  0.82905207  0.90958734  0.16986212  1
  Ca2+  Ca34  1  0.83714337  0.92584007  0.51001961  1
  Ca2+  Ca35  1  0.83963702  0.91885550  0.83933433  1
  Ca2+  Ca36  1  0.42071421  0.17314790  0.17008277  1
  Ca2+  Ca37  1  0.42422558  0.17445797  0.48775182  1
  Ca2+  Ca38  1  0.41995112  0.16741777  0.83041881  1
  Ca2+  Ca39  1  0.41286780  0.66955744  0.16347113  1
  Ca2+  Ca40  1  0.40802814  0.67481665  0.49804932  1
  Ca2+  Ca41  1  0.41220112  0.66622214  0.82807210  1
  Ca2+  Ca42  1  0.91943706  0.17679316  0.16719228  1
  Ca2+  Ca43  1  0.91784448  0.17550059  0.49600975  1
  Ca2+  Ca44  1  0.91375144  0.17640472  0.82925071  1
  Ca2+  Ca45  1  0.92712061  0.66552966  0.16049383  1
  Ca2+  Ca46  1  0.92851012  0.66316738  0.49522033  1
  Ca2+  Ca47  1  0.92820848  0.67591549  0.82796151  1
  Al0+  Al48  1  0.00035371  0.00329909  0.00230481  1
  Al0+  Al49  1  -0.00208055  -0.00180032  0.33656665  1
  Al0+  Al50  1  -0.00058039  0.00186319  0.67190365  1
  Al0+  Al51  1  0.00125605  0.50121795  -0.00676924  1
  Al0+  Al52  1  0.00137887  0.50115296  0.32930998  1
  Al0+  Al53  1  -0.00293009  0.49978995  0.66251726  1
  Al0+  Al54  1  0.50235129  0.00160057  0.00221238  1
  Al0+  Al55  1  0.49757168  0.00050694  0.32571648  1
  Al0+  Al56  1  0.50029347  -0.00075634  0.66327991  1
  Al0+  Al57  1  0.50019513  0.50048504  0.00619767  1
  Al0+  Al58  1  0.50072782  0.50184560  0.33477397  1
  Al0+  Al59  1  0.50012773  0.49986796  0.66929857  1
  Al0+  Al60  1  0.25168476  0.25188071  0.00260905  1
  Al0+  Al61  1  0.25161936  0.24695777  0.32572365  1
  Al0+  Al62  1  0.24957805  0.24822142  0.67191784  1
  Al0+  Al63  1  0.25089608  0.75232152  0.00289633  1
  Al0+  Al64  1  0.24831931  0.75074963  0.33007611  1
  Al0+  Al65  1  0.25110727  0.75012178  0.66268278  1
  Al0+  Al66  1  0.74943975  0.24778569  -0.00073363  1
  Al0+  Al67  1  0.74887421  0.24764833  0.33016572  1
  Al0+  Al68  1  0.75124489  0.24759540  0.66816965  1
  Al0+  Al69  1  0.74799425  0.75086841  0.00053983  1
  Al0+  Al70  1  0.74846076  0.74891431  0.34191894  1
  Al0+  Al71  1  0.74775114  0.74953224  0.66333086  1
  Al0+  Al72  1  0.82446118  0.57067088  0.34948112  1
  Al0+  Al73  1  0.32082399  0.57172776  0.68035996  1
  Al0+  Al74  1  0.07003452  0.68051653  0.64985904  1
  Al0+  Al75  1  0.07129473  0.17509181  0.31914974  1
  Al0+  Al76  1  0.82092126  0.07030439  0.68182718  1
  Al0+  Al77  1  0.93111574  0.32043670  0.31804617  1
  Al0+  Al78  1  0.92898007  0.31949988  0.98529354  1
  Al0+  Al79  1  0.07016919  0.67984408  0.31816890  1
  Al0+  Al80  1  0.57162049  0.17963357  0.31708654  1
  Al0+  Al81  1  0.17569918  0.42709083  0.68014919  1
  Al0+  Al82  1  0.17860020  0.92902441  0.34937709  1
  Al0+  Al83  1  0.42771264  0.32543875  0.31812322  1
  Al0+  Al84  1  0.42968201  0.81871495  0.31700133  1
  Al0+  Al85  1  0.43055976  0.81995503  0.65372222  1
  Al0+  Al86  1  0.92651396  0.82275853  0.98717602  1
  Al0+  Al87  1  0.92884101  0.31963900  0.65255001  1
  Al0+  Al88  1  0.17633103  0.42946857  0.01706946  1
  Al0+  Al89  1  0.92742773  0.82406667  0.65159422  1
  Al0+  Al90  1  0.67959159  0.92830011  0.01379926  1
  Al0+  Al91  1  0.67977045  0.42712559  0.34982007  1
  Al0+  Al92  1  0.17980089  0.93212673  0.01330884  1
  Al0+  Al93  1  0.68085160  0.42778050  0.01311107  1
  Al0+  Al94  1  0.32025218  0.57221780  0.01697353  1
  Al0+  Al95  1  0.07342375  0.68044814  0.98269168  1
  Si0+  Si96  1  0.82029728  0.57232095  0.68251578  1
  Si0+  Si97  1  0.92545807  0.82188159  0.31999012  1
  Si0+  Si98  1  0.07492539  0.17723657  0.65245973  1
  Si0+  Si99  1  0.67614573  0.92812625  0.68142828  1
  Si0+  Si100  1  0.56981429  0.17866251  0.98187088  1
  Si0+  Si101  1  0.32474461  0.07120674  0.68095172  1
  Si0+  Si102  1  0.32267558  0.07107907  0.35043090  1
  Si0+  Si103  1  0.42954051  0.32336614  0.98297598  1
  Si0+  Si104  1  0.57450408  0.67877713  0.31590135  1
  Si0+  Si105  1  0.07449631  0.17868987  0.98289705  1
  Si0+  Si106  1  0.56989775  0.67811525  0.98619570  1
  Si0+  Si107  1  0.81913948  0.06855161  0.34884653  1
  Si0+  Si108  1  0.32021143  0.57155087  0.34821915  1
  Si0+  Si109  1  0.82150846  0.07173382  0.01902487  1
  Si0+  Si110  1  0.42865599  0.32065833  0.65536007  1
  Si0+  Si111  1  0.67989553  0.42819268  0.68115523  1
  Si0+  Si112  1  0.43084557  0.82215197  0.98530750  1
  Si0+  Si113  1  0.18085828  0.92999871  0.68097188  1
  Si0+  Si114  1  0.57307464  0.67358113  0.64886858  1
  Si0+  Si115  1  0.18047755  0.42649307  0.34608485  1
  Si0+  Si116  1  0.82190317  0.57270507  0.01321152  1
  Si0+  Si117  1  0.67488095  0.92856252  0.34972240  1
  Si0+  Si118  1  0.56984364  0.18003381  0.65357171  1
  Si0+  Si119  1  0.32485031  0.07390368  0.01782227  1
  O2-  O120  1  0.25245045  0.00916241  0.06063756  1
  O2-  O121  1  0.25128354  0.00634233  0.39665100  1
  O2-  O122  1  0.25262501  0.00137972  0.72256069  1
  O2-  O123  1  0.24732932  0.50200606  0.06784961  1
  O2-  O124  1  0.25461753  0.49464322  0.38888951  1
  O2-  O125  1  0.24729509  0.50076117  0.72875312  1
  O2-  O126  1  0.75848926  -0.00285660  0.06226355  1
  O2-  O127  1  0.74780616  -0.00272878  0.39172177  1
  O2-  O128  1  0.75092728  -0.01050799  0.72636349  1
  O2-  O129  1  0.75895627  0.49886965  0.05792558  1
  O2-  O130  1  0.75383952  0.49654192  0.40034870  1
  O2-  O131  1  0.74867953  0.50084668  0.72408262  1
  O2-  O132  1  0.00602080  0.25170345  0.26762652  1
  O2-  O133  1  0.00950874  0.24936751  0.60940746  1
  O2-  O134  1  0.00828635  0.24921440  0.93794213  1
  O2-  O135  1  -0.00864091  0.75200291  0.27497596  1
  O2-  O136  1  -0.00273657  0.75200074  0.59935660  1
  O2-  O137  1  -0.00030595  0.75308143  0.93596288  1
  O2-  O138  1  0.50336923  0.25613260  0.26847184  1
  O2-  O139  1  0.49904269  0.25046854  0.61132372  1
  O2-  O140  1  0.49949188  0.25067265  0.93975613  1
  O2-  O141  1  0.50587855  0.74626475  0.26966666  1
  O2-  O142  1  0.50372833  0.74332171  0.60723005  1
  O2-  O143  1  0.49962827  0.74947136  0.94251320  1
  O2-  O144  1  0.07158420  0.17654760  0.08806861  1
  O2-  O145  1  0.06720258  0.17573676  0.43324828  1
  O2-  O146  1  0.07547533  0.17441083  0.75788707  1
  O2-  O147  1  0.07265517  0.68236691  0.09628364  1
  O2-  O148  1  0.07298072  0.68013958  0.43112045  1
  O2-  O149  1  0.07138961  0.68329821  0.76305314  1
  O2-  O150  1  0.56888945  0.17645161  0.08631059  1
  O2-  O151  1  0.56909937  0.17824408  0.43162961  1
  O2-  O152  1  0.56806677  0.17941398  0.75893820  1
  O2-  O153  1  0.56976716  0.67961582  0.09087832  1
  O2-  O154  1  0.57385468  0.68129799  0.42170137  1
  O2-  O155  1  0.57481954  0.67276289  0.75475197  1
  O2-  O156  1  0.18021737  0.42877758  0.24136750  1
  O2-  O157  1  0.18016398  0.42330812  0.56601368  1
  O2-  O158  1  0.17920747  0.42817342  0.90359206  1
  O2-  O159  1  0.18003573  0.92910479  0.23646728  1
  O2-  O160  1  0.18144580  0.93122305  0.57596413  1
  O2-  O161  1  0.18420840  0.93253570  0.89943959  1
  O2-  O162  1  0.68158873  0.42955229  0.23623601  1
  O2-  O163  1  0.67850323  0.42696080  0.57667767  1
  O2-  O164  1  0.67971060  0.43013227  0.89900964  1
  O2-  O165  1  0.67631722  0.92837715  0.24451238  1
  O2-  O166  1  0.67131484  0.93406380  0.57610162  1
  O2-  O167  1  0.67354622  0.93262774  0.90083812  1
  O2-  O168  1  0.43101579  0.32245258  0.08758298  1
  O2-  O169  1  0.42717390  0.32210958  0.43290056  1
  O2-  O170  1  0.43174958  0.31847401  0.76059461  1
  O2-  O171  1  0.43307031  0.82284788  0.09012703  1
  O2-  O172  1  0.43027477  0.81781476  0.43042852  1
  O2-  O173  1  0.43300948  0.82350498  0.76706880  1
  O2-  O174  1  0.92623567  0.31640149  0.09778878  1
  O2-  O175  1  0.93129693  0.31786080  0.43182532  1
  O2-  O176  1  0.92466428  0.31685388  0.76562254  1
  O2-  O177  1  0.92482684  0.81853894  0.10089140  1
  O2-  O178  1  0.92826656  0.82398546  0.42543735  1
  O2-  O179  1  0.93009954  0.82295173  0.76502536  1
  O2-  O180  1  0.32590805  0.06720239  0.24514847  1
  O2-  O181  1  0.32875978  0.07285359  0.57657844  1
  O2-  O182  1  0.32729112  0.07129691  0.91131872  1
  O2-  O183  1  0.31870863  0.57290881  0.24338770  1
  O2-  O184  1  0.32223599  0.56871472  0.56643089  1
  O2-  O185  1  0.32291846  0.57065751  0.90346141  1
  O2-  O186  1  0.81914453  0.06639426  0.24388179  1
  O2-  O187  1  0.81602476  0.07323094  0.56864039  1
  O2-  O188  1  0.81727794  0.07359219  0.91317609  1
  O2-  O189  1  0.82190170  0.57252163  0.23574000  1
  O2-  O190  1  0.81941124  0.57184477  0.57780159  1
  O2-  O191  1  0.81627274  0.57390543  0.90719406  1
  O2-  O192  1  0.03501873  0.07870570  0.26639920  1
  O2-  O193  1  0.04455862  0.08522018  0.60623137  1
  O2-  O194  1  0.04672143  0.08596878  0.93547664  1
  O2-  O195  1  0.04281075  0.58360151  0.26297210  1
  O2-  O196  1  0.04065180  0.58208474  0.59774995  1
  O2-  O197  1  0.04677649  0.58252969  0.92850216  1
  O2-  O198  1  0.53864044  0.08379555  0.26147522  1
  O2-  O199  1  0.54279030  0.08881427  0.60505645  1
  O2-  O200  1  0.53938543  0.08775549  0.93270705  1
  O2-  O201  1  0.55019902  0.58476914  0.27146675  1
  O2-  O202  1  0.54737108  0.58016587  0.60224089  1
  O2-  O203  1  0.54190779  0.58630292  0.93816367  1
  O2-  O204  1  0.17264187  0.19071667  0.26879494  1
  O2-  O205  1  0.17053716  0.19638286  0.60674901  1
  O2-  O206  1  0.17099153  0.19879295  0.93938964  1
  O2-  O207  1  0.16407157  0.71525825  0.26308100  1
  O2-  O208  1  0.16847329  0.70933676  0.59717989  1
  O2-  O209  1  0.17190245  0.71326314  0.93142419  1
  O2-  O210  1  0.66996615  0.20164079  0.26258762  1
  O2-  O211  1  0.66101229  0.20859172  0.60667724  1
  O2-  O212  1  0.66129745  0.20581451  0.93380005  1
  O2-  O213  1  0.66834435  0.70528446  0.27114794  1
  O2-  O214  1  0.66557717  0.69892204  0.60080670  1
  O2-  O215  1  0.66076165  0.70592108  0.93669406  1
  O2-  O216  1  0.07630648  0.45693398  0.06657513  1
  O2-  O217  1  0.08952488  0.45697941  0.39294623  1
  O2-  O218  1  0.07616335  0.45509957  0.73020941  1
  O2-  O219  1  0.08284151  0.96100709  0.06785759  1
  O2-  O220  1  0.08154735  0.95876211  0.40403295  1
  O2-  O221  1  0.09041195  0.95855171  0.73005115  1
  O2-  O222  1  0.58595334  0.46012879  0.06776398  1
  O2-  O223  1  0.58101279  0.45819953  0.40270489  1
  O2-  O224  1  0.58758081  0.45392566  0.72965128  1
  O2-  O225  1  0.58521408  0.96486302  0.06958608  1
  O2-  O226  1  0.58314425  0.96030369  0.39490251  1
  O2-  O227  1  0.58557977  0.96143798  0.73064316  1
  O2-  O228  1  0.20569535  0.33023194  0.06850127  1
  O2-  O229  1  0.20548542  0.33238149  0.39088478  1
  O2-  O230  1  0.20454106  0.32899164  0.73519064  1
  O2-  O231  1  0.21377074  0.83786186  0.06832187  1
  O2-  O232  1  0.21531451  0.83373298  0.40256564  1
  O2-  O233  1  0.21183700  0.83925953  0.72753755  1
  O2-  O234  1  0.70655580  0.32921887  0.06456165  1
  O2-  O235  1  0.70401008  0.32613471  0.39993224  1
  O2-  O236  1  0.70855241  0.33686666  0.72930002  1
  O2-  O237  1  0.70301343  0.83042132  0.06898525  1
  O2-  O238  1  0.69692291  0.83633014  0.39864749  1
  O2-  O239  1  0.69148825  0.83075849  0.72343288  1
  O2-  O240  1  0.45373941  0.42480734  0.26664230  1
  O2-  O241  1  0.45587938  0.41243862  0.60838480  1
  O2-  O242  1  0.46140594  0.41424722  0.93635637  1
  O2-  O243  1  0.45859767  0.91490155  0.26248660  1
  O2-  O244  1  0.46262569  0.91580567  0.59735133  1
  O2-  O245  1  0.46102310  0.91403814  0.93843837  1
  O2-  O246  1  0.95685730  0.41883764  0.26528560  1
  O2-  O247  1  0.95240439  0.41704865  0.59822812  1
  O2-  O248  1  0.95405537  0.41745797  0.93110522  1
  O2-  O249  1  0.95048658  0.91485040  0.27334939  1
  O2-  O250  1  0.95538635  0.92452632  0.60260014  1
  O2-  O251  1  0.95218365  0.92406497  0.93845236  1
  O2-  O252  1  0.33271943  0.29273602  0.26115488  1
  O2-  O253  1  0.33662986  0.29204899  0.60935709  1
  O2-  O254  1  0.33752517  0.29546374  0.93556829  1
  O2-  O255  1  0.33439406  0.78586253  0.26343647  1
  O2-  O256  1  0.33512176  0.79147601  0.59705249  1
  O2-  O257  1  0.33882485  0.79655112  0.93846905  1
  O2-  O258  1  0.83342140  0.28820190  0.26695899  1
  O2-  O259  1  0.83364474  0.28246282  0.59890296  1
  O2-  O260  1  0.83292945  0.28388943  0.93106284  1
  O2-  O261  1  0.82900434  0.79963664  0.27838416  1
  O2-  O262  1  0.82568590  0.80209451  0.60215595  1
  O2-  O263  1  0.82689786  0.79640377  0.93386940  1
  O2-  O264  1  0.41694710  0.04492850  0.06415717  1
  O2-  O265  1  0.41545837  0.04108709  0.39714891  1
  O2-  O266  1  0.41559880  0.04132273  0.73052533  1
  O2-  O267  1  0.41796065  0.54217287  0.07089161  1
  O2-  O268  1  0.41470985  0.55262289  0.39421783  1
  O2-  O269  1  0.41985665  0.54388046  0.73409286  1
  O2-  O270  1  0.91713046  0.05538728  0.06308219  1
  O2-  O271  1  0.90941830  0.04067757  0.39923145  1
  O2-  O272  1  0.91802644  0.04606554  0.73844659  1
  O2-  O273  1  0.91773389  0.55268300  0.05440117  1
  O2-  O274  1  0.92334356  0.54215597  0.40175395  1
  O2-  O275  1  0.91134423  0.54387435  0.72970732  1
  O2-  O276  1  0.30577330  0.16944066  0.06136305  1
  O2-  O277  1  0.30252795  0.16715859  0.39424693  1
  O2-  O278  1  0.29889118  0.16184818  0.73235322  1
  O2-  O279  1  0.29617857  0.67194914  0.06852764  1
  O2-  O280  1  0.28623101  0.66141346  0.39544140  1
  O2-  O281  1  0.29517728  0.67172652  0.73179733  1
  O2-  O282  1  0.78622491  0.16140279  0.06622475  1
  O2-  O283  1  0.78981699  0.15982442  0.39620124  1
  O2-  O284  1  0.78254740  0.16358844  0.73860669  1
  O2-  O285  1  0.79046385  0.66325880  0.06138020  1
  O2-  O286  1  0.79265245  0.66751364  0.40620252  1
  O2-  O287  1  0.79141418  0.66444323  0.72955409  1
