# generated using pymatgen
data_Ca2Al2SiO7
_symmetry_space_group_name_H-M   'P 1'
_cell_length_a   15.45461463
_cell_length_b   15.45420037
_cell_length_c   15.28051237
_cell_angle_alpha   89.98753334
_cell_angle_beta   90.01163122
_cell_angle_gamma   89.98916525
_symmetry_Int_Tables_number   1
_chemical_formula_structural   Ca2Al2SiO7
_chemical_formula_sum   'Ca48 Al48 Si24 O168'
_cell_volume   3649.57765334
_cell_formula_units_Z   24
loop_
 _symmetry_equiv_pos_site_id
 _symmetry_equiv_pos_as_xyz
  1  'x, y, z'
loop_
 _atom_type_symbol
 _atom_type_oxidation_number
  Ca2+  2.0
  Al0+  0.0
  Si0+  0.0
  O2-  -2.0
loop_
 _atom_site_type_symbol
 _atom_site_label
 _atom_site_symmetry_multiplicity
 _atom_site_fract_x
 _atom_site_fract_y
 _atom_site_fract_z
 _atom_site_occupancy
  Ca2+  Ca0  1  0.16847607  0.08172234  0.17024856  1
  Ca2+  Ca1  1  0.17636135  0.08825482  0.50472549  1
  Ca2+  Ca2  1  0.16098847  0.07786963  0.84188109  1
  Ca2+  Ca3  1  0.16533421  0.57807158  0.17488060  1
  Ca2+  Ca4  1  0.16191052  0.58021839  0.50173839  1
  Ca2+  Ca5  1  0.16584140  0.58702210  0.83968890  1
  Ca2+  Ca6  1  0.67563845  0.08245540  0.17859937  1
  Ca2+  Ca7  1  0.67422631  0.09098826  0.50577344  1
  Ca2+  Ca8  1  0.67671280  0.08874191  0.83569924  1
  Ca2+  Ca9  1  0.66995370  0.58270527  0.17264215  1
  Ca2+  Ca10  1  0.65174715  0.57266243  0.50302129  1
  Ca2+  Ca11  1  0.66559971  0.58155486  0.83950710  1
  Ca2+  Ca12  1  0.07748097  0.32795842  0.15785683  1
  Ca2+  Ca13  1  0.08208091  0.33042252  0.49509289  1
  Ca2+  Ca14  1  0.07349376  0.32163070  0.83284701  1
  Ca2+  Ca15  1  0.08637289  0.82498461  0.16127421  1
  Ca2+  Ca16  1  0.08186591  0.82173203  0.49608864  1
  Ca2+  Ca17  1  0.08611095  0.82585655  0.83041275  1
  Ca2+  Ca18  1  0.57534693  0.33429193  0.16749116  1
  Ca2+  Ca19  1  0.58553013  0.32715005  0.49203855  1
  Ca2+  Ca20  1  0.58109858  0.33223667  0.82890052  1
  Ca2+  Ca21  1  0.59288775  0.82549413  0.16577027  1
  Ca2+  Ca22  1  0.58744150  0.82553256  0.49358574  1
  Ca2+  Ca23  1  0.58240640  0.82247495  0.82606627  1
  Ca2+  Ca24  1  0.32880959  0.40983928  0.17461755  1
  Ca2+  Ca25  1  0.32991182  0.41284093  0.49818022  1
  Ca2+  Ca26  1  0.33357263  0.41753855  0.83872568  1
  Ca2+  Ca27  1  0.32657956  0.92229192  0.17093420  1
  Ca2+  Ca28  1  0.33981678  0.92067006  0.50169081  1
  Ca2+  Ca29  1  0.32914177  0.91391174  0.83769413  1
  Ca2+  Ca30  1  0.83141320  0.41965796  0.16952805  1
  Ca2+  Ca31  1  0.81778049  0.41628788  0.50380951  1
  Ca2+  Ca32  1  0.82750712  0.41997290  0.83909668  1
  Ca2+  Ca33  1  0.83033116  0.92901875  0.17299899  1
  Ca2+  Ca34  1  0.82667632  0.92571125  0.49956701  1
  Ca2+  Ca35  1  0.83783605  0.92850620  0.83829180  1
  Ca2+  Ca36  1  0.41623302  0.17398851  0.16803536  1
  Ca2+  Ca37  1  0.42975700  0.16829937  0.48932476  1
  Ca2+  Ca38  1  0.42269614  0.17338367  0.82853381  1
  Ca2+  Ca39  1  0.43197925  0.66280005  0.16326921  1
  Ca2+  Ca40  1  0.42496568  0.67396733  0.49883225  1
  Ca2+  Ca41  1  0.42736197  0.67288647  0.82733057  1
  Ca2+  Ca42  1  0.91458819  0.17072581  0.15797594  1
  Ca2+  Ca43  1  0.91839409  0.15962524  0.49896799  1
  Ca2+  Ca44  1  0.92093279  0.16180700  0.83047445  1
  Ca2+  Ca45  1  0.92589032  0.66248965  0.15893516  1
  Ca2+  Ca46  1  0.92619042  0.66241979  0.49511842  1
  Ca2+  Ca47  1  0.92503906  0.66162473  0.83271548  1
  Al0+  Al48  1  0.00057136  -0.00251308  0.00817763  1
  Al0+  Al49  1  0.00055666  -0.00221396  0.33769318  1
  Al0+  Al50  1  0.00135447  -0.00034466  0.66499686  1
  Al0+  Al51  1  -0.00082281  0.49813115  -0.00495672  1
  Al0+  Al52  1  0.00112389  0.49834962  0.33435329  1
  Al0+  Al53  1  -0.00119397  0.49792135  0.66407692  1
  Al0+  Al54  1  0.49903674  -0.00001507  0.00130765  1
  Al0+  Al55  1  0.49992274  -0.00127283  0.33498774  1
  Al0+  Al56  1  0.50019641  0.00186419  0.66367470  1
  Al0+  Al57  1  0.49899047  0.49996692  -0.00774943  1
  Al0+  Al58  1  0.49820233  0.50184904  0.33002625  1
  Al0+  Al59  1  0.49614145  0.50083480  0.66977111  1
  Al0+  Al60  1  0.25024235  0.24996237  -0.00898777  1
  Al0+  Al61  1  0.24907715  0.24955905  0.33957507  1
  Al0+  Al62  1  0.24789432  0.25019912  0.66700954  1
  Al0+  Al63  1  0.25176251  0.74958516  0.00330543  1
  Al0+  Al64  1  0.25047654  0.74873528  0.32960478  1
  Al0+  Al65  1  0.25011569  0.74964012  0.65826169  1
  Al0+  Al66  1  0.74796357  0.25199233  0.00182780  1
  Al0+  Al67  1  0.75145000  0.25215846  0.33671119  1
  Al0+  Al68  1  0.74977094  0.25264453  0.67438875  1
  Al0+  Al69  1  0.75271615  0.74866325  -0.00132877  1
  Al0+  Al70  1  0.75374623  0.75295400  0.33339531  1
  Al0+  Al71  1  0.75168802  0.74954086  0.66275269  1
  Al0+  Al72  1  0.92571774  0.32124103  0.98470454  1
  Al0+  Al73  1  0.81955395  0.07189043  0.01440560  1
  Al0+  Al74  1  0.57170369  0.68056250  0.31892817  1
  Al0+  Al75  1  0.57321511  0.68055998  0.98604308  1
  Al0+  Al76  1  0.42784645  0.32003506  0.32001508  1
  Al0+  Al77  1  0.67686296  0.43186188  0.68221564  1
  Al0+  Al78  1  0.82124366  0.07357334  0.35008515  1
  Al0+  Al79  1  0.17863077  0.42934083  0.34644693  1
  Al0+  Al80  1  0.07009896  0.17788869  0.65155080  1
  Al0+  Al81  1  0.82066032  0.06925696  0.68264416  1
  Al0+  Al82  1  0.18012269  0.92765182  0.01383700  1
  Al0+  Al83  1  0.06938602  0.17635758  0.98719898  1
  Al0+  Al84  1  0.67778320  0.43287580  0.34480309  1
  Al0+  Al85  1  0.57184517  0.18288073  0.65483889  1
  Al0+  Al86  1  0.42884033  0.32011948  0.98504640  1
  Al0+  Al87  1  0.57421540  0.17810167  0.31819626  1
  Al0+  Al88  1  0.07008279  0.67795814  0.31757399  1
  Al0+  Al89  1  0.07230536  0.67885484  0.98734935  1
  Al0+  Al90  1  0.42914921  0.82212998  0.65167077  1
  Al0+  Al91  1  0.82177072  0.56996027  0.01307335  1
  Al0+  Al92  1  0.67855583  0.92791404  0.34850275  1
  Al0+  Al93  1  0.31920593  0.07041329  0.34711621  1
  Al0+  Al94  1  0.57285144  0.67810677  0.65119734  1
  Al0+  Al95  1  0.06942429  0.67822722  0.65255155  1
  Si0+  Si96  1  0.82424520  0.57266038  0.68251645  1
  Si0+  Si97  1  0.92954098  0.32029016  0.31976745  1
  Si0+  Si98  1  0.92843816  0.82419682  0.64918648  1
  Si0+  Si99  1  0.32235589  0.07245407  0.68304229  1
  Si0+  Si100  1  0.57181102  0.17609767  0.98437103  1
  Si0+  Si101  1  0.92934455  0.82144326  0.98397213  1
  Si0+  Si102  1  0.17871700  0.92523788  0.35243446  1
  Si0+  Si103  1  0.17651667  0.42797069  0.68459815  1
  Si0+  Si104  1  0.92802825  0.32074508  0.64848461  1
  Si0+  Si105  1  0.18148068  0.92877231  0.68012590  1
  Si0+  Si106  1  0.93021117  0.82314116  0.31441351  1
  Si0+  Si107  1  0.67700947  0.92716225  0.01437114  1
  Si0+  Si108  1  0.32186918  0.57313292  0.35042652  1
  Si0+  Si109  1  0.67488594  0.42999577  0.01801534  1
  Si0+  Si110  1  0.31690367  0.57159966  0.68242279  1
  Si0+  Si111  1  0.32247216  0.07430904  0.01541389  1
  Si0+  Si112  1  0.42835149  0.82285602  0.98554500  1
  Si0+  Si113  1  0.82334873  0.57245479  0.34932635  1
  Si0+  Si114  1  0.18017699  0.42877963  0.01200460  1
  Si0+  Si115  1  0.42710800  0.82330223  0.31366378  1
  Si0+  Si116  1  0.32160481  0.57031597  0.01468678  1
  Si0+  Si117  1  0.42585401  0.32276388  0.64945571  1
  Si0+  Si118  1  0.67671966  0.92639505  0.68376577  1
  Si0+  Si119  1  0.07107501  0.17792999  0.32059227  1
  O2-  O120  1  0.25286089  0.00561817  0.05837702  1
  O2-  O121  1  0.24683161  -0.00587126  0.39674190  1
  O2-  O122  1  0.25161220  0.00023356  0.72405563  1
  O2-  O123  1  0.25007138  0.49970280  0.05644045  1
  O2-  O124  1  0.25224884  0.50480461  0.39432687  1
  O2-  O125  1  0.24658521  0.50015220  0.72635009  1
  O2-  O126  1  0.74136985  -0.00019267  0.05865887  1
  O2-  O127  1  0.74404266  0.00606614  0.39888588  1
  O2-  O128  1  0.74583497  -0.00592186  0.72955607  1
  O2-  O129  1  0.74582763  0.49716076  0.06096364  1
  O2-  O130  1  0.74876139  0.51068592  0.39374647  1
  O2-  O131  1  0.74899279  0.51093399  0.72622034  1
  O2-  O132  1  -0.00292238  0.24526785  0.27842350  1
  O2-  O133  1  -0.00440460  0.25147881  0.60316797  1
  O2-  O134  1  -0.00674179  0.24374287  0.93625392  1
  O2-  O135  1  -0.00296019  0.75276294  0.26974390  1
  O2-  O136  1  -0.00823042  0.74948837  0.60600016  1
  O2-  O137  1  -0.00171828  0.75302844  0.93903479  1
  O2-  O138  1  0.50074718  0.24949109  0.26890311  1
  O2-  O139  1  0.49613246  0.25578389  0.60677611  1
  O2-  O140  1  0.50307869  0.24480257  0.93983720  1
  O2-  O141  1  0.49903367  0.75706163  0.27049831  1
  O2-  O142  1  0.50626866  0.75552974  0.60203191  1
  O2-  O143  1  0.50120007  0.75883215  0.94141743  1
  O2-  O144  1  0.07239174  0.18052887  0.10114256  1
  O2-  O145  1  0.07134347  0.18039622  0.42590130  1
  O2-  O146  1  0.07007715  0.17708894  0.76441539  1
  O2-  O147  1  0.07184225  0.67859497  0.10014668  1
  O2-  O148  1  0.06793679  0.67830797  0.43099455  1
  O2-  O149  1  0.07116874  0.68050376  0.76577151  1
  O2-  O150  1  0.57104228  0.17508681  0.08955511  1
  O2-  O151  1  0.57439117  0.18202967  0.43205213  1
  O2-  O152  1  0.56907017  0.18407034  0.76842315  1
  O2-  O153  1  0.57201580  0.67964343  0.09918382  1
  O2-  O154  1  0.56744775  0.67920287  0.43159947  1
  O2-  O155  1  0.56991317  0.67851313  0.76511764  1
  O2-  O156  1  0.17787214  0.42907547  0.23295314  1
  O2-  O157  1  0.17703516  0.42770670  0.57947004  1
  O2-  O158  1  0.18238354  0.43064593  0.90664199  1
  O2-  O159  1  0.17924661  0.92576795  0.24670391  1
  O2-  O160  1  0.18239967  0.92930868  0.57512949  1
  O2-  O161  1  0.18307491  0.92538486  0.90009059  1
  O2-  O162  1  0.68008969  0.43366120  0.23177524  1
  O2-  O163  1  0.67794724  0.43110303  0.56892357  1
  O2-  O164  1  0.67394464  0.43206285  0.91217971  1
  O2-  O165  1  0.68440767  0.92647217  0.23448082  1
  O2-  O166  1  0.67808449  0.92716372  0.57864056  1
  O2-  O167  1  0.67736849  0.92708831  0.90863189  1
  O2-  O168  1  0.42666092  0.32039614  0.09768146  1
  O2-  O169  1  0.42765433  0.31844012  0.43355915  1
  O2-  O170  1  0.42492707  0.32095037  0.75551414  1
  O2-  O171  1  0.42700261  0.82165756  0.09082821  1
  O2-  O172  1  0.42413817  0.81991852  0.41910995  1
  O2-  O173  1  0.42613891  0.81782534  0.76574684  1
  O2-  O174  1  0.92969988  0.32251969  0.09885213  1
  O2-  O175  1  0.93166210  0.32269997  0.42487721  1
  O2-  O176  1  0.93109705  0.32179243  0.75387562  1
  O2-  O177  1  0.92961416  0.82027618  0.08933328  1
  O2-  O178  1  0.93261094  0.82303142  0.42023582  1
  O2-  O179  1  0.93211142  0.82711683  0.75483499  1
  O2-  O180  1  0.31391064  0.07128174  0.23369186  1
  O2-  O181  1  0.32069555  0.07385119  0.57813610  1
  O2-  O182  1  0.32415437  0.07285509  0.90954809  1
  O2-  O183  1  0.32119974  0.57311630  0.24447859  1
  O2-  O184  1  0.31648651  0.57062421  0.57748121  1
  O2-  O185  1  0.32009141  0.57097554  0.90920570  1
  O2-  O186  1  0.82384649  0.07198164  0.23637192  1
  O2-  O187  1  0.82091449  0.06812748  0.57010234  1
  O2-  O188  1  0.82038994  0.06902295  0.90100953  1
  O2-  O189  1  0.82605693  0.56861107  0.24366605  1
  O2-  O190  1  0.82999686  0.56785867  0.57712901  1
  O2-  O191  1  0.82122565  0.56926373  0.89987595  1
  O2-  O192  1  0.04890344  0.08322014  0.27666246  1
  O2-  O193  1  0.04249783  0.08108600  0.59693583  1
  O2-  O194  1  0.04465504  0.07536282  0.93782006  1
  O2-  O195  1  0.03888191  0.58051097  0.26542700  1
  O2-  O196  1  0.04100179  0.58043394  0.59924393  1
  O2-  O197  1  0.04203487  0.58320223  0.93188617  1
  O2-  O198  1  0.54687319  0.07825259  0.26815907  1
  O2-  O199  1  0.54412458  0.08560362  0.60182695  1
  O2-  O200  1  0.54683616  0.08231242  0.93742244  1
  O2-  O201  1  0.53775001  0.58588508  0.26292209  1
  O2-  O202  1  0.53432155  0.58167946  0.60063830  1
  O2-  O203  1  0.53733198  0.58671440  0.93045363  1
  O2-  O204  1  0.16123810  0.20956214  0.27358272  1
  O2-  O205  1  0.16672966  0.21119085  0.59873286  1
  O2-  O206  1  0.16549607  0.20686675  0.93041585  1
  O2-  O207  1  0.16798557  0.70615090  0.26497197  1
  O2-  O208  1  0.16343212  0.71113345  0.59584080  1
  O2-  O209  1  0.16989118  0.70983547  0.93485021  1
  O2-  O210  1  0.67273138  0.20900501  0.26683085  1
  O2-  O211  1  0.66867820  0.21550633  0.60340956  1
  O2-  O212  1  0.66464852  0.20372717  0.93828912  1
  O2-  O213  1  0.67096242  0.70894392  0.26820974  1
  O2-  O214  1  0.67402330  0.69706435  0.60003643  1
  O2-  O215  1  0.67029886  0.70798115  0.93147199  1
  O2-  O216  1  0.08780727  0.45509267  0.05819962  1
  O2-  O217  1  0.08332647  0.46089324  0.40363896  1
  O2-  O218  1  0.08400108  0.45530217  0.73048442  1
  O2-  O219  1  0.08462198  0.95382166  0.07188149  1
  O2-  O220  1  0.08504284  0.94888193  0.39856049  1
  O2-  O221  1  0.08963900  0.95587123  0.72766949  1
  O2-  O222  1  0.58125293  0.45903965  0.06197911  1
  O2-  O223  1  0.58015066  0.46124157  0.39845994  1
  O2-  O224  1  0.57844728  0.45873366  0.73604961  1
  O2-  O225  1  0.58144180  0.94666437  0.05984797  1
  O2-  O226  1  0.57647080  0.94345044  0.39741449  1
  O2-  O227  1  0.58238287  0.95186296  0.72905846  1
  O2-  O228  1  0.20913900  0.33633613  0.05757876  1
  O2-  O229  1  0.20921156  0.33483931  0.40461870  1
  O2-  O230  1  0.20572830  0.33648398  0.73246269  1
  O2-  O231  1  0.21468868  0.83307206  0.07090758  1
  O2-  O232  1  0.20527038  0.83092793  0.39684401  1
  O2-  O233  1  0.21053893  0.83624346  0.72622176  1
  O2-  O234  1  0.69709108  0.33550199  0.06309139  1
  O2-  O235  1  0.71251424  0.33856356  0.40061501  1
  O2-  O236  1  0.71167799  0.33842088  0.74001085  1
  O2-  O237  1  0.70722905  0.83487444  0.06042781  1
  O2-  O238  1  0.71477296  0.83217083  0.40440271  1
  O2-  O239  1  0.70181390  0.83114252  0.72806594  1
  O2-  O240  1  0.45203849  0.41939746  0.26696070  1
  O2-  O241  1  0.44709649  0.41806709  0.60671703  1
  O2-  O242  1  0.45897162  0.41553773  0.92778603  1
  O2-  O243  1  0.44741324  0.91811283  0.26863289  1
  O2-  O244  1  0.44971167  0.92289682  0.60126204  1
  O2-  O245  1  0.44694915  0.91839021  0.93971175  1
  O2-  O246  1  0.96142352  0.41021364  0.27107283  1
  O2-  O247  1  0.95530498  0.41303836  0.60061031  1
  O2-  O248  1  0.96034799  0.41556879  0.92760903  1
  O2-  O249  1  0.95926506  0.91610377  0.26799351  1
  O2-  O250  1  0.96148199  0.91352352  0.59955355  1
  O2-  O251  1  0.95737694  0.91457043  0.93867102  1
  O2-  O252  1  0.32891913  0.28818600  0.26840239  1
  O2-  O253  1  0.33191353  0.29658332  0.60516406  1
  O2-  O254  1  0.33401801  0.29096164  0.92617275  1
  O2-  O255  1  0.33440057  0.79478045  0.26656297  1
  O2-  O256  1  0.33428293  0.78857054  0.59428588  1
  O2-  O257  1  0.33721690  0.79105464  0.93793959  1
  O2-  O258  1  0.83763556  0.29652873  0.27154086  1
  O2-  O259  1  0.83346067  0.29565059  0.60570768  1
  O2-  O260  1  0.82471099  0.30019755  0.93434428  1
  O2-  O261  1  0.83649435  0.80073877  0.26832394  1
  O2-  O262  1  0.83351664  0.80461852  0.60383512  1
  O2-  O263  1  0.83685097  0.79675260  0.93540224  1
  O2-  O264  1  0.41542708  0.04874061  0.06332005  1
  O2-  O265  1  0.41647151  0.04202021  0.40081263  1
  O2-  O266  1  0.41430277  0.04626784  0.73121804  1
  O2-  O267  1  0.41352763  0.54032703  0.06037657  1
  O2-  O268  1  0.41428293  0.54660104  0.39753335  1
  O2-  O269  1  0.40767550  0.54416783  0.73267171  1
  O2-  O270  1  0.91468938  0.03930510  0.07001185  1
  O2-  O271  1  0.91891582  0.03929917  0.40306331  1
  O2-  O272  1  0.91855920  0.03615398  0.73446883  1
  O2-  O273  1  0.91860617  0.53688842  0.06654937  1
  O2-  O274  1  0.91379807  0.53906559  0.39762232  1
  O2-  O275  1  0.91549719  0.54005334  0.73103024  1
  O2-  O276  1  0.29500554  0.16823858  0.05952199  1
  O2-  O277  1  0.28579347  0.16399664  0.40536828  1
  O2-  O278  1  0.29285681  0.16428656  0.73033636  1
  O2-  O279  1  0.29614291  0.66134515  0.06407387  1
  O2-  O280  1  0.29526915  0.66654901  0.39643029  1
  O2-  O281  1  0.28693281  0.66358214  0.72864695  1
  O2-  O282  1  0.79177925  0.17011591  0.06703801  1
  O2-  O283  1  0.79901600  0.17311437  0.40319456  1
  O2-  O284  1  0.79055420  0.16590232  0.73699496  1
  O2-  O285  1  0.79500640  0.66785432  0.06701774  1
  O2-  O286  1  0.80779832  0.66899684  0.39171152  1
  O2-  O287  1  0.80796329  0.66991713  0.72476163  1
