# generated using pymatgen
data_Ca2Al2SiO7
_symmetry_space_group_name_H-M   'P 1'
_cell_length_a   15.46321817
_cell_length_b   15.46443128
_cell_length_c   15.28753360
_cell_angle_alpha   90.01006229
_cell_angle_beta   90.00627041
_cell_angle_gamma   89.99474767
_symmetry_Int_Tables_number   1
_chemical_formula_structural   Ca2Al2SiO7
_chemical_formula_sum   'Ca48 Al48 Si24 O168'
_cell_volume   3655.70590428
_cell_formula_units_Z   24
loop_
 _symmetry_equiv_pos_site_id
 _symmetry_equiv_pos_as_xyz
  1  'x, y, z'
loop_
 _atom_type_symbol
 _atom_type_oxidation_number
  Ca2+  2.0
  Al0+  0.0
  Si0+  0.0
  O2-  -2.0
loop_
 _atom_site_type_symbol
 _atom_site_label
 _atom_site_symmetry_multiplicity
 _atom_site_fract_x
 _atom_site_fract_y
 _atom_site_fract_z
 _atom_site_occupancy
  Ca2+  Ca0  1  0.16627864  0.07331612  0.17377255  1
  Ca2+  Ca1  1  0.17088344  0.06959737  0.50095214  1
  Ca2+  Ca2  1  0.16256225  0.06940779  0.83943752  1
  Ca2+  Ca3  1  0.16815281  0.58570871  0.17423054  1
  Ca2+  Ca4  1  0.15921757  0.58091406  0.49911899  1
  Ca2+  Ca5  1  0.17094288  0.59091761  0.83902968  1
  Ca2+  Ca6  1  0.66369614  0.07355467  0.17489468  1
  Ca2+  Ca7  1  0.66822120  0.08298246  0.49852661  1
  Ca2+  Ca8  1  0.67584045  0.07611285  0.83738074  1
  Ca2+  Ca9  1  0.67580443  0.58138731  0.18212909  1
  Ca2+  Ca10  1  0.66697915  0.58499654  0.49453105  1
  Ca2+  Ca11  1  0.66828971  0.58292813  0.83880042  1
  Ca2+  Ca12  1  0.08314675  0.33104588  0.16755888  1
  Ca2+  Ca13  1  0.07855912  0.33286679  0.48751125  1
  Ca2+  Ca14  1  0.08715672  0.32223198  0.83248734  1
  Ca2+  Ca15  1  0.08427636  0.82738407  0.16008920  1
  Ca2+  Ca16  1  0.08632088  0.82627180  0.49636636  1
  Ca2+  Ca17  1  0.08363077  0.82813800  0.82639527  1
  Ca2+  Ca18  1  0.58370549  0.33048296  0.17137497  1
  Ca2+  Ca19  1  0.57446501  0.32808855  0.48737417  1
  Ca2+  Ca20  1  0.57531159  0.33161322  0.82453650  1
  Ca2+  Ca21  1  0.58180977  0.83687573  0.16762581  1
  Ca2+  Ca22  1  0.57375317  0.83583467  0.48753386  1
  Ca2+  Ca23  1  0.57703936  0.83580957  0.82970208  1
  Ca2+  Ca24  1  0.32783976  0.42260466  0.17505189  1
  Ca2+  Ca25  1  0.33188784  0.41142913  0.50045400  1
  Ca2+  Ca26  1  0.33467296  0.42443354  0.83906118  1
  Ca2+  Ca27  1  0.32172435  0.91894971  0.17836199  1
  Ca2+  Ca28  1  0.32852257  0.91049883  0.49955382  1
  Ca2+  Ca29  1  0.32044008  0.90606512  0.83502229  1
  Ca2+  Ca30  1  0.83191263  0.42326031  0.18244891  1
  Ca2+  Ca31  1  0.83318706  0.42201621  0.49488962  1
  Ca2+  Ca32  1  0.83074954  0.42018161  0.83624731  1
  Ca2+  Ca33  1  0.82405127  0.90848302  0.17037132  1
  Ca2+  Ca34  1  0.82763897  0.91759022  0.50586239  1
  Ca2+  Ca35  1  0.83546833  0.91394796  0.83805169  1
  Ca2+  Ca36  1  0.41484646  0.16554030  0.17309655  1
  Ca2+  Ca37  1  0.41695171  0.17362660  0.48693352  1
  Ca2+  Ca38  1  0.41693128  0.17380337  0.82658468  1
  Ca2+  Ca39  1  0.41800222  0.66894486  0.16921709  1
  Ca2+  Ca40  1  0.42227878  0.67936586  0.49222240  1
  Ca2+  Ca41  1  0.41575096  0.67066317  0.82766710  1
  Ca2+  Ca42  1  0.91993283  0.17462341  0.16484986  1
  Ca2+  Ca43  1  0.91369485  0.17072189  0.49493820  1
  Ca2+  Ca44  1  0.92235733  0.15888999  0.83163565  1
  Ca2+  Ca45  1  0.92791099  0.66723387  0.16394527  1
  Ca2+  Ca46  1  0.92508752  0.66929970  0.49402061  1
  Ca2+  Ca47  1  0.92779477  0.68126480  0.82924430  1
  Al0+  Al48  1  -0.00176515  0.00280998  -0.00053925  1
  Al0+  Al49  1  -0.00033974  -0.00062669  0.33751729  1
  Al0+  Al50  1  -0.00033220  -0.00057238  0.67039744  1
  Al0+  Al51  1  0.00008907  0.49953645  -0.00578012  1
  Al0+  Al52  1  0.00042584  0.50104918  0.33313821  1
  Al0+  Al53  1  -0.00044697  0.49794868  0.66879498  1
  Al0+  Al54  1  0.50115586  0.00137501  -0.00011863  1
  Al0+  Al55  1  0.49908676  0.00235885  0.33279215  1
  Al0+  Al56  1  0.50086224  0.00153541  0.66441215  1
  Al0+  Al57  1  0.49920314  0.50060354  0.00359216  1
  Al0+  Al58  1  0.50016982  0.50052586  0.33021117  1
  Al0+  Al59  1  0.49888190  0.49840204  0.66359588  1
  Al0+  Al60  1  0.25016835  0.25154108  -0.00562424  1
  Al0+  Al61  1  0.24938480  0.24992117  0.33592974  1
  Al0+  Al62  1  0.24905086  0.24942606  0.66425444  1
  Al0+  Al63  1  0.25218719  0.74988580  0.00640928  1
  Al0+  Al64  1  0.25017096  0.74864811  0.33013200  1
  Al0+  Al65  1  0.25219564  0.74719394  0.66235541  1
  Al0+  Al66  1  0.74777522  0.24911169  -0.00247860  1
  Al0+  Al67  1  0.74929477  0.25150580  0.32779822  1
  Al0+  Al68  1  0.75023340  0.24940230  0.67392850  1
  Al0+  Al69  1  0.74934573  0.74835059  -0.00047991  1
  Al0+  Al70  1  0.75072111  0.75087946  0.34117621  1
  Al0+  Al71  1  0.75151021  0.74786046  0.66651551  1
  Al0+  Al72  1  0.17987255  0.43060903  0.34556935  1
  Al0+  Al73  1  0.67973336  0.92895851  0.01339578  1
  Al0+  Al74  1  0.42559642  0.32228353  0.31581990  1
  Al0+  Al75  1  0.57324604  0.68073305  0.31838860  1
  Al0+  Al76  1  0.42911978  0.82230324  0.31575174  1
  Al0+  Al77  1  0.07434035  0.67951912  0.98480876  1
  Al0+  Al78  1  0.17729187  0.92548155  0.34950041  1
  Al0+  Al79  1  0.92699086  0.82049865  0.98707265  1
  Al0+  Al80  1  0.17832239  0.93034780  0.01340229  1
  Al0+  Al81  1  0.93002608  0.32080987  0.32150752  1
  Al0+  Al82  1  0.42825044  0.32026926  0.65261080  1
  Al0+  Al83  1  0.82270507  0.57232882  0.34959078  1
  Al0+  Al84  1  0.32107720  0.57132441  0.01462668  1
  Al0+  Al85  1  0.32014018  0.07078344  0.34794948  1
  Al0+  Al86  1  0.57125641  0.17939254  0.31701922  1
  Al0+  Al87  1  0.43108413  0.82122487  0.65427403  1
  Al0+  Al88  1  0.06953737  0.68025176  0.31918008  1
  Al0+  Al89  1  0.67777017  0.42812394  0.34834899  1
  Al0+  Al90  1  0.07068432  0.18044876  0.98686832  1
  Al0+  Al91  1  0.67942149  0.92993179  0.34740309  1
  Al0+  Al92  1  0.92850891  0.82319735  0.64998022  1
  Al0+  Al93  1  0.81999821  0.07064423  0.68100686  1
  Al0+  Al94  1  0.07146216  0.67799044  0.65050313  1
  Al0+  Al95  1  0.18269293  0.92785236  0.68096095  1
  Si0+  Si96  1  0.92767643  0.82476669  0.31851668  1
  Si0+  Si97  1  0.32298278  0.57199422  0.35207757  1
  Si0+  Si98  1  0.17804142  0.42697342  0.01471941  1
  Si0+  Si99  1  0.57337773  0.18015712  0.65135296  1
  Si0+  Si100  1  0.67889383  0.43106375  0.68225565  1
  Si0+  Si101  1  0.82321131  0.57094534  0.68513039  1
  Si0+  Si102  1  0.07019769  0.17842132  0.65091924  1
  Si0+  Si103  1  0.82034874  0.56839192  0.01310840  1
  Si0+  Si104  1  0.92513212  0.32218999  0.98138825  1
  Si0+  Si105  1  0.07153242  0.17620184  0.31883499  1
  Si0+  Si106  1  0.32271462  0.07392391  0.68386530  1
  Si0+  Si107  1  0.82161047  0.07423403  0.01896468  1
  Si0+  Si108  1  0.57149111  0.17768222  0.98132309  1
  Si0+  Si109  1  0.43046904  0.82234051  0.98578690  1
  Si0+  Si110  1  0.43132874  0.32211451  0.98407781  1
  Si0+  Si111  1  0.57012064  0.67781518  0.98539134  1
  Si0+  Si112  1  0.32082785  0.56714451  0.68025303  1
  Si0+  Si113  1  0.82233849  0.07358085  0.34780457  1
  Si0+  Si114  1  0.67831456  0.42786569  0.01413452  1
  Si0+  Si115  1  0.57315498  0.67618869  0.65183859  1
  Si0+  Si116  1  0.92788554  0.32009885  0.65307234  1
  Si0+  Si117  1  0.17680285  0.42618593  0.68326849  1
  Si0+  Si118  1  0.67679442  0.92602527  0.68311517  1
  Si0+  Si119  1  0.32237505  0.07503020  0.01423437  1
  O2-  O120  1  0.25298952  0.00682884  0.05692123  1
  O2-  O121  1  0.25155694  -0.00392825  0.39831764  1
  O2-  O122  1  0.25839523  0.00204340  0.72934786  1
  O2-  O123  1  0.24119912  0.50057218  0.05799228  1
  O2-  O124  1  0.25615930  0.50137553  0.39631681  1
  O2-  O125  1  0.24792019  0.49797562  0.72390591  1
  O2-  O126  1  0.75601610  0.00198802  0.06092067  1
  O2-  O127  1  0.75502205  0.00427131  0.39281658  1
  O2-  O128  1  0.74838617  -0.00799281  0.72728840  1
  O2-  O129  1  0.75419345  0.49305101  0.05509046  1
  O2-  O130  1  0.74749693  0.50207773  0.39886130  1
  O2-  O131  1  0.74772886  0.50318651  0.72686170  1
  O2-  O132  1  0.00304875  0.24514172  0.27468470  1
  O2-  O133  1  -0.00090861  0.25011432  0.61027602  1
  O2-  O134  1  -0.00570644  0.25369229  0.93768170  1
  O2-  O135  1  -0.00176690  0.75857248  0.27394769  1
  O2-  O136  1  0.00046962  0.75099079  0.60087108  1
  O2-  O137  1  0.00524952  0.75522433  0.93616638  1
  O2-  O138  1  0.49898754  0.25143648  0.26608920  1
  O2-  O139  1  0.49965096  0.24278147  0.60768137  1
  O2-  O140  1  0.50058188  0.24977900  0.94041610  1
  O2-  O141  1  0.50284504  0.75199212  0.26499555  1
  O2-  O142  1  0.51239821  0.75243745  0.61026517  1
  O2-  O143  1  0.50037724  0.74976564  0.94277770  1
  O2-  O144  1  0.07057032  0.18435478  0.09950452  1
  O2-  O145  1  0.06914159  0.17685069  0.42476304  1
  O2-  O146  1  0.07088322  0.18089308  0.75642016  1
  O2-  O147  1  0.07120372  0.67641538  0.09784756  1
  O2-  O148  1  0.06745526  0.67834643  0.43211085  1
  O2-  O149  1  0.07190805  0.67833355  0.76435035  1
  O2-  O150  1  0.57395460  0.17726081  0.08542484  1
  O2-  O151  1  0.57276430  0.18155051  0.43097957  1
  O2-  O152  1  0.57313121  0.18349773  0.75775637  1
  O2-  O153  1  0.57117405  0.67535749  0.08934167  1
  O2-  O154  1  0.57057261  0.68279485  0.43249767  1
  O2-  O155  1  0.57016560  0.67224377  0.75829223  1
  O2-  O156  1  0.17952815  0.43228187  0.23221020  1
  O2-  O157  1  0.17467332  0.42450777  0.57871881  1
  O2-  O158  1  0.18222730  0.42356583  0.90862985  1
  O2-  O159  1  0.17494144  0.92898784  0.23569402  1
  O2-  O160  1  0.18352404  0.92863443  0.56880012  1
  O2-  O161  1  0.18137431  0.92906985  0.89969754  1
  O2-  O162  1  0.68256147  0.42853490  0.23402875  1
  O2-  O163  1  0.67937843  0.42983918  0.57831649  1
  O2-  O164  1  0.67705969  0.43007651  0.90806602  1
  O2-  O165  1  0.68188518  0.92979399  0.23396283  1
  O2-  O166  1  0.67551212  0.92836594  0.57809745  1
  O2-  O167  1  0.67730694  0.93180135  0.89992567  1
  O2-  O168  1  0.43178031  0.32300516  0.08810954  1
  O2-  O169  1  0.42652102  0.31923739  0.42965100  1
  O2-  O170  1  0.43160754  0.32210639  0.76679324  1
  O2-  O171  1  0.43235083  0.82393301  0.08997148  1
  O2-  O172  1  0.43017284  0.81940901  0.42972391  1
  O2-  O173  1  0.43035620  0.81678857  0.76838413  1
  O2-  O174  1  0.92301772  0.32305237  0.08639238  1
  O2-  O175  1  0.93095901  0.31874684  0.43522548  1
  O2-  O176  1  0.92854860  0.32059725  0.75850188  1
  O2-  O177  1  0.92318308  0.81421885  0.10011768  1
  O2-  O178  1  0.92845568  0.82539198  0.42401188  1
  O2-  O179  1  0.92901038  0.82090260  0.76379577  1
  O2-  O180  1  0.31529186  0.07097878  0.23368744  1
  O2-  O181  1  0.31962569  0.07746000  0.57925739  1
  O2-  O182  1  0.32326540  0.07606425  0.90821430  1
  O2-  O183  1  0.32045335  0.57146872  0.24619582  1
  O2-  O184  1  0.32375584  0.56443447  0.57602871  1
  O2-  O185  1  0.32567642  0.56799826  0.90064390  1
  O2-  O186  1  0.82347770  0.07318672  0.24225524  1
  O2-  O187  1  0.81523616  0.07744167  0.56858488  1
  O2-  O188  1  0.81803843  0.07753286  0.91311301  1
  O2-  O189  1  0.82357279  0.56948148  0.23522805  1
  O2-  O190  1  0.82539832  0.56841617  0.58092933  1
  O2-  O191  1  0.81636875  0.56681718  0.90744500  1
  O2-  O192  1  0.04457247  0.08322556  0.27221853  1
  O2-  O193  1  0.04168113  0.08722048  0.60500777  1
  O2-  O194  1  0.03947492  0.08507651  0.93017395  1
  O2-  O195  1  0.03607051  0.58514619  0.26428074  1
  O2-  O196  1  0.04110267  0.57762448  0.60221644  1
  O2-  O197  1  0.04589389  0.58047568  0.93102421  1
  O2-  O198  1  0.54144381  0.08249035  0.26242237  1
  O2-  O199  1  0.55585994  0.08437316  0.60802033  1
  O2-  O200  1  0.54264718  0.08698911  0.93182075  1
  O2-  O201  1  0.54710354  0.58168455  0.26588462  1
  O2-  O202  1  0.54043210  0.58599605  0.60407156  1
  O2-  O203  1  0.54084984  0.58617409  0.93636774  1
  O2-  O204  1  0.16384037  0.20322050  0.27280165  1
  O2-  O205  1  0.16135239  0.20687087  0.60378873  1
  O2-  O206  1  0.16583002  0.21293832  0.92854399  1
  O2-  O207  1  0.16696683  0.70602845  0.26560546  1
  O2-  O208  1  0.17066905  0.70194057  0.59861251  1
  O2-  O209  1  0.17512134  0.70595684  0.93492045  1
  O2-  O210  1  0.66824226  0.20819477  0.26078696  1
  O2-  O211  1  0.66519720  0.21259828  0.60703338  1
  O2-  O212  1  0.66272566  0.20663732  0.93193511  1
  O2-  O213  1  0.67374741  0.70745778  0.26892300  1
  O2-  O214  1  0.66994286  0.69127382  0.61011571  1
  O2-  O215  1  0.66118714  0.70461973  0.93547806  1
  O2-  O216  1  0.08070269  0.44523153  0.05550158  1
  O2-  O217  1  0.08484475  0.46280681  0.40157481  1
  O2-  O218  1  0.08480828  0.45100347  0.73244542  1
  O2-  O219  1  0.08098085  0.96111636  0.06523899  1
  O2-  O220  1  0.07987474  0.95626572  0.40373685  1
  O2-  O221  1  0.08632724  0.96077607  0.73440947  1
  O2-  O222  1  0.58853561  0.45865451  0.06161501  1
  O2-  O223  1  0.57804155  0.45398075  0.39958200  1
  O2-  O224  1  0.58643497  0.45885967  0.73042034  1
  O2-  O225  1  0.58358454  0.96274070  0.06638944  1
  O2-  O226  1  0.58341334  0.96240895  0.40026340  1
  O2-  O227  1  0.58390371  0.95490613  0.73069494  1
  O2-  O228  1  0.20924010  0.33544380  0.06140256  1
  O2-  O229  1  0.20531929  0.33326484  0.40080208  1
  O2-  O230  1  0.20675947  0.33467754  0.73137528  1
  O2-  O231  1  0.21043535  0.83523037  0.06792905  1
  O2-  O232  1  0.20743505  0.82698370  0.40047382  1
  O2-  O233  1  0.21598922  0.83016821  0.73324615  1
  O2-  O234  1  0.70041775  0.33342717  0.05795196  1
  O2-  O235  1  0.70946671  0.33030146  0.40030141  1
  O2-  O236  1  0.70856693  0.34098994  0.73344858  1
  O2-  O237  1  0.70730249  0.83054123  0.06539060  1
  O2-  O238  1  0.70796616  0.83520295  0.40513242  1
  O2-  O239  1  0.69770280  0.83005556  0.72761470  1
  O2-  O240  1  0.45193502  0.42125733  0.26409704  1
  O2-  O241  1  0.46112619  0.41533489  0.59848788  1
  O2-  O242  1  0.46304275  0.41306420  0.93564537  1
  O2-  O243  1  0.45463988  0.92149440  0.26500772  1
  O2-  O244  1  0.45473898  0.92020854  0.60198360  1
  O2-  O245  1  0.45903650  0.91348575  0.93655269  1
  O2-  O246  1  0.96344804  0.41520014  0.26588070  1
  O2-  O247  1  0.95481822  0.41188208  0.60653348  1
  O2-  O248  1  0.94978238  0.41521950  0.93312337  1
  O2-  O249  1  0.94902073  0.91952414  0.27244405  1
  O2-  O250  1  0.95280802  0.92366203  0.60057271  1
  O2-  O251  1  0.94491914  0.92327247  0.93950042  1
  O2-  O252  1  0.32716531  0.29193585  0.26334030  1
  O2-  O253  1  0.32999887  0.29400215  0.60075542  1
  O2-  O254  1  0.33946508  0.29678898  0.93480684  1
  O2-  O255  1  0.33197038  0.79027965  0.26293456  1
  O2-  O256  1  0.33875861  0.78363818  0.59842978  1
  O2-  O257  1  0.33901765  0.79217227  0.93951602  1
  O2-  O258  1  0.83518505  0.29209894  0.26391339  1
  O2-  O259  1  0.83540062  0.29131134  0.60861930  1
  O2-  O260  1  0.83108262  0.29646976  0.93429951  1
  O2-  O261  1  0.83411025  0.79667015  0.27508031  1
  O2-  O262  1  0.82856046  0.79454725  0.60003647  1
  O2-  O263  1  0.83091873  0.78549718  0.93056000  1
  O2-  O264  1  0.41632030  0.04982271  0.05891171  1
  O2-  O265  1  0.41983194  0.04855420  0.40004550  1
  O2-  O266  1  0.41945645  0.05440462  0.72715154  1
  O2-  O267  1  0.41573565  0.53612177  0.06966576  1
  O2-  O268  1  0.41756613  0.54932084  0.39634149  1
  O2-  O269  1  0.41200328  0.53729446  0.73024917  1
  O2-  O270  1  0.91678756  0.05613127  0.06307977  1
  O2-  O271  1  0.91549893  0.05092189  0.39627625  1
  O2-  O272  1  0.91708254  0.04368785  0.73649087  1
  O2-  O273  1  0.91428716  0.54388390  0.05744708  1
  O2-  O274  1  0.91773028  0.53653623  0.40401818  1
  O2-  O275  1  0.91191926  0.53651639  0.73526344  1
  O2-  O276  1  0.29770408  0.16966036  0.05825099  1
  O2-  O277  1  0.29005635  0.16792186  0.40257329  1
  O2-  O278  1  0.29318700  0.16682852  0.73149266  1
  O2-  O279  1  0.29676702  0.66760579  0.07067754  1
  O2-  O280  1  0.29464780  0.66462376  0.39748365  1
  O2-  O281  1  0.29442839  0.65906687  0.72834916  1
  O2-  O282  1  0.79165803  0.16764628  0.06380139  1
  O2-  O283  1  0.79488593  0.16689484  0.39304619  1
  O2-  O284  1  0.78714392  0.16544554  0.74058847  1
  O2-  O285  1  0.78806865  0.65783364  0.06041010  1
  O2-  O286  1  0.79628024  0.66917322  0.40589042  1
  O2-  O287  1  0.79722483  0.66320762  0.73319332  1
