# generated using pymatgen
data_Ca2Al2SiO7
_symmetry_space_group_name_H-M   'P 1'
_cell_length_a   15.45740392
_cell_length_b   15.45845242
_cell_length_c   15.28342012
_cell_angle_alpha   89.99561299
_cell_angle_beta   89.98989160
_cell_angle_gamma   90.00708657
_symmetry_Int_Tables_number   1
_chemical_formula_structural   Ca2Al2SiO7
_chemical_formula_sum   'Ca48 Al48 Si24 O168'
_cell_volume   3651.93559070
_cell_formula_units_Z   24
loop_
 _symmetry_equiv_pos_site_id
 _symmetry_equiv_pos_as_xyz
  1  'x, y, z'
loop_
 _atom_type_symbol
 _atom_type_oxidation_number
  Ca2+  2.0
  Al0+  0.0
  Si0+  0.0
  O2-  -2.0
loop_
 _atom_site_type_symbol
 _atom_site_label
 _atom_site_symmetry_multiplicity
 _atom_site_fract_x
 _atom_site_fract_y
 _atom_site_fract_z
 _atom_site_occupancy
  Ca2+  Ca0  1  0.16470083  0.08117926  0.17056338  1
  Ca2+  Ca1  1  0.17493335  0.07854406  0.50629208  1
  Ca2+  Ca2  1  0.16833444  0.07258581  0.83527785  1
  Ca2+  Ca3  1  0.17534975  0.58639533  0.17353138  1
  Ca2+  Ca4  1  0.17573985  0.59677921  0.49925199  1
  Ca2+  Ca5  1  0.18097663  0.58870897  0.83783219  1
  Ca2+  Ca6  1  0.65961985  0.07689148  0.16629805  1
  Ca2+  Ca7  1  0.67618055  0.07338630  0.51170048  1
  Ca2+  Ca8  1  0.66825050  0.07089605  0.83687777  1
  Ca2+  Ca9  1  0.68022994  0.58690611  0.16959302  1
  Ca2+  Ca10  1  0.66815851  0.58231121  0.50543444  1
  Ca2+  Ca11  1  0.66512554  0.58151735  0.83700196  1
  Ca2+  Ca12  1  0.09014706  0.32053780  0.16252699  1
  Ca2+  Ca13  1  0.08508771  0.32492410  0.49428356  1
  Ca2+  Ca14  1  0.08482928  0.32577174  0.83244747  1
  Ca2+  Ca15  1  0.07287789  0.83162168  0.16258209  1
  Ca2+  Ca16  1  0.07410115  0.83569663  0.49556830  1
  Ca2+  Ca17  1  0.07420471  0.84436739  0.82950000  1
  Ca2+  Ca18  1  0.57630148  0.32418527  0.15559681  1
  Ca2+  Ca19  1  0.58549468  0.33330924  0.50005077  1
  Ca2+  Ca20  1  0.58256007  0.33099614  0.83073488  1
  Ca2+  Ca21  1  0.57553519  0.83620265  0.16334733  1
  Ca2+  Ca22  1  0.57463890  0.83435020  0.50217322  1
  Ca2+  Ca23  1  0.58163714  0.82934641  0.82298257  1
  Ca2+  Ca24  1  0.33985331  0.42655769  0.16861736  1
  Ca2+  Ca25  1  0.33288781  0.43102653  0.50419508  1
  Ca2+  Ca26  1  0.34110460  0.42865781  0.83760869  1
  Ca2+  Ca27  1  0.32596449  0.92123300  0.17451549  1
  Ca2+  Ca28  1  0.33221761  0.92176473  0.50901433  1
  Ca2+  Ca29  1  0.32123413  0.91089074  0.83586013  1
  Ca2+  Ca30  1  0.83874093  0.42949135  0.17027273  1
  Ca2+  Ca31  1  0.82898670  0.42451178  0.50567195  1
  Ca2+  Ca32  1  0.82618296  0.42372122  0.83756794  1
  Ca2+  Ca33  1  0.82932469  0.90713158  0.16543837  1
  Ca2+  Ca34  1  0.83397329  0.91706065  0.50932004  1
  Ca2+  Ca35  1  0.82494968  0.90954862  0.83656365  1
  Ca2+  Ca36  1  0.41776457  0.17150641  0.15698164  1
  Ca2+  Ca37  1  0.41336196  0.16201871  0.49522279  1
  Ca2+  Ca38  1  0.41816097  0.16901069  0.83143256  1
  Ca2+  Ca39  1  0.41027907  0.67017594  0.16494937  1
  Ca2+  Ca40  1  0.41409780  0.67684809  0.49888827  1
  Ca2+  Ca41  1  0.41965995  0.66977424  0.82125694  1
  Ca2+  Ca42  1  0.93015477  0.16425734  0.16077628  1
  Ca2+  Ca43  1  0.92175038  0.16382818  0.49547545  1
  Ca2+  Ca44  1  0.92154121  0.15721276  0.83007413  1
  Ca2+  Ca45  1  0.91569757  0.67135274  0.16203258  1
  Ca2+  Ca46  1  0.91965463  0.67876975  0.49017002  1
  Ca2+  Ca47  1  0.91332200  0.67696444  0.82917319  1
  Al0+  Al48  1  -0.00105232  -0.00114910  -0.00340357  1
  Al0+  Al49  1  -0.00199560  0.00033575  0.32465867  1
  Al0+  Al50  1  0.00265825  0.00112557  0.66611999  1
  Al0+  Al51  1  0.00285646  0.49933847  0.00283375  1
  Al0+  Al52  1  0.00025248  0.50002428  0.33650129  1
  Al0+  Al53  1  0.00089076  0.49816216  0.66545444  1
  Al0+  Al54  1  0.49961790  -0.00031927  -0.00057535  1
  Al0+  Al55  1  0.49939559  -0.00071132  0.33334724  1
  Al0+  Al56  1  0.50200114  0.00229846  0.66950124  1
  Al0+  Al57  1  0.50098098  0.49993347  0.00348885  1
  Al0+  Al58  1  0.50023466  0.49979645  0.33720656  1
  Al0+  Al59  1  0.50111983  0.49844527  0.66851887  1
  Al0+  Al60  1  0.25038960  0.25131218  -0.01176610  1
  Al0+  Al61  1  0.25134324  0.25069384  0.33246824  1
  Al0+  Al62  1  0.25088029  0.25065127  0.66876966  1
  Al0+  Al63  1  0.24774106  0.75089024  0.01015191  1
  Al0+  Al64  1  0.24837491  0.75179024  0.32989311  1
  Al0+  Al65  1  0.24967874  0.75064600  0.67166840  1
  Al0+  Al66  1  0.75080379  0.24866673  -0.00277505  1
  Al0+  Al67  1  0.74947520  0.24889683  0.33124680  1
  Al0+  Al68  1  0.75115031  0.25172953  0.67341253  1
  Al0+  Al69  1  0.74882769  0.75069947  0.00485227  1
  Al0+  Al70  1  0.74743639  0.74898731  0.33571833  1
  Al0+  Al71  1  0.75083398  0.74941806  0.65976711  1
  Al0+  Al72  1  0.18025010  0.92890513  0.68036433  1
  Al0+  Al73  1  0.93063516  0.82104188  0.65310233  1
  Al0+  Al74  1  0.43041549  0.32292123  0.98279886  1
  Al0+  Al75  1  0.32354241  0.07365002  0.68311230  1
  Al0+  Al76  1  0.82286306  0.07116483  0.68099469  1
  Al0+  Al77  1  0.42941689  0.82187469  0.31925334  1
  Al0+  Al78  1  0.57101524  0.67643203  0.65147151  1
  Al0+  Al79  1  0.67959891  0.43004364  0.68104523  1
  Al0+  Al80  1  0.68055397  0.92645451  0.68071012  1
  Al0+  Al81  1  0.82103253  0.57029961  0.01216653  1
  Al0+  Al82  1  0.07149764  0.18082282  0.32048066  1
  Al0+  Al83  1  0.07117794  0.67815103  0.31774296  1
  Al0+  Al84  1  0.31889975  0.57013357  0.67925163  1
  Al0+  Al85  1  0.32205526  0.57050794  0.01542080  1
  Al0+  Al86  1  0.42737461  0.82305142  0.65400923  1
  Al0+  Al87  1  0.92574502  0.82087692  0.31597168  1
  Al0+  Al88  1  0.67770909  0.92955793  0.01545847  1
  Al0+  Al89  1  0.32068664  0.57297713  0.34881871  1
  Al0+  Al90  1  0.92864247  0.81698820  0.98434783  1
  Al0+  Al91  1  0.32071148  0.07143583  0.34475693  1
  Al0+  Al92  1  0.57231143  0.17610922  0.98231668  1
  Al0+  Al93  1  0.82193194  0.57161361  0.34925045  1
  Al0+  Al94  1  0.07010488  0.17830639  0.98287792  1
  Al0+  Al95  1  0.17645277  0.93065784  0.01744984  1
  Si0+  Si96  1  0.82083166  0.07155346  0.34569111  1
  Si0+  Si97  1  0.92791268  0.32204378  0.65123168  1
  Si0+  Si98  1  0.17555251  0.93040514  0.34879103  1
  Si0+  Si99  1  0.42620864  0.81989212  0.98703257  1
  Si0+  Si100  1  0.07132430  0.18065841  0.65036231  1
  Si0+  Si101  1  0.82186847  0.07202930  0.01814054  1
  Si0+  Si102  1  0.57311730  0.18052416  0.65080336  1
  Si0+  Si103  1  0.43052966  0.32190887  0.31999131  1
  Si0+  Si104  1  0.32031201  0.07240951  0.01501957  1
  Si0+  Si105  1  0.42924650  0.32039466  0.64895711  1
  Si0+  Si106  1  0.57042929  0.68102512  0.98844258  1
  Si0+  Si107  1  0.67880645  0.42605263  0.01827381  1
  Si0+  Si108  1  0.92598022  0.32174376  0.31744696  1
  Si0+  Si109  1  0.17664711  0.42616167  0.68371770  1
  Si0+  Si110  1  0.67763736  0.92960474  0.34908606  1
  Si0+  Si111  1  0.17915270  0.42618956  0.01639461  1
  Si0+  Si112  1  0.92868725  0.32456880  0.98280674  1
  Si0+  Si113  1  0.82372490  0.57189026  0.68187730  1
  Si0+  Si114  1  0.56978946  0.67616608  0.31571022  1
  Si0+  Si115  1  0.07365420  0.67666559  0.98320144  1
  Si0+  Si116  1  0.67918104  0.42632952  0.34911875  1
  Si0+  Si117  1  0.57157131  0.17853446  0.31991017  1
  Si0+  Si118  1  0.07234632  0.67496625  0.65196441  1
  Si0+  Si119  1  0.17896774  0.42690353  0.34968952  1
  O2-  O120  1  0.25116583  0.00652695  0.06245438  1
  O2-  O121  1  0.24596005  -0.00232658  0.39229674  1
  O2-  O122  1  0.25602850  -0.00299586  0.73136796  1
  O2-  O123  1  0.24767840  0.49448057  0.06114777  1
  O2-  O124  1  0.24225701  0.50062747  0.39400204  1
  O2-  O125  1  0.24260978  0.49742761  0.72693294  1
  O2-  O126  1  0.75015245  0.00682813  0.06323958  1
  O2-  O127  1  0.75280906  -0.00188768  0.38830695  1
  O2-  O128  1  0.75392471  -0.00318628  0.73124332  1
  O2-  O129  1  0.75017700  0.49218920  0.06144913  1
  O2-  O130  1  0.74793750  0.49460426  0.39347236  1
  O2-  O131  1  0.75193703  0.50709713  0.72705337  1
  O2-  O132  1  -0.00327914  0.25561064  0.27292563  1
  O2-  O133  1  -0.00093860  0.25121827  0.60868652  1
  O2-  O134  1  -0.00623888  0.25298854  0.93754681  1
  O2-  O135  1  -0.00365119  0.74672411  0.26698460  1
  O2-  O136  1  0.00322384  0.74335818  0.60821041  1
  O2-  O137  1  0.00373127  0.74268359  0.93741098  1
  O2-  O138  1  0.50057318  0.24975181  0.27850927  1
  O2-  O139  1  0.49828812  0.24716054  0.60633922  1
  O2-  O140  1  0.50207277  0.25031148  0.93280915  1
  O2-  O141  1  0.50046856  0.74385526  0.27092667  1
  O2-  O142  1  0.49920596  0.75023318  0.60350832  1
  O2-  O143  1  0.49567387  0.74724898  0.94566702  1
  O2-  O144  1  0.07034032  0.18092352  0.09644892  1
  O2-  O145  1  0.06981389  0.18197185  0.43375065  1
  O2-  O146  1  0.07044290  0.18265348  0.75525364  1
  O2-  O147  1  0.07261042  0.67707037  0.08866521  1
  O2-  O148  1  0.07075608  0.68241066  0.43167784  1
  O2-  O149  1  0.07007006  0.67055035  0.75738284  1
  O2-  O150  1  0.56890676  0.17766173  0.09722084  1
  O2-  O151  1  0.57424705  0.17984165  0.42499008  1
  O2-  O152  1  0.57414930  0.18384849  0.75531132  1
  O2-  O153  1  0.57093240  0.68278959  0.09379858  1
  O2-  O154  1  0.56939511  0.67549619  0.42097597  1
  O2-  O155  1  0.56938938  0.67518871  0.76585407  1
  O2-  O156  1  0.18302988  0.42256969  0.24434010  1
  O2-  O157  1  0.17815503  0.42193456  0.57811600  1
  O2-  O158  1  0.17709755  0.42842282  0.91087183  1
  O2-  O159  1  0.17604772  0.93369571  0.24305042  1
  O2-  O160  1  0.17711453  0.93247820  0.56645310  1
  O2-  O161  1  0.17798451  0.93003088  0.90463845  1
  O2-  O162  1  0.67930852  0.42447951  0.24382181  1
  O2-  O163  1  0.68308720  0.42715005  0.56761358  1
  O2-  O164  1  0.67804326  0.42861647  0.91271184  1
  O2-  O165  1  0.67488316  0.93219172  0.24381118  1
  O2-  O166  1  0.68066408  0.93078504  0.56649181  1
  O2-  O167  1  0.67882643  0.92598445  0.90310346  1
  O2-  O168  1  0.43170394  0.32212298  0.09743309  1
  O2-  O169  1  0.43164127  0.32253523  0.42522654  1
  O2-  O170  1  0.43071869  0.32182335  0.75361498  1
  O2-  O171  1  0.42811034  0.81994466  0.09254606  1
  O2-  O172  1  0.43220133  0.82456597  0.43188692  1
  O2-  O173  1  0.42656688  0.81821251  0.76803593  1
  O2-  O174  1  0.93071250  0.32509744  0.08863254  1
  O2-  O175  1  0.92316657  0.31775705  0.42318684  1
  O2-  O176  1  0.92953420  0.32497747  0.75604678  1
  O2-  O177  1  0.92768355  0.81474089  0.09721289  1
  O2-  O178  1  0.92756136  0.82395673  0.42965143  1
  O2-  O179  1  0.92983028  0.81945354  0.76620372  1
  O2-  O180  1  0.32103215  0.07261751  0.23169758  1
  O2-  O181  1  0.31847040  0.07634793  0.56898703  1
  O2-  O182  1  0.32004694  0.06927042  0.90980865  1
  O2-  O183  1  0.32269364  0.56788775  0.23584934  1
  O2-  O184  1  0.31761069  0.56955379  0.56602934  1
  O2-  O185  1  0.32248533  0.57099252  0.90234639  1
  O2-  O186  1  0.81812358  0.07616626  0.24099461  1
  O2-  O187  1  0.82132190  0.07272299  0.56629628  1
  O2-  O188  1  0.82213038  0.06979419  0.91283601  1
  O2-  O189  1  0.81971092  0.56984081  0.23579650  1
  O2-  O190  1  0.82509257  0.56728190  0.57633150  1
  O2-  O191  1  0.81711908  0.56980173  0.89911388  1
  O2-  O192  1  0.03922700  0.08669406  0.26329413  1
  O2-  O193  1  0.04443550  0.08990040  0.60138768  1
  O2-  O194  1  0.03705476  0.08304962  0.92882434  1
  O2-  O195  1  0.04913304  0.57589473  0.26883138  1
  O2-  O196  1  0.04998417  0.58070127  0.60397826  1
  O2-  O197  1  0.05287514  0.58102533  0.93911435  1
  O2-  O198  1  0.54290907  0.08771598  0.27188582  1
  O2-  O199  1  0.55033120  0.08770470  0.60319436  1
  O2-  O200  1  0.54214995  0.07813891  0.92987377  1
  O2-  O201  1  0.54651427  0.58133447  0.27046211  1
  O2-  O202  1  0.54284294  0.57748065  0.59855116  1
  O2-  O203  1  0.54815776  0.58668330  0.94399454  1
  O2-  O204  1  0.16750405  0.21316368  0.26535804  1
  O2-  O205  1  0.16281653  0.21170275  0.60340395  1
  O2-  O206  1  0.16462998  0.20989358  0.92611110  1
  O2-  O207  1  0.16853754  0.70685970  0.26321166  1
  O2-  O208  1  0.16589645  0.70255589  0.60782111  1
  O2-  O209  1  0.16757776  0.70587168  0.93976876  1
  O2-  O210  1  0.66252579  0.20582929  0.26968441  1
  O2-  O211  1  0.66413665  0.21395593  0.60383529  1
  O2-  O212  1  0.67245568  0.20163867  0.93177588  1
  O2-  O213  1  0.66300327  0.70412414  0.27033828  1
  O2-  O214  1  0.66920989  0.70227104  0.59674622  1
  O2-  O215  1  0.66021757  0.71174660  0.93992504  1
  O2-  O216  1  0.08575596  0.44871270  0.06476071  1
  O2-  O217  1  0.08303878  0.44380827  0.39458575  1
  O2-  O218  1  0.08153184  0.44758573  0.72884606  1
  O2-  O219  1  0.07950451  0.96280749  0.06951529  1
  O2-  O220  1  0.08157147  0.95899852  0.39271161  1
  O2-  O221  1  0.08480302  0.96437577  0.73464969  1
  O2-  O222  1  0.58688136  0.45398484  0.06622129  1
  O2-  O223  1  0.58620035  0.45195643  0.39677619  1
  O2-  O224  1  0.58301530  0.45686620  0.73613498  1
  O2-  O225  1  0.58065230  0.96066579  0.07043629  1
  O2-  O226  1  0.58847704  0.96288515  0.39773270  1
  O2-  O227  1  0.58314899  0.95626789  0.73381041  1
  O2-  O228  1  0.20607981  0.33150687  0.05989013  1
  O2-  O229  1  0.21092003  0.33630097  0.39899904  1
  O2-  O230  1  0.20498077  0.33469271  0.73187345  1
  O2-  O231  1  0.20702464  0.83541783  0.07364928  1
  O2-  O232  1  0.19891244  0.83593478  0.39223442  1
  O2-  O233  1  0.20217903  0.83051135  0.73643936  1
  O2-  O234  1  0.70148870  0.33064815  0.06242388  1
  O2-  O235  1  0.70461199  0.33218947  0.39580472  1
  O2-  O236  1  0.71344046  0.33662951  0.73853098  1
  O2-  O237  1  0.71015514  0.83492100  0.07238502  1
  O2-  O238  1  0.70008190  0.83636635  0.39479179  1
  O2-  O239  1  0.70718762  0.82645067  0.73118960  1
  O2-  O240  1  0.46035632  0.41287614  0.27173862  1
  O2-  O241  1  0.46075578  0.41057146  0.60057679  1
  O2-  O242  1  0.46232424  0.42158343  0.93147470  1
  O2-  O243  1  0.46432651  0.91693016  0.26322978  1
  O2-  O244  1  0.45600718  0.92266533  0.60221363  1
  O2-  O245  1  0.45359085  0.91150316  0.94085288  1
  O2-  O246  1  0.94964885  0.41648064  0.27409555  1
  O2-  O247  1  0.95615858  0.41290700  0.60083522  1
  O2-  O248  1  0.95776094  0.41679299  0.93520125  1
  O2-  O249  1  0.95301211  0.91878966  0.26124452  1
  O2-  O250  1  0.96349260  0.91760001  0.59885959  1
  O2-  O251  1  0.95792408  0.91433546  0.93238982  1
  O2-  O252  1  0.33925544  0.29560529  0.27162835  1
  O2-  O253  1  0.33601983  0.29486833  0.60254252  1
  O2-  O254  1  0.33257174  0.29912870  0.92732030  1
  O2-  O255  1  0.33206318  0.79523864  0.26551176  1
  O2-  O256  1  0.32845301  0.79388898  0.60156247  1
  O2-  O257  1  0.33308790  0.79202174  0.94314524  1
  O2-  O258  1  0.83352533  0.29496744  0.26885650  1
  O2-  O259  1  0.83615025  0.29374860  0.60402362  1
  O2-  O260  1  0.83328779  0.30347187  0.93879404  1
  O2-  O261  1  0.82549405  0.79242854  0.26648976  1
  O2-  O262  1  0.83484908  0.79291745  0.59634563  1
  O2-  O263  1  0.83110611  0.78404622  0.93302410  1
  O2-  O264  1  0.41392495  0.04685556  0.06109480  1
  O2-  O265  1  0.41760451  0.04145709  0.39919464  1
  O2-  O266  1  0.42475565  0.05556310  0.73221231  1
  O2-  O267  1  0.41860429  0.53999195  0.07083907  1
  O2-  O268  1  0.41617897  0.53787337  0.40270514  1
  O2-  O269  1  0.41440503  0.53558793  0.73219753  1
  O2-  O270  1  0.91420975  0.04258158  0.06412438  1
  O2-  O271  1  0.91403074  0.04611116  0.39139865  1
  O2-  O272  1  0.92262828  0.04736369  0.73091519  1
  O2-  O273  1  0.91882271  0.54153554  0.06610141  1
  O2-  O274  1  0.91847097  0.54193211  0.40402697  1
  O2-  O275  1  0.91614578  0.54219229  0.72842278  1
  O2-  O276  1  0.29646915  0.16904310  0.05570941  1
  O2-  O277  1  0.29235792  0.16883455  0.39897679  1
  O2-  O278  1  0.29085242  0.17080584  0.73627561  1
  O2-  O279  1  0.28970266  0.66523918  0.07176173  1
  O2-  O280  1  0.29036022  0.67104415  0.40016908  1
  O2-  O281  1  0.29077102  0.66552747  0.73605787  1
  O2-  O282  1  0.80198022  0.16830641  0.06226077  1
  O2-  O283  1  0.79182303  0.16286188  0.39472237  1
  O2-  O284  1  0.79489075  0.16865218  0.73520906  1
  O2-  O285  1  0.78478009  0.66327447  0.06924091  1
  O2-  O286  1  0.78795466  0.66702167  0.40345628  1
  O2-  O287  1  0.80107487  0.66682882  0.72417609  1
