# generated using pymatgen
data_Ca2Al2SiO7
_symmetry_space_group_name_H-M   'P 1'
_cell_length_a   15.46398375
_cell_length_b   15.46332009
_cell_length_c   15.28876318
_cell_angle_alpha   90.00357639
_cell_angle_beta   89.99888596
_cell_angle_gamma   89.98864809
_symmetry_Int_Tables_number   1
_chemical_formula_structural   Ca2Al2SiO7
_chemical_formula_sum   'Ca48 Al48 Si24 O168'
_cell_volume   3655.91823828
_cell_formula_units_Z   24
loop_
 _symmetry_equiv_pos_site_id
 _symmetry_equiv_pos_as_xyz
  1  'x, y, z'
loop_
 _atom_type_symbol
 _atom_type_oxidation_number
  Ca2+  2.0
  Al0+  0.0
  Si0+  0.0
  O2-  -2.0
loop_
 _atom_site_type_symbol
 _atom_site_label
 _atom_site_symmetry_multiplicity
 _atom_site_fract_x
 _atom_site_fract_y
 _atom_site_fract_z
 _atom_site_occupancy
  Ca2+  Ca0  1  0.16361722  0.07779438  0.17019592  1
  Ca2+  Ca1  1  0.16588450  0.07955725  0.50721539  1
  Ca2+  Ca2  1  0.16655487  0.06762812  0.83953698  1
  Ca2+  Ca3  1  0.16474281  0.58771592  0.16614066  1
  Ca2+  Ca4  1  0.16528039  0.57937998  0.51129350  1
  Ca2+  Ca5  1  0.16093457  0.58588058  0.83422451  1
  Ca2+  Ca6  1  0.67968461  0.07591329  0.17186159  1
  Ca2+  Ca7  1  0.66761081  0.08110434  0.50033576  1
  Ca2+  Ca8  1  0.66959729  0.08250221  0.83873174  1
  Ca2+  Ca9  1  0.67648596  0.58145831  0.17193465  1
  Ca2+  Ca10  1  0.67883972  0.58131116  0.50501604  1
  Ca2+  Ca11  1  0.67360735  0.58316421  0.84115134  1
  Ca2+  Ca12  1  0.06762978  0.32538670  0.16399257  1
  Ca2+  Ca13  1  0.07266606  0.33366228  0.49470903  1
  Ca2+  Ca14  1  0.06926865  0.33888270  0.82732270  1
  Ca2+  Ca15  1  0.07595476  0.82824811  0.15454595  1
  Ca2+  Ca16  1  0.08647016  0.82886143  0.50189553  1
  Ca2+  Ca17  1  0.08198005  0.82706611  0.83352937  1
  Ca2+  Ca18  1  0.59506332  0.33722992  0.16228139  1
  Ca2+  Ca19  1  0.58945366  0.32934195  0.49675812  1
  Ca2+  Ca20  1  0.59186511  0.32770998  0.82923821  1
  Ca2+  Ca21  1  0.57642567  0.83449022  0.15954861  1
  Ca2+  Ca22  1  0.57768553  0.83149733  0.49424607  1
  Ca2+  Ca23  1  0.57957454  0.82093914  0.82531506  1
  Ca2+  Ca24  1  0.33071478  0.42117318  0.17180761  1
  Ca2+  Ca25  1  0.32250181  0.41861932  0.50852888  1
  Ca2+  Ca26  1  0.32170299  0.41428201  0.83729979  1
  Ca2+  Ca27  1  0.32912771  0.90504918  0.16648089  1
  Ca2+  Ca28  1  0.33155584  0.91132249  0.50716217  1
  Ca2+  Ca29  1  0.32568657  0.90043345  0.83491083  1
  Ca2+  Ca30  1  0.83065817  0.42449364  0.16834710  1
  Ca2+  Ca31  1  0.84026778  0.42384253  0.50213058  1
  Ca2+  Ca32  1  0.83433892  0.42598912  0.83968138  1
  Ca2+  Ca33  1  0.83482226  0.92364458  0.17293899  1
  Ca2+  Ca34  1  0.83006247  0.92268095  0.49990666  1
  Ca2+  Ca35  1  0.83890116  0.92607809  0.84369729  1
  Ca2+  Ca36  1  0.42007788  0.17120246  0.16445880  1
  Ca2+  Ca37  1  0.42358752  0.16471402  0.49974080  1
  Ca2+  Ca38  1  0.42519274  0.16764209  0.82764469  1
  Ca2+  Ca39  1  0.42711446  0.67560047  0.15797870  1
  Ca2+  Ca40  1  0.42100832  0.67701465  0.49814563  1
  Ca2+  Ca41  1  0.43013240  0.67229186  0.83024320  1
  Ca2+  Ca42  1  0.90505472  0.17398078  0.16409954  1
  Ca2+  Ca43  1  0.91902758  0.17877176  0.48971046  1
  Ca2+  Ca44  1  0.90832438  0.17964185  0.83088533  1
  Ca2+  Ca45  1  0.91558926  0.66927910  0.15697647  1
  Ca2+  Ca46  1  0.92035741  0.65765626  0.49952981  1
  Ca2+  Ca47  1  0.92203816  0.66165715  0.83066757  1
  Al0+  Al48  1  0.00297130  0.00057606  0.00647119  1
  Al0+  Al49  1  0.00242230  -0.00247407  0.33668514  1
  Al0+  Al50  1  0.00068857  0.00054827  0.67220093  1
  Al0+  Al51  1  -0.00078915  0.49774929  -0.00151002  1
  Al0+  Al52  1  0.00151901  0.49706567  0.33019675  1
  Al0+  Al53  1  -0.00008108  0.50084245  0.66672726  1
  Al0+  Al54  1  0.49694827  0.00355354  -0.00339819  1
  Al0+  Al55  1  0.49673234  0.00099922  0.33082030  1
  Al0+  Al56  1  0.50041822  0.00172623  0.66015830  1
  Al0+  Al57  1  0.49650012  0.49884463  -0.00121752  1
  Al0+  Al58  1  0.49910458  0.50163359  0.33869365  1
  Al0+  Al59  1  0.50033330  0.49983089  0.66268029  1
  Al0+  Al60  1  0.24935018  0.24811365  0.00142567  1
  Al0+  Al61  1  0.25061197  0.24824736  0.33012176  1
  Al0+  Al62  1  0.24982069  0.24878130  0.67368967  1
  Al0+  Al63  1  0.24935352  0.74845234  -0.00105038  1
  Al0+  Al64  1  0.25186285  0.75004740  0.33043000  1
  Al0+  Al65  1  0.24935127  0.74904011  0.66360075  1
  Al0+  Al66  1  0.74983472  0.24929211  0.00218747  1
  Al0+  Al67  1  0.74943164  0.24974104  0.33442322  1
  Al0+  Al68  1  0.75037729  0.25090978  0.65637827  1
  Al0+  Al69  1  0.74939276  0.75212938  -0.00342610  1
  Al0+  Al70  1  0.75090798  0.74870197  0.34201164  1
  Al0+  Al71  1  0.75109804  0.75154711  0.66658928  1
  Al0+  Al72  1  0.92816073  0.31747853  0.98506731  1
  Al0+  Al73  1  0.57587728  0.67612139  0.64837691  1
  Al0+  Al74  1  0.17990678  0.92812797  0.68124417  1
  Al0+  Al75  1  0.82317262  0.07030677  0.35027228  1
  Al0+  Al76  1  0.92723126  0.32035699  0.31462297  1
  Al0+  Al77  1  0.67629678  0.92941158  0.34770449  1
  Al0+  Al78  1  0.67685133  0.42942342  0.34983707  1
  Al0+  Al79  1  0.42959158  0.82208687  0.98393928  1
  Al0+  Al80  1  0.42983924  0.82139561  0.31705879  1
  Al0+  Al81  1  0.43071323  0.81887069  0.65052330  1
  Al0+  Al82  1  0.82150170  0.57366650  0.01392793  1
  Al0+  Al83  1  0.82054765  0.57173219  0.68200424  1
  Al0+  Al84  1  0.92751344  0.82482748  0.98742848  1
  Al0+  Al85  1  0.57298735  0.67687877  0.98661185  1
  Al0+  Al86  1  0.93100099  0.32127136  0.65210881  1
  Al0+  Al87  1  0.67763991  0.42967226  0.01190648  1
  Al0+  Al88  1  0.06797525  0.68159137  0.65276287  1
  Al0+  Al89  1  0.57055362  0.18095740  0.65179141  1
  Al0+  Al90  1  0.82436276  0.57028394  0.34956868  1
  Al0+  Al91  1  0.18244413  0.92799378  0.01580263  1
  Al0+  Al92  1  0.17890004  0.42861587  0.68072883  1
  Al0+  Al93  1  0.82069141  0.06981526  0.01234085  1
  Al0+  Al94  1  0.06877429  0.67816410  0.98540976  1
  Al0+  Al95  1  0.07255553  0.17623450  0.31898678  1
  Si0+  Si96  1  0.56944911  0.18232405  0.98646377  1
  Si0+  Si97  1  0.81965742  0.07226989  0.68085918  1
  Si0+  Si98  1  0.92794005  0.82736719  0.64938155  1
  Si0+  Si99  1  0.42867492  0.32262131  0.31953778  1
  Si0+  Si100  1  0.56956701  0.17992494  0.31637769  1
  Si0+  Si101  1  0.67452007  0.92895773  0.01247253  1
  Si0+  Si102  1  0.42428476  0.32173228  0.65075486  1
  Si0+  Si103  1  0.31954438  0.07273008  0.34925371  1
  Si0+  Si104  1  0.07244655  0.17651213  0.65357910  1
  Si0+  Si105  1  0.07183015  0.67852692  0.31965301  1
  Si0+  Si106  1  0.67820377  0.42698667  0.68145098  1
  Si0+  Si107  1  0.57279223  0.67807918  0.31757289  1
  Si0+  Si108  1  0.32282095  0.07448544  0.01938901  1
  Si0+  Si109  1  0.18088294  0.92692947  0.34945176  1
  Si0+  Si110  1  0.31903006  0.56901021  0.01532579  1
  Si0+  Si111  1  0.31970279  0.57268481  0.34912304  1
  Si0+  Si112  1  0.32411649  0.07144227  0.68450161  1
  Si0+  Si113  1  0.18210314  0.42815908  0.34642748  1
  Si0+  Si114  1  0.67770859  0.93108201  0.68131195  1
  Si0+  Si115  1  0.32247517  0.57151466  0.68360488  1
  Si0+  Si116  1  0.42478577  0.32205678  0.98543523  1
  Si0+  Si117  1  0.17768599  0.42608908  0.01734066  1
  Si0+  Si118  1  0.92877761  0.81966036  0.32149274  1
  Si0+  Si119  1  0.07462085  0.17790870  0.98193147  1
  O2-  O120  1  0.25766726  0.00256533  0.06322425  1
  O2-  O121  1  0.24860868  0.00162321  0.39070229  1
  O2-  O122  1  0.25620551  0.00205328  0.72774577  1
  O2-  O123  1  0.24765127  0.49848298  0.05927093  1
  O2-  O124  1  0.24942196  0.50118987  0.39112802  1
  O2-  O125  1  0.25681575  0.49986723  0.72825579  1
  O2-  O126  1  0.75055385  -0.01050892  0.05685735  1
  O2-  O127  1  0.74886107  0.00026177  0.40002976  1
  O2-  O128  1  0.75108957  -0.00052550  0.72423319  1
  O2-  O129  1  0.74527123  0.50501436  0.06250002  1
  O2-  O130  1  0.75219313  0.49779821  0.39919880  1
  O2-  O131  1  0.74097715  0.50014102  0.72587023  1
  O2-  O132  1  -0.00468346  0.24184159  0.26797184  1
  O2-  O133  1  0.00705138  0.24646932  0.60775308  1
  O2-  O134  1  0.00417262  0.24398655  0.93740906  1
  O2-  O135  1  -0.00296130  0.74569027  0.27938741  1
  O2-  O136  1  -0.00624024  0.75585522  0.60467120  1
  O2-  O137  1  -0.00630159  0.74772928  0.93662723  1
  O2-  O138  1  0.50427576  0.25757578  0.27532548  1
  O2-  O139  1  0.49531362  0.25618148  0.60577035  1
  O2-  O140  1  0.49932904  0.25460472  0.94426514  1
  O2-  O141  1  0.50887501  0.75087337  0.27230027  1
  O2-  O142  1  0.50394819  0.74915573  0.59920034  1
  O2-  O143  1  0.50619837  0.75429374  0.93646824  1
  O2-  O144  1  0.07885307  0.18155267  0.08730029  1
  O2-  O145  1  0.07707501  0.18102787  0.43280306  1
  O2-  O146  1  0.07011172  0.17522693  0.75893756  1
  O2-  O147  1  0.07123666  0.68045544  0.09988322  1
  O2-  O148  1  0.07545958  0.67974694  0.42464390  1
  O2-  O149  1  0.06803267  0.68164366  0.76506934  1
  O2-  O150  1  0.56737356  0.18196662  0.09148172  1
  O2-  O151  1  0.56515417  0.17815028  0.42141814  1
  O2-  O152  1  0.57073835  0.18156156  0.76544079  1
  O2-  O153  1  0.56875820  0.67535660  0.10047217  1
  O2-  O154  1  0.56806806  0.67784724  0.42281081  1
  O2-  O155  1  0.57404143  0.67683213  0.76194611  1
  O2-  O156  1  0.18578141  0.42922778  0.24124316  1
  O2-  O157  1  0.18101401  0.42950201  0.56693460  1
  O2-  O158  1  0.18069107  0.42360565  0.91235178  1
  O2-  O159  1  0.18313323  0.92436614  0.24464369  1
  O2-  O160  1  0.18053465  0.93099994  0.56754488  1
  O2-  O161  1  0.18415999  0.92882377  0.90279989  1
  O2-  O162  1  0.67371754  0.43470995  0.23658417  1
  O2-  O163  1  0.68044676  0.42504904  0.57619865  1
  O2-  O164  1  0.67932135  0.42590546  0.89832053  1
  O2-  O165  1  0.67648136  0.93152799  0.23379784  1
  O2-  O166  1  0.67727347  0.93404145  0.57634188  1
  O2-  O167  1  0.67081198  0.93558073  0.90689300  1
  O2-  O168  1  0.42075315  0.32010041  0.09065091  1
  O2-  O169  1  0.42420351  0.31848421  0.42423960  1
  O2-  O170  1  0.42229459  0.31926844  0.75642678  1
  O2-  O171  1  0.43052736  0.81926068  0.09792805  1
  O2-  O172  1  0.42575810  0.81860547  0.42966846  1
  O2-  O173  1  0.43240565  0.81703706  0.76377061  1
  O2-  O174  1  0.92890340  0.31624213  0.09768805  1
  O2-  O175  1  0.93379833  0.32304471  0.42827252  1
  O2-  O176  1  0.92918384  0.31900500  0.76530436  1
  O2-  O177  1  0.93149333  0.82598200  0.10170001  1
  O2-  O178  1  0.93233066  0.82213102  0.42654520  1
  O2-  O179  1  0.93030077  0.83190836  0.75445234  1
  O2-  O180  1  0.32001385  0.07631833  0.24448176  1
  O2-  O181  1  0.32253076  0.07428500  0.57862810  1
  O2-  O182  1  0.32213061  0.08145367  0.91441434  1
  O2-  O183  1  0.31924340  0.57169509  0.24382757  1
  O2-  O184  1  0.31886150  0.57001896  0.57739476  1
  O2-  O185  1  0.31954810  0.56562584  0.91055587  1
  O2-  O186  1  0.82060102  0.06768237  0.23653892  1
  O2-  O187  1  0.81966811  0.07107074  0.57609789  1
  O2-  O188  1  0.81556742  0.07307345  0.89864677  1
  O2-  O189  1  0.82508168  0.57304913  0.23631747  1
  O2-  O190  1  0.82326077  0.56730501  0.56910435  1
  O2-  O191  1  0.82376243  0.56844983  0.90051982  1
  O2-  O192  1  0.05259265  0.07389506  0.27057775  1
  O2-  O193  1  0.04574398  0.08356720  0.60661156  1
  O2-  O194  1  0.05171734  0.08260072  0.94027314  1
  O2-  O195  1  0.05098871  0.58505228  0.27289256  1
  O2-  O196  1  0.03844110  0.58498750  0.59801122  1
  O2-  O197  1  0.04669790  0.57789607  0.93389532  1
  O2-  O198  1  0.53377071  0.09184819  0.26733212  1
  O2-  O199  1  0.53789492  0.08684350  0.59427247  1
  O2-  O200  1  0.54006519  0.09248203  0.93592579  1
  O2-  O201  1  0.53999225  0.58598285  0.27239920  1
  O2-  O202  1  0.54748802  0.57712198  0.59609466  1
  O2-  O203  1  0.53658970  0.58066585  0.93260941  1
  O2-  O204  1  0.16934254  0.20904157  0.26352670  1
  O2-  O205  1  0.16855294  0.19852470  0.61077125  1
  O2-  O206  1  0.16773665  0.20481221  0.93495190  1
  O2-  O207  1  0.16193947  0.71021255  0.27081195  1
  O2-  O208  1  0.16442067  0.71084974  0.59692472  1
  O2-  O209  1  0.16668220  0.70808509  0.93307129  1
  O2-  O210  1  0.66297485  0.20134497  0.27027745  1
  O2-  O211  1  0.66466430  0.21081584  0.59333581  1
  O2-  O212  1  0.66013537  0.20988770  0.93752290  1
  O2-  O213  1  0.66929135  0.69887060  0.27643039  1
  O2-  O214  1  0.67411898  0.70670062  0.59671382  1
  O2-  O215  1  0.67167339  0.69996528  0.93296896  1
  O2-  O216  1  0.08643126  0.45327138  0.06458532  1
  O2-  O217  1  0.08982818  0.45382010  0.39246043  1
  O2-  O218  1  0.08476890  0.46345249  0.73518860  1
  O2-  O219  1  0.08751288  0.95994278  0.07249453  1
  O2-  O220  1  0.08886090  0.94937234  0.39822368  1
  O2-  O221  1  0.08429008  0.96007141  0.73700803  1
  O2-  O222  1  0.57456723  0.44730115  0.06137958  1
  O2-  O223  1  0.57753461  0.45557770  0.40422499  1
  O2-  O224  1  0.58050612  0.44350031  0.72355978  1
  O2-  O225  1  0.58366179  0.96334992  0.06028301  1
  O2-  O226  1  0.57765410  0.96170894  0.39916540  1
  O2-  O227  1  0.58692847  0.96360346  0.72772891  1
  O2-  O228  1  0.20961625  0.33558922  0.06516248  1
  O2-  O229  1  0.21435913  0.33772197  0.39371432  1
  O2-  O230  1  0.20751039  0.33212206  0.73743836  1
  O2-  O231  1  0.21345738  0.83114006  0.07021038  1
  O2-  O232  1  0.21369569  0.83629266  0.39697626  1
  O2-  O233  1  0.21104741  0.83096281  0.73333388  1
  O2-  O234  1  0.70963960  0.33290242  0.06654074  1
  O2-  O235  1  0.69844018  0.32773877  0.39799491  1
  O2-  O236  1  0.70838440  0.33339326  0.72589197  1
  O2-  O237  1  0.68975953  0.83277717  0.05559696  1
  O2-  O238  1  0.70277757  0.83162280  0.40219822  1
  O2-  O239  1  0.70161514  0.83812982  0.72724265  1
  O2-  O240  1  0.44943319  0.41742745  0.27453570  1
  O2-  O241  1  0.44427146  0.41642921  0.60523606  1
  O2-  O242  1  0.44539716  0.41415653  0.93686715  1
  O2-  O243  1  0.45328607  0.92031449  0.26394953  1
  O2-  O244  1  0.45519533  0.91890731  0.59885642  1
  O2-  O245  1  0.44720293  0.92447626  0.93466649  1
  O2-  O246  1  0.96383637  0.41627045  0.26073927  1
  O2-  O247  1  0.96581152  0.41588985  0.59813100  1
  O2-  O248  1  0.96124879  0.41326280  0.93191379  1
  O2-  O249  1  0.95965793  0.91022915  0.27364293  1
  O2-  O250  1  0.95803680  0.91964452  0.60198801  1
  O2-  O251  1  0.96255469  0.92204776  0.93487624  1
  O2-  O252  1  0.34024357  0.28935247  0.26817391  1
  O2-  O253  1  0.33153330  0.29220385  0.60387610  1
  O2-  O254  1  0.33507624  0.28916093  0.93632021  1
  O2-  O255  1  0.33489551  0.78438349  0.26251593  1
  O2-  O256  1  0.33283995  0.78830928  0.59724792  1
  O2-  O257  1  0.33354400  0.78560257  0.93303515  1
  O2-  O258  1  0.82673668  0.29516679  0.26464951  1
  O2-  O259  1  0.83678123  0.28973625  0.59531879  1
  O2-  O260  1  0.83241765  0.28337167  0.93128881  1
  O2-  O261  1  0.83528181  0.79559606  0.27613489  1
  O2-  O262  1  0.83298863  0.80593880  0.60543226  1
  O2-  O263  1  0.82618289  0.80961301  0.93616819  1
  O2-  O264  1  0.41791110  0.05312381  0.06485197  1
  O2-  O265  1  0.41075245  0.04429103  0.39688231  1
  O2-  O266  1  0.41890958  0.04739263  0.72874046  1
  O2-  O267  1  0.40901617  0.53922168  0.06562053  1
  O2-  O268  1  0.41025832  0.54579660  0.39849682  1
  O2-  O269  1  0.41780013  0.54874016  0.72726914  1
  O2-  O270  1  0.91868376  0.04745655  0.06674076  1
  O2-  O271  1  0.92145877  0.04044290  0.40343128  1
  O2-  O272  1  0.91168008  0.04752341  0.72933988  1
  O2-  O273  1  0.91943687  0.54069223  0.06667536  1
  O2-  O274  1  0.92428992  0.53974006  0.40046773  1
  O2-  O275  1  0.91576861  0.53624073  0.73507339  1
  O2-  O276  1  0.29387815  0.16657388  0.06870956  1
  O2-  O277  1  0.29276911  0.16438650  0.39847885  1
  O2-  O278  1  0.30027428  0.16453050  0.73299699  1
  O2-  O279  1  0.29026249  0.65963679  0.06414548  1
  O2-  O280  1  0.28893548  0.66331943  0.39685418  1
  O2-  O281  1  0.29209897  0.66314028  0.72912520  1
  O2-  O282  1  0.78130884  0.16213821  0.06840732  1
  O2-  O283  1  0.79508857  0.16940779  0.40060423  1
  O2-  O284  1  0.78748479  0.16416542  0.72551439  1
  O2-  O285  1  0.79841430  0.67493741  0.06451828  1
  O2-  O286  1  0.79919466  0.66833004  0.40511211  1
  O2-  O287  1  0.79713002  0.67181135  0.73277005  1
