# generated using pymatgen
data_Ca2Al2SiO7
_symmetry_space_group_name_H-M   'P 1'
_cell_length_a   15.46467628
_cell_length_b   15.46569479
_cell_length_c   15.28906809
_cell_angle_alpha   89.99129312
_cell_angle_beta   89.99786022
_cell_angle_gamma   89.97735771
_symmetry_Int_Tables_number   1
_chemical_formula_structural   Ca2Al2SiO7
_chemical_formula_sum   'Ca48 Al48 Si24 O168'
_cell_volume   3656.71610205
_cell_formula_units_Z   24
loop_
 _symmetry_equiv_pos_site_id
 _symmetry_equiv_pos_as_xyz
  1  'x, y, z'
loop_
 _atom_type_symbol
 _atom_type_oxidation_number
  Ca2+  2.0
  Al0+  0.0
  Si0+  0.0
  O2-  -2.0
loop_
 _atom_site_type_symbol
 _atom_site_label
 _atom_site_symmetry_multiplicity
 _atom_site_fract_x
 _atom_site_fract_y
 _atom_site_fract_z
 _atom_site_occupancy
  Ca2+  Ca0  1  0.17140007  0.07367200  0.17552702  1
  Ca2+  Ca1  1  0.16450842  0.07628068  0.50551224  1
  Ca2+  Ca2  1  0.16504723  0.08219175  0.83398807  1
  Ca2+  Ca3  1  0.17851840  0.59131823  0.16933329  1
  Ca2+  Ca4  1  0.17834747  0.58501606  0.50920489  1
  Ca2+  Ca5  1  0.17540058  0.59279308  0.83493388  1
  Ca2+  Ca6  1  0.66508185  0.08110455  0.17220011  1
  Ca2+  Ca7  1  0.66896300  0.08327718  0.51048905  1
  Ca2+  Ca8  1  0.66900854  0.08500798  0.83233599  1
  Ca2+  Ca9  1  0.66248017  0.58089751  0.17123866  1
  Ca2+  Ca10  1  0.66713160  0.58701259  0.50595528  1
  Ca2+  Ca11  1  0.65848042  0.57691104  0.83739057  1
  Ca2+  Ca12  1  0.07469493  0.33682239  0.15864309  1
  Ca2+  Ca13  1  0.09396161  0.32862856  0.50174261  1
  Ca2+  Ca14  1  0.07873235  0.33265425  0.82457301  1
  Ca2+  Ca15  1  0.08053776  0.82993169  0.16607203  1
  Ca2+  Ca16  1  0.07526894  0.83087901  0.49969590  1
  Ca2+  Ca17  1  0.08151956  0.82004453  0.82738359  1
  Ca2+  Ca18  1  0.58181764  0.33106176  0.16041980  1
  Ca2+  Ca19  1  0.59670711  0.32332682  0.50151441  1
  Ca2+  Ca20  1  0.58095746  0.33869373  0.82871488  1
  Ca2+  Ca21  1  0.57339252  0.81760074  0.16287059  1
  Ca2+  Ca22  1  0.57184332  0.82214405  0.49484694  1
  Ca2+  Ca23  1  0.57397731  0.81989156  0.82677662  1
  Ca2+  Ca24  1  0.34098581  0.42935707  0.16693577  1
  Ca2+  Ca25  1  0.33128468  0.43035456  0.50858934  1
  Ca2+  Ca26  1  0.33322420  0.43021493  0.83777836  1
  Ca2+  Ca27  1  0.32935742  0.90594580  0.17346338  1
  Ca2+  Ca28  1  0.33187407  0.90794537  0.50267172  1
  Ca2+  Ca29  1  0.33973862  0.91314430  0.83687902  1
  Ca2+  Ca30  1  0.83001610  0.42345498  0.16798837  1
  Ca2+  Ca31  1  0.82728652  0.42746007  0.50429139  1
  Ca2+  Ca32  1  0.82124804  0.41244790  0.83812555  1
  Ca2+  Ca33  1  0.83202275  0.91575981  0.17513302  1
  Ca2+  Ca34  1  0.83663156  0.91897638  0.50878263  1
  Ca2+  Ca35  1  0.84098077  0.92192884  0.83130828  1
  Ca2+  Ca36  1  0.42158593  0.17427891  0.16255729  1
  Ca2+  Ca37  1  0.43010691  0.16912022  0.49620588  1
  Ca2+  Ca38  1  0.42192096  0.17707620  0.82711293  1
  Ca2+  Ca39  1  0.41703425  0.66921331  0.16055341  1
  Ca2+  Ca40  1  0.42158878  0.66481063  0.49706537  1
  Ca2+  Ca41  1  0.41940089  0.66854330  0.82883504  1
  Ca2+  Ca42  1  0.91888385  0.17564800  0.16091601  1
  Ca2+  Ca43  1  0.91948907  0.16502122  0.50332651  1
  Ca2+  Ca44  1  0.91900541  0.17186411  0.82598947  1
  Ca2+  Ca45  1  0.92086305  0.66596673  0.16357049  1
  Ca2+  Ca46  1  0.91586031  0.67448640  0.49377627  1
  Ca2+  Ca47  1  0.92969372  0.66779309  0.82495813  1
  Al0+  Al48  1  0.00087612  0.00097674  0.00402018  1
  Al0+  Al49  1  0.00088404  -0.00008686  0.33271118  1
  Al0+  Al50  1  0.00052582  0.00298183  0.66647937  1
  Al0+  Al51  1  -0.00122917  0.49910680  -0.01000404  1
  Al0+  Al52  1  -0.00198661  0.49875112  0.33814904  1
  Al0+  Al53  1  -0.00080819  0.49912439  0.66425787  1
  Al0+  Al54  1  0.50138247  0.00058624  0.00023456  1
  Al0+  Al55  1  0.50013343  0.00026311  0.32554357  1
  Al0+  Al56  1  0.50030805  0.00104101  0.66156955  1
  Al0+  Al57  1  0.49983634  0.49755903  0.00300656  1
  Al0+  Al58  1  0.50018919  0.49540078  0.33758712  1
  Al0+  Al59  1  0.49868369  0.50083991  0.67023467  1
  Al0+  Al60  1  0.25103679  0.24887731  -0.00136021  1
  Al0+  Al61  1  0.25127432  0.24709757  0.33134377  1
  Al0+  Al62  1  0.24955229  0.24922147  0.66509414  1
  Al0+  Al63  1  0.24822834  0.75153735  -0.00147373  1
  Al0+  Al64  1  0.24741240  0.74928424  0.34175362  1
  Al0+  Al65  1  0.24712846  0.75166229  0.66524006  1
  Al0+  Al66  1  0.75230267  0.24985134  0.00243661  1
  Al0+  Al67  1  0.75227422  0.24896331  0.32817372  1
  Al0+  Al68  1  0.75167841  0.24997335  0.67147472  1
  Al0+  Al69  1  0.75010595  0.75216403  -0.00298593  1
  Al0+  Al70  1  0.74936583  0.75106054  0.32930906  1
  Al0+  Al71  1  0.74831173  0.75218940  0.66364834  1
  Al0+  Al72  1  0.81976823  0.57235752  0.34574039  1
  Al0+  Al73  1  0.17902941  0.92993723  0.34930538  1
  Al0+  Al74  1  0.92917011  0.32049755  0.98517809  1
  Al0+  Al75  1  0.32104250  0.56925327  0.34747694  1
  Al0+  Al76  1  0.06960441  0.68027412  0.98824460  1
  Al0+  Al77  1  0.07179700  0.18108697  0.65287227  1
  Al0+  Al78  1  0.56965189  0.67599629  0.65148665  1
  Al0+  Al79  1  0.07047881  0.67623982  0.64884308  1
  Al0+  Al80  1  0.42794188  0.82225060  0.65130531  1
  Al0+  Al81  1  0.31836259  0.57087530  0.01469208  1
  Al0+  Al82  1  0.31858964  0.57299073  0.68443253  1
  Al0+  Al83  1  0.92927905  0.82175574  0.31888936  1
  Al0+  Al84  1  0.42919246  0.32050592  0.98617033  1
  Al0+  Al85  1  0.42580229  0.81801949  0.31820675  1
  Al0+  Al86  1  0.67972964  0.42961589  0.01538401  1
  Al0+  Al87  1  0.17760884  0.42645784  0.68190208  1
  Al0+  Al88  1  0.57217624  0.18182458  0.65534443  1
  Al0+  Al89  1  0.68142095  0.43092815  0.67980413  1
  Al0+  Al90  1  0.42833325  0.82119614  0.98578798  1
  Al0+  Al91  1  0.92978876  0.82141817  0.65338590  1
  Al0+  Al92  1  0.57315466  0.17941492  0.31860667  1
  Al0+  Al93  1  0.57204773  0.67684421  0.98518369  1
  Al0+  Al94  1  0.82092544  0.06936599  0.68106857  1
  Al0+  Al95  1  0.57092845  0.67529430  0.31827360  1
  Si0+  Si96  1  0.17912812  0.93217842  0.68337223  1
  Si0+  Si97  1  0.67827551  0.93042772  0.34753329  1
  Si0+  Si98  1  0.67962725  0.42554026  0.34922138  1
  Si0+  Si99  1  0.42636440  0.31980330  0.31664055  1
  Si0+  Si100  1  0.17979434  0.93099605  0.01541067  1
  Si0+  Si101  1  0.82076879  0.07134440  0.34817393  1
  Si0+  Si102  1  0.92745091  0.82557749  0.98430963  1
  Si0+  Si103  1  0.57329661  0.17817464  0.98306629  1
  Si0+  Si104  1  0.93034258  0.32110281  0.31828852  1
  Si0+  Si105  1  0.42790093  0.32212225  0.64976920  1
  Si0+  Si106  1  0.32297608  0.07286823  0.01527832  1
  Si0+  Si107  1  0.07181037  0.17701725  0.98490918  1
  Si0+  Si108  1  0.67568036  0.92839058  0.68398564  1
  Si0+  Si109  1  0.32343324  0.07281714  0.35091415  1
  Si0+  Si110  1  0.82387836  0.57349590  0.01364402  1
  Si0+  Si111  1  0.06951615  0.67610371  0.31793921  1
  Si0+  Si112  1  0.32368289  0.07113929  0.68134976  1
  Si0+  Si113  1  0.17616544  0.42605439  0.01512761  1
  Si0+  Si114  1  0.92643949  0.32134437  0.64831340  1
  Si0+  Si115  1  0.82181597  0.06959344  0.01771558  1
  Si0+  Si116  1  0.07175518  0.17839594  0.31763682  1
  Si0+  Si117  1  0.67836383  0.92896958  0.01648905  1
  Si0+  Si118  1  0.17612469  0.42526957  0.34739475  1
  Si0+  Si119  1  0.82196304  0.57637314  0.68316642  1
  O2-  O120  1  0.25348846  -0.00006522  0.05714368  1
  O2-  O121  1  0.25763405  0.00166547  0.39515676  1
  O2-  O122  1  0.25471070  -0.00120241  0.72535222  1
  O2-  O123  1  0.24306817  0.49503207  0.06129120  1
  O2-  O124  1  0.24510563  0.49329689  0.39037528  1
  O2-  O125  1  0.24486666  0.50132968  0.73368064  1
  O2-  O126  1  0.75168739  -0.00169027  0.06005485  1
  O2-  O127  1  0.74943361  0.00157423  0.39058905  1
  O2-  O128  1  0.74752748  -0.00579329  0.72920412  1
  O2-  O129  1  0.75169237  0.50885788  0.05937337  1
  O2-  O130  1  0.74104401  0.50119269  0.39192437  1
  O2-  O131  1  0.75263536  0.50862192  0.72769696  1
  O2-  O132  1  0.00525706  0.25348479  0.27591888  1
  O2-  O133  1  0.00153307  0.25911207  0.60420503  1
  O2-  O134  1  0.00672236  0.24800900  0.94046599  1
  O2-  O135  1  0.00091689  0.74444558  0.27209817  1
  O2-  O136  1  -0.00574894  0.74475110  0.60043399  1
  O2-  O137  1  -0.00853326  0.75237169  0.94256607  1
  O2-  O138  1  0.49784592  0.25329988  0.27295238  1
  O2-  O139  1  0.49996936  0.25677441  0.60535862  1
  O2-  O140  1  0.50556193  0.24729526  0.93947830  1
  O2-  O141  1  0.49438236  0.74286856  0.26844678  1
  O2-  O142  1  0.49681813  0.74736699  0.60229253  1
  O2-  O143  1  0.49852854  0.74800100  0.93654840  1
  O2-  O144  1  0.06903960  0.17513104  0.09094483  1
  O2-  O145  1  0.07104328  0.17789572  0.42237769  1
  O2-  O146  1  0.06885677  0.17847517  0.76604011  1
  O2-  O147  1  0.06971194  0.68307339  0.10180832  1
  O2-  O148  1  0.06663627  0.67629623  0.42285638  1
  O2-  O149  1  0.07108550  0.68133687  0.76281085  1
  O2-  O150  1  0.57198587  0.17776791  0.08902984  1
  O2-  O151  1  0.57604058  0.18121290  0.43155854  1
  O2-  O152  1  0.56978463  0.18191841  0.76829389  1
  O2-  O153  1  0.57217368  0.67883916  0.09875280  1
  O2-  O154  1  0.57203768  0.67877551  0.43127338  1
  O2-  O155  1  0.56936843  0.67668538  0.76495539  1
  O2-  O156  1  0.17321101  0.42457198  0.24169613  1
  O2-  O157  1  0.18514764  0.42335400  0.56788908  1
  O2-  O158  1  0.17816285  0.42349224  0.91038039  1
  O2-  O159  1  0.17711297  0.93358104  0.23545169  1
  O2-  O160  1  0.17682692  0.93593717  0.57840900  1
  O2-  O161  1  0.17554420  0.93427080  0.91073045  1
  O2-  O162  1  0.68344279  0.42200628  0.24365709  1
  O2-  O163  1  0.68666285  0.42684302  0.56660292  1
  O2-  O164  1  0.68209621  0.42596996  0.90264872  1
  O2-  O165  1  0.68136142  0.93347903  0.24198022  1
  O2-  O166  1  0.67506351  0.93212809  0.57832375  1
  O2-  O167  1  0.67811332  0.93190140  0.91183508  1
  O2-  O168  1  0.42991361  0.31713766  0.09963473  1
  O2-  O169  1  0.42231368  0.31668264  0.42177081  1
  O2-  O170  1  0.42762602  0.31850227  0.75549343  1
  O2-  O171  1  0.42787491  0.82059182  0.09921845  1
  O2-  O172  1  0.42901189  0.81983963  0.43102497  1
  O2-  O173  1  0.43181120  0.82484603  0.76482980  1
  O2-  O174  1  0.93045683  0.31854654  0.09916077  1
  O2-  O175  1  0.92734410  0.31877332  0.42275220  1
  O2-  O176  1  0.92454793  0.31608327  0.75387124  1
  O2-  O177  1  0.92978454  0.82952544  0.08996604  1
  O2-  O178  1  0.93090505  0.82537098  0.43116432  1
  O2-  O179  1  0.93489411  0.82289795  0.76740957  1
  O2-  O180  1  0.31889402  0.07721180  0.24507987  1
  O2-  O181  1  0.32304851  0.07210756  0.57633992  1
  O2-  O182  1  0.32183521  0.07434705  0.91032894  1
  O2-  O183  1  0.31953052  0.56901232  0.23390333  1
  O2-  O184  1  0.31950527  0.57039239  0.57060970  1
  O2-  O185  1  0.31700500  0.57234919  0.90255187  1
  O2-  O186  1  0.82085978  0.07171138  0.24259154  1
  O2-  O187  1  0.81994725  0.06951709  0.56756657  1
  O2-  O188  1  0.82453795  0.06904457  0.91304270  1
  O2-  O189  1  0.82540660  0.56713341  0.23265416  1
  O2-  O190  1  0.82073425  0.57472022  0.57721157  1
  O2-  O191  1  0.82549227  0.57125467  0.90848519  1
  O2-  O192  1  0.03871095  0.08959020  0.26788540  1
  O2-  O193  1  0.03549972  0.08736698  0.59723247  1
  O2-  O194  1  0.04200773  0.08465204  0.93859037  1
  O2-  O195  1  0.04443831  0.58169603  0.27268972  1
  O2-  O196  1  0.04938068  0.57548684  0.59795553  1
  O2-  O197  1  0.04369807  0.58440264  0.93158628  1
  O2-  O198  1  0.54299753  0.08430785  0.26146614  1
  O2-  O199  1  0.54136865  0.08679211  0.59915606  1
  O2-  O200  1  0.54719640  0.08502482  0.93744268  1
  O2-  O201  1  0.54943799  0.57244832  0.27159969  1
  O2-  O202  1  0.54309593  0.57705814  0.59877876  1
  O2-  O203  1  0.54527311  0.57726613  0.93647415  1
  O2-  O204  1  0.16513024  0.20017916  0.26994756  1
  O2-  O205  1  0.16895052  0.20606393  0.59619771  1
  O2-  O206  1  0.16693439  0.19640585  0.94068857  1
  O2-  O207  1  0.16290256  0.70500320  0.27424151  1
  O2-  O208  1  0.16618430  0.71140862  0.59641520  1
  O2-  O209  1  0.16236536  0.71746789  0.93236433  1
  O2-  O210  1  0.66944309  0.20939079  0.26226657  1
  O2-  O211  1  0.66938719  0.21193935  0.60176706  1
  O2-  O212  1  0.66845771  0.20138559  0.94073536  1
  O2-  O213  1  0.66733168  0.70836267  0.26369793  1
  O2-  O214  1  0.66848533  0.70498447  0.59998708  1
  O2-  O215  1  0.67079883  0.70625422  0.93265027  1
  O2-  O216  1  0.08049552  0.45108239  0.05793566  1
  O2-  O217  1  0.08282545  0.44739993  0.39550589  1
  O2-  O218  1  0.07461810  0.44614594  0.72921754  1
  O2-  O219  1  0.08937437  0.96174515  0.06595565  1
  O2-  O220  1  0.08428427  0.96828219  0.40266193  1
  O2-  O221  1  0.09061863  0.96735898  0.73254126  1
  O2-  O222  1  0.58281215  0.45481884  0.07120029  1
  O2-  O223  1  0.58362753  0.43837140  0.39391370  1
  O2-  O224  1  0.58302061  0.45581388  0.73271677  1
  O2-  O225  1  0.58832215  0.96041146  0.06596890  1
  O2-  O226  1  0.58615925  0.95988680  0.39271243  1
  O2-  O227  1  0.58413401  0.96034033  0.73073901  1
  O2-  O228  1  0.20027781  0.33127670  0.06169969  1
  O2-  O229  1  0.20213293  0.33015795  0.39121035  1
  O2-  O230  1  0.20524066  0.32671086  0.73399813  1
  O2-  O231  1  0.20545042  0.83957424  0.06397514  1
  O2-  O232  1  0.20296595  0.83335591  0.40505679  1
  O2-  O233  1  0.20207392  0.83937713  0.73012994  1
  O2-  O234  1  0.71471739  0.33327500  0.06978050  1
  O2-  O235  1  0.71588659  0.33447247  0.39517356  1
  O2-  O236  1  0.71524929  0.33604904  0.73599858  1
  O2-  O237  1  0.70529661  0.83680455  0.06409753  1
  O2-  O238  1  0.70604040  0.83885412  0.39366741  1
  O2-  O239  1  0.69882856  0.83413226  0.72952253  1
  O2-  O240  1  0.45204894  0.41328395  0.27160645  1
  O2-  O241  1  0.45094388  0.41633367  0.60617852  1
  O2-  O242  1  0.45923966  0.41620041  0.93256483  1
  O2-  O243  1  0.45362206  0.91726518  0.26544597  1
  O2-  O244  1  0.45696289  0.92006187  0.59698731  1
  O2-  O245  1  0.45726204  0.92095543  0.93538721  1
  O2-  O246  1  0.95624572  0.41324221  0.27038314  1
  O2-  O247  1  0.94332158  0.41708768  0.60434186  1
  O2-  O248  1  0.95447116  0.41552335  0.92745004  1
  O2-  O249  1  0.96278682  0.91796112  0.26376458  1
  O2-  O250  1  0.96372241  0.91848070  0.60097283  1
  O2-  O251  1  0.95889474  0.91805820  0.93872548  1
  O2-  O252  1  0.33453559  0.29149968  0.26704425  1
  O2-  O253  1  0.33677657  0.29135206  0.60268069  1
  O2-  O254  1  0.33334054  0.28748445  0.93206205  1
  O2-  O255  1  0.32429413  0.79249073  0.26971633  1
  O2-  O256  1  0.32710042  0.80027133  0.60274418  1
  O2-  O257  1  0.32854102  0.79825011  0.93446963  1
  O2-  O258  1  0.84199433  0.28815732  0.26699552  1
  O2-  O259  1  0.83712962  0.28586171  0.60066998  1
  O2-  O260  1  0.83457483  0.28350165  0.93203207  1
  O2-  O261  1  0.83260222  0.79491042  0.26371270  1
  O2-  O262  1  0.82848875  0.80330035  0.60274502  1
  O2-  O263  1  0.83238208  0.80814881  0.93942329  1
  O2-  O264  1  0.41597280  0.04874406  0.06252051  1
  O2-  O265  1  0.41972920  0.05096580  0.39234444  1
  O2-  O266  1  0.41579088  0.04558068  0.72956221  1
  O2-  O267  1  0.41396661  0.53718016  0.06881261  1
  O2-  O268  1  0.41668180  0.53619235  0.40265102  1
  O2-  O269  1  0.41641935  0.54214145  0.73690603  1
  O2-  O270  1  0.91390665  0.04328000  0.06713863  1
  O2-  O271  1  0.91297438  0.04386203  0.39417021  1
  O2-  O272  1  0.91734677  0.03913942  0.73684529  1
  O2-  O273  1  0.91626025  0.54190907  0.06023658  1
  O2-  O274  1  0.91379911  0.53704874  0.40327007  1
  O2-  O275  1  0.91627242  0.54960188  0.72683226  1
  O2-  O276  1  0.29261008  0.16293336  0.06581512  1
  O2-  O277  1  0.29454604  0.16503977  0.39857487  1
  O2-  O278  1  0.29294456  0.16176803  0.72940796  1
  O2-  O279  1  0.28423950  0.66774603  0.06784402  1
  O2-  O280  1  0.28923044  0.66381068  0.40346457  1
  O2-  O281  1  0.28872496  0.67236888  0.73538850  1
  O2-  O282  1  0.79393124  0.16088572  0.06638303  1
  O2-  O283  1  0.79415357  0.16397409  0.39425320  1
  O2-  O284  1  0.78898624  0.16416112  0.73756731  1
  O2-  O285  1  0.80516535  0.67027273  0.05713211  1
  O2-  O286  1  0.79315453  0.67080980  0.39780185  1
  O2-  O287  1  0.80033747  0.67122384  0.72834802  1
