# generated using pymatgen
data_Ca2Al2SiO7
_symmetry_space_group_name_H-M   'P 1'
_cell_length_a   15.46132212
_cell_length_b   15.46074933
_cell_length_c   15.28602963
_cell_angle_alpha   90.01222354
_cell_angle_beta   90.01534346
_cell_angle_gamma   89.98317619
_symmetry_Int_Tables_number   1
_chemical_formula_structural   Ca2Al2SiO7
_chemical_formula_sum   'Ca48 Al48 Si24 O168'
_cell_volume   3654.02757241
_cell_formula_units_Z   24
loop_
 _symmetry_equiv_pos_site_id
 _symmetry_equiv_pos_as_xyz
  1  'x, y, z'
loop_
 _atom_type_symbol
 _atom_type_oxidation_number
  Ca2+  2.0
  Al0+  0.0
  Si0+  0.0
  O2-  -2.0
loop_
 _atom_site_type_symbol
 _atom_site_label
 _atom_site_symmetry_multiplicity
 _atom_site_fract_x
 _atom_site_fract_y
 _atom_site_fract_z
 _atom_site_occupancy
  Ca2+  Ca0  1  0.16208937  0.08007619  0.16517996  1
  Ca2+  Ca1  1  0.17179792  0.07628160  0.50926198  1
  Ca2+  Ca2  1  0.16185115  0.07605365  0.84161821  1
  Ca2+  Ca3  1  0.15980789  0.57091018  0.16617082  1
  Ca2+  Ca4  1  0.16998733  0.57908698  0.50193012  1
  Ca2+  Ca5  1  0.16974330  0.58019830  0.84510873  1
  Ca2+  Ca6  1  0.66975227  0.08127971  0.16799629  1
  Ca2+  Ca7  1  0.67116797  0.08523724  0.50465664  1
  Ca2+  Ca8  1  0.66073301  0.07846018  0.84176490  1
  Ca2+  Ca9  1  0.66417044  0.57683140  0.16446168  1
  Ca2+  Ca10  1  0.65640258  0.57597202  0.50366362  1
  Ca2+  Ca11  1  0.66799557  0.57563297  0.84249438  1
  Ca2+  Ca12  1  0.08007387  0.33064034  0.15079246  1
  Ca2+  Ca13  1  0.07551801  0.33843804  0.49610796  1
  Ca2+  Ca14  1  0.06975788  0.34111946  0.83506020  1
  Ca2+  Ca15  1  0.07627319  0.82628048  0.15277899  1
  Ca2+  Ca16  1  0.08079638  0.83782818  0.50155194  1
  Ca2+  Ca17  1  0.07488776  0.83746610  0.83186138  1
  Ca2+  Ca18  1  0.58430589  0.33153316  0.15505978  1
  Ca2+  Ca19  1  0.58408089  0.33607476  0.50063728  1
  Ca2+  Ca20  1  0.58148227  0.33129451  0.82554988  1
  Ca2+  Ca21  1  0.58481975  0.82457414  0.15822174  1
  Ca2+  Ca22  1  0.57997339  0.81941007  0.49060519  1
  Ca2+  Ca23  1  0.59584732  0.81952389  0.83267665  1
  Ca2+  Ca24  1  0.32272555  0.40906018  0.16588057  1
  Ca2+  Ca25  1  0.32991630  0.41322285  0.50455224  1
  Ca2+  Ca26  1  0.33244362  0.41131702  0.84060669  1
  Ca2+  Ca27  1  0.32963851  0.91262068  0.16868549  1
  Ca2+  Ca28  1  0.33053986  0.91267757  0.50728259  1
  Ca2+  Ca29  1  0.32118230  0.91649473  0.84201888  1
  Ca2+  Ca30  1  0.82612925  0.41889480  0.16601531  1
  Ca2+  Ca31  1  0.82094740  0.41785486  0.50660824  1
  Ca2+  Ca32  1  0.82590349  0.41737549  0.84158291  1
  Ca2+  Ca33  1  0.82980134  0.91940654  0.16414145  1
  Ca2+  Ca34  1  0.83839796  0.92452647  0.50462824  1
  Ca2+  Ca35  1  0.83308378  0.91562087  0.84239754  1
  Ca2+  Ca36  1  0.42472426  0.17401552  0.15507674  1
  Ca2+  Ca37  1  0.42308051  0.16958297  0.50261171  1
  Ca2+  Ca38  1  0.42707868  0.17766399  0.83335512  1
  Ca2+  Ca39  1  0.42730815  0.66872564  0.16500117  1
  Ca2+  Ca40  1  0.42669606  0.66946136  0.49482404  1
  Ca2+  Ca41  1  0.43070050  0.66195966  0.83143899  1
  Ca2+  Ca42  1  0.91953230  0.17240710  0.15863681  1
  Ca2+  Ca43  1  0.91222685  0.17279963  0.49880461  1
  Ca2+  Ca44  1  0.91820986  0.17941080  0.83530048  1
  Ca2+  Ca45  1  0.91957053  0.66780307  0.15267052  1
  Ca2+  Ca46  1  0.91573282  0.67405646  0.49980022  1
  Ca2+  Ca47  1  0.91485650  0.67387727  0.83685350  1
  Al0+  Al48  1  0.00001343  0.00020002  -0.00047610  1
  Al0+  Al49  1  0.00038285  0.00151781  0.33820110  1
  Al0+  Al50  1  0.00017348  -0.00000051  0.66683673  1
  Al0+  Al51  1  0.00053848  0.50145484  -0.00076747  1
  Al0+  Al52  1  -0.00291941  0.50042802  0.33871618  1
  Al0+  Al53  1  -0.00037858  0.50173467  0.66110484  1
  Al0+  Al54  1  0.49849305  -0.00021291  0.00172390  1
  Al0+  Al55  1  0.49851961  0.00079651  0.33135789  1
  Al0+  Al56  1  0.49987857  0.00089894  0.66514345  1
  Al0+  Al57  1  0.49869312  0.50178459  -0.00196623  1
  Al0+  Al58  1  0.49726804  0.49995065  0.33258999  1
  Al0+  Al59  1  0.49827078  0.49926183  0.66226755  1
  Al0+  Al60  1  0.25219958  0.24739992  -0.00325813  1
  Al0+  Al61  1  0.24860775  0.24706146  0.33985293  1
  Al0+  Al62  1  0.25062465  0.24871292  0.66529371  1
  Al0+  Al63  1  0.25059309  0.74960169  0.00376826  1
  Al0+  Al64  1  0.24880430  0.74831543  0.33080371  1
  Al0+  Al65  1  0.24951305  0.74830425  0.67183912  1
  Al0+  Al66  1  0.75117125  0.24788641  -0.00307832  1
  Al0+  Al67  1  0.75051950  0.25037552  0.34051333  1
  Al0+  Al68  1  0.75169710  0.25005549  0.66332826  1
  Al0+  Al69  1  0.75065774  0.75052579  0.00157823  1
  Al0+  Al70  1  0.75059272  0.75004631  0.32920442  1
  Al0+  Al71  1  0.75265298  0.75073476  0.65511759  1
  Al0+  Al72  1  0.93107331  0.82203018  0.65091703  1
  Al0+  Al73  1  0.92835922  0.32332303  0.98708704  1
  Al0+  Al74  1  0.07226418  0.17830912  0.98623716  1
  Al0+  Al75  1  0.82049438  0.06934455  0.34781225  1
  Al0+  Al76  1  0.57162389  0.67951380  0.65258724  1
  Al0+  Al77  1  0.67802946  0.92897558  0.01224905  1
  Al0+  Al78  1  0.42849080  0.32090650  0.64923964  1
  Al0+  Al79  1  0.17747687  0.42686496  0.34765302  1
  Al0+  Al80  1  0.67767630  0.42690348  0.01251478  1
  Al0+  Al81  1  0.67791966  0.43081220  0.34724237  1
  Al0+  Al82  1  0.92916457  0.82089268  0.98648916  1
  Al0+  Al83  1  0.92969598  0.32307049  0.65043265  1
  Al0+  Al84  1  0.43007552  0.32234667  0.98684437  1
  Al0+  Al85  1  0.18117979  0.42868996  0.01026706  1
  Al0+  Al86  1  0.42743830  0.82246763  0.31811291  1
  Al0+  Al87  1  0.82072447  0.57094840  0.01326825  1
  Al0+  Al88  1  0.57270248  0.17735598  0.64993336  1
  Al0+  Al89  1  0.67932680  0.43076721  0.68041146  1
  Al0+  Al90  1  0.17776132  0.92890006  0.01597713  1
  Al0+  Al91  1  0.57299041  0.17746336  0.98715980  1
  Al0+  Al92  1  0.57101261  0.68045587  0.98567189  1
  Al0+  Al93  1  0.18020906  0.92955252  0.68198359  1
  Al0+  Al94  1  0.57189757  0.67710253  0.31469584  1
  Al0+  Al95  1  0.07334770  0.67791863  0.98573180  1
  Si0+  Si96  1  0.32239520  0.07101882  0.35039487  1
  Si0+  Si97  1  0.92869996  0.32094150  0.31903173  1
  Si0+  Si98  1  0.07035377  0.17829511  0.64929265  1
  Si0+  Si99  1  0.67673556  0.92776455  0.34989972  1
  Si0+  Si100  1  0.42613204  0.31898767  0.31885461  1
  Si0+  Si101  1  0.82243883  0.57440623  0.35185383  1
  Si0+  Si102  1  0.32130981  0.07031411  0.01872046  1
  Si0+  Si103  1  0.82313684  0.57455483  0.68205932  1
  Si0+  Si104  1  0.57242910  0.18072127  0.31859397  1
  Si0+  Si105  1  0.32387945  0.07300259  0.68611766  1
  Si0+  Si106  1  0.82126334  0.07096922  0.68328439  1
  Si0+  Si107  1  0.31896978  0.57101704  0.35072700  1
  Si0+  Si108  1  0.42615874  0.82027811  0.65358235  1
  Si0+  Si109  1  0.06892904  0.67809828  0.31880390  1
  Si0+  Si110  1  0.32383513  0.57375895  0.01862561  1
  Si0+  Si111  1  0.18050831  0.92844921  0.34879350  1
  Si0+  Si112  1  0.42768754  0.82271136  0.98305141  1
  Si0+  Si113  1  0.07478826  0.67857881  0.64845835  1
  Si0+  Si114  1  0.31991987  0.56965299  0.68190048  1
  Si0+  Si115  1  0.17751927  0.42841404  0.68138354  1
  Si0+  Si116  1  0.82259159  0.07206617  0.01565361  1
  Si0+  Si117  1  0.93125346  0.82414713  0.31810408  1
  Si0+  Si118  1  0.67964545  0.92854154  0.67826673  1
  Si0+  Si119  1  0.07106727  0.17942573  0.32012813  1
  O2-  O120  1  0.25231581  0.00253014  0.06489735  1
  O2-  O121  1  0.25546242  -0.00496275  0.39158906  1
  O2-  O122  1  0.25561540  0.00309244  0.72878139  1
  O2-  O123  1  0.25437092  0.50365189  0.06006641  1
  O2-  O124  1  0.25243294  0.50045150  0.39624106  1
  O2-  O125  1  0.24945272  0.49790696  0.72325174  1
  O2-  O126  1  0.75027133  0.00629447  0.05893046  1
  O2-  O127  1  0.74612763  -0.00541739  0.39618464  1
  O2-  O128  1  0.74695906  0.00211438  0.72256115  1
  O2-  O129  1  0.75005835  0.49782584  0.06395637  1
  O2-  O130  1  0.74905324  0.50984305  0.39419222  1
  O2-  O131  1  0.75435919  0.50593348  0.72517249  1
  O2-  O132  1  0.00429041  0.25415999  0.27794753  1
  O2-  O133  1  0.00639892  0.24998221  0.60264607  1
  O2-  O134  1  0.00327146  0.25333653  0.93745766  1
  O2-  O135  1  -0.00266026  0.74851893  0.27716673  1
  O2-  O136  1  0.00640675  0.74761349  0.60380646  1
  O2-  O137  1  0.00342648  0.75154851  0.93591439  1
  O2-  O138  1  0.50077347  0.25156824  0.27717149  1
  O2-  O139  1  0.50230397  0.25076442  0.59858445  1
  O2-  O140  1  0.50879605  0.25687686  0.93811905  1
  O2-  O141  1  0.50347885  0.75499585  0.26818048  1
  O2-  O142  1  0.49849039  0.75708382  0.60761564  1
  O2-  O143  1  0.49721461  0.75597054  0.93781222  1
  O2-  O144  1  0.06981274  0.17892182  0.10095696  1
  O2-  O145  1  0.07018273  0.17786445  0.42530680  1
  O2-  O146  1  0.06790028  0.17706955  0.75423748  1
  O2-  O147  1  0.07088038  0.67838619  0.10023920  1
  O2-  O148  1  0.07005354  0.67941955  0.42427451  1
  O2-  O149  1  0.07670424  0.67712529  0.75304425  1
  O2-  O150  1  0.56993133  0.17637195  0.10170393  1
  O2-  O151  1  0.57142222  0.17983446  0.42349080  1
  O2-  O152  1  0.57068542  0.17515982  0.76271839  1
  O2-  O153  1  0.56894448  0.68097711  0.09842959  1
  O2-  O154  1  0.56796087  0.67802201  0.42883466  1
  O2-  O155  1  0.57182950  0.68041837  0.76538424  1
  O2-  O156  1  0.17773433  0.42596501  0.23499507  1
  O2-  O157  1  0.17831159  0.43077466  0.57570905  1
  O2-  O158  1  0.18221644  0.43092567  0.89702748  1
  O2-  O159  1  0.17810322  0.93103752  0.24429145  1
  O2-  O160  1  0.18278383  0.93095463  0.56765446  1
  O2-  O161  1  0.17944257  0.93079512  0.90293007  1
  O2-  O162  1  0.68110660  0.42659006  0.23479567  1
  O2-  O163  1  0.68019040  0.43340581  0.56666277  1
  O2-  O164  1  0.67810018  0.42889909  0.89898706  1
  O2-  O165  1  0.67746592  0.93033727  0.24452021  1
  O2-  O166  1  0.68163915  0.92958367  0.57290128  1
  O2-  O167  1  0.68049945  0.92885488  0.89858062  1
  O2-  O168  1  0.42673748  0.31770879  0.10125901  1
  O2-  O169  1  0.42475302  0.31596275  0.42377813  1
  O2-  O170  1  0.42731975  0.32041592  0.76198777  1
  O2-  O171  1  0.42843524  0.82145800  0.08879876  1
  O2-  O172  1  0.42620659  0.82005910  0.43241060  1
  O2-  O173  1  0.42325594  0.81712043  0.75856685  1
  O2-  O174  1  0.92911782  0.32082891  0.10149824  1
  O2-  O175  1  0.93013953  0.31900763  0.42437529  1
  O2-  O176  1  0.93070747  0.32360172  0.76281463  1
  O2-  O177  1  0.93055293  0.82102682  0.10076390  1
  O2-  O178  1  0.93505310  0.82524313  0.42352583  1
  O2-  O179  1  0.92991129  0.82294059  0.76292596  1
  O2-  O180  1  0.32002282  0.07542798  0.24598719  1
  O2-  O181  1  0.32226170  0.07168873  0.57968681  1
  O2-  O182  1  0.32190814  0.06763243  0.91342791  1
  O2-  O183  1  0.31708375  0.57159279  0.24574394  1
  O2-  O184  1  0.31711856  0.57186737  0.57646752  1
  O2-  O185  1  0.32354897  0.57526056  0.91272759  1
  O2-  O186  1  0.82108994  0.06962859  0.23523662  1
  O2-  O187  1  0.82270912  0.06860142  0.57752175  1
  O2-  O188  1  0.82463341  0.07074286  0.91013187  1
  O2-  O189  1  0.82946655  0.57200711  0.24710287  1
  O2-  O190  1  0.82365225  0.57368449  0.57592426  1
  O2-  O191  1  0.81843411  0.57259971  0.89959153  1
  O2-  O192  1  0.03979623  0.08817194  0.27336799  1
  O2-  O193  1  0.04104246  0.08634280  0.60113488  1
  O2-  O194  1  0.04049194  0.08196771  0.93251700  1
  O2-  O195  1  0.04054174  0.58528904  0.27376116  1
  O2-  O196  1  0.04844199  0.58627686  0.59928021  1
  O2-  O197  1  0.04523707  0.58121805  0.93106607  1
  O2-  O198  1  0.54527190  0.08820040  0.27246495  1
  O2-  O199  1  0.54206446  0.07900539  0.59474523  1
  O2-  O200  1  0.53714951  0.08125275  0.93369078  1
  O2-  O201  1  0.53705597  0.57996342  0.26319007  1
  O2-  O202  1  0.53462804  0.58594883  0.59738822  1
  O2-  O203  1  0.53852134  0.58526643  0.93077480  1
  O2-  O204  1  0.16478160  0.20225930  0.27458536  1
  O2-  O205  1  0.16606674  0.19868025  0.60492322  1
  O2-  O206  1  0.17158944  0.19922979  0.93391527  1
  O2-  O207  1  0.16037422  0.70487602  0.27157073  1
  O2-  O208  1  0.16808770  0.70554486  0.60117125  1
  O2-  O209  1  0.17351186  0.70335417  0.93569438  1
  O2-  O210  1  0.66487417  0.20914270  0.27341680  1
  O2-  O211  1  0.67168944  0.20330007  0.59734784  1
  O2-  O212  1  0.67372553  0.19311983  0.93592557  1
  O2-  O213  1  0.67274727  0.70087901  0.26501317  1
  O2-  O214  1  0.66660326  0.70852093  0.59468129  1
  O2-  O215  1  0.66664657  0.71321295  0.93242980  1
  O2-  O216  1  0.08491891  0.45881231  0.06560652  1
  O2-  O217  1  0.08164060  0.46015421  0.40285261  1
  O2-  O218  1  0.08527165  0.45856312  0.72586398  1
  O2-  O219  1  0.08168320  0.96102907  0.07069987  1
  O2-  O220  1  0.09110619  0.96165450  0.39852056  1
  O2-  O221  1  0.08351470  0.96252730  0.73351964  1
  O2-  O222  1  0.57900252  0.45676997  0.06484961  1
  O2-  O223  1  0.57885605  0.45774596  0.39960936  1
  O2-  O224  1  0.58051138  0.45996049  0.73001118  1
  O2-  O225  1  0.58083080  0.95643935  0.06720648  1
  O2-  O226  1  0.58251518  0.95365639  0.39512332  1
  O2-  O227  1  0.58598423  0.95114977  0.72438286  1
  O2-  O228  1  0.21212997  0.33136805  0.06436911  1
  O2-  O229  1  0.20661565  0.33044718  0.40390743  1
  O2-  O230  1  0.20258116  0.33486557  0.72530417  1
  O2-  O231  1  0.20843675  0.83225999  0.07061902  1
  O2-  O232  1  0.20388293  0.83468966  0.39514822  1
  O2-  O233  1  0.20800789  0.83198571  0.73490644  1
  O2-  O234  1  0.70508148  0.32715832  0.06411561  1
  O2-  O235  1  0.71264569  0.33638479  0.40374794  1
  O2-  O236  1  0.71026121  0.33227739  0.72967222  1
  O2-  O237  1  0.71253303  0.83557443  0.06951211  1
  O2-  O238  1  0.70154177  0.83262216  0.39355215  1
  O2-  O239  1  0.71177142  0.83658681  0.72262676  1
  O2-  O240  1  0.44702836  0.41300401  0.27439385  1
  O2-  O241  1  0.45355356  0.41931903  0.59448215  1
  O2-  O242  1  0.44734022  0.42303141  0.93552987  1
  O2-  O243  1  0.44812488  0.92371523  0.26709376  1
  O2-  O244  1  0.44584310  0.91601345  0.60946021  1
  O2-  O245  1  0.44920842  0.91707639  0.93818808  1
  O2-  O246  1  0.95202503  0.41529296  0.27566075  1
  O2-  O247  1  0.95986823  0.41928086  0.59394822  1
  O2-  O248  1  0.95713061  0.42002981  0.93243316  1
  O2-  O249  1  0.96434093  0.91458459  0.27187856  1
  O2-  O250  1  0.96495308  0.91788088  0.59552001  1
  O2-  O251  1  0.95666020  0.91895402  0.93375186  1
  O2-  O252  1  0.33462299  0.28596497  0.27344380  1
  O2-  O253  1  0.32965490  0.29008252  0.59582617  1
  O2-  O254  1  0.33543188  0.28689781  0.93104900  1
  O2-  O255  1  0.32938193  0.79097960  0.26524489  1
  O2-  O256  1  0.33421266  0.78976511  0.60537104  1
  O2-  O257  1  0.33391554  0.79597983  0.93882632  1
  O2-  O258  1  0.83817663  0.28764617  0.27360681  1
  O2-  O259  1  0.83545571  0.28838369  0.59472098  1
  O2-  O260  1  0.83292867  0.29108080  0.93129143  1
  O2-  O261  1  0.83671147  0.80353944  0.27414834  1
  O2-  O262  1  0.83722493  0.79221283  0.59057536  1
  O2-  O263  1  0.83211920  0.79140790  0.93260105  1
  O2-  O264  1  0.41361328  0.04367500  0.06743716  1
  O2-  O265  1  0.41553459  0.04762893  0.39814551  1
  O2-  O266  1  0.41799993  0.04845606  0.73081842  1
  O2-  O267  1  0.41640490  0.54804263  0.06595460  1
  O2-  O268  1  0.41246689  0.54617260  0.39729829  1
  O2-  O269  1  0.41157688  0.54164163  0.72838665  1
  O2-  O270  1  0.91387490  0.04266795  0.06476204  1
  O2-  O271  1  0.91641637  0.03758497  0.40503538  1
  O2-  O272  1  0.91176848  0.03938855  0.72979579  1
  O2-  O273  1  0.91956570  0.54437555  0.06702341  1
  O2-  O274  1  0.91331243  0.54545974  0.40299165  1
  O2-  O275  1  0.91832938  0.55015523  0.72522893  1
  O2-  O276  1  0.29585129  0.16364252  0.06552586  1
  O2-  O277  1  0.28903885  0.15880930  0.40292284  1
  O2-  O278  1  0.29656782  0.16637553  0.73093093  1
  O2-  O279  1  0.29900517  0.66636683  0.06704794  1
  O2-  O280  1  0.28916560  0.66360855  0.39846599  1
  O2-  O281  1  0.29234990  0.66007219  0.73183917  1
  O2-  O282  1  0.80028574  0.16574168  0.06312320  1
  O2-  O283  1  0.78951489  0.16461042  0.40471218  1
  O2-  O284  1  0.79771174  0.16422186  0.72815799  1
  O2-  O285  1  0.79194553  0.66817421  0.06856033  1
  O2-  O286  1  0.80196723  0.67093090  0.39526606  1
  O2-  O287  1  0.79797238  0.66997853  0.72378280  1
