# generated using pymatgen
data_Ca2Al2SiO7
_symmetry_space_group_name_H-M   'P 1'
_cell_length_a   15.46786907
_cell_length_b   15.46600897
_cell_length_c   15.29005735
_cell_angle_alpha   89.98583994
_cell_angle_beta   90.00097288
_cell_angle_gamma   89.99895232
_symmetry_Int_Tables_number   1
_chemical_formula_structural   Ca2Al2SiO7
_chemical_formula_sum   'Ca48 Al48 Si24 O168'
_cell_volume   3657.78223192
_cell_formula_units_Z   24
loop_
 _symmetry_equiv_pos_site_id
 _symmetry_equiv_pos_as_xyz
  1  'x, y, z'
loop_
 _atom_type_symbol
 _atom_type_oxidation_number
  Ca2+  2.0
  Al0+  0.0
  Si0+  0.0
  O2-  -2.0
loop_
 _atom_site_type_symbol
 _atom_site_label
 _atom_site_symmetry_multiplicity
 _atom_site_fract_x
 _atom_site_fract_y
 _atom_site_fract_z
 _atom_site_occupancy
  Ca2+  Ca0  1  0.16535866  0.08790572  0.16848209  1
  Ca2+  Ca1  1  0.17591985  0.07733677  0.51099659  1
  Ca2+  Ca2  1  0.17170649  0.08494119  0.83306001  1
  Ca2+  Ca3  1  0.17369733  0.57735815  0.17038830  1
  Ca2+  Ca4  1  0.16814737  0.57496591  0.50243468  1
  Ca2+  Ca5  1  0.17736248  0.58267788  0.84128495  1
  Ca2+  Ca6  1  0.67558567  0.08807720  0.16944515  1
  Ca2+  Ca7  1  0.67410652  0.09215490  0.50512758  1
  Ca2+  Ca8  1  0.67171609  0.08505615  0.84382821  1
  Ca2+  Ca9  1  0.66504057  0.58236653  0.16390622  1
  Ca2+  Ca10  1  0.66508791  0.58043072  0.50980331  1
  Ca2+  Ca11  1  0.66533559  0.57401774  0.84103026  1
  Ca2+  Ca12  1  0.07693284  0.32977235  0.15756891  1
  Ca2+  Ca13  1  0.08131822  0.33362417  0.49376283  1
  Ca2+  Ca14  1  0.07417360  0.33148152  0.83565890  1
  Ca2+  Ca15  1  0.06803974  0.83594613  0.15989573  1
  Ca2+  Ca16  1  0.07865248  0.83574680  0.49581121  1
  Ca2+  Ca17  1  0.07711608  0.83642612  0.83071713  1
  Ca2+  Ca18  1  0.58772775  0.32336820  0.16225413  1
  Ca2+  Ca19  1  0.57685586  0.32667498  0.49963214  1
  Ca2+  Ca20  1  0.58801811  0.32758804  0.82746278  1
  Ca2+  Ca21  1  0.59166288  0.82275206  0.15949930  1
  Ca2+  Ca22  1  0.59204896  0.81983129  0.49795720  1
  Ca2+  Ca23  1  0.59788399  0.82093135  0.83385962  1
  Ca2+  Ca24  1  0.33161567  0.41674641  0.17131914  1
  Ca2+  Ca25  1  0.33234269  0.40464957  0.50145424  1
  Ca2+  Ca26  1  0.33975531  0.42037232  0.83888585  1
  Ca2+  Ca27  1  0.33148290  0.91842510  0.16868387  1
  Ca2+  Ca28  1  0.32761668  0.92364877  0.51128207  1
  Ca2+  Ca29  1  0.32921793  0.91870014  0.83434528  1
  Ca2+  Ca30  1  0.82778631  0.41333093  0.16293205  1
  Ca2+  Ca31  1  0.82111400  0.42543755  0.51241175  1
  Ca2+  Ca32  1  0.82149750  0.42371674  0.84138509  1
  Ca2+  Ca33  1  0.83294029  0.92237278  0.16626389  1
  Ca2+  Ca34  1  0.83582169  0.92690993  0.50191340  1
  Ca2+  Ca35  1  0.82791693  0.92645754  0.84152993  1
  Ca2+  Ca36  1  0.42826730  0.17169169  0.16233833  1
  Ca2+  Ca37  1  0.42558620  0.17070593  0.49724839  1
  Ca2+  Ca38  1  0.43034078  0.17043445  0.82319597  1
  Ca2+  Ca39  1  0.42689015  0.66271390  0.16080568  1
  Ca2+  Ca40  1  0.42985954  0.66612650  0.49754720  1
  Ca2+  Ca41  1  0.42856026  0.66165431  0.83146218  1
  Ca2+  Ca42  1  0.91999054  0.16665213  0.15380237  1
  Ca2+  Ca43  1  0.91336557  0.16322009  0.49688375  1
  Ca2+  Ca44  1  0.91166429  0.16712309  0.83439389  1
  Ca2+  Ca45  1  0.90986092  0.67766786  0.15790183  1
  Ca2+  Ca46  1  0.91212768  0.67461773  0.49396275  1
  Ca2+  Ca47  1  0.90201985  0.67107639  0.83286963  1
  Al0+  Al48  1  0.00159201  -0.00143611  -0.00665392  1
  Al0+  Al49  1  -0.00093669  0.00027231  0.33337793  1
  Al0+  Al50  1  -0.00092498  -0.00027005  0.67299124  1
  Al0+  Al51  1  0.00107998  0.50051439  -0.00069057  1
  Al0+  Al52  1  0.00190553  0.50081622  0.33804774  1
  Al0+  Al53  1  0.00086917  0.50196784  0.66905506  1
  Al0+  Al54  1  0.49774692  -0.00121300  0.00104708  1
  Al0+  Al55  1  0.50158100  -0.00219471  0.33192723  1
  Al0+  Al56  1  0.50045155  -0.00171357  0.66609047  1
  Al0+  Al57  1  0.49961069  0.50057040  0.00687987  1
  Al0+  Al58  1  0.49927112  0.50053178  0.32725517  1
  Al0+  Al59  1  0.49832384  0.49878893  0.66071916  1
  Al0+  Al60  1  0.24941099  0.24925260  -0.00355044  1
  Al0+  Al61  1  0.24947393  0.24968312  0.33455395  1
  Al0+  Al62  1  0.24789221  0.24828549  0.66886221  1
  Al0+  Al63  1  0.24977173  0.75043376  0.00662356  1
  Al0+  Al64  1  0.25026796  0.74798624  0.33519151  1
  Al0+  Al65  1  0.24763784  0.74809382  0.66814166  1
  Al0+  Al66  1  0.75128309  0.25148932  0.00008604  1
  Al0+  Al67  1  0.75084623  0.25211514  0.33654233  1
  Al0+  Al68  1  0.75141945  0.25279007  0.66915451  1
  Al0+  Al69  1  0.74960883  0.75036991  -0.00273804  1
  Al0+  Al70  1  0.75093206  0.75193832  0.32569729  1
  Al0+  Al71  1  0.75275851  0.75355921  0.66149893  1
  Al0+  Al72  1  0.81876864  0.07173283  0.68082776  1
  Al0+  Al73  1  0.82144469  0.07036835  0.01468224  1
  Al0+  Al74  1  0.42690842  0.31869761  0.31656988  1
  Al0+  Al75  1  0.07250295  0.17760343  0.98256936  1
  Al0+  Al76  1  0.42688685  0.32015307  0.65261055  1
  Al0+  Al77  1  0.82164512  0.57435585  0.67982123  1
  Al0+  Al78  1  0.57096854  0.68097780  0.65411889  1
  Al0+  Al79  1  0.18006642  0.42901825  0.34726634  1
  Al0+  Al80  1  0.56878247  0.67978685  0.98540983  1
  Al0+  Al81  1  0.92892855  0.81898848  0.98297877  1
  Al0+  Al82  1  0.32330129  0.07170082  0.68255466  1
  Al0+  Al83  1  0.17886742  0.92753647  0.68243288  1
  Al0+  Al84  1  0.57068091  0.17833061  0.98724493  1
  Al0+  Al85  1  0.82188948  0.57179275  0.01604102  1
  Al0+  Al86  1  0.67838135  0.42838457  0.01760030  1
  Al0+  Al87  1  0.57058682  0.68006502  0.31783100  1
  Al0+  Al88  1  0.67671903  0.92899897  0.01500329  1
  Al0+  Al89  1  0.57481331  0.17676828  0.65237301  1
  Al0+  Al90  1  0.57395382  0.17845926  0.31764656  1
  Al0+  Al91  1  0.82029487  0.07141588  0.34711768  1
  Al0+  Al92  1  0.32116012  0.57131928  0.01463225  1
  Al0+  Al93  1  0.92827580  0.32301366  0.98404610  1
  Al0+  Al94  1  0.93230387  0.82135869  0.31880703  1
  Al0+  Al95  1  0.67638798  0.43176382  0.68067331  1
  Si0+  Si96  1  0.32202276  0.06981524  0.34718304  1
  Si0+  Si97  1  0.93221942  0.82160400  0.64987666  1
  Si0+  Si98  1  0.93095636  0.32352077  0.65032992  1
  Si0+  Si99  1  0.07372426  0.67736168  0.65011442  1
  Si0+  Si100  1  0.42418542  0.82226170  0.98339954  1
  Si0+  Si101  1  0.92977260  0.32401018  0.32170079  1
  Si0+  Si102  1  0.17865929  0.92913323  0.34620741  1
  Si0+  Si103  1  0.42831834  0.32139786  0.98505429  1
  Si0+  Si104  1  0.42384445  0.82036055  0.65088384  1
  Si0+  Si105  1  0.17687322  0.42726587  0.68313856  1
  Si0+  Si106  1  0.07420428  0.67891637  0.98408307  1
  Si0+  Si107  1  0.17933427  0.92916761  0.01703563  1
  Si0+  Si108  1  0.31948352  0.56911810  0.67961642  1
  Si0+  Si109  1  0.82018901  0.57299102  0.34696975  1
  Si0+  Si110  1  0.06831597  0.17859351  0.65036231  1
  Si0+  Si111  1  0.67852595  0.92622406  0.35054881  1
  Si0+  Si112  1  0.07325219  0.67611846  0.31648949  1
  Si0+  Si113  1  0.67832998  0.42991585  0.34957974  1
  Si0+  Si114  1  0.17886242  0.42682159  0.01567521  1
  Si0+  Si115  1  0.42476246  0.82206296  0.31743742  1
  Si0+  Si116  1  0.32029776  0.07206627  0.01632159  1
  Si0+  Si117  1  0.06921729  0.17975721  0.32166905  1
  Si0+  Si118  1  0.67784196  0.92699185  0.68061894  1
  Si0+  Si119  1  0.32345685  0.57193985  0.35302727  1
  O2-  O120  1  0.24819474  0.00203972  0.05972935  1
  O2-  O121  1  0.25390398  -0.00503538  0.38852078  1
  O2-  O122  1  0.25297909  -0.00276202  0.73211656  1
  O2-  O123  1  0.24691926  0.49556091  0.06019337  1
  O2-  O124  1  0.25614580  0.50133432  0.39671264  1
  O2-  O125  1  0.25195462  0.49493034  0.72280199  1
  O2-  O126  1  0.74686695  0.00221866  0.06652595  1
  O2-  O127  1  0.74218729  -0.00006785  0.39436534  1
  O2-  O128  1  0.73621737  0.00447554  0.72374163  1
  O2-  O129  1  0.75159795  0.49970229  0.06818023  1
  O2-  O130  1  0.74843631  0.50345925  0.39020748  1
  O2-  O131  1  0.74728977  0.50555871  0.72921372  1
  O2-  O132  1  -0.00150987  0.25056797  0.28010848  1
  O2-  O133  1  -0.00083974  0.25022456  0.60607343  1
  O2-  O134  1  -0.00242410  0.24744052  0.93413791  1
  O2-  O135  1  0.00591844  0.74525491  0.27223914  1
  O2-  O136  1  0.00143938  0.74767761  0.60857869  1
  O2-  O137  1  0.00155627  0.74111600  0.93692711  1
  O2-  O138  1  0.50143029  0.24972986  0.26688553  1
  O2-  O139  1  0.49875418  0.24659912  0.60450752  1
  O2-  O140  1  0.49744755  0.25444064  0.94059966  1
  O2-  O141  1  0.49419991  0.75475455  0.27365706  1
  O2-  O142  1  0.49719724  0.75689704  0.60635962  1
  O2-  O143  1  0.49514833  0.75637121  0.93917118  1
  O2-  O144  1  0.07483424  0.18015297  0.09726928  1
  O2-  O145  1  0.06926130  0.17893556  0.42697693  1
  O2-  O146  1  0.06841097  0.17997818  0.75483943  1
  O2-  O147  1  0.07645014  0.68366727  0.08972661  1
  O2-  O148  1  0.07282987  0.67628203  0.42241829  1
  O2-  O149  1  0.07883618  0.67654216  0.75454303  1
  O2-  O150  1  0.56809828  0.17849038  0.10042022  1
  O2-  O151  1  0.57365668  0.18024128  0.43106703  1
  O2-  O152  1  0.57449443  0.17884780  0.76579177  1
  O2-  O153  1  0.56648448  0.68088624  0.09850774  1
  O2-  O154  1  0.57100539  0.68114385  0.43150828  1
  O2-  O155  1  0.56936935  0.68069899  0.76664482  1
  O2-  O156  1  0.17836666  0.43098539  0.23462832  1
  O2-  O157  1  0.17420905  0.42914867  0.57787529  1
  O2-  O158  1  0.18065391  0.42790124  0.90979735  1
  O2-  O159  1  0.17808699  0.93162882  0.24115119  1
  O2-  O160  1  0.17900344  0.92964853  0.56772911  1
  O2-  O161  1  0.18222901  0.92542005  0.91249532  1
  O2-  O162  1  0.68119683  0.42714125  0.24503907  1
  O2-  O163  1  0.67820347  0.43326798  0.56605077  1
  O2-  O164  1  0.67530804  0.43035987  0.90431967  1
  O2-  O165  1  0.68094135  0.92339700  0.24566058  1
  O2-  O166  1  0.68400573  0.92097712  0.57496951  1
  O2-  O167  1  0.67935587  0.92943967  0.90107818  1
  O2-  O168  1  0.42478635  0.31736895  0.09050379  1
  O2-  O169  1  0.42545206  0.31407843  0.42983948  1
  O2-  O170  1  0.42634900  0.32187546  0.76597530  1
  O2-  O171  1  0.42048355  0.82029844  0.08914755  1
  O2-  O172  1  0.42074782  0.82112815  0.42293917  1
  O2-  O173  1  0.41769413  0.81573382  0.75574758  1
  O2-  O174  1  0.93298462  0.32287718  0.09864533  1
  O2-  O175  1  0.93210472  0.32483446  0.42710723  1
  O2-  O176  1  0.93449744  0.32517901  0.75467790  1
  O2-  O177  1  0.93274205  0.82065131  0.09633031  1
  O2-  O178  1  0.93516703  0.82136517  0.43242396  1
  O2-  O179  1  0.93259949  0.82129288  0.75438368  1
  O2-  O180  1  0.31899107  0.06973614  0.24186964  1
  O2-  O181  1  0.31863602  0.07034499  0.56797606  1
  O2-  O182  1  0.31971404  0.07084192  0.91179643  1
  O2-  O183  1  0.31963287  0.57465071  0.24775831  1
  O2-  O184  1  0.31625690  0.57164097  0.57475399  1
  O2-  O185  1  0.32013768  0.57075224  0.90084384  1
  O2-  O186  1  0.82571789  0.07061258  0.23506633  1
  O2-  O187  1  0.82342449  0.06777559  0.56717111  1
  O2-  O188  1  0.82021123  0.06806244  0.90117613  1
  O2-  O189  1  0.82164758  0.57202762  0.24257885  1
  O2-  O190  1  0.82232430  0.57249265  0.56507018  1
  O2-  O191  1  0.81807714  0.57090346  0.90268888  1
  O2-  O192  1  0.04249085  0.08854665  0.27292998  1
  O2-  O193  1  0.03954907  0.08604610  0.60439514  1
  O2-  O194  1  0.05034426  0.07852517  0.92980658  1
  O2-  O195  1  0.04767861  0.58240429  0.27135529  1
  O2-  O196  1  0.04671425  0.58522324  0.60191329  1
  O2-  O197  1  0.05836886  0.58259143  0.94086840  1
  O2-  O198  1  0.54814888  0.07767072  0.26825588  1
  O2-  O199  1  0.55066193  0.07597580  0.60038858  1
  O2-  O200  1  0.53746974  0.08170655  0.93488973  1
  O2-  O201  1  0.54034780  0.58434174  0.26318173  1
  O2-  O202  1  0.53724643  0.58651124  0.59768305  1
  O2-  O203  1  0.53382818  0.58291439  0.93461100  1
  O2-  O204  1  0.16067954  0.20660269  0.27372215  1
  O2-  O205  1  0.16063053  0.20526215  0.60307794  1
  O2-  O206  1  0.16964071  0.20923329  0.92799974  1
  O2-  O207  1  0.16807070  0.69995519  0.27213645  1
  O2-  O208  1  0.16374021  0.70632898  0.59887139  1
  O2-  O209  1  0.16622972  0.71100204  0.93761520  1
  O2-  O210  1  0.67257287  0.21065048  0.26674000  1
  O2-  O211  1  0.67241503  0.21015270  0.59917215  1
  O2-  O212  1  0.66789202  0.20742898  0.93588994  1
  O2-  O213  1  0.66598962  0.71172490  0.26322380  1
  O2-  O214  1  0.66703317  0.71318942  0.59791679  1
  O2-  O215  1  0.66484555  0.70977798  0.93115699  1
  O2-  O216  1  0.08577795  0.45200186  0.06215168  1
  O2-  O217  1  0.08499825  0.46211026  0.40561134  1
  O2-  O218  1  0.08811940  0.46067276  0.73224176  1
  O2-  O219  1  0.08730347  0.95698275  0.06305679  1
  O2-  O220  1  0.08950928  0.96132546  0.39570850  1
  O2-  O221  1  0.08292028  0.95905799  0.73651142  1
  O2-  O222  1  0.58127622  0.45749963  0.07261754  1
  O2-  O223  1  0.58499179  0.45789900  0.39327258  1
  O2-  O224  1  0.57670176  0.45768547  0.73110777  1
  O2-  O225  1  0.57536260  0.94914234  0.06639525  1
  O2-  O226  1  0.58187620  0.94310594  0.39464687  1
  O2-  O227  1  0.58015595  0.93704705  0.72208510  1
  O2-  O228  1  0.20481499  0.33309913  0.06172299  1
  O2-  O229  1  0.20748738  0.33128647  0.40252855  1
  O2-  O230  1  0.19854901  0.33419185  0.72927506  1
  O2-  O231  1  0.20840981  0.83959217  0.06853292  1
  O2-  O232  1  0.20037289  0.83480519  0.39240088  1
  O2-  O233  1  0.20385246  0.82784160  0.73433349  1
  O2-  O234  1  0.71008669  0.33124774  0.07148006  1
  O2-  O235  1  0.70870339  0.34023828  0.39964028  1
  O2-  O236  1  0.70883203  0.33522866  0.73312798  1
  O2-  O237  1  0.70937431  0.83152346  0.06652830  1
  O2-  O238  1  0.71180024  0.83449745  0.39754961  1
  O2-  O239  1  0.71481032  0.83818205  0.72897631  1
  O2-  O240  1  0.44877594  0.41975986  0.26760916  1
  O2-  O241  1  0.45268035  0.41775055  0.59569892  1
  O2-  O242  1  0.45178686  0.41675899  0.94307459  1
  O2-  O243  1  0.44739002  0.91620299  0.27138033  1
  O2-  O244  1  0.44384429  0.91583950  0.60659696  1
  O2-  O245  1  0.44439337  0.91717814  0.93875147  1
  O2-  O246  1  0.96088803  0.41460220  0.27434565  1
  O2-  O247  1  0.96248870  0.41464001  0.60230713  1
  O2-  O248  1  0.96119983  0.42019547  0.92991276  1
  O2-  O249  1  0.96687281  0.91653197  0.26436685  1
  O2-  O250  1  0.96470571  0.91252074  0.60260743  1
  O2-  O251  1  0.96459285  0.91290271  0.92781971  1
  O2-  O252  1  0.32831040  0.28843848  0.26392805  1
  O2-  O253  1  0.32653044  0.29216363  0.60101988  1
  O2-  O254  1  0.33486656  0.29711337  0.93810278  1
  O2-  O255  1  0.33086791  0.79629741  0.27038940  1
  O2-  O256  1  0.33227448  0.78975511  0.60164042  1
  O2-  O257  1  0.33107276  0.79339571  0.93777635  1
  O2-  O258  1  0.83729523  0.29943930  0.27607717  1
  O2-  O259  1  0.83857041  0.29816276  0.60344296  1
  O2-  O260  1  0.83000649  0.29759295  0.93117254  1
  O2-  O261  1  0.83667425  0.79217289  0.26417005  1
  O2-  O262  1  0.84147509  0.79639824  0.59876091  1
  O2-  O263  1  0.83284355  0.79022619  0.92818047  1
  O2-  O264  1  0.40989992  0.04214518  0.06639166  1
  O2-  O265  1  0.41455978  0.04412376  0.39412860  1
  O2-  O266  1  0.42257663  0.04528743  0.73405973  1
  O2-  O267  1  0.41475000  0.54052295  0.07243612  1
  O2-  O268  1  0.41838426  0.54833659  0.39659277  1
  O2-  O269  1  0.41174137  0.54343784  0.72593575  1
  O2-  O270  1  0.92189949  0.03951455  0.06323780  1
  O2-  O271  1  0.91645234  0.03662695  0.40221214  1
  O2-  O272  1  0.91257891  0.03528641  0.73537937  1
  O2-  O273  1  0.92349516  0.54876464  0.06610712  1
  O2-  O274  1  0.91254081  0.54649194  0.39495313  1
  O2-  O275  1  0.92064638  0.54733491  0.73168788  1
  O2-  O276  1  0.29109857  0.16378615  0.06359111  1
  O2-  O277  1  0.28888454  0.15900646  0.39541809  1
  O2-  O278  1  0.28898940  0.16774309  0.73649070  1
  O2-  O279  1  0.28844214  0.66628318  0.07145815  1
  O2-  O280  1  0.29569463  0.66506567  0.40051771  1
  O2-  O281  1  0.28793038  0.65871322  0.72868784  1
  O2-  O282  1  0.79887021  0.17059012  0.06545417  1
  O2-  O283  1  0.79442066  0.16965199  0.40194718  1
  O2-  O284  1  0.79817247  0.17107156  0.73211557  1
  O2-  O285  1  0.79127144  0.67004859  0.06715438  1
  O2-  O286  1  0.79330575  0.66622239  0.39249750  1
  O2-  O287  1  0.79745341  0.67515780  0.72759846  1
