# generated using pymatgen
data_Ca2Al2SiO7
_symmetry_space_group_name_H-M   'P 1'
_cell_length_a   15.46541609
_cell_length_b   15.46521825
_cell_length_c   15.28964806
_cell_angle_alpha   89.99493424
_cell_angle_beta   89.99660645
_cell_angle_gamma   89.97499643
_symmetry_Int_Tables_number   1
_chemical_formula_structural   Ca2Al2SiO7
_chemical_formula_sum   'Ca48 Al48 Si24 O168'
_cell_volume   3656.91703307
_cell_formula_units_Z   24
loop_
 _symmetry_equiv_pos_site_id
 _symmetry_equiv_pos_as_xyz
  1  'x, y, z'
loop_
 _atom_type_symbol
 _atom_type_oxidation_number
  Ca2+  2.0
  Al0+  0.0
  Si0+  0.0
  O2-  -2.0
loop_
 _atom_site_type_symbol
 _atom_site_label
 _atom_site_symmetry_multiplicity
 _atom_site_fract_x
 _atom_site_fract_y
 _atom_site_fract_z
 _atom_site_occupancy
  Ca2+  Ca0  1  0.16150260  0.08125904  0.17016296  1
  Ca2+  Ca1  1  0.15890403  0.07728334  0.49788444  1
  Ca2+  Ca2  1  0.17198967  0.08612696  0.84536129  1
  Ca2+  Ca3  1  0.16523890  0.57601772  0.17301643  1
  Ca2+  Ca4  1  0.16429910  0.57345293  0.50043762  1
  Ca2+  Ca5  1  0.16545388  0.57456360  0.83968868  1
  Ca2+  Ca6  1  0.67319971  0.09084871  0.16558317  1
  Ca2+  Ca7  1  0.66541837  0.08681875  0.50509036  1
  Ca2+  Ca8  1  0.66995494  0.08957562  0.84445471  1
  Ca2+  Ca9  1  0.67470502  0.58750800  0.17086419  1
  Ca2+  Ca10  1  0.67658384  0.58211422  0.50003341  1
  Ca2+  Ca11  1  0.66771878  0.58048952  0.84254078  1
  Ca2+  Ca12  1  0.07806462  0.33534686  0.16164186  1
  Ca2+  Ca13  1  0.08004823  0.33551538  0.49170070  1
  Ca2+  Ca14  1  0.07915273  0.33832374  0.83296104  1
  Ca2+  Ca15  1  0.08717038  0.82179874  0.16214652  1
  Ca2+  Ca16  1  0.09191928  0.82030668  0.49195898  1
  Ca2+  Ca17  1  0.08335039  0.82250241  0.83437013  1
  Ca2+  Ca18  1  0.57313357  0.33413973  0.16271037  1
  Ca2+  Ca19  1  0.57052659  0.33298958  0.49827534  1
  Ca2+  Ca20  1  0.57453322  0.32190800  0.82842769  1
  Ca2+  Ca21  1  0.57582306  0.82617706  0.16254551  1
  Ca2+  Ca22  1  0.57387972  0.83154471  0.49276581  1
  Ca2+  Ca23  1  0.58380600  0.82640988  0.83572285  1
  Ca2+  Ca24  1  0.32193707  0.42515614  0.17312468  1
  Ca2+  Ca25  1  0.32322423  0.41073048  0.50226321  1
  Ca2+  Ca26  1  0.32118996  0.41598655  0.84135299  1
  Ca2+  Ca27  1  0.33015033  0.92322976  0.17306315  1
  Ca2+  Ca28  1  0.32832838  0.91329804  0.49645904  1
  Ca2+  Ca29  1  0.33156324  0.92673508  0.84090102  1
  Ca2+  Ca30  1  0.83560047  0.41669358  0.17315491  1
  Ca2+  Ca31  1  0.84598061  0.41990828  0.49975044  1
  Ca2+  Ca32  1  0.83442149  0.40907496  0.83740825  1
  Ca2+  Ca33  1  0.84337822  0.92298491  0.16637757  1
  Ca2+  Ca34  1  0.83101326  0.92051242  0.50427784  1
  Ca2+  Ca35  1  0.83363899  0.92360473  0.84598503  1
  Ca2+  Ca36  1  0.41526187  0.17315905  0.16128655  1
  Ca2+  Ca37  1  0.41601108  0.17975869  0.49733178  1
  Ca2+  Ca38  1  0.42334608  0.16692259  0.82824230  1
  Ca2+  Ca39  1  0.41021911  0.66728719  0.16181310  1
  Ca2+  Ca40  1  0.41255933  0.67032801  0.48812606  1
  Ca2+  Ca41  1  0.41911540  0.65806197  0.83587815  1
  Ca2+  Ca42  1  0.92813762  0.17472953  0.15959988  1
  Ca2+  Ca43  1  0.92311463  0.18061708  0.49209386  1
  Ca2+  Ca44  1  0.91933680  0.17529782  0.83567385  1
  Ca2+  Ca45  1  0.92931332  0.66606199  0.16225473  1
  Ca2+  Ca46  1  0.92972980  0.66191463  0.49329173  1
  Ca2+  Ca47  1  0.93234285  0.66522002  0.83318826  1
  Al0+  Al48  1  -0.00111685  0.00160716  -0.00263048  1
  Al0+  Al49  1  -0.00066041  0.00088763  0.33926941  1
  Al0+  Al50  1  -0.00203255  -0.00129398  0.66971045  1
  Al0+  Al51  1  -0.00267217  0.50127706  -0.00428750  1
  Al0+  Al52  1  -0.00057140  0.50139606  0.33350018  1
  Al0+  Al53  1  0.00175399  0.50152864  0.66463556  1
  Al0+  Al54  1  0.50001282  -0.00080826  0.00191357  1
  Al0+  Al55  1  0.50075293  -0.00181886  0.33065055  1
  Al0+  Al56  1  0.50157730  -0.00337572  0.66453637  1
  Al0+  Al57  1  0.49975189  0.50040364  -0.00082455  1
  Al0+  Al58  1  0.50301875  0.49966537  0.33303982  1
  Al0+  Al59  1  0.50243707  0.49984508  0.66273252  1
  Al0+  Al60  1  0.24807247  0.25102050  0.00621463  1
  Al0+  Al61  1  0.25234590  0.24882189  0.32955878  1
  Al0+  Al62  1  0.24937515  0.24809881  0.66847434  1
  Al0+  Al63  1  0.25093273  0.75151853  -0.00470162  1
  Al0+  Al64  1  0.25084997  0.75234410  0.33055615  1
  Al0+  Al65  1  0.25088534  0.74974225  0.66553826  1
  Al0+  Al66  1  0.74822571  0.24929117  -0.00000109  1
  Al0+  Al67  1  0.74985928  0.25002157  0.33383016  1
  Al0+  Al68  1  0.75140426  0.25060167  0.65902612  1
  Al0+  Al69  1  0.74668371  0.75089880  -0.00672186  1
  Al0+  Al70  1  0.74971989  0.75112592  0.34068939  1
  Al0+  Al71  1  0.75041741  0.75093764  0.66855591  1
  Al0+  Al72  1  0.32241754  0.07177778  0.01376328  1
  Al0+  Al73  1  0.56844395  0.17923934  0.98912037  1
  Al0+  Al74  1  0.57131389  0.17733341  0.65171403  1
  Al0+  Al75  1  0.93174029  0.31997302  0.65181048  1
  Al0+  Al76  1  0.32201640  0.57140195  0.01363749  1
  Al0+  Al77  1  0.07183120  0.17649016  0.31917899  1
  Al0+  Al78  1  0.17491309  0.43069068  0.01614996  1
  Al0+  Al79  1  0.07052735  0.68067952  0.31987541  1
  Al0+  Al80  1  0.82056342  0.57089468  0.34650046  1
  Al0+  Al81  1  0.07318509  0.67855887  0.98425779  1
  Al0+  Al82  1  0.17971002  0.42797393  0.34874085  1
  Al0+  Al83  1  0.92824353  0.82203167  0.98661703  1
  Al0+  Al84  1  0.42914583  0.32284306  0.31750070  1
  Al0+  Al85  1  0.17943953  0.42881162  0.68108414  1
  Al0+  Al86  1  0.42643402  0.32113461  0.65314772  1
  Al0+  Al87  1  0.82024760  0.07148499  0.01491794  1
  Al0+  Al88  1  0.32223660  0.57184656  0.34745352  1
  Al0+  Al89  1  0.42911649  0.81979073  0.31836542  1
  Al0+  Al90  1  0.17918103  0.93083408  0.34580312  1
  Al0+  Al91  1  0.92790791  0.32177204  0.98519677  1
  Al0+  Al92  1  0.56926762  0.67827226  0.98708421  1
  Al0+  Al93  1  0.93005050  0.32196690  0.31743173  1
  Al0+  Al94  1  0.07109906  0.68146845  0.65032054  1
  Al0+  Al95  1  0.07293417  0.18003144  0.98467738  1
  Si0+  Si96  1  0.82044677  0.57068683  0.68350817  1
  Si0+  Si97  1  0.07299484  0.17382965  0.65091148  1
  Si0+  Si98  1  0.81833219  0.57300416  0.01236833  1
  Si0+  Si99  1  0.57405326  0.67804813  0.65027079  1
  Si0+  Si100  1  0.42725592  0.32252328  0.98462943  1
  Si0+  Si101  1  0.82013256  0.07184622  0.35105026  1
  Si0+  Si102  1  0.57150095  0.17714938  0.31630187  1
  Si0+  Si103  1  0.67816157  0.92978726  0.34991958  1
  Si0+  Si104  1  0.92516733  0.82290195  0.32061550  1
  Si0+  Si105  1  0.67895573  0.42858684  0.01387494  1
  Si0+  Si106  1  0.32438825  0.57343875  0.68195882  1
  Si0+  Si107  1  0.17858833  0.92678248  0.68259219  1
  Si0+  Si108  1  0.17780756  0.92917133  0.01490523  1
  Si0+  Si109  1  0.67784774  0.92620681  0.01866593  1
  Si0+  Si110  1  0.92704213  0.82289468  0.64912135  1
  Si0+  Si111  1  0.32575661  0.07138914  0.35126013  1
  Si0+  Si112  1  0.67840041  0.92822016  0.68411696  1
  Si0+  Si113  1  0.67869616  0.42881109  0.68209465  1
  Si0+  Si114  1  0.32111589  0.06808110  0.67975385  1
  Si0+  Si115  1  0.67828944  0.42538889  0.35201063  1
  Si0+  Si116  1  0.81911270  0.07170051  0.68252927  1
  Si0+  Si117  1  0.42798821  0.82302797  0.98158897  1
  Si0+  Si118  1  0.43096509  0.81910107  0.65163460  1
  Si0+  Si119  1  0.57445048  0.67876098  0.31868544  1
  O2-  O120  1  0.24574729  -0.00151737  0.05886727  1
  O2-  O121  1  0.25246628  0.00672817  0.39499097  1
  O2-  O122  1  0.24597261  0.00171042  0.72349981  1
  O2-  O123  1  0.24648911  0.50446141  0.06393807  1
  O2-  O124  1  0.25365283  0.49831481  0.39991635  1
  O2-  O125  1  0.25860464  0.50158201  0.72466064  1
  O2-  O126  1  0.74751753  -0.00600505  0.06248441  1
  O2-  O127  1  0.74794352  0.00138013  0.39333041  1
  O2-  O128  1  0.74786398  0.00060408  0.72543060  1
  O2-  O129  1  0.75044762  0.49944755  0.05521153  1
  O2-  O130  1  0.74887814  0.49330567  0.39497232  1
  O2-  O131  1  0.74950716  0.49957409  0.72598981  1
  O2-  O132  1  0.00439070  0.25234485  0.26902966  1
  O2-  O133  1  0.00773998  0.24571265  0.60737779  1
  O2-  O134  1  0.00306026  0.25364909  0.93414327  1
  O2-  O135  1  -0.00574210  0.75579083  0.27645077  1
  O2-  O136  1  -0.00318879  0.75724741  0.60362418  1
  O2-  O137  1  0.00027802  0.75122938  0.93532830  1
  O2-  O138  1  0.50359593  0.24613515  0.27273135  1
  O2-  O139  1  0.49860452  0.24850236  0.60297032  1
  O2-  O140  1  0.49089146  0.24888685  0.94033633  1
  O2-  O141  1  0.49996946  0.74039495  0.27428207  1
  O2-  O142  1  0.49870459  0.74466004  0.60924293  1
  O2-  O143  1  0.49283480  0.75009996  0.93782612  1
  O2-  O144  1  0.06946734  0.17695657  0.09750657  1
  O2-  O145  1  0.06561790  0.17322724  0.43339484  1
  O2-  O146  1  0.07155415  0.16961849  0.75594440  1
  O2-  O147  1  0.07178655  0.67925000  0.09754764  1
  O2-  O148  1  0.06933061  0.68140528  0.43332850  1
  O2-  O149  1  0.06998254  0.68311047  0.76303881  1
  O2-  O150  1  0.56967212  0.18331214  0.10194281  1
  O2-  O151  1  0.57048976  0.17630330  0.42212450  1
  O2-  O152  1  0.57011303  0.17674109  0.76525205  1
  O2-  O153  1  0.57322889  0.68138006  0.09963089  1
  O2-  O154  1  0.57709184  0.68388532  0.42480026  1
  O2-  O155  1  0.57596847  0.67908392  0.75522891  1
  O2-  O156  1  0.17765387  0.43059985  0.23590888  1
  O2-  O157  1  0.17820325  0.42915261  0.56838467  1
  O2-  O158  1  0.17688095  0.43117201  0.90181509  1
  O2-  O159  1  0.18000285  0.93079188  0.23315947  1
  O2-  O160  1  0.18049345  0.92540307  0.57758712  1
  O2-  O161  1  0.18120632  0.92956140  0.90845408  1
  O2-  O162  1  0.67759001  0.42497649  0.24632009  1
  O2-  O163  1  0.67682893  0.43229112  0.57734557  1
  O2-  O164  1  0.67828286  0.42946531  0.90830162  1
  O2-  O165  1  0.67799225  0.92772635  0.24556546  1
  O2-  O166  1  0.67891323  0.92616438  0.57884491  1
  O2-  O167  1  0.67763452  0.92675932  0.91254539  1
  O2-  O168  1  0.43256662  0.32408058  0.08998647  1
  O2-  O169  1  0.43068178  0.32070185  0.43086954  1
  O2-  O170  1  0.42823099  0.31894328  0.76672520  1
  O2-  O171  1  0.43034350  0.82512509  0.08675449  1
  O2-  O172  1  0.43311360  0.82141589  0.43229555  1
  O2-  O173  1  0.43316770  0.82191289  0.75642352  1
  O2-  O174  1  0.92494252  0.32078948  0.09807836  1
  O2-  O175  1  0.93020688  0.31932299  0.43141616  1
  O2-  O176  1  0.92759949  0.31729342  0.76427960  1
  O2-  O177  1  0.92833836  0.81929489  0.10040906  1
  O2-  O178  1  0.92373752  0.82174791  0.42664154  1
  O2-  O179  1  0.92571411  0.82287042  0.75421640  1
  O2-  O180  1  0.33117001  0.06692362  0.24617911  1
  O2-  O181  1  0.32266758  0.06514389  0.57494698  1
  O2-  O182  1  0.32464312  0.06770802  0.89960867  1
  O2-  O183  1  0.32019884  0.57164307  0.23440781  1
  O2-  O184  1  0.32359783  0.57759449  0.57686261  1
  O2-  O185  1  0.32484880  0.56602951  0.89946909  1
  O2-  O186  1  0.81956277  0.07103238  0.24636195  1
  O2-  O187  1  0.81820541  0.06797467  0.57719867  1
  O2-  O188  1  0.81610026  0.07167265  0.90129623  1
  O2-  O189  1  0.81639257  0.57509798  0.23347507  1
  O2-  O190  1  0.81796757  0.57199587  0.57839811  1
  O2-  O191  1  0.81535521  0.57302604  0.90684354  1
  O2-  O192  1  0.03720221  0.07890830  0.26774976  1
  O2-  O193  1  0.04327498  0.08057972  0.60474564  1
  O2-  O194  1  0.04352861  0.08212669  0.93083199  1
  O2-  O195  1  0.03630830  0.58614962  0.26631911  1
  O2-  O196  1  0.03664217  0.58642037  0.59707941  1
  O2-  O197  1  0.03901958  0.58333742  0.92871761  1
  O2-  O198  1  0.54838690  0.08311201  0.27089598  1
  O2-  O199  1  0.54577692  0.07715525  0.60011850  1
  O2-  O200  1  0.54389610  0.08041745  0.93602612  1
  O2-  O201  1  0.56048244  0.58238216  0.27603979  1
  O2-  O202  1  0.55359826  0.58510375  0.60278778  1
  O2-  O203  1  0.54159977  0.58168811  0.93008939  1
  O2-  O204  1  0.17388309  0.19261218  0.27134349  1
  O2-  O205  1  0.16823855  0.19375048  0.60697293  1
  O2-  O206  1  0.17319146  0.20535516  0.93325299  1
  O2-  O207  1  0.16503175  0.71446177  0.26601075  1
  O2-  O208  1  0.16817039  0.71344126  0.59810332  1
  O2-  O209  1  0.17042084  0.70802090  0.92868625  1
  O2-  O210  1  0.66599666  0.20208269  0.27252332  1
  O2-  O211  1  0.66801474  0.20676075  0.59672809  1
  O2-  O212  1  0.66263657  0.21357034  0.93322391  1
  O2-  O213  1  0.66514715  0.71370439  0.27232750  1
  O2-  O214  1  0.66421679  0.71186287  0.60275339  1
  O2-  O215  1  0.66226390  0.71183976  0.92683877  1
  O2-  O216  1  0.07508104  0.45940261  0.06593762  1
  O2-  O217  1  0.08155392  0.45980916  0.40098621  1
  O2-  O218  1  0.08392418  0.46507170  0.73442800  1
  O2-  O219  1  0.08379410  0.95268797  0.05940264  1
  O2-  O220  1  0.08289310  0.95832579  0.40479601  1
  O2-  O221  1  0.08436805  0.94943343  0.72792172  1
  O2-  O222  1  0.58829198  0.45848488  0.06189415  1
  O2-  O223  1  0.58661390  0.45451358  0.40019817  1
  O2-  O224  1  0.58707947  0.45686616  0.73064246  1
  O2-  O225  1  0.58474173  0.95206409  0.06475718  1
  O2-  O226  1  0.58658721  0.95788246  0.39891554  1
  O2-  O227  1  0.58549506  0.95237463  0.73125748  1
  O2-  O228  1  0.20189382  0.33256880  0.06892165  1
  O2-  O229  1  0.20733225  0.32734044  0.39925194  1
  O2-  O230  1  0.20571716  0.32992603  0.73408096  1
  O2-  O231  1  0.20503280  0.83557331  0.05934110  1
  O2-  O232  1  0.21519071  0.83667321  0.40192250  1
  O2-  O233  1  0.21203980  0.83736442  0.73136695  1
  O2-  O234  1  0.70587485  0.33809856  0.06309465  1
  O2-  O235  1  0.70117800  0.33135480  0.39895353  1
  O2-  O236  1  0.70795050  0.33586872  0.72651027  1
  O2-  O237  1  0.70165620  0.83162925  0.06321737  1
  O2-  O238  1  0.70592878  0.83984499  0.40219109  1
  O2-  O239  1  0.70726896  0.83662559  0.73241709  1
  O2-  O240  1  0.46445969  0.41817666  0.26376774  1
  O2-  O241  1  0.45733991  0.41891324  0.59958407  1
  O2-  O242  1  0.45925608  0.41283880  0.93633281  1
  O2-  O243  1  0.46542851  0.91419681  0.26384637  1
  O2-  O244  1  0.46299669  0.90812590  0.60135527  1
  O2-  O245  1  0.46037295  0.91389683  0.93333460  1
  O2-  O246  1  0.95240165  0.42195172  0.26720472  1
  O2-  O247  1  0.96062783  0.41763816  0.59998090  1
  O2-  O248  1  0.94956102  0.42117388  0.93118366  1
  O2-  O249  1  0.94942074  0.91753991  0.27788312  1
  O2-  O250  1  0.94921409  0.91815245  0.60448558  1
  O2-  O251  1  0.95485763  0.91983945  0.93165851  1
  O2-  O252  1  0.33412640  0.29209295  0.26231768  1
  O2-  O253  1  0.32928420  0.28925532  0.59946439  1
  O2-  O254  1  0.33191068  0.30075235  0.94290440  1
  O2-  O255  1  0.33309092  0.79505353  0.26278217  1
  O2-  O256  1  0.33825159  0.79502976  0.60470378  1
  O2-  O257  1  0.33421631  0.80387949  0.93361636  1
  O2-  O258  1  0.82999039  0.29252335  0.26840788  1
  O2-  O259  1  0.83602869  0.29001006  0.59544909  1
  O2-  O260  1  0.83036994  0.28847415  0.93220922  1
  O2-  O261  1  0.83104328  0.79841815  0.27590353  1
  O2-  O262  1  0.83261157  0.79667353  0.60393964  1
  O2-  O263  1  0.82950704  0.79619192  0.93229540  1
  O2-  O264  1  0.41766490  0.03822389  0.06902140  1
  O2-  O265  1  0.41731997  0.03920045  0.39911049  1
  O2-  O266  1  0.41190542  0.03405308  0.72691545  1
  O2-  O267  1  0.42080152  0.54316843  0.06667339  1
  O2-  O268  1  0.42482893  0.55042824  0.39673755  1
  O2-  O269  1  0.42121965  0.55214637  0.72453382  1
  O2-  O270  1  0.91687490  0.04026746  0.06846772  1
  O2-  O271  1  0.90943081  0.04250020  0.40231856  1
  O2-  O272  1  0.91100638  0.04373003  0.73019220  1
  O2-  O273  1  0.91090641  0.54901522  0.05834655  1
  O2-  O274  1  0.91578518  0.54099545  0.40332966  1
  O2-  O275  1  0.91238827  0.54303255  0.72928144  1
  O2-  O276  1  0.29588192  0.16822277  0.06839527  1
  O2-  O277  1  0.30455987  0.16641160  0.39503499  1
  O2-  O278  1  0.29871465  0.16038651  0.72798375  1
  O2-  O279  1  0.30200175  0.67479324  0.05915676  1
  O2-  O280  1  0.29421942  0.67149974  0.39842255  1
  O2-  O281  1  0.29768425  0.66677178  0.72939221  1
  O2-  O282  1  0.78377669  0.16575457  0.06993343  1
  O2-  O283  1  0.79083276  0.16308208  0.39949684  1
  O2-  O284  1  0.79078041  0.16435067  0.72713068  1
  O2-  O285  1  0.78532473  0.66342083  0.05876782  1
  O2-  O286  1  0.78684691  0.66563368  0.40534510  1
  O2-  O287  1  0.79116233  0.66289507  0.72985198  1
