# generated using pymatgen
data_Ca2Al2SiO7
_symmetry_space_group_name_H-M   'P 1'
_cell_length_a   15.46467553
_cell_length_b   15.46326316
_cell_length_c   15.28858180
_cell_angle_alpha   89.99124831
_cell_angle_beta   90.00324764
_cell_angle_gamma   89.98604146
_symmetry_Int_Tables_number   1
_chemical_formula_structural   Ca2Al2SiO7
_chemical_formula_sum   'Ca48 Al48 Si24 O168'
_cell_volume   3656.02487486
_cell_formula_units_Z   24
loop_
 _symmetry_equiv_pos_site_id
 _symmetry_equiv_pos_as_xyz
  1  'x, y, z'
loop_
 _atom_type_symbol
 _atom_type_oxidation_number
  Ca2+  2.0
  Al0+  0.0
  Si0+  0.0
  O2-  -2.0
loop_
 _atom_site_type_symbol
 _atom_site_label
 _atom_site_symmetry_multiplicity
 _atom_site_fract_x
 _atom_site_fract_y
 _atom_site_fract_z
 _atom_site_occupancy
  Ca2+  Ca0  1  0.16473269  0.07565012  0.17367560  1
  Ca2+  Ca1  1  0.17092131  0.07565042  0.50688287  1
  Ca2+  Ca2  1  0.16282647  0.07739921  0.83707127  1
  Ca2+  Ca3  1  0.16964256  0.57792169  0.16374857  1
  Ca2+  Ca4  1  0.16920667  0.58247998  0.51247034  1
  Ca2+  Ca5  1  0.17540679  0.58169049  0.83760994  1
  Ca2+  Ca6  1  0.66322311  0.07867192  0.16491007  1
  Ca2+  Ca7  1  0.66696793  0.08379295  0.50807418  1
  Ca2+  Ca8  1  0.66456094  0.08075489  0.83928568  1
  Ca2+  Ca9  1  0.67081697  0.59153660  0.16281469  1
  Ca2+  Ca10  1  0.67482784  0.58155639  0.50966469  1
  Ca2+  Ca11  1  0.67814132  0.58942717  0.84056184  1
  Ca2+  Ca12  1  0.09179976  0.32134266  0.16022807  1
  Ca2+  Ca13  1  0.08804598  0.31915536  0.50110238  1
  Ca2+  Ca14  1  0.08728055  0.32501020  0.82793708  1
  Ca2+  Ca15  1  0.07909157  0.84092695  0.15888800  1
  Ca2+  Ca16  1  0.08950027  0.83292866  0.50289321  1
  Ca2+  Ca17  1  0.07645943  0.83406218  0.82510728  1
  Ca2+  Ca18  1  0.57982631  0.32506041  0.15784717  1
  Ca2+  Ca19  1  0.57710433  0.32920511  0.50514617  1
  Ca2+  Ca20  1  0.57858938  0.32280762  0.82596782  1
  Ca2+  Ca21  1  0.57442127  0.83354424  0.15769468  1
  Ca2+  Ca22  1  0.56603519  0.83465680  0.49930998  1
  Ca2+  Ca23  1  0.57743636  0.83088142  0.83093568  1
  Ca2+  Ca24  1  0.33154936  0.42039481  0.16228311  1
  Ca2+  Ca25  1  0.33517362  0.42410950  0.51061372  1
  Ca2+  Ca26  1  0.33469570  0.42512550  0.83765357  1
  Ca2+  Ca27  1  0.32196030  0.92147474  0.17537333  1
  Ca2+  Ca28  1  0.32796327  0.92325761  0.50898750  1
  Ca2+  Ca29  1  0.32115978  0.91641973  0.83240319  1
  Ca2+  Ca30  1  0.83477199  0.42378814  0.16700365  1
  Ca2+  Ca31  1  0.83446168  0.41848081  0.51195835  1
  Ca2+  Ca32  1  0.84342963  0.42788064  0.83529560  1
  Ca2+  Ca33  1  0.82701597  0.91160531  0.16270077  1
  Ca2+  Ca34  1  0.83062461  0.91463931  0.50688001  1
  Ca2+  Ca35  1  0.82895104  0.90948321  0.84127972  1
  Ca2+  Ca36  1  0.41743129  0.16355775  0.16131537  1
  Ca2+  Ca37  1  0.41200234  0.16274835  0.50186653  1
  Ca2+  Ca38  1  0.42474222  0.16665956  0.82285171  1
  Ca2+  Ca39  1  0.41892677  0.67322423  0.15867440  1
  Ca2+  Ca40  1  0.40001732  0.68365880  0.50137993  1
  Ca2+  Ca41  1  0.41723874  0.66609582  0.82649257  1
  Ca2+  Ca42  1  0.93067204  0.16477653  0.16007395  1
  Ca2+  Ca43  1  0.93146482  0.16598318  0.50153162  1
  Ca2+  Ca44  1  0.93109080  0.17089239  0.82580975  1
  Ca2+  Ca45  1  0.91820835  0.67371782  0.15632011  1
  Ca2+  Ca46  1  0.92195245  0.66732048  0.50640434  1
  Ca2+  Ca47  1  0.91863244  0.67338957  0.82559347  1
  Al0+  Al48  1  -0.00187415  0.00154954  -0.00447048  1
  Al0+  Al49  1  -0.00218115  -0.00060425  0.33305110  1
  Al0+  Al50  1  -0.00321882  -0.00020309  0.66207646  1
  Al0+  Al51  1  0.00133323  0.50060560  0.01156572  1
  Al0+  Al52  1  -0.00050926  0.50080538  0.33381311  1
  Al0+  Al53  1  -0.00030202  0.50108403  0.66445883  1
  Al0+  Al54  1  0.49992857  -0.00057394  -0.00013149  1
  Al0+  Al55  1  0.49988588  -0.00076852  0.33129017  1
  Al0+  Al56  1  0.50009887  -0.00215995  0.66343761  1
  Al0+  Al57  1  0.50258955  0.50154498  0.00124416  1
  Al0+  Al58  1  0.50257595  0.49872171  0.33343938  1
  Al0+  Al59  1  0.50310658  0.49730427  0.66723965  1
  Al0+  Al60  1  0.25133824  0.25103018  -0.00159891  1
  Al0+  Al61  1  0.25112278  0.25081919  0.33096736  1
  Al0+  Al62  1  0.25281281  0.24980942  0.66196336  1
  Al0+  Al63  1  0.24875106  0.75167537  0.00937863  1
  Al0+  Al64  1  0.24853832  0.74921678  0.32848992  1
  Al0+  Al65  1  0.24889028  0.74979773  0.66898782  1
  Al0+  Al66  1  0.75087814  0.25103854  -0.00248508  1
  Al0+  Al67  1  0.74949067  0.25186479  0.33302829  1
  Al0+  Al68  1  0.74924241  0.24887886  0.66067147  1
  Al0+  Al69  1  0.74779558  0.75126803  0.00278237  1
  Al0+  Al70  1  0.75108461  0.74902332  0.33592020  1
  Al0+  Al71  1  0.75001499  0.74897054  0.66564403  1
  Al0+  Al72  1  0.07374148  0.17696358  0.65116146  1
  Al0+  Al73  1  0.17998571  0.42733682  0.01482397  1
  Al0+  Al74  1  0.07194363  0.18001761  0.98603426  1
  Al0+  Al75  1  0.07015287  0.17999297  0.31789372  1
  Al0+  Al76  1  0.42833732  0.81837873  0.65592315  1
  Al0+  Al77  1  0.17629221  0.92764676  0.34968637  1
  Al0+  Al78  1  0.42843502  0.82084218  0.31758851  1
  Al0+  Al79  1  0.17600833  0.93159963  0.01348789  1
  Al0+  Al80  1  0.07138886  0.68011976  0.65424648  1
  Al0+  Al81  1  0.56939216  0.68017335  0.98648749  1
  Al0+  Al82  1  0.92625983  0.82116632  0.65070116  1
  Al0+  Al83  1  0.32248717  0.07177836  0.68307431  1
  Al0+  Al84  1  0.92980257  0.81954656  0.98771085  1
  Al0+  Al85  1  0.82068804  0.57176907  0.01499870  1
  Al0+  Al86  1  0.82095555  0.56995205  0.68124171  1
  Al0+  Al87  1  0.56988847  0.17670894  0.65038208  1
  Al0+  Al88  1  0.67823095  0.93029089  0.01306709  1
  Al0+  Al89  1  0.32419779  0.57257552  0.01616282  1
  Al0+  Al90  1  0.57101281  0.17779512  0.98691921  1
  Al0+  Al91  1  0.32221522  0.57102518  0.67877928  1
  Al0+  Al92  1  0.32209456  0.07162295  0.34811599  1
  Al0+  Al93  1  0.93019364  0.32181927  0.65366532  1
  Al0+  Al94  1  0.42902523  0.32234815  0.65184306  1
  Al0+  Al95  1  0.17672154  0.93033448  0.68289588  1
  Si0+  Si96  1  0.82082096  0.57073530  0.35069981  1
  Si0+  Si97  1  0.07031590  0.67679783  0.31612212  1
  Si0+  Si98  1  0.82106493  0.07422153  0.01586033  1
  Si0+  Si99  1  0.32204975  0.07148346  0.01471657  1
  Si0+  Si100  1  0.57285804  0.67708997  0.65065940  1
  Si0+  Si101  1  0.07312483  0.67666728  0.98584740  1
  Si0+  Si102  1  0.67939474  0.92857952  0.68084437  1
  Si0+  Si103  1  0.57259010  0.17977884  0.31705882  1
  Si0+  Si104  1  0.67947182  0.42559821  0.68513680  1
  Si0+  Si105  1  0.67912534  0.42674205  0.01728497  1
  Si0+  Si106  1  0.17931932  0.42963519  0.34907581  1
  Si0+  Si107  1  0.92710171  0.81949964  0.31678816  1
  Si0+  Si108  1  0.92849936  0.32475173  0.98589750  1
  Si0+  Si109  1  0.67933204  0.42738141  0.35028658  1
  Si0+  Si110  1  0.67946723  0.92864398  0.34886874  1
  Si0+  Si111  1  0.57366580  0.67809353  0.31763539  1
  Si0+  Si112  1  0.81915376  0.07209544  0.34775127  1
  Si0+  Si113  1  0.43023368  0.32343864  0.31609141  1
  Si0+  Si114  1  0.42932762  0.32274383  0.98371440  1
  Si0+  Si115  1  0.17805576  0.42755570  0.68072555  1
  Si0+  Si116  1  0.92696977  0.32338450  0.31516082  1
  Si0+  Si117  1  0.42505815  0.82190475  0.98312574  1
  Si0+  Si118  1  0.32195605  0.56921867  0.34745914  1
  Si0+  Si119  1  0.81957316  0.07209595  0.68096337  1
  O2-  O120  1  0.25102037  0.00613667  0.06000711  1
  O2-  O121  1  0.25002242  -0.00078741  0.39722349  1
  O2-  O122  1  0.24574170  0.00529611  0.73327439  1
  O2-  O123  1  0.25145512  0.50037353  0.06551044  1
  O2-  O124  1  0.25014828  0.50031555  0.39157321  1
  O2-  O125  1  0.24933069  0.49412291  0.72399702  1
  O2-  O126  1  0.75100599  0.00684030  0.06088901  1
  O2-  O127  1  0.74819963  0.00140200  0.39134049  1
  O2-  O128  1  0.75077723  -0.00099476  0.72306915  1
  O2-  O129  1  0.74714548  0.49572863  0.06291385  1
  O2-  O130  1  0.75075118  0.49836466  0.39168358  1
  O2-  O131  1  0.74822091  0.49399028  0.72898153  1
  O2-  O132  1  -0.00433075  0.25564778  0.27047991  1
  O2-  O133  1  0.00265023  0.25149377  0.60227285  1
  O2-  O134  1  -0.00123457  0.25797877  0.94269003  1
  O2-  O135  1  0.00176414  0.75158432  0.27576696  1
  O2-  O136  1  0.00190124  0.75318859  0.60066897  1
  O2-  O137  1  0.00550330  0.74605613  0.94213205  1
  O2-  O138  1  0.49825480  0.24804581  0.27573339  1
  O2-  O139  1  0.49574478  0.24608804  0.59964543  1
  O2-  O140  1  0.49660533  0.25217960  0.94119745  1
  O2-  O141  1  0.50383789  0.74501454  0.27317722  1
  O2-  O142  1  0.49911211  0.73990715  0.60656771  1
  O2-  O143  1  0.49027387  0.74931092  0.93969121  1
  O2-  O144  1  0.06985496  0.17929605  0.09965553  1
  O2-  O145  1  0.06816744  0.18153654  0.43023278  1
  O2-  O146  1  0.07084498  0.17793105  0.76469708  1
  O2-  O147  1  0.06994044  0.67714655  0.09228300  1
  O2-  O148  1  0.06898941  0.67194840  0.42068922  1
  O2-  O149  1  0.07041783  0.67885046  0.76762008  1
  O2-  O150  1  0.56934082  0.17947771  0.10100089  1
  O2-  O151  1  0.57691764  0.18183544  0.42139680  1
  O2-  O152  1  0.57168856  0.17823216  0.76389099  1
  O2-  O153  1  0.56983434  0.68394697  0.10024830  1
  O2-  O154  1  0.57721946  0.67881418  0.42287166  1
  O2-  O155  1  0.57567788  0.68069280  0.75605331  1
  O2-  O156  1  0.18016338  0.43069067  0.24419232  1
  O2-  O157  1  0.17833083  0.43060767  0.57434757  1
  O2-  O158  1  0.18016342  0.42755327  0.90159649  1
  O2-  O159  1  0.17526057  0.93064028  0.23567014  1
  O2-  O160  1  0.18007416  0.92920770  0.56928191  1
  O2-  O161  1  0.17495303  0.93054570  0.90114484  1
  O2-  O162  1  0.67911860  0.42503478  0.24539699  1
  O2-  O163  1  0.67975860  0.42786326  0.57872170  1
  O2-  O164  1  0.67964934  0.42537053  0.91246573  1
  O2-  O165  1  0.68076177  0.92806578  0.24383885  1
  O2-  O166  1  0.68040050  0.92917048  0.57502841  1
  O2-  O167  1  0.67894692  0.93014151  0.90017562  1
  O2-  O168  1  0.43106396  0.32183740  0.09024769  1
  O2-  O169  1  0.43276381  0.32971119  0.42026310  1
  O2-  O170  1  0.43400729  0.32556390  0.76509455  1
  O2-  O171  1  0.42864692  0.82245496  0.08916233  1
  O2-  O172  1  0.42966664  0.81932944  0.43071599  1
  O2-  O173  1  0.43123157  0.81782213  0.76867048  1
  O2-  O174  1  0.92617229  0.32173911  0.09195872  1
  O2-  O175  1  0.92575333  0.32391733  0.42015026  1
  O2-  O176  1  0.93135400  0.32071766  0.76737392  1
  O2-  O177  1  0.92981258  0.81867873  0.10177641  1
  O2-  O178  1  0.92086350  0.81682612  0.42109204  1
  O2-  O179  1  0.92221858  0.81786759  0.76394332  1
  O2-  O180  1  0.32234688  0.07102084  0.23401306  1
  O2-  O181  1  0.32307924  0.06727571  0.56945569  1
  O2-  O182  1  0.32365113  0.06997653  0.90974790  1
  O2-  O183  1  0.32260820  0.56634247  0.24265145  1
  O2-  O184  1  0.31931170  0.57068605  0.56476954  1
  O2-  O185  1  0.32444698  0.57072763  0.90282587  1
  O2-  O186  1  0.81738637  0.07200003  0.24265278  1
  O2-  O187  1  0.81694902  0.07146577  0.57516529  1
  O2-  O188  1  0.82034550  0.07474347  0.91058611  1
  O2-  O189  1  0.81934425  0.57211601  0.24565901  1
  O2-  O190  1  0.81716347  0.56964973  0.56737517  1
  O2-  O191  1  0.82057981  0.57121827  0.90250649  1
  O2-  O192  1  0.03486391  0.08341595  0.26540721  1
  O2-  O193  1  0.03883984  0.08193245  0.59593736  1
  O2-  O194  1  0.03554413  0.08681874  0.93049627  1
  O2-  O195  1  0.03797257  0.58642349  0.26727547  1
  O2-  O196  1  0.04043439  0.58373967  0.59748808  1
  O2-  O197  1  0.04740669  0.58178837  0.94395760  1
  O2-  O198  1  0.54846887  0.08653880  0.27082256  1
  O2-  O199  1  0.54579195  0.07791621  0.59651330  1
  O2-  O200  1  0.54210252  0.08097435  0.93342095  1
  O2-  O201  1  0.55052099  0.58299823  0.27274940  1
  O2-  O202  1  0.55600994  0.58086836  0.60751815  1
  O2-  O203  1  0.54762572  0.58094339  0.93400382  1
  O2-  O204  1  0.16709467  0.21184161  0.26459251  1
  O2-  O205  1  0.17131775  0.20426454  0.59690455  1
  O2-  O206  1  0.16916743  0.20866501  0.93316732  1
  O2-  O207  1  0.16274680  0.69945038  0.26803198  1
  O2-  O208  1  0.16929429  0.70635495  0.59887611  1
  O2-  O209  1  0.16851450  0.70045501  0.94419532  1
  O2-  O210  1  0.66287366  0.21184177  0.26804267  1
  O2-  O211  1  0.66641211  0.20831139  0.59459959  1
  O2-  O212  1  0.66838618  0.20741623  0.93419524  1
  O2-  O213  1  0.66735897  0.70559895  0.27150278  1
  O2-  O214  1  0.66293477  0.70884353  0.60094018  1
  O2-  O215  1  0.66433376  0.71536917  0.93322902  1
  O2-  O216  1  0.08336629  0.45366834  0.07397024  1
  O2-  O217  1  0.08656931  0.45743865  0.39468975  1
  O2-  O218  1  0.08562100  0.45519914  0.72670152  1
  O2-  O219  1  0.07910083  0.96428268  0.06691476  1
  O2-  O220  1  0.07618498  0.95430351  0.40005993  1
  O2-  O221  1  0.07485419  0.95493006  0.73073465  1
  O2-  O222  1  0.58640325  0.45248261  0.06543354  1
  O2-  O223  1  0.58807779  0.45640333  0.39848167  1
  O2-  O224  1  0.58645887  0.45027947  0.73152820  1
  O2-  O225  1  0.58232802  0.96133885  0.06968140  1
  O2-  O226  1  0.58732733  0.95542321  0.39518110  1
  O2-  O227  1  0.58813302  0.95582498  0.72811075  1
  O2-  O228  1  0.21260303  0.33030937  0.07050659  1
  O2-  O229  1  0.20770087  0.33792821  0.39506735  1
  O2-  O230  1  0.20090336  0.33279846  0.72420823  1
  O2-  O231  1  0.20327349  0.83542465  0.07053349  1
  O2-  O232  1  0.20274201  0.82596275  0.39690299  1
  O2-  O233  1  0.20790181  0.83262540  0.73540910  1
  O2-  O234  1  0.70597747  0.33358040  0.06568842  1
  O2-  O235  1  0.70692647  0.33605302  0.39903120  1
  O2-  O236  1  0.70412368  0.33083571  0.72842305  1
  O2-  O237  1  0.71141196  0.83659287  0.07137149  1
  O2-  O238  1  0.70995042  0.83760726  0.39654990  1
  O2-  O239  1  0.70706838  0.83671820  0.72759752  1
  O2-  O240  1  0.46396900  0.41285053  0.26613446  1
  O2-  O241  1  0.46456518  0.41837478  0.59508766  1
  O2-  O242  1  0.45744485  0.41586227  0.93952627  1
  O2-  O243  1  0.46212893  0.91648226  0.26289853  1
  O2-  O244  1  0.46432391  0.91116674  0.59834834  1
  O2-  O245  1  0.45612751  0.91351022  0.93758426  1
  O2-  O246  1  0.95203207  0.41818137  0.27033625  1
  O2-  O247  1  0.95473799  0.42009032  0.59883812  1
  O2-  O248  1  0.95325446  0.42026586  0.94448682  1
  O2-  O249  1  0.94983590  0.91297287  0.27067018  1
  O2-  O250  1  0.94701011  0.92066748  0.59755134  1
  O2-  O251  1  0.95473155  0.91692864  0.93379782  1
  O2-  O252  1  0.33787126  0.29905043  0.26850727  1
  O2-  O253  1  0.33030695  0.30199473  0.59675488  1
  O2-  O254  1  0.33562958  0.30081369  0.93823586  1
  O2-  O255  1  0.33230398  0.78951945  0.26282532  1
  O2-  O256  1  0.33271777  0.78863868  0.60013065  1
  O2-  O257  1  0.32923223  0.79951028  0.94173484  1
  O2-  O258  1  0.83258309  0.29824717  0.26931824  1
  O2-  O259  1  0.83259664  0.29282405  0.59867505  1
  O2-  O260  1  0.83536087  0.30065332  0.93894630  1
  O2-  O261  1  0.83632113  0.78693559  0.26835012  1
  O2-  O262  1  0.82970489  0.78765618  0.59506552  1
  O2-  O263  1  0.83275752  0.78809860  0.93665315  1
  O2-  O264  1  0.41442801  0.04344958  0.06290226  1
  O2-  O265  1  0.42243665  0.04471233  0.39854084  1
  O2-  O266  1  0.42095518  0.03856672  0.73375792  1
  O2-  O267  1  0.42248636  0.54302229  0.07055842  1
  O2-  O268  1  0.41447035  0.54137002  0.39349167  1
  O2-  O269  1  0.42063284  0.54217515  0.73035430  1
  O2-  O270  1  0.91277938  0.04446298  0.06322206  1
  O2-  O271  1  0.90971182  0.04270608  0.39560328  1
  O2-  O272  1  0.91211315  0.04773726  0.72716734  1
  O2-  O273  1  0.91550773  0.54306398  0.07428635  1
  O2-  O274  1  0.91324900  0.54363992  0.39692326  1
  O2-  O275  1  0.91822171  0.54121659  0.73440529  1
  O2-  O276  1  0.30179801  0.16707014  0.05894609  1
  O2-  O277  1  0.29720278  0.17272691  0.39740117  1
  O2-  O278  1  0.30351940  0.17460731  0.73035953  1
  O2-  O279  1  0.29536188  0.66950857  0.07223693  1
  O2-  O280  1  0.29322356  0.66201793  0.39127163  1
  O2-  O281  1  0.29119408  0.66570139  0.73459519  1
  O2-  O282  1  0.79708008  0.16793833  0.06353100  1
  O2-  O283  1  0.79111154  0.16435577  0.39438318  1
  O2-  O284  1  0.78938932  0.16309810  0.72791911  1
  O2-  O285  1  0.78475720  0.66590565  0.07141040  1
  O2-  O286  1  0.79155086  0.66174257  0.39887883  1
  O2-  O287  1  0.78672876  0.66611835  0.73390617  1
