# generated using pymatgen
data_Ca2Al2SiO7
_symmetry_space_group_name_H-M   'P 1'
_cell_length_a   15.45788221
_cell_length_b   15.45760219
_cell_length_c   15.28392375
_cell_angle_alpha   90.00297784
_cell_angle_beta   90.00279076
_cell_angle_gamma   89.99155039
_symmetry_Int_Tables_number   1
_chemical_formula_structural   Ca2Al2SiO7
_chemical_formula_sum   'Ca48 Al48 Si24 O168'
_cell_volume   3651.96811159
_cell_formula_units_Z   24
loop_
 _symmetry_equiv_pos_site_id
 _symmetry_equiv_pos_as_xyz
  1  'x, y, z'
loop_
 _atom_type_symbol
 _atom_type_oxidation_number
  Ca2+  2.0
  Al0+  0.0
  Si0+  0.0
  O2-  -2.0
loop_
 _atom_site_type_symbol
 _atom_site_label
 _atom_site_symmetry_multiplicity
 _atom_site_fract_x
 _atom_site_fract_y
 _atom_site_fract_z
 _atom_site_occupancy
  Ca2+  Ca0  1  0.17223865  0.07887711  0.18131804  1
  Ca2+  Ca1  1  0.17319807  0.07588591  0.50438391  1
  Ca2+  Ca2  1  0.17098184  0.08078647  0.83300349  1
  Ca2+  Ca3  1  0.16498184  0.57829985  0.17632743  1
  Ca2+  Ca4  1  0.15768788  0.58032947  0.50197085  1
  Ca2+  Ca5  1  0.16772122  0.58703377  0.83248724  1
  Ca2+  Ca6  1  0.66098106  0.07830400  0.16602431  1
  Ca2+  Ca7  1  0.66648517  0.08359367  0.50586585  1
  Ca2+  Ca8  1  0.66085964  0.08021535  0.83956182  1
  Ca2+  Ca9  1  0.66920301  0.58239392  0.17156172  1
  Ca2+  Ca10  1  0.67801011  0.58258649  0.50598016  1
  Ca2+  Ca11  1  0.66804119  0.57418799  0.83962488  1
  Ca2+  Ca12  1  0.07431469  0.33646929  0.16924164  1
  Ca2+  Ca13  1  0.08047492  0.32892556  0.48640506  1
  Ca2+  Ca14  1  0.07544604  0.33423894  0.83173293  1
  Ca2+  Ca15  1  0.08191368  0.83043850  0.16452380  1
  Ca2+  Ca16  1  0.08749214  0.82616647  0.49636540  1
  Ca2+  Ca17  1  0.07323289  0.83135144  0.82212615  1
  Ca2+  Ca18  1  0.57786885  0.32787990  0.15305552  1
  Ca2+  Ca19  1  0.58178907  0.33312470  0.50281639  1
  Ca2+  Ca20  1  0.58045213  0.33011485  0.82567166  1
  Ca2+  Ca21  1  0.58425616  0.82371257  0.16364808  1
  Ca2+  Ca22  1  0.57619380  0.82759217  0.48951581  1
  Ca2+  Ca23  1  0.59181268  0.82732946  0.83320706  1
  Ca2+  Ca24  1  0.32892829  0.41506586  0.17167556  1
  Ca2+  Ca25  1  0.32741807  0.41341016  0.50291614  1
  Ca2+  Ca26  1  0.33715819  0.41116922  0.83624884  1
  Ca2+  Ca27  1  0.33056841  0.92399535  0.18091059  1
  Ca2+  Ca28  1  0.32613538  0.92197722  0.50362271  1
  Ca2+  Ca29  1  0.32955240  0.92101343  0.83390124  1
  Ca2+  Ca30  1  0.83043577  0.41634982  0.17388059  1
  Ca2+  Ca31  1  0.83430230  0.42880863  0.50549481  1
  Ca2+  Ca32  1  0.82312105  0.41953900  0.83869500  1
  Ca2+  Ca33  1  0.82971630  0.91087464  0.16421940  1
  Ca2+  Ca34  1  0.83447225  0.91663816  0.50524739  1
  Ca2+  Ca35  1  0.83316364  0.91514392  0.84089857  1
  Ca2+  Ca36  1  0.41774287  0.17050038  0.16053034  1
  Ca2+  Ca37  1  0.41486165  0.16329119  0.50128089  1
  Ca2+  Ca38  1  0.42603691  0.17422043  0.82650175  1
  Ca2+  Ca39  1  0.42608099  0.67076100  0.16523645  1
  Ca2+  Ca40  1  0.42377426  0.67397583  0.48938813  1
  Ca2+  Ca41  1  0.42551790  0.66427884  0.83183771  1
  Ca2+  Ca42  1  0.92245767  0.17676407  0.16491015  1
  Ca2+  Ca43  1  0.92443167  0.17523321  0.49009967  1
  Ca2+  Ca44  1  0.91017438  0.17511349  0.83238787  1
  Ca2+  Ca45  1  0.91997697  0.66621525  0.16663539  1
  Ca2+  Ca46  1  0.92113071  0.66596967  0.49751012  1
  Ca2+  Ca47  1  0.91667595  0.67723152  0.82498539  1
  Al0+  Al48  1  0.00059079  -0.00051989  -0.00159806  1
  Al0+  Al49  1  -0.00069653  0.00031587  0.33315536  1
  Al0+  Al50  1  -0.00175545  0.00077946  0.66823673  1
  Al0+  Al51  1  0.00124033  0.49962945  -0.00497757  1
  Al0+  Al52  1  -0.00176444  0.50201445  0.33346922  1
  Al0+  Al53  1  -0.00060189  0.50246126  0.67100892  1
  Al0+  Al54  1  0.49904220  -0.00092502  0.00249233  1
  Al0+  Al55  1  0.49971439  0.00028032  0.33410289  1
  Al0+  Al56  1  0.49993887  0.00101129  0.66785636  1
  Al0+  Al57  1  0.49958732  0.50142382  -0.00138187  1
  Al0+  Al58  1  0.50074546  0.49825758  0.33024913  1
  Al0+  Al59  1  0.49865418  0.49831308  0.66407173  1
  Al0+  Al60  1  0.24928466  0.24981650  -0.00188962  1
  Al0+  Al61  1  0.25070042  0.24957027  0.33756358  1
  Al0+  Al62  1  0.25070330  0.25008943  0.66927319  1
  Al0+  Al63  1  0.25129745  0.74927189  0.00174633  1
  Al0+  Al64  1  0.25038022  0.75040514  0.32755362  1
  Al0+  Al65  1  0.24894617  0.74862580  0.66865449  1
  Al0+  Al66  1  0.75152210  0.24928909  -0.00192560  1
  Al0+  Al67  1  0.74824806  0.24962391  0.33045025  1
  Al0+  Al68  1  0.74828390  0.24962130  0.66500425  1
  Al0+  Al69  1  0.75118752  0.75020229  -0.00274374  1
  Al0+  Al70  1  0.75045353  0.74872640  0.33480386  1
  Al0+  Al71  1  0.75179186  0.75047482  0.66538518  1
  Al0+  Al72  1  0.92824792  0.32260219  0.32004001  1
  Al0+  Al73  1  0.82210431  0.57261669  0.68508498  1
  Al0+  Al74  1  0.17988858  0.43170952  0.34583580  1
  Al0+  Al75  1  0.81937931  0.57042410  0.34663032  1
  Al0+  Al76  1  0.67890567  0.42836354  0.01446427  1
  Al0+  Al77  1  0.93142623  0.81993614  0.98716481  1
  Al0+  Al78  1  0.57101114  0.68035595  0.98527384  1
  Al0+  Al79  1  0.42765145  0.32165060  0.64815116  1
  Al0+  Al80  1  0.42783959  0.32123946  0.98576113  1
  Al0+  Al81  1  0.07136949  0.67942779  0.65079718  1
  Al0+  Al82  1  0.92923459  0.32180833  0.98493812  1
  Al0+  Al83  1  0.32167154  0.07155752  0.68575010  1
  Al0+  Al84  1  0.57093122  0.17697227  0.98604128  1
  Al0+  Al85  1  0.92755593  0.82312925  0.64954040  1
  Al0+  Al86  1  0.57111448  0.17796926  0.64929708  1
  Al0+  Al87  1  0.17648126  0.92660812  0.34819646  1
  Al0+  Al88  1  0.67864679  0.42952718  0.68157909  1
  Al0+  Al89  1  0.07034745  0.67994555  0.31925928  1
  Al0+  Al90  1  0.07284570  0.17821975  0.31992126  1
  Al0+  Al91  1  0.17824707  0.92759798  0.68355593  1
  Al0+  Al92  1  0.57319038  0.67777877  0.31884461  1
  Al0+  Al93  1  0.32271633  0.07183022  0.34974515  1
  Al0+  Al94  1  0.67964324  0.92861338  0.01408802  1
  Al0+  Al95  1  0.42925812  0.82233479  0.31866340  1
  Si0+  Si96  1  0.42915147  0.82038629  0.65419091  1
  Si0+  Si97  1  0.82459986  0.07231631  0.01827767  1
  Si0+  Si98  1  0.32408748  0.57156333  0.34865941  1
  Si0+  Si99  1  0.42684484  0.82167309  0.98242878  1
  Si0+  Si100  1  0.82007811  0.07304045  0.34734972  1
  Si0+  Si101  1  0.57105426  0.67839308  0.65210246  1
  Si0+  Si102  1  0.68063726  0.92972139  0.34809584  1
  Si0+  Si103  1  0.82243335  0.57107852  0.01697946  1
  Si0+  Si104  1  0.42870836  0.32054269  0.31839128  1
  Si0+  Si105  1  0.82076547  0.07197400  0.68091896  1
  Si0+  Si106  1  0.57160064  0.17836010  0.31724151  1
  Si0+  Si107  1  0.07455140  0.67763138  0.98283728  1
  Si0+  Si108  1  0.17831422  0.42853721  0.68254799  1
  Si0+  Si109  1  0.67589671  0.42504389  0.34974644  1
  Si0+  Si110  1  0.07088101  0.18028728  0.65317398  1
  Si0+  Si111  1  0.32157363  0.57091665  0.68073280  1
  Si0+  Si112  1  0.31903339  0.07032479  0.01561539  1
  Si0+  Si113  1  0.32140740  0.57210373  0.01613490  1
  Si0+  Si114  1  0.92880015  0.32116053  0.65267101  1
  Si0+  Si115  1  0.07160970  0.17770813  0.98250054  1
  Si0+  Si116  1  0.67898244  0.92929683  0.67985879  1
  Si0+  Si117  1  0.92675747  0.82371777  0.31608555  1
  Si0+  Si118  1  0.17849416  0.42900556  0.01460055  1
  Si0+  Si119  1  0.17822660  0.92852336  0.01559582  1
  O2-  O120  1  0.24911047  -0.00123934  0.05853485  1
  O2-  O121  1  0.24906009  -0.00065316  0.39640762  1
  O2-  O122  1  0.24953782  -0.00069627  0.73586183  1
  O2-  O123  1  0.25001567  0.50003236  0.05603618  1
  O2-  O124  1  0.25362339  0.50623259  0.39503529  1
  O2-  O125  1  0.25087898  0.49902784  0.72337163  1
  O2-  O126  1  0.75292927  0.00539510  0.06138413  1
  O2-  O127  1  0.75112631  0.00061036  0.39105390  1
  O2-  O128  1  0.75068075  -0.00042249  0.72199061  1
  O2-  O129  1  0.75566793  0.50092707  0.06202988  1
  O2-  O130  1  0.74388154  0.49513720  0.39188477  1
  O2-  O131  1  0.74907765  0.50146476  0.73407215  1
  O2-  O132  1  0.00093833  0.25055355  0.27033553  1
  O2-  O133  1  0.00181395  0.25271922  0.61013395  1
  O2-  O134  1  0.00225396  0.24528180  0.93744819  1
  O2-  O135  1  -0.00127483  0.75795749  0.27291464  1
  O2-  O136  1  0.00073462  0.75240027  0.60050204  1
  O2-  O137  1  0.00681797  0.74682557  0.93983815  1
  O2-  O138  1  0.50060185  0.25003405  0.27688368  1
  O2-  O139  1  0.49885247  0.24893803  0.59804810  1
  O2-  O140  1  0.50346129  0.25309453  0.93616675  1
  O2-  O141  1  0.50046321  0.74928476  0.26907765  1
  O2-  O142  1  0.50069395  0.75037368  0.61091536  1
  O2-  O143  1  0.49741914  0.75589964  0.93679939  1
  O2-  O144  1  0.07227713  0.17803302  0.08774185  1
  O2-  O145  1  0.06973431  0.17981273  0.43399082  1
  O2-  O146  1  0.06888579  0.18214250  0.75873055  1
  O2-  O147  1  0.07546743  0.67663627  0.08838804  1
  O2-  O148  1  0.06799661  0.67781939  0.43162629  1
  O2-  O149  1  0.07202377  0.68040529  0.76484735  1
  O2-  O150  1  0.56605386  0.17634499  0.10027936  1
  O2-  O151  1  0.57470993  0.17775539  0.42189916  1
  O2-  O152  1  0.57187959  0.17691621  0.76242196  1
  O2-  O153  1  0.56951147  0.68111078  0.09796454  1
  O2-  O154  1  0.57214481  0.68099781  0.43305800  1
  O2-  O155  1  0.56969340  0.67926712  0.75748645  1
  O2-  O156  1  0.18196057  0.43247810  0.23220655  1
  O2-  O157  1  0.17679390  0.42802721  0.57765162  1
  O2-  O158  1  0.17779472  0.42952559  0.90923213  1
  O2-  O159  1  0.17770281  0.92923147  0.23366092  1
  O2-  O160  1  0.18053742  0.92750302  0.57051493  1
  O2-  O161  1  0.17924784  0.92901516  0.91075047  1
  O2-  O162  1  0.67572278  0.42325104  0.24404209  1
  O2-  O163  1  0.68086839  0.43143149  0.56771279  1
  O2-  O164  1  0.67899597  0.43020975  0.90167954  1
  O2-  O165  1  0.68136138  0.93009759  0.24302976  1
  O2-  O166  1  0.67890349  0.92996458  0.57441767  1
  O2-  O167  1  0.68202072  0.92855722  0.90069714  1
  O2-  O168  1  0.42441232  0.31777041  0.09985049  1
  O2-  O169  1  0.42941955  0.32284602  0.42296085  1
  O2-  O170  1  0.42851407  0.32173520  0.76154919  1
  O2-  O171  1  0.42486819  0.81927413  0.08755866  1
  O2-  O172  1  0.43262912  0.82142321  0.43301108  1
  O2-  O173  1  0.43074001  0.81813751  0.75961846  1
  O2-  O174  1  0.93234059  0.32307744  0.09760655  1
  O2-  O175  1  0.92910243  0.32016971  0.43413740  1
  O2-  O176  1  0.93000336  0.31801469  0.75810586  1
  O2-  O177  1  0.93328651  0.81934952  0.10032737  1
  O2-  O178  1  0.92361170  0.82361400  0.42118549  1
  O2-  O179  1  0.92744943  0.82282891  0.76340787  1
  O2-  O180  1  0.32293618  0.07170604  0.23526899  1
  O2-  O181  1  0.32000759  0.06909366  0.57262278  1
  O2-  O182  1  0.31743143  0.06956118  0.91088662  1
  O2-  O183  1  0.32501796  0.56719104  0.24280427  1
  O2-  O184  1  0.32255607  0.57200821  0.57601964  1
  O2-  O185  1  0.31975371  0.57560879  0.91080668  1
  O2-  O186  1  0.81764222  0.07461143  0.24254827  1
  O2-  O187  1  0.82064302  0.07298214  0.57558167  1
  O2-  O188  1  0.82740796  0.07015969  0.91245072  1
  O2-  O189  1  0.81873070  0.57051890  0.23324423  1
  O2-  O190  1  0.82165073  0.57111087  0.57135599  1
  O2-  O191  1  0.82080509  0.57040059  0.91157243  1
  O2-  O192  1  0.04269768  0.08069761  0.26590571  1
  O2-  O193  1  0.04115200  0.08915731  0.60691492  1
  O2-  O194  1  0.04731253  0.08397882  0.93615432  1
  O2-  O195  1  0.03575953  0.58546494  0.26324753  1
  O2-  O196  1  0.04240676  0.57947283  0.60074800  1
  O2-  O197  1  0.05088226  0.58421222  0.93587969  1
  O2-  O198  1  0.54390277  0.08648002  0.27042143  1
  O2-  O199  1  0.54360126  0.07828360  0.59708785  1
  O2-  O200  1  0.53964641  0.07883455  0.93380964  1
  O2-  O201  1  0.54580403  0.57888597  0.26613472  1
  O2-  O202  1  0.54194437  0.58795441  0.60438214  1
  O2-  O203  1  0.53642086  0.58574925  0.93030293  1
  O2-  O204  1  0.17135639  0.20708833  0.26780818  1
  O2-  O205  1  0.16295722  0.20691499  0.60744993  1
  O2-  O206  1  0.16377014  0.20594984  0.93501181  1
  O2-  O207  1  0.16793082  0.70397666  0.26331488  1
  O2-  O208  1  0.17168577  0.70397524  0.59936130  1
  O2-  O209  1  0.16902907  0.70275979  0.93784344  1
  O2-  O210  1  0.66266549  0.20459101  0.26768471  1
  O2-  O211  1  0.66989922  0.20642706  0.59541589  1
  O2-  O212  1  0.67248827  0.19629030  0.93711602  1
  O2-  O213  1  0.67007007  0.70978939  0.26534182  1
  O2-  O214  1  0.66261146  0.70688544  0.60568194  1
  O2-  O215  1  0.66670972  0.71150649  0.93045141  1
  O2-  O216  1  0.08688499  0.45830814  0.06178316  1
  O2-  O217  1  0.08343012  0.46169077  0.39971556  1
  O2-  O218  1  0.08796992  0.45767861  0.73261957  1
  O2-  O219  1  0.08629649  0.95612564  0.06255310  1
  O2-  O220  1  0.07701460  0.95336046  0.40006812  1
  O2-  O221  1  0.07937997  0.95880864  0.73537157  1
  O2-  O222  1  0.58135870  0.45999555  0.06695799  1
  O2-  O223  1  0.58164575  0.44956596  0.39515808  1
  O2-  O224  1  0.57864486  0.45705135  0.73194013  1
  O2-  O225  1  0.58195818  0.95657560  0.06878254  1
  O2-  O226  1  0.58936524  0.95827708  0.39577823  1
  O2-  O227  1  0.58798672  0.95576933  0.72896490  1
  O2-  O228  1  0.20544218  0.33669784  0.06149134  1
  O2-  O229  1  0.21055941  0.33589426  0.40103973  1
  O2-  O230  1  0.20467128  0.33742318  0.73205276  1
  O2-  O231  1  0.20484583  0.83539216  0.06144285  1
  O2-  O232  1  0.20601257  0.82723292  0.39832630  1
  O2-  O233  1  0.20770017  0.82917340  0.73720896  1
  O2-  O234  1  0.70777857  0.32990172  0.06645943  1
  O2-  O235  1  0.70151371  0.33127588  0.39584223  1
  O2-  O236  1  0.70788447  0.33018544  0.73254360  1
  O2-  O237  1  0.71411192  0.83289250  0.06840463  1
  O2-  O238  1  0.70772496  0.83835633  0.39644071  1
  O2-  O239  1  0.70618712  0.83736327  0.72716618  1
  O2-  O240  1  0.45454315  0.41207774  0.26899479  1
  O2-  O241  1  0.45485629  0.42047043  0.59438040  1
  O2-  O242  1  0.44949163  0.42191085  0.93568774  1
  O2-  O243  1  0.46040135  0.91992973  0.26526034  1
  O2-  O244  1  0.45697893  0.91185441  0.60748448  1
  O2-  O245  1  0.44966090  0.91629181  0.93854605  1
  O2-  O246  1  0.95809367  0.41916602  0.26577103  1
  O2-  O247  1  0.95549791  0.41450448  0.60958923  1
  O2-  O248  1  0.96319158  0.41642027  0.92826502  1
  O2-  O249  1  0.94715349  0.91849191  0.27010846  1
  O2-  O250  1  0.95147523  0.92418768  0.59968821  1
  O2-  O251  1  0.95969493  0.91742788  0.93299881  1
  O2-  O252  1  0.33721923  0.29232170  0.27121479  1
  O2-  O253  1  0.32726654  0.29413640  0.59843573  1
  O2-  O254  1  0.32980447  0.29134035  0.93208507  1
  O2-  O255  1  0.33198190  0.79625539  0.26322767  1
  O2-  O256  1  0.33810844  0.79080033  0.60764518  1
  O2-  O257  1  0.33413492  0.79235005  0.93548877  1
  O2-  O258  1  0.83037939  0.29188825  0.26661268  1
  O2-  O259  1  0.83847872  0.29145245  0.60502220  1
  O2-  O260  1  0.83385868  0.29040308  0.92958093  1
  O2-  O261  1  0.83457966  0.79348377  0.26956905  1
  O2-  O262  1  0.82898354  0.79482336  0.59597817  1
  O2-  O263  1  0.83560405  0.79003969  0.93218005  1
  O2-  O264  1  0.41077968  0.04373442  0.06342270  1
  O2-  O265  1  0.42118336  0.04239272  0.40285544  1
  O2-  O266  1  0.42025070  0.04111017  0.73778246  1
  O2-  O267  1  0.41252421  0.54526138  0.06436914  1
  O2-  O268  1  0.41713710  0.54359066  0.39546094  1
  O2-  O269  1  0.41285697  0.54308693  0.72959945  1
  O2-  O270  1  0.91729454  0.04301471  0.06528316  1
  O2-  O271  1  0.91201072  0.04738171  0.39530820  1
  O2-  O272  1  0.91185209  0.04730810  0.73129137  1
  O2-  O273  1  0.91865791  0.54697298  0.05914769  1
  O2-  O274  1  0.91448363  0.53863337  0.40216498  1
  O2-  O275  1  0.92006478  0.54453211  0.73926005  1
  O2-  O276  1  0.28986317  0.16249634  0.06218230  1
  O2-  O277  1  0.29586032  0.16964241  0.40358522  1
  O2-  O278  1  0.29106777  0.16987162  0.73843476  1
  O2-  O279  1  0.29318843  0.66320211  0.06580755  1
  O2-  O280  1  0.30253104  0.66721314  0.39064507  1
  O2-  O281  1  0.29363472  0.66093942  0.73215042  1
  O2-  O282  1  0.80262692  0.16682068  0.06320616  1
  O2-  O283  1  0.78986049  0.16365495  0.39660176  1
  O2-  O284  1  0.79155733  0.16282912  0.72952481  1
  O2-  O285  1  0.79545607  0.66445904  0.06207965  1
  O2-  O286  1  0.78885000  0.66667366  0.40257776  1
  O2-  O287  1  0.79312153  0.67226116  0.73526889  1
