# generated using pymatgen
data_Ca2Al2SiO7
_symmetry_space_group_name_H-M   'P 1'
_cell_length_a   15.45436692
_cell_length_b   15.45415937
_cell_length_c   15.28109086
_cell_angle_alpha   89.99971201
_cell_angle_beta   89.99571953
_cell_angle_gamma   90.00681344
_symmetry_Int_Tables_number   1
_chemical_formula_structural   Ca2Al2SiO7
_chemical_formula_sum   'Ca48 Al48 Si24 O168'
_cell_volume   3649.64782934
_cell_formula_units_Z   24
loop_
 _symmetry_equiv_pos_site_id
 _symmetry_equiv_pos_as_xyz
  1  'x, y, z'
loop_
 _atom_type_symbol
 _atom_type_oxidation_number
  Ca2+  2.0
  Al0+  0.0
  Si0+  0.0
  O2-  -2.0
loop_
 _atom_site_type_symbol
 _atom_site_label
 _atom_site_symmetry_multiplicity
 _atom_site_fract_x
 _atom_site_fract_y
 _atom_site_fract_z
 _atom_site_occupancy
  Ca2+  Ca0  1  0.16479322  0.08077472  0.17264876  1
  Ca2+  Ca1  1  0.17836871  0.08252374  0.50681586  1
  Ca2+  Ca2  1  0.16635638  0.06987359  0.83550134  1
  Ca2+  Ca3  1  0.16882967  0.57990328  0.16734313  1
  Ca2+  Ca4  1  0.16034372  0.57032322  0.50633623  1
  Ca2+  Ca5  1  0.16509615  0.58530378  0.83640462  1
  Ca2+  Ca6  1  0.67655116  0.08394975  0.17334414  1
  Ca2+  Ca7  1  0.67678593  0.08328117  0.51026735  1
  Ca2+  Ca8  1  0.66726930  0.08041404  0.82687448  1
  Ca2+  Ca9  1  0.67542807  0.57573210  0.17866314  1
  Ca2+  Ca10  1  0.67489037  0.58131282  0.50226891  1
  Ca2+  Ca11  1  0.67647048  0.59065378  0.83376442  1
  Ca2+  Ca12  1  0.08487577  0.32131482  0.16374347  1
  Ca2+  Ca13  1  0.08728364  0.32910126  0.49222946  1
  Ca2+  Ca14  1  0.08105608  0.33123836  0.83125464  1
  Ca2+  Ca15  1  0.08457009  0.82783513  0.15749034  1
  Ca2+  Ca16  1  0.08280691  0.83240235  0.50339834  1
  Ca2+  Ca17  1  0.08784313  0.82539778  0.82440567  1
  Ca2+  Ca18  1  0.58043152  0.33777628  0.16773280  1
  Ca2+  Ca19  1  0.57784710  0.32970772  0.49437147  1
  Ca2+  Ca20  1  0.57983724  0.32502459  0.82510333  1
  Ca2+  Ca21  1  0.56987885  0.83486488  0.16416567  1
  Ca2+  Ca22  1  0.57401097  0.84323583  0.49913843  1
  Ca2+  Ca23  1  0.57155945  0.84018886  0.82440676  1
  Ca2+  Ca24  1  0.33035566  0.42214487  0.17608892  1
  Ca2+  Ca25  1  0.32193375  0.40899875  0.50239483  1
  Ca2+  Ca26  1  0.32461118  0.42388184  0.83700749  1
  Ca2+  Ca27  1  0.32876770  0.91777971  0.16946290  1
  Ca2+  Ca28  1  0.33447598  0.92440301  0.50830909  1
  Ca2+  Ca29  1  0.32634471  0.91201809  0.83549298  1
  Ca2+  Ca30  1  0.83133765  0.41808741  0.17485799  1
  Ca2+  Ca31  1  0.83246133  0.42738349  0.50303075  1
  Ca2+  Ca32  1  0.83743450  0.41984291  0.83468284  1
  Ca2+  Ca33  1  0.83195518  0.92287830  0.17451855  1
  Ca2+  Ca34  1  0.83070030  0.92603610  0.51204811  1
  Ca2+  Ca35  1  0.83504828  0.91701095  0.82943097  1
  Ca2+  Ca36  1  0.41023823  0.17248535  0.17028169  1
  Ca2+  Ca37  1  0.41979654  0.16280063  0.49371220  1
  Ca2+  Ca38  1  0.42180244  0.16184530  0.82342423  1
  Ca2+  Ca39  1  0.40964480  0.67688077  0.15995266  1
  Ca2+  Ca40  1  0.41338547  0.68223529  0.49558732  1
  Ca2+  Ca41  1  0.40972167  0.67709427  0.82992574  1
  Ca2+  Ca42  1  0.92728001  0.16899228  0.16065674  1
  Ca2+  Ca43  1  0.92308811  0.15933149  0.49314450  1
  Ca2+  Ca44  1  0.91967911  0.16966231  0.83053348  1
  Ca2+  Ca45  1  0.92234360  0.66398868  0.16213492  1
  Ca2+  Ca46  1  0.91417667  0.66725650  0.50221560  1
  Ca2+  Ca47  1  0.92824061  0.67064886  0.82129656  1
  Al0+  Al48  1  -0.00015284  0.00009964  0.00127548  1
  Al0+  Al49  1  0.00012179  -0.00252204  0.33175356  1
  Al0+  Al50  1  0.00118391  0.00034938  0.67064179  1
  Al0+  Al51  1  0.00011951  0.49909854  -0.00514624  1
  Al0+  Al52  1  0.00031151  0.50012448  0.33885086  1
  Al0+  Al53  1  -0.00048236  0.49863516  0.67130363  1
  Al0+  Al54  1  0.49951526  0.00056605  -0.00124602  1
  Al0+  Al55  1  0.49921992  0.00062748  0.32775759  1
  Al0+  Al56  1  0.50310130  0.00244344  0.66392666  1
  Al0+  Al57  1  0.50104892  0.50145633  0.00282294  1
  Al0+  Al58  1  0.50046745  0.50131792  0.33430738  1
  Al0+  Al59  1  0.49903598  0.49968296  0.66568328  1
  Al0+  Al60  1  0.25065930  0.24924731  -0.00581446  1
  Al0+  Al61  1  0.25098082  0.24852877  0.33126053  1
  Al0+  Al62  1  0.24916674  0.25126874  0.67755663  1
  Al0+  Al63  1  0.24930682  0.75069199  0.00104576  1
  Al0+  Al64  1  0.24842004  0.74943928  0.32831235  1
  Al0+  Al65  1  0.25025307  0.74807343  0.65731059  1
  Al0+  Al66  1  0.74924284  0.25061207  -0.00311453  1
  Al0+  Al67  1  0.75003748  0.25044263  0.34084830  1
  Al0+  Al68  1  0.74973836  0.25093678  0.66580563  1
  Al0+  Al69  1  0.74838343  0.75051008  0.00449116  1
  Al0+  Al70  1  0.74937547  0.75040267  0.33459216  1
  Al0+  Al71  1  0.74987833  0.74998984  0.67173478  1
  Al0+  Al72  1  0.81932730  0.57027050  0.68299140  1
  Al0+  Al73  1  0.18084189  0.92700424  0.67977350  1
  Al0+  Al74  1  0.82355574  0.07350216  0.68383345  1
  Al0+  Al75  1  0.07316163  0.17644267  0.98202743  1
  Al0+  Al76  1  0.07110068  0.67682057  0.64845278  1
  Al0+  Al77  1  0.67625919  0.42812063  0.35010630  1
  Al0+  Al78  1  0.92789288  0.31973747  0.98522634  1
  Al0+  Al79  1  0.07103404  0.17785463  0.32181070  1
  Al0+  Al80  1  0.82276095  0.07001087  0.34541789  1
  Al0+  Al81  1  0.18190323  0.42935267  0.34421167  1
  Al0+  Al82  1  0.92868389  0.82211420  0.65183266  1
  Al0+  Al83  1  0.32284935  0.07098759  0.68176366  1
  Al0+  Al84  1  0.31919621  0.06912687  0.34477044  1
  Al0+  Al85  1  0.43033207  0.82039972  0.65196256  1
  Al0+  Al86  1  0.42936611  0.32128127  0.32051296  1
  Al0+  Al87  1  0.42833806  0.82197192  0.31691655  1
  Al0+  Al88  1  0.06956303  0.68058749  0.98738529  1
  Al0+  Al89  1  0.43040812  0.82000446  0.98514901  1
  Al0+  Al90  1  0.82239713  0.57239291  0.34874271  1
  Al0+  Al91  1  0.17821824  0.42890733  0.68265599  1
  Al0+  Al92  1  0.32028918  0.57027159  0.01352931  1
  Al0+  Al93  1  0.67941152  0.92911246  0.68139397  1
  Al0+  Al94  1  0.17911210  0.93017703  0.01457726  1
  Al0+  Al95  1  0.57060939  0.18066617  0.65145399  1
  Si0+  Si96  1  0.57064115  0.18027161  0.98544855  1
  Si0+  Si97  1  0.32209821  0.57468591  0.35006353  1
  Si0+  Si98  1  0.17740899  0.42645795  0.01774878  1
  Si0+  Si99  1  0.17718437  0.92468393  0.34968707  1
  Si0+  Si100  1  0.81907689  0.07172561  0.01523784  1
  Si0+  Si101  1  0.67616073  0.42854587  0.68468845  1
  Si0+  Si102  1  0.92428147  0.82233972  0.98536019  1
  Si0+  Si103  1  0.67765535  0.92956359  0.34791657  1
  Si0+  Si104  1  0.42954850  0.32414644  0.98511634  1
  Si0+  Si105  1  0.57297261  0.67890001  0.31616316  1
  Si0+  Si106  1  0.32426532  0.07302482  0.01769221  1
  Si0+  Si107  1  0.92932560  0.32088086  0.64976839  1
  Si0+  Si108  1  0.57331788  0.67566903  0.64992715  1
  Si0+  Si109  1  0.67942468  0.42789001  0.01448899  1
  Si0+  Si110  1  0.06935406  0.67657310  0.31693121  1
  Si0+  Si111  1  0.92800859  0.82019810  0.31798583  1
  Si0+  Si112  1  0.57391655  0.17915048  0.31532893  1
  Si0+  Si113  1  0.07155335  0.17995281  0.65232347  1
  Si0+  Si114  1  0.67668927  0.92911442  0.01707193  1
  Si0+  Si115  1  0.92808232  0.32268539  0.32016040  1
  Si0+  Si116  1  0.57345299  0.67713164  0.98387215  1
  Si0+  Si117  1  0.42600312  0.32285859  0.65126324  1
  Si0+  Si118  1  0.32270809  0.57202239  0.68083567  1
  Si0+  Si119  1  0.82174818  0.57071552  0.01471498  1
  O2-  O120  1  0.25115913  0.00835361  0.06083459  1
  O2-  O121  1  0.24697498  -0.00716175  0.39188052  1
  O2-  O122  1  0.25361291  -0.00300032  0.73207536  1
  O2-  O123  1  0.24824622  0.49325717  0.06155192  1
  O2-  O124  1  0.25630143  0.50332031  0.39359768  1
  O2-  O125  1  0.25290923  0.50515448  0.72611597  1
  O2-  O126  1  0.75078779  -0.00227910  0.05826645  1
  O2-  O127  1  0.74645443  -0.00250868  0.39169167  1
  O2-  O128  1  0.75371339  -0.00154756  0.73294259  1
  O2-  O129  1  0.75078733  0.49913062  0.05619528  1
  O2-  O130  1  0.74954519  0.50018394  0.39720017  1
  O2-  O131  1  0.74241283  0.49807309  0.73119089  1
  O2-  O132  1  -0.00596420  0.25156951  0.27578026  1
  O2-  O133  1  -0.00109878  0.24845447  0.60798794  1
  O2-  O134  1  0.00114846  0.24977776  0.93388929  1
  O2-  O135  1  -0.00166941  0.74847328  0.27543174  1
  O2-  O136  1  -0.00048029  0.75014077  0.59920525  1
  O2-  O137  1  -0.00682631  0.75404881  0.94236338  1
  O2-  O138  1  0.50666622  0.24962972  0.27099292  1
  O2-  O139  1  0.49355379  0.25365781  0.60671201  1
  O2-  O140  1  0.49684654  0.24913375  0.94399885  1
  O2-  O141  1  0.50177166  0.74468726  0.27105416  1
  O2-  O142  1  0.50577661  0.74528808  0.60553995  1
  O2-  O143  1  0.50558363  0.74547426  0.93879638  1
  O2-  O144  1  0.07095754  0.17727677  0.09634564  1
  O2-  O145  1  0.07149604  0.17895417  0.43494517  1
  O2-  O146  1  0.07029169  0.18239530  0.75726221  1
  O2-  O147  1  0.06663761  0.67988204  0.10133176  1
  O2-  O148  1  0.07053222  0.67570164  0.42124452  1
  O2-  O149  1  0.07075448  0.67755281  0.76233068  1
  O2-  O150  1  0.57418155  0.18165670  0.09055715  1
  O2-  O151  1  0.57270211  0.17738683  0.42032108  1
  O2-  O152  1  0.57007416  0.18349341  0.76553535  1
  O2-  O153  1  0.57533404  0.67798889  0.08945989  1
  O2-  O154  1  0.57442131  0.68084264  0.42143045  1
  O2-  O155  1  0.57058203  0.67350711  0.75578496  1
  O2-  O156  1  0.18207352  0.43135828  0.23095235  1
  O2-  O157  1  0.17983889  0.42600583  0.56922776  1
  O2-  O158  1  0.17851523  0.42801966  0.91227771  1
  O2-  O159  1  0.17676903  0.92425075  0.24361805  1
  O2-  O160  1  0.18146665  0.93060586  0.56591217  1
  O2-  O161  1  0.18154245  0.92736644  0.90214464  1
  O2-  O162  1  0.67869387  0.42933086  0.23537132  1
  O2-  O163  1  0.67663097  0.42955214  0.57949776  1
  O2-  O164  1  0.67817507  0.42731637  0.90970656  1
  O2-  O165  1  0.67986752  0.93043921  0.24136617  1
  O2-  O166  1  0.67894607  0.93281663  0.56754916  1
  O2-  O167  1  0.67475443  0.92890763  0.91279004  1
  O2-  O168  1  0.43101167  0.32510751  0.09031461  1
  O2-  O169  1  0.42840273  0.31719369  0.43317217  1
  O2-  O170  1  0.42964692  0.32513896  0.75739122  1
  O2-  O171  1  0.43240795  0.81997107  0.09844365  1
  O2-  O172  1  0.43005337  0.82269319  0.42967467  1
  O2-  O173  1  0.42980270  0.81773365  0.76524550  1
  O2-  O174  1  0.92440528  0.31776184  0.09915304  1
  O2-  O175  1  0.93090843  0.32391238  0.42564073  1
  O2-  O176  1  0.92982415  0.32054614  0.75505592  1
  O2-  O177  1  0.92212114  0.82017392  0.09171684  1
  O2-  O178  1  0.92758978  0.82214970  0.42220972  1
  O2-  O179  1  0.92982316  0.81881440  0.76582211  1
  O2-  O180  1  0.31714676  0.06934501  0.23135773  1
  O2-  O181  1  0.32104144  0.07253980  0.56782907  1
  O2-  O182  1  0.32917030  0.07058688  0.91270835  1
  O2-  O183  1  0.31919659  0.57512077  0.24402118  1
  O2-  O184  1  0.32460286  0.56972981  0.57529986  1
  O2-  O185  1  0.32064174  0.56811284  0.90050294  1
  O2-  O186  1  0.82161109  0.06828198  0.23136583  1
  O2-  O187  1  0.82234013  0.07350767  0.57006415  1
  O2-  O188  1  0.81660535  0.07286791  0.91079606  1
  O2-  O189  1  0.82254324  0.57085281  0.23414280  1
  O2-  O190  1  0.81819108  0.56770439  0.57019705  1
  O2-  O191  1  0.81941853  0.57222046  0.91008370  1
  O2-  O192  1  0.04090569  0.08095825  0.26650241  1
  O2-  O193  1  0.04686202  0.08726209  0.60601974  1
  O2-  O194  1  0.04161963  0.07808052  0.93120933  1
  O2-  O195  1  0.03989060  0.58520560  0.26877223  1
  O2-  O196  1  0.03821888  0.57771094  0.59902598  1
  O2-  O197  1  0.04166056  0.58388017  0.93311871  1
  O2-  O198  1  0.54740330  0.08684089  0.26627943  1
  O2-  O199  1  0.54360666  0.08495574  0.59515731  1
  O2-  O200  1  0.54444287  0.08803574  0.93853238  1
  O2-  O201  1  0.55108118  0.58400163  0.27082533  1
  O2-  O202  1  0.54771943  0.58197179  0.60293733  1
  O2-  O203  1  0.55030232  0.58277370  0.93826301  1
  O2-  O204  1  0.16500388  0.21150308  0.26475886  1
  O2-  O205  1  0.16407358  0.21153743  0.60824939  1
  O2-  O206  1  0.17223510  0.20204095  0.92921382  1
  O2-  O207  1  0.16084913  0.70402656  0.26790245  1
  O2-  O208  1  0.16913954  0.70084109  0.59300591  1
  O2-  O209  1  0.16544451  0.71189852  0.93395929  1
  O2-  O210  1  0.66851349  0.20516374  0.26997773  1
  O2-  O211  1  0.66684096  0.21349559  0.59767388  1
  O2-  O212  1  0.66005701  0.21090607  0.93551037  1
  O2-  O213  1  0.66587436  0.70659960  0.26757049  1
  O2-  O214  1  0.66779273  0.69942973  0.60624382  1
  O2-  O215  1  0.66760803  0.70392985  0.93879806  1
  O2-  O216  1  0.08338054  0.45375720  0.06207491  1
  O2-  O217  1  0.08620145  0.45905027  0.39987558  1
  O2-  O218  1  0.08257312  0.45840591  0.73804761  1
  O2-  O219  1  0.08040963  0.95645091  0.06917035  1
  O2-  O220  1  0.08333472  0.94954362  0.39407037  1
  O2-  O221  1  0.08364829  0.95561207  0.73426512  1
  O2-  O222  1  0.58845033  0.45609634  0.06374103  1
  O2-  O223  1  0.57809015  0.45680320  0.40334947  1
  O2-  O224  1  0.58098605  0.45079197  0.73004653  1
  O2-  O225  1  0.58659304  0.96135658  0.06583059  1
  O2-  O226  1  0.58371959  0.95580014  0.39123142  1
  O2-  O227  1  0.58381050  0.96432983  0.73599040  1
  O2-  O228  1  0.20274050  0.33106209  0.06035302  1
  O2-  O229  1  0.21368728  0.33355470  0.39851910  1
  O2-  O230  1  0.21026509  0.33592782  0.74244300  1
  O2-  O231  1  0.21275334  0.83512788  0.07034129  1
  O2-  O232  1  0.20155610  0.83027893  0.39381656  1
  O2-  O233  1  0.20855628  0.82629495  0.72839985  1
  O2-  O234  1  0.70678918  0.33608889  0.06274028  1
  O2-  O235  1  0.70167491  0.33009839  0.40390951  1
  O2-  O236  1  0.70481706  0.33603717  0.73107607  1
  O2-  O237  1  0.70205285  0.83672088  0.06624806  1
  O2-  O238  1  0.70053582  0.83553105  0.39264751  1
  O2-  O239  1  0.70065356  0.82994664  0.73610161  1
  O2-  O240  1  0.45701343  0.41986820  0.26673916  1
  O2-  O241  1  0.45137163  0.41598094  0.60369907  1
  O2-  O242  1  0.46193470  0.41427232  0.93702465  1
  O2-  O243  1  0.46147550  0.91693025  0.25997627  1
  O2-  O244  1  0.46355399  0.91655184  0.59890752  1
  O2-  O245  1  0.46204448  0.91710010  0.93278949  1
  O2-  O246  1  0.95517948  0.41594721  0.27333535  1
  O2-  O247  1  0.95960223  0.41198050  0.60346626  1
  O2-  O248  1  0.95430446  0.41810493  0.93129695  1
  O2-  O249  1  0.95685432  0.91044015  0.26702063  1
  O2-  O250  1  0.95672638  0.92191454  0.60043037  1
  O2-  O251  1  0.94711586  0.91698342  0.94223158  1
  O2-  O252  1  0.33567697  0.28703473  0.26245945  1
  O2-  O253  1  0.33071987  0.29755342  0.60948669  1
  O2-  O254  1  0.33680240  0.30165722  0.93764609  1
  O2-  O255  1  0.33122585  0.79070605  0.26282438  1
  O2-  O256  1  0.33612097  0.78915225  0.59398069  1
  O2-  O257  1  0.33451957  0.78656977  0.93325469  1
  O2-  O258  1  0.83249043  0.30004855  0.27646142  1
  O2-  O259  1  0.83608328  0.29731936  0.60381351  1
  O2-  O260  1  0.82988098  0.29110513  0.93009059  1
  O2-  O261  1  0.83534344  0.79434121  0.26952051  1
  O2-  O262  1  0.82847499  0.79405614  0.60175603  1
  O2-  O263  1  0.82985181  0.79730314  0.94060092  1
  O2-  O264  1  0.41689632  0.04480384  0.06561155  1
  O2-  O265  1  0.41829096  0.04133813  0.39521589  1
  O2-  O266  1  0.42282087  0.04613189  0.73154985  1
  O2-  O267  1  0.41838482  0.54271873  0.06809365  1
  O2-  O268  1  0.41747592  0.55515136  0.39320861  1
  O2-  O269  1  0.41582871  0.54624180  0.72895841  1
  O2-  O270  1  0.91152686  0.04642275  0.06250395  1
  O2-  O271  1  0.91814245  0.03635635  0.39932700  1
  O2-  O272  1  0.92155090  0.04731929  0.73756569  1
  O2-  O273  1  0.91379112  0.54235360  0.06128749  1
  O2-  O274  1  0.91906339  0.54379219  0.40365466  1
  O2-  O275  1  0.91397156  0.53556009  0.73759247  1
  O2-  O276  1  0.30243962  0.16981149  0.05963808  1
  O2-  O277  1  0.28866368  0.16478238  0.39921498  1
  O2-  O278  1  0.29515650  0.16812113  0.73759507  1
  O2-  O279  1  0.28655206  0.66512657  0.06887256  1
  O2-  O280  1  0.29263077  0.66747848  0.39525311  1
  O2-  O281  1  0.29679313  0.66582841  0.72523058  1
  O2-  O282  1  0.78610938  0.16231876  0.06269610  1
  O2-  O283  1  0.79677550  0.16665966  0.40009566  1
  O2-  O284  1  0.79037809  0.17135415  0.73583176  1
  O2-  O285  1  0.79398697  0.66248594  0.06388270  1
  O2-  O286  1  0.79292813  0.67091064  0.40074252  1
  O2-  O287  1  0.79066217  0.66615920  0.73918574  1
