# generated using pymatgen
data_Ca2Al2SiO7
_symmetry_space_group_name_H-M   'P 1'
_cell_length_a   15.46004677
_cell_length_b   15.46105812
_cell_length_c   15.28457462
_cell_angle_alpha   90.01734642
_cell_angle_beta   89.99207676
_cell_angle_gamma   89.99423812
_symmetry_Int_Tables_number   1
_chemical_formula_structural   Ca2Al2SiO7
_chemical_formula_sum   'Ca48 Al48 Si24 O168'
_cell_volume   3653.45149752
_cell_formula_units_Z   24
loop_
 _symmetry_equiv_pos_site_id
 _symmetry_equiv_pos_as_xyz
  1  'x, y, z'
loop_
 _atom_type_symbol
 _atom_type_oxidation_number
  Ca2+  2.0
  Al0+  0.0
  Si0+  0.0
  O2-  -2.0
loop_
 _atom_site_type_symbol
 _atom_site_label
 _atom_site_symmetry_multiplicity
 _atom_site_fract_x
 _atom_site_fract_y
 _atom_site_fract_z
 _atom_site_occupancy
  Ca2+  Ca0  1  0.16936103  0.08189785  0.17874650  1
  Ca2+  Ca1  1  0.16784420  0.08074729  0.49377403  1
  Ca2+  Ca2  1  0.16804359  0.08499681  0.83755108  1
  Ca2+  Ca3  1  0.17030043  0.57071070  0.17548494  1
  Ca2+  Ca4  1  0.17656061  0.58665790  0.50523241  1
  Ca2+  Ca5  1  0.16796891  0.58199865  0.83268791  1
  Ca2+  Ca6  1  0.67010103  0.07105654  0.17182467  1
  Ca2+  Ca7  1  0.66019659  0.07308563  0.50598987  1
  Ca2+  Ca8  1  0.66556004  0.07547796  0.83332883  1
  Ca2+  Ca9  1  0.66853636  0.58552245  0.17058879  1
  Ca2+  Ca10  1  0.67346523  0.57734524  0.51086972  1
  Ca2+  Ca11  1  0.67109936  0.58019184  0.82848407  1
  Ca2+  Ca12  1  0.09820911  0.32354821  0.16534132  1
  Ca2+  Ca13  1  0.08221154  0.33182781  0.49445948  1
  Ca2+  Ca14  1  0.08375829  0.33089068  0.83041328  1
  Ca2+  Ca15  1  0.07143956  0.84474613  0.16489065  1
  Ca2+  Ca16  1  0.07451191  0.83044937  0.49505479  1
  Ca2+  Ca17  1  0.06947428  0.82765901  0.82189513  1
  Ca2+  Ca18  1  0.57363769  0.33317484  0.16559634  1
  Ca2+  Ca19  1  0.57580658  0.33548319  0.49790626  1
  Ca2+  Ca20  1  0.58199404  0.32609049  0.81730253  1
  Ca2+  Ca21  1  0.57325951  0.84282769  0.16506595  1
  Ca2+  Ca22  1  0.57538914  0.83920058  0.49610506  1
  Ca2+  Ca23  1  0.57536344  0.84061782  0.82812078  1
  Ca2+  Ca24  1  0.32519259  0.42019914  0.17906552  1
  Ca2+  Ca25  1  0.33473886  0.42372720  0.50365268  1
  Ca2+  Ca26  1  0.33312397  0.42336119  0.83534791  1
  Ca2+  Ca27  1  0.32954477  0.92190190  0.18021188  1
  Ca2+  Ca28  1  0.33551450  0.91818926  0.50389366  1
  Ca2+  Ca29  1  0.33603087  0.91503276  0.83680618  1
  Ca2+  Ca30  1  0.83132061  0.41971546  0.17081664  1
  Ca2+  Ca31  1  0.83033776  0.41999137  0.51470959  1
  Ca2+  Ca32  1  0.83636950  0.41789270  0.82902256  1
  Ca2+  Ca33  1  0.82500379  0.90727859  0.17277452  1
  Ca2+  Ca34  1  0.82443320  0.90963394  0.50578111  1
  Ca2+  Ca35  1  0.82206432  0.90398265  0.83555725  1
  Ca2+  Ca36  1  0.40772343  0.17051857  0.17027418  1
  Ca2+  Ca37  1  0.41758296  0.17582677  0.49763048  1
  Ca2+  Ca38  1  0.42452735  0.17514776  0.82233010  1
  Ca2+  Ca39  1  0.40900784  0.67848987  0.16822953  1
  Ca2+  Ca40  1  0.41117637  0.67311232  0.49614855  1
  Ca2+  Ca41  1  0.41396202  0.67695263  0.82540016  1
  Ca2+  Ca42  1  0.93304788  0.16366812  0.16392534  1
  Ca2+  Ca43  1  0.92011634  0.17267036  0.49657864  1
  Ca2+  Ca44  1  0.92341066  0.17137477  0.82774994  1
  Ca2+  Ca45  1  0.91879174  0.67811450  0.16366858  1
  Ca2+  Ca46  1  0.91790236  0.67080404  0.49975515  1
  Ca2+  Ca47  1  0.92103259  0.67093806  0.82363075  1
  Al0+  Al48  1  -0.00104284  0.00213762  -0.01145131  1
  Al0+  Al49  1  -0.00130137  0.00207840  0.32983513  1
  Al0+  Al50  1  -0.00039174  -0.00081714  0.66358070  1
  Al0+  Al51  1  -0.00016917  0.49915112  0.00684473  1
  Al0+  Al52  1  -0.00128888  0.50071487  0.33496579  1
  Al0+  Al53  1  0.00219344  0.49884015  0.66357127  1
  Al0+  Al54  1  0.50079481  0.00176172  0.00104720  1
  Al0+  Al55  1  0.50100952  0.00100303  0.33635251  1
  Al0+  Al56  1  0.49926584  0.00169475  0.66474418  1
  Al0+  Al57  1  0.50051192  0.50238018  0.00127817  1
  Al0+  Al58  1  0.50072241  0.49999341  0.33028829  1
  Al0+  Al59  1  0.49881885  0.50127382  0.67385632  1
  Al0+  Al60  1  0.25079006  0.25026635  -0.00285281  1
  Al0+  Al61  1  0.25014696  0.24972557  0.33521043  1
  Al0+  Al62  1  0.25177910  0.24892197  0.66422623  1
  Al0+  Al63  1  0.24906336  0.75071550  -0.00265234  1
  Al0+  Al64  1  0.24777876  0.74873781  0.33393781  1
  Al0+  Al65  1  0.24869504  0.75010118  0.66565870  1
  Al0+  Al66  1  0.75096647  0.24949360  0.00319755  1
  Al0+  Al67  1  0.74947532  0.24905525  0.33010796  1
  Al0+  Al68  1  0.75203332  0.24551561  0.66289777  1
  Al0+  Al69  1  0.74777744  0.74824417  0.00145217  1
  Al0+  Al70  1  0.74957764  0.74883400  0.33379576  1
  Al0+  Al71  1  0.74842766  0.74889332  0.67313765  1
  Al0+  Al72  1  0.67944566  0.42611057  0.68040533  1
  Al0+  Al73  1  0.92567008  0.82016425  0.65065967  1
  Al0+  Al74  1  0.43053455  0.32104892  0.31896435  1
  Al0+  Al75  1  0.82368757  0.57008328  0.68228009  1
  Al0+  Al76  1  0.92895799  0.81946301  0.31953990  1
  Al0+  Al77  1  0.07240254  0.18062734  0.98489854  1
  Al0+  Al78  1  0.32063017  0.57299858  0.68257012  1
  Al0+  Al79  1  0.17828533  0.42800650  0.35076084  1
  Al0+  Al80  1  0.42937704  0.32400729  0.65234446  1
  Al0+  Al81  1  0.42814497  0.82167348  0.32090022  1
  Al0+  Al82  1  0.06925440  0.18227395  0.32062409  1
  Al0+  Al83  1  0.42956557  0.82177573  0.98710983  1
  Al0+  Al84  1  0.17532019  0.92813092  0.34741529  1
  Al0+  Al85  1  0.42976960  0.82081010  0.65304830  1
  Al0+  Al86  1  0.67989602  0.92966691  0.01514462  1
  Al0+  Al87  1  0.68090535  0.92900321  0.34812564  1
  Al0+  Al88  1  0.07149023  0.67801606  0.65102833  1
  Al0+  Al89  1  0.32168110  0.07049358  0.35019481  1
  Al0+  Al90  1  0.93148843  0.31923494  0.65457159  1
  Al0+  Al91  1  0.57239650  0.17827470  0.65126375  1
  Al0+  Al92  1  0.18119035  0.42948506  0.01348565  1
  Al0+  Al93  1  0.92785282  0.82019778  0.98503463  1
  Al0+  Al94  1  0.67836014  0.93010951  0.68120488  1
  Al0+  Al95  1  0.32220902  0.57123965  0.34846988  1
  Si0+  Si96  1  0.07459986  0.17619641  0.64789972  1
  Si0+  Si97  1  0.07193682  0.67629577  0.31467146  1
  Si0+  Si98  1  0.57237524  0.18112633  0.98633920  1
  Si0+  Si99  1  0.81955165  0.57039712  0.34773970  1
  Si0+  Si100  1  0.32321522  0.57452564  0.01785155  1
  Si0+  Si101  1  0.57213957  0.67829972  0.31713634  1
  Si0+  Si102  1  0.31970554  0.07063026  0.68320925  1
  Si0+  Si103  1  0.32042712  0.07013902  0.01342838  1
  Si0+  Si104  1  0.17790274  0.92918688  0.68242949  1
  Si0+  Si105  1  0.57211470  0.67607930  0.98140730  1
  Si0+  Si106  1  0.82013062  0.56972700  0.01703585  1
  Si0+  Si107  1  0.82349066  0.07370242  0.01705424  1
  Si0+  Si108  1  0.43000087  0.32187116  0.98566704  1
  Si0+  Si109  1  0.07032312  0.67551869  0.98485648  1
  Si0+  Si110  1  0.92558479  0.32459022  0.31532277  1
  Si0+  Si111  1  0.92644339  0.32307554  0.98468821  1
  Si0+  Si112  1  0.82537864  0.07083803  0.68402276  1
  Si0+  Si113  1  0.57145258  0.67768908  0.65207918  1
  Si0+  Si114  1  0.17694060  0.92969084  0.01088347  1
  Si0+  Si115  1  0.17964671  0.42574323  0.68363135  1
  Si0+  Si116  1  0.67930340  0.42749111  0.34624575  1
  Si0+  Si117  1  0.67773176  0.42681384  0.01598712  1
  Si0+  Si118  1  0.82209206  0.07336585  0.34961153  1
  Si0+  Si119  1  0.57343918  0.17737336  0.31354366  1
  O2-  O120  1  0.25006354  -0.00211036  0.05438585  1
  O2-  O121  1  0.25309474  -0.00619997  0.39856122  1
  O2-  O122  1  0.24810991  0.00072017  0.72653712  1
  O2-  O123  1  0.25527750  0.50458472  0.06053064  1
  O2-  O124  1  0.24908392  0.50114354  0.39965882  1
  O2-  O125  1  0.24796330  0.49500604  0.72801519  1
  O2-  O126  1  0.75888582  0.00094423  0.06118422  1
  O2-  O127  1  0.75445851  0.00465423  0.39437022  1
  O2-  O128  1  0.75763324  0.00073116  0.72795043  1
  O2-  O129  1  0.74847423  0.49810048  0.05867114  1
  O2-  O130  1  0.75382310  0.49400232  0.38807919  1
  O2-  O131  1  0.75294595  0.49595264  0.73250049  1
  O2-  O132  1  -0.00324690  0.25876896  0.27128286  1
  O2-  O133  1  0.00606319  0.24585905  0.60619529  1
  O2-  O134  1  -0.00348171  0.25557167  0.94129806  1
  O2-  O135  1  0.00726814  0.74929203  0.27032536  1
  O2-  O136  1  -0.00262891  0.74803107  0.60143826  1
  O2-  O137  1  0.00480268  0.74699786  0.94048255  1
  O2-  O138  1  0.50362712  0.24531931  0.26937128  1
  O2-  O139  1  0.50567164  0.25602659  0.60328040  1
  O2-  O140  1  0.50542386  0.25574756  0.94392892  1
  O2-  O141  1  0.50230110  0.74628693  0.27331925  1
  O2-  O142  1  0.50399350  0.74607889  0.60643022  1
  O2-  O143  1  0.50257030  0.74532009  0.94001240  1
  O2-  O144  1  0.07383363  0.18021996  0.09765928  1
  O2-  O145  1  0.06530743  0.18243504  0.43337262  1
  O2-  O146  1  0.07520653  0.17700911  0.75403347  1
  O2-  O147  1  0.06793886  0.67405524  0.09036711  1
  O2-  O148  1  0.06798667  0.67353881  0.41962316  1
  O2-  O149  1  0.07124601  0.68098052  0.76563286  1
  O2-  O150  1  0.57190053  0.18199619  0.09130794  1
  O2-  O151  1  0.57699721  0.18018503  0.41837515  1
  O2-  O152  1  0.56803682  0.17740569  0.76610888  1
  O2-  O153  1  0.57335521  0.67276689  0.08702881  1
  O2-  O154  1  0.57516723  0.67697113  0.42220826  1
  O2-  O155  1  0.56999402  0.67899675  0.75804163  1
  O2-  O156  1  0.18096737  0.42894057  0.23638381  1
  O2-  O157  1  0.18043957  0.42381734  0.57872993  1
  O2-  O158  1  0.18237250  0.42967558  0.90046681  1
  O2-  O159  1  0.17489711  0.93329861  0.23262251  1
  O2-  O160  1  0.17786413  0.93061880  0.57790669  1
  O2-  O161  1  0.17877182  0.93150703  0.90573543  1
  O2-  O162  1  0.67997957  0.42922542  0.24027364  1
  O2-  O163  1  0.68050469  0.42962016  0.56642593  1
  O2-  O164  1  0.67747448  0.42448328  0.91179977  1
  O2-  O165  1  0.68183368  0.92987482  0.23443290  1
  O2-  O166  1  0.67779617  0.93157986  0.56832005  1
  O2-  O167  1  0.67814720  0.93332315  0.90236769  1
  O2-  O168  1  0.42971968  0.31991898  0.09071388  1
  O2-  O169  1  0.43466128  0.32320208  0.43112723  1
  O2-  O170  1  0.42811189  0.31943477  0.76710534  1
  O2-  O171  1  0.42931888  0.82287014  0.10005178  1
  O2-  O172  1  0.43138501  0.82175232  0.43350683  1
  O2-  O173  1  0.43089967  0.82162779  0.76678815  1
  O2-  O174  1  0.92283427  0.32215030  0.09012066  1
  O2-  O175  1  0.92204770  0.32294862  0.42053588  1
  O2-  O176  1  0.93385647  0.31746502  0.76830732  1
  O2-  O177  1  0.92865150  0.81925953  0.09852121  1
  O2-  O178  1  0.92594635  0.81532903  0.43172338  1
  O2-  O179  1  0.92808709  0.81902336  0.76476200  1
  O2-  O180  1  0.31942202  0.07050158  0.23525691  1
  O2-  O181  1  0.31935843  0.07112198  0.57884937  1
  O2-  O182  1  0.32077929  0.07109595  0.90813040  1
  O2-  O183  1  0.32138319  0.56930722  0.23408452  1
  O2-  O184  1  0.31995734  0.57396616  0.57018661  1
  O2-  O185  1  0.32393604  0.57403332  0.91238373  1
  O2-  O186  1  0.82048353  0.07420118  0.24357999  1
  O2-  O187  1  0.82743774  0.07117291  0.57866218  1
  O2-  O188  1  0.82019140  0.08002221  0.91207912  1
  O2-  O189  1  0.81717114  0.57062429  0.24187497  1
  O2-  O190  1  0.82015787  0.56901657  0.56839315  1
  O2-  O191  1  0.82153711  0.56839925  0.91267147  1
  O2-  O192  1  0.03685312  0.08729896  0.26310407  1
  O2-  O193  1  0.04802840  0.08321594  0.60244964  1
  O2-  O194  1  0.04220735  0.08650323  0.92581892  1
  O2-  O195  1  0.03983890  0.58433752  0.26683148  1
  O2-  O196  1  0.04838755  0.57893801  0.59862029  1
  O2-  O197  1  0.04088029  0.58263034  0.93919213  1
  O2-  O198  1  0.54739263  0.08389882  0.26790879  1
  O2-  O199  1  0.53531274  0.08431620  0.59654937  1
  O2-  O200  1  0.54069745  0.09099562  0.93861082  1
  O2-  O201  1  0.54902640  0.58492368  0.26821301  1
  O2-  O202  1  0.54719595  0.58348259  0.60779107  1
  O2-  O203  1  0.54787774  0.58191433  0.93462337  1
  O2-  O204  1  0.16650030  0.21048482  0.26613135  1
  O2-  O205  1  0.16794699  0.20120691  0.60262097  1
  O2-  O206  1  0.16816376  0.21233960  0.92872938  1
  O2-  O207  1  0.16682151  0.69526246  0.26915629  1
  O2-  O208  1  0.16750135  0.71095336  0.59758183  1
  O2-  O209  1  0.16531782  0.69743509  0.94017252  1
  O2-  O210  1  0.66627841  0.20447426  0.26460913  1
  O2-  O211  1  0.67279092  0.19563859  0.59953393  1
  O2-  O212  1  0.66557219  0.20593463  0.94010075  1
  O2-  O213  1  0.66455191  0.70551985  0.26835063  1
  O2-  O214  1  0.66580431  0.70114996  0.60757316  1
  O2-  O215  1  0.66569657  0.70109847  0.93602590  1
  O2-  O216  1  0.08369563  0.45587445  0.06898703  1
  O2-  O217  1  0.07688185  0.45276328  0.39911244  1
  O2-  O218  1  0.08610700  0.45135800  0.72966975  1
  O2-  O219  1  0.08450109  0.96022565  0.05550397  1
  O2-  O220  1  0.07893016  0.96341695  0.40043416  1
  O2-  O221  1  0.08554616  0.95723683  0.72991531  1
  O2-  O222  1  0.58596110  0.45586884  0.06419467  1
  O2-  O223  1  0.58908323  0.45823875  0.39298473  1
  O2-  O224  1  0.58279648  0.45586964  0.73675156  1
  O2-  O225  1  0.58468222  0.96650611  0.06936848  1
  O2-  O226  1  0.58493408  0.96033157  0.40135005  1
  O2-  O227  1  0.58264514  0.96650935  0.73516861  1
  O2-  O228  1  0.21535712  0.33280525  0.06610286  1
  O2-  O229  1  0.20613736  0.33019628  0.40228409  1
  O2-  O230  1  0.20591075  0.33166442  0.73016425  1
  O2-  O231  1  0.19931804  0.83607207  0.05718388  1
  O2-  O232  1  0.19375291  0.82658281  0.39567423  1
  O2-  O233  1  0.20629419  0.83840587  0.73095538  1
  O2-  O234  1  0.70562403  0.33593555  0.06608437  1
  O2-  O235  1  0.70250647  0.33375772  0.39103770  1
  O2-  O236  1  0.70746758  0.32603809  0.73092134  1
  O2-  O237  1  0.70580476  0.83078384  0.06745560  1
  O2-  O238  1  0.71132628  0.83185040  0.40029462  1
  O2-  O239  1  0.70401633  0.83288833  0.73698710  1
  O2-  O240  1  0.46451917  0.41576543  0.26135433  1
  O2-  O241  1  0.45400423  0.42434084  0.60337499  1
  O2-  O242  1  0.45336947  0.41645385  0.94189854  1
  O2-  O243  1  0.46077876  0.91868043  0.26730938  1
  O2-  O244  1  0.46009370  0.91712447  0.60015254  1
  O2-  O245  1  0.46174316  0.91891896  0.93383977  1
  O2-  O246  1  0.94710373  0.41981154  0.27038036  1
  O2-  O247  1  0.95889986  0.41527745  0.59905594  1
  O2-  O248  1  0.95234781  0.41738922  0.94089127  1
  O2-  O249  1  0.95511056  0.91756291  0.26549662  1
  O2-  O250  1  0.95429222  0.91908802  0.59945588  1
  O2-  O251  1  0.95398513  0.91695344  0.92973382  1
  O2-  O252  1  0.33410535  0.28896873  0.26539106  1
  O2-  O253  1  0.33309617  0.29015237  0.59922444  1
  O2-  O254  1  0.34108597  0.28954203  0.93638239  1
  O2-  O255  1  0.33032015  0.79279095  0.26669845  1
  O2-  O256  1  0.33256877  0.79212340  0.60157353  1
  O2-  O257  1  0.33146361  0.79433431  0.93297505  1
  O2-  O258  1  0.83258482  0.29728771  0.26714354  1
  O2-  O259  1  0.83603495  0.28854933  0.59875958  1
  O2-  O260  1  0.83294206  0.29637116  0.93840111  1
  O2-  O261  1  0.83399194  0.78233047  0.26449939  1
  O2-  O262  1  0.82586620  0.79170555  0.60191860  1
  O2-  O263  1  0.83097657  0.78578563  0.93461996  1
  O2-  O264  1  0.41214404  0.04488990  0.06189625  1
  O2-  O265  1  0.42150673  0.04815609  0.40140558  1
  O2-  O266  1  0.41078632  0.04172006  0.73155381  1
  O2-  O267  1  0.41787956  0.55109707  0.06306863  1
  O2-  O268  1  0.42192555  0.54253846  0.39839562  1
  O2-  O269  1  0.41639173  0.54524221  0.74029867  1
  O2-  O270  1  0.91975021  0.05000853  0.05838749  1
  O2-  O271  1  0.91560870  0.04990028  0.39466123  1
  O2-  O272  1  0.91991000  0.04798943  0.73087411  1
  O2-  O273  1  0.91032472  0.54193117  0.06811389  1
  O2-  O274  1  0.91250142  0.54838384  0.39403176  1
  O2-  O275  1  0.92252789  0.54086601  0.73471290  1
  O2-  O276  1  0.29122515  0.16188065  0.06024781  1
  O2-  O277  1  0.28934559  0.16693211  0.40308732  1
  O2-  O278  1  0.29197181  0.16259144  0.73204173  1
  O2-  O279  1  0.29604465  0.66848068  0.06289766  1
  O2-  O280  1  0.29548504  0.67016895  0.40003152  1
  O2-  O281  1  0.28579548  0.66857653  0.73795101  1
  O2-  O282  1  0.79536343  0.16533975  0.06731583  1
  O2-  O283  1  0.79629804  0.16786169  0.39459104  1
  O2-  O284  1  0.79847714  0.16343730  0.73178668  1
  O2-  O285  1  0.78937896  0.65998927  0.06619800  1
  O2-  O286  1  0.78656734  0.65906340  0.39651946  1
  O2-  O287  1  0.79192539  0.66600790  0.73857489  1
