# generated using pymatgen
data_Ca2Al2SiO7
_symmetry_space_group_name_H-M   'P 1'
_cell_length_a   15.45692317
_cell_length_b   15.45643057
_cell_length_c   15.28273378
_cell_angle_alpha   89.99063547
_cell_angle_beta   90.00969535
_cell_angle_gamma   90.01409250
_symmetry_Int_Tables_number   1
_chemical_formula_structural   Ca2Al2SiO7
_chemical_formula_sum   'Ca48 Al48 Si24 O168'
_cell_volume   3651.18029202
_cell_formula_units_Z   24
loop_
 _symmetry_equiv_pos_site_id
 _symmetry_equiv_pos_as_xyz
  1  'x, y, z'
loop_
 _atom_type_symbol
 _atom_type_oxidation_number
  Ca2+  2.0
  Al0+  0.0
  Si0+  0.0
  O2-  -2.0
loop_
 _atom_site_type_symbol
 _atom_site_label
 _atom_site_symmetry_multiplicity
 _atom_site_fract_x
 _atom_site_fract_y
 _atom_site_fract_z
 _atom_site_occupancy
  Ca2+  Ca0  1  0.17167511  0.07401182  0.16852707  1
  Ca2+  Ca1  1  0.17151226  0.07624630  0.49980523  1
  Ca2+  Ca2  1  0.17187002  0.07735284  0.84801983  1
  Ca2+  Ca3  1  0.15552344  0.58106324  0.16889345  1
  Ca2+  Ca4  1  0.17105532  0.58491377  0.50699522  1
  Ca2+  Ca5  1  0.16544782  0.57565538  0.83981655  1
  Ca2+  Ca6  1  0.66571585  0.08000629  0.16323623  1
  Ca2+  Ca7  1  0.67337360  0.08007236  0.50962511  1
  Ca2+  Ca8  1  0.67439244  0.08286255  0.84179371  1
  Ca2+  Ca9  1  0.67837540  0.58788295  0.17034851  1
  Ca2+  Ca10  1  0.66412269  0.57483494  0.50591114  1
  Ca2+  Ca11  1  0.66683734  0.58378125  0.84008863  1
  Ca2+  Ca12  1  0.08389709  0.32759220  0.15431898  1
  Ca2+  Ca13  1  0.08482965  0.33442980  0.49757811  1
  Ca2+  Ca14  1  0.08804093  0.33105337  0.83419888  1
  Ca2+  Ca15  1  0.08428856  0.82778583  0.16370780  1
  Ca2+  Ca16  1  0.07427389  0.83062267  0.48912915  1
  Ca2+  Ca17  1  0.07961060  0.83216275  0.83090052  1
  Ca2+  Ca18  1  0.58355316  0.32905152  0.16090372  1
  Ca2+  Ca19  1  0.59364104  0.33032092  0.49901613  1
  Ca2+  Ca20  1  0.58876530  0.32248916  0.82656947  1
  Ca2+  Ca21  1  0.57859504  0.83554825  0.15854597  1
  Ca2+  Ca22  1  0.57769293  0.82474559  0.49525746  1
  Ca2+  Ca23  1  0.59200624  0.82300411  0.83248266  1
  Ca2+  Ca24  1  0.32680651  0.41619539  0.16574658  1
  Ca2+  Ca25  1  0.32609132  0.42589828  0.51100590  1
  Ca2+  Ca26  1  0.32528192  0.42112891  0.83356047  1
  Ca2+  Ca27  1  0.32675835  0.92275790  0.17273901  1
  Ca2+  Ca28  1  0.33062934  0.91156407  0.49546766  1
  Ca2+  Ca29  1  0.32716021  0.92214896  0.84397255  1
  Ca2+  Ca30  1  0.83005444  0.43111175  0.17151864  1
  Ca2+  Ca31  1  0.82503890  0.42525836  0.50117991  1
  Ca2+  Ca32  1  0.82703647  0.42363664  0.83833618  1
  Ca2+  Ca33  1  0.83131177  0.91735529  0.16587008  1
  Ca2+  Ca34  1  0.84106916  0.91843473  0.50600090  1
  Ca2+  Ca35  1  0.83173480  0.92423873  0.83943906  1
  Ca2+  Ca36  1  0.41622459  0.16362517  0.15851307  1
  Ca2+  Ca37  1  0.42219814  0.16502278  0.49581360  1
  Ca2+  Ca38  1  0.42846244  0.16053016  0.83202433  1
  Ca2+  Ca39  1  0.42274440  0.67497642  0.16105276  1
  Ca2+  Ca40  1  0.41830429  0.66670319  0.49716662  1
  Ca2+  Ca41  1  0.42667999  0.66280745  0.82814672  1
  Ca2+  Ca42  1  0.92108267  0.16893021  0.15708480  1
  Ca2+  Ca43  1  0.91526099  0.16756916  0.49851833  1
  Ca2+  Ca44  1  0.92031326  0.15801482  0.83065807  1
  Ca2+  Ca45  1  0.92178221  0.66591501  0.16215702  1
  Ca2+  Ca46  1  0.92002167  0.67660174  0.49050478  1
  Ca2+  Ca47  1  0.91799564  0.67157845  0.83181327  1
  Al0+  Al48  1  -0.00004386  0.00087168  0.00352913  1
  Al0+  Al49  1  0.00093206  -0.00005602  0.33260789  1
  Al0+  Al50  1  0.00098621  0.00057318  0.66521973  1
  Al0+  Al51  1  -0.00111709  0.50073312  0.00205993  1
  Al0+  Al52  1  -0.00301526  0.49917348  0.33641615  1
  Al0+  Al53  1  -0.00103471  0.49856274  0.66899141  1
  Al0+  Al54  1  0.50016251  0.00176164  0.00085544  1
  Al0+  Al55  1  0.50143171  0.00037390  0.33397375  1
  Al0+  Al56  1  0.50050583  -0.00119927  0.66094488  1
  Al0+  Al57  1  0.49766080  0.50010937  -0.00360426  1
  Al0+  Al58  1  0.49879739  0.49598243  0.33475261  1
  Al0+  Al59  1  0.49901259  0.49798035  0.67066498  1
  Al0+  Al60  1  0.24873653  0.25222850  0.00154974  1
  Al0+  Al61  1  0.25300203  0.24923667  0.33751227  1
  Al0+  Al62  1  0.25091038  0.24886798  0.66860609  1
  Al0+  Al63  1  0.24979541  0.74882381  -0.00230879  1
  Al0+  Al64  1  0.25038800  0.74967662  0.32893401  1
  Al0+  Al65  1  0.25114264  0.75010380  0.67170394  1
  Al0+  Al66  1  0.74932864  0.25169182  -0.00007378  1
  Al0+  Al67  1  0.75062247  0.24951062  0.33427460  1
  Al0+  Al68  1  0.75274195  0.24977624  0.66936991  1
  Al0+  Al69  1  0.74947372  0.75080172  0.00368884  1
  Al0+  Al70  1  0.75158276  0.75144188  0.33424735  1
  Al0+  Al71  1  0.74917592  0.75023848  0.65569480  1
  Al0+  Al72  1  0.17764882  0.92546784  0.01507010  1
  Al0+  Al73  1  0.17971677  0.43211071  0.01481493  1
  Al0+  Al74  1  0.07083529  0.67802759  0.98438860  1
  Al0+  Al75  1  0.57287810  0.17928991  0.65161018  1
  Al0+  Al76  1  0.07019844  0.67773107  0.31904256  1
  Al0+  Al77  1  0.81938658  0.57130051  0.01203911  1
  Al0+  Al78  1  0.67978811  0.92945394  0.01377070  1
  Al0+  Al79  1  0.82162707  0.07385261  0.01602324  1
  Al0+  Al80  1  0.56964141  0.67696454  0.65188327  1
  Al0+  Al81  1  0.57150568  0.68018120  0.98805737  1
  Al0+  Al82  1  0.68012242  0.42927562  0.68216048  1
  Al0+  Al83  1  0.82131410  0.06919823  0.67960735  1
  Al0+  Al84  1  0.06971354  0.17898274  0.98723861  1
  Al0+  Al85  1  0.82154051  0.57348623  0.35107613  1
  Al0+  Al86  1  0.32309697  0.07133191  0.35093116  1
  Al0+  Al87  1  0.17922219  0.92766999  0.34961420  1
  Al0+  Al88  1  0.43082470  0.82080622  0.31861465  1
  Al0+  Al89  1  0.92731944  0.82402536  0.31473044  1
  Al0+  Al90  1  0.67848774  0.42851859  0.34755573  1
  Al0+  Al91  1  0.32098558  0.57317402  0.68309486  1
  Al0+  Al92  1  0.93114830  0.82139428  0.65397378  1
  Al0+  Al93  1  0.57055110  0.18016141  0.98632421  1
  Al0+  Al94  1  0.32116168  0.07155666  0.01351175  1
  Al0+  Al95  1  0.17647308  0.42790869  0.68244088  1
  Si0+  Si96  1  0.42557317  0.82219329  0.64968746  1
  Si0+  Si97  1  0.42606807  0.32314248  0.98103505  1
  Si0+  Si98  1  0.42756967  0.31923708  0.64909511  1
  Si0+  Si99  1  0.57220828  0.17996402  0.31824515  1
  Si0+  Si100  1  0.92855503  0.31923833  0.31891140  1
  Si0+  Si101  1  0.42753743  0.32064108  0.31814873  1
  Si0+  Si102  1  0.07247524  0.17920521  0.65069440  1
  Si0+  Si103  1  0.32283547  0.07029121  0.68142315  1
  Si0+  Si104  1  0.32392061  0.57224931  0.01836516  1
  Si0+  Si105  1  0.57094506  0.67514366  0.31755384  1
  Si0+  Si106  1  0.92920470  0.32164130  0.65104535  1
  Si0+  Si107  1  0.92798420  0.32277082  0.98289532  1
  Si0+  Si108  1  0.67519731  0.42843480  0.01539001  1
  Si0+  Si109  1  0.42833623  0.82276660  0.98286393  1
  Si0+  Si110  1  0.17847752  0.42791271  0.34724247  1
  Si0+  Si111  1  0.07316521  0.18108504  0.31950582  1
  Si0+  Si112  1  0.67802819  0.92934976  0.34970973  1
  Si0+  Si113  1  0.07222475  0.67708790  0.65240639  1
  Si0+  Si114  1  0.17910047  0.93047989  0.68110876  1
  Si0+  Si115  1  0.67654058  0.92678912  0.68040801  1
  Si0+  Si116  1  0.82020794  0.57473361  0.68279027  1
  Si0+  Si117  1  0.82085272  0.07077437  0.34832959  1
  Si0+  Si118  1  0.32116788  0.57019362  0.34591197  1
  Si0+  Si119  1  0.92786924  0.82201973  0.98346826  1
  O2-  O120  1  0.25038113  -0.00172293  0.06279078  1
  O2-  O121  1  0.25201625  -0.00134220  0.40143768  1
  O2-  O122  1  0.25279654  -0.00136217  0.72283901  1
  O2-  O123  1  0.25191993  0.50776046  0.06406510  1
  O2-  O124  1  0.24614791  0.50247990  0.38784748  1
  O2-  O125  1  0.24530426  0.50350445  0.73094069  1
  O2-  O126  1  0.75008147  0.00198854  0.06643300  1
  O2-  O127  1  0.75347748  -0.00340935  0.39094904  1
  O2-  O128  1  0.74489528  -0.00423148  0.72411098  1
  O2-  O129  1  0.74147329  0.49912267  0.05857193  1
  O2-  O130  1  0.74472186  0.50498925  0.39898276  1
  O2-  O131  1  0.75035999  0.50811402  0.72843062  1
  O2-  O132  1  0.00322361  0.25262637  0.27663908  1
  O2-  O133  1  0.00376769  0.25308578  0.60885544  1
  O2-  O134  1  -0.00759800  0.25005423  0.93800645  1
  O2-  O135  1  -0.00178198  0.74929491  0.26788742  1
  O2-  O136  1  0.00417137  0.74496831  0.60719099  1
  O2-  O137  1  -0.00095559  0.75592786  0.93843571  1
  O2-  O138  1  0.49935908  0.24985425  0.27727492  1
  O2-  O139  1  0.49840726  0.25356490  0.60277928  1
  O2-  O140  1  0.49631683  0.25509594  0.93848039  1
  O2-  O141  1  0.50614745  0.74658319  0.27218797  1
  O2-  O142  1  0.49314013  0.75120752  0.60701631  1
  O2-  O143  1  0.49694322  0.75391553  0.93877248  1
  O2-  O144  1  0.07025488  0.18307525  0.10073590  1
  O2-  O145  1  0.07200469  0.18310172  0.42529320  1
  O2-  O146  1  0.07204324  0.17678026  0.75542011  1
  O2-  O147  1  0.06713781  0.67562348  0.09697772  1
  O2-  O148  1  0.07073684  0.67758122  0.43336889  1
  O2-  O149  1  0.07061913  0.67824778  0.75785331  1
  O2-  O150  1  0.57012831  0.18300603  0.09997227  1
  O2-  O151  1  0.57396662  0.18124722  0.42349805  1
  O2-  O152  1  0.57137556  0.17874525  0.76433721  1
  O2-  O153  1  0.56934179  0.68030411  0.10126501  1
  O2-  O154  1  0.56638476  0.67420823  0.42333771  1
  O2-  O155  1  0.57168415  0.68018282  0.76494949  1
  O2-  O156  1  0.18018267  0.42464200  0.24240807  1
  O2-  O157  1  0.17853475  0.42763923  0.56795068  1
  O2-  O158  1  0.18113099  0.43154103  0.90213973  1
  O2-  O159  1  0.17973845  0.93030876  0.23681302  1
  O2-  O160  1  0.17836267  0.93156514  0.57616759  1
  O2-  O161  1  0.17921885  0.92824368  0.90026630  1
  O2-  O162  1  0.68099925  0.42577900  0.23414914  1
  O2-  O163  1  0.68351892  0.42882993  0.56910097  1
  O2-  O164  1  0.67728662  0.42788246  0.90969696  1
  O2-  O165  1  0.67458266  0.93255146  0.24500052  1
  O2-  O166  1  0.67618349  0.92907783  0.57439070  1
  O2-  O167  1  0.68236393  0.92791513  0.89988593  1
  O2-  O168  1  0.42707041  0.32460678  0.08723343  1
  O2-  O169  1  0.42434563  0.32145236  0.42287423  1
  O2-  O170  1  0.42565651  0.31502454  0.75434089  1
  O2-  O171  1  0.42980360  0.82145983  0.08859882  1
  O2-  O172  1  0.43274104  0.81764694  0.43213174  1
  O2-  O173  1  0.42488006  0.82582476  0.75480229  1
  O2-  O174  1  0.93068650  0.32281052  0.08896072  1
  O2-  O175  1  0.92851468  0.31672764  0.42439756  1
  O2-  O176  1  0.92810880  0.32168303  0.75572383  1
  O2-  O177  1  0.92647499  0.81996739  0.08865454  1
  O2-  O178  1  0.93093257  0.82533714  0.42886427  1
  O2-  O179  1  0.93282296  0.82291462  0.76693501  1
  O2-  O180  1  0.32065422  0.07403243  0.23809550  1
  O2-  O181  1  0.32135025  0.07139485  0.57645496  1
  O2-  O182  1  0.32081257  0.06925416  0.89899914  1
  O2-  O183  1  0.32525120  0.56630216  0.24121478  1
  O2-  O184  1  0.31869460  0.57262552  0.56837313  1
  O2-  O185  1  0.32557391  0.56876496  0.91310781  1
  O2-  O186  1  0.81836626  0.07522819  0.24389616  1
  O2-  O187  1  0.82177246  0.06883237  0.56573573  1
  O2-  O188  1  0.82100326  0.07158301  0.90225850  1
  O2-  O189  1  0.82229771  0.56961563  0.23740276  1
  O2-  O190  1  0.82068869  0.57181764  0.57744006  1
  O2-  O191  1  0.81836822  0.57009349  0.89857814  1
  O2-  O192  1  0.04478282  0.08966455  0.27356522  1
  O2-  O193  1  0.04105259  0.08960555  0.60081400  1
  O2-  O194  1  0.04217201  0.08141591  0.93271593  1
  O2-  O195  1  0.04105714  0.57741114  0.26863488  1
  O2-  O196  1  0.04906093  0.58201560  0.60763461  1
  O2-  O197  1  0.03585973  0.58227378  0.93059406  1
  O2-  O198  1  0.54578301  0.08789750  0.27188639  1
  O2-  O199  1  0.54243142  0.08252615  0.59647733  1
  O2-  O200  1  0.54045059  0.08354458  0.93137790  1
  O2-  O201  1  0.54288706  0.58175523  0.27215297  1
  O2-  O202  1  0.53845056  0.57924509  0.59977565  1
  O2-  O203  1  0.54118587  0.58316762  0.93356181  1
  O2-  O204  1  0.16545637  0.20960596  0.27412409  1
  O2-  O205  1  0.16499944  0.20540457  0.60300377  1
  O2-  O206  1  0.16533683  0.21355926  0.93278948  1
  O2-  O207  1  0.16932236  0.70179723  0.26589917  1
  O2-  O208  1  0.16723227  0.70265777  0.60886338  1
  O2-  O209  1  0.16953835  0.70318623  0.93096195  1
  O2-  O210  1  0.66330111  0.20973061  0.27027834  1
  O2-  O211  1  0.67030173  0.21103461  0.59890172  1
  O2-  O212  1  0.66755637  0.21106799  0.93221735  1
  O2-  O213  1  0.66665704  0.69882356  0.27656567  1
  O2-  O214  1  0.66385176  0.70812129  0.59311797  1
  O2-  O215  1  0.66783071  0.71128313  0.93318514  1
  O2-  O216  1  0.08262215  0.45985342  0.06889573  1
  O2-  O217  1  0.08517780  0.44975933  0.39402290  1
  O2-  O218  1  0.07664362  0.45076179  0.73488463  1
  O2-  O219  1  0.08016332  0.95393610  0.06767453  1
  O2-  O220  1  0.08147707  0.96084174  0.40283200  1
  O2-  O221  1  0.08945849  0.96271381  0.72895712  1
  O2-  O222  1  0.57974202  0.45019461  0.05917130  1
  O2-  O223  1  0.57772652  0.44969610  0.40037307  1
  O2-  O224  1  0.58141935  0.45187489  0.73423995  1
  O2-  O225  1  0.58187333  0.95891863  0.06701559  1
  O2-  O226  1  0.58905519  0.96130032  0.40003295  1
  O2-  O227  1  0.58217614  0.95063196  0.72529998  1
  O2-  O228  1  0.21214809  0.33670184  0.07017336  1
  O2-  O229  1  0.21024169  0.33848357  0.39725881  1
  O2-  O230  1  0.20832718  0.32957575  0.73421828  1
  O2-  O231  1  0.20561582  0.82658623  0.06633703  1
  O2-  O232  1  0.20912503  0.82859463  0.40136951  1
  O2-  O233  1  0.20304056  0.83791697  0.72843888  1
  O2-  O234  1  0.70243208  0.33617467  0.06259291  1
  O2-  O235  1  0.71344777  0.33160796  0.40151951  1
  O2-  O236  1  0.71639601  0.33468066  0.73610580  1
  O2-  O237  1  0.70687457  0.83260990  0.07003560  1
  O2-  O238  1  0.70031384  0.83572411  0.39590236  1
  O2-  O239  1  0.70336434  0.83233538  0.72324709  1
  O2-  O240  1  0.45451495  0.41172585  0.26815591  1
  O2-  O241  1  0.44970754  0.41453558  0.60553631  1
  O2-  O242  1  0.44998655  0.41661878  0.93392434  1
  O2-  O243  1  0.46238715  0.91810013  0.26635324  1
  O2-  O244  1  0.45246151  0.91409481  0.59998835  1
  O2-  O245  1  0.45337990  0.91651513  0.93730280  1
  O2-  O246  1  0.95237541  0.41230525  0.27319753  1
  O2-  O247  1  0.95483928  0.41397428  0.60206707  1
  O2-  O248  1  0.95825391  0.41404596  0.93546686  1
  O2-  O249  1  0.95590567  0.92325249  0.26328286  1
  O2-  O250  1  0.96501145  0.91694859  0.59814098  1
  O2-  O251  1  0.95141063  0.91697330  0.93925647  1
  O2-  O252  1  0.33625804  0.29179801  0.26920986  1
  O2-  O253  1  0.33454227  0.29104314  0.60130222  1
  O2-  O254  1  0.33284045  0.29719491  0.93536456  1
  O2-  O255  1  0.33522140  0.79028750  0.26394123  1
  O2-  O256  1  0.33146026  0.79650915  0.60324099  1
  O2-  O257  1  0.33490146  0.79764664  0.93626191  1
  O2-  O258  1  0.83896142  0.28681085  0.27005923  1
  O2-  O259  1  0.84032604  0.28890047  0.60112322  1
  O2-  O260  1  0.83254240  0.30266446  0.93853627  1
  O2-  O261  1  0.82630749  0.79999235  0.26494661  1
  O2-  O262  1  0.83475784  0.79543053  0.59693733  1
  O2-  O263  1  0.83536638  0.79303047  0.93706366  1
  O2-  O264  1  0.41940681  0.04565249  0.06683910  1
  O2-  O265  1  0.42242839  0.04379507  0.40281728  1
  O2-  O266  1  0.41564738  0.04221832  0.72658859  1
  O2-  O267  1  0.41585884  0.54215425  0.06624144  1
  O2-  O268  1  0.41039201  0.53782947  0.39637683  1
  O2-  O269  1  0.41711857  0.54023221  0.73704852  1
  O2-  O270  1  0.91980903  0.04755361  0.06918219  1
  O2-  O271  1  0.91425295  0.04759831  0.39498857  1
  O2-  O272  1  0.91826146  0.03797857  0.73281591  1
  O2-  O273  1  0.91310039  0.53602593  0.06798654  1
  O2-  O274  1  0.91709021  0.53767630  0.40671618  1
  O2-  O275  1  0.91369548  0.54720660  0.72813910  1
  O2-  O276  1  0.29328558  0.17020463  0.06528888  1
  O2-  O277  1  0.29329507  0.16936214  0.40593988  1
  O2-  O278  1  0.29500200  0.16143623  0.72875970  1
  O2-  O279  1  0.30316180  0.66777851  0.06073258  1
  O2-  O280  1  0.29680598  0.66250495  0.39300750  1
  O2-  O281  1  0.29885003  0.67246278  0.73725608  1
  O2-  O282  1  0.79381570  0.17321472  0.06807238  1
  O2-  O283  1  0.78981893  0.16107830  0.39783159  1
  O2-  O284  1  0.79429248  0.16588647  0.73345398  1
  O2-  O285  1  0.78995030  0.66638156  0.06836973  1
  O2-  O286  1  0.79913658  0.67414617  0.40155538  1
  O2-  O287  1  0.79546569  0.66983266  0.72527658  1
