# generated using pymatgen
data_Ca2Al2SiO7
_symmetry_space_group_name_H-M   'P 1'
_cell_length_a   15.46144898
_cell_length_b   15.46073122
_cell_length_c   15.28653934
_cell_angle_alpha   90.00003586
_cell_angle_beta   89.98857673
_cell_angle_gamma   89.98385436
_symmetry_Int_Tables_number   1
_chemical_formula_structural   Ca2Al2SiO7
_chemical_formula_sum   'Ca48 Al48 Si24 O168'
_cell_volume   3654.17527039
_cell_formula_units_Z   24
loop_
 _symmetry_equiv_pos_site_id
 _symmetry_equiv_pos_as_xyz
  1  'x, y, z'
loop_
 _atom_type_symbol
 _atom_type_oxidation_number
  Ca2+  2.0
  Al0+  0.0
  Si0+  0.0
  O2-  -2.0
loop_
 _atom_site_type_symbol
 _atom_site_label
 _atom_site_symmetry_multiplicity
 _atom_site_fract_x
 _atom_site_fract_y
 _atom_site_fract_z
 _atom_site_occupancy
  Ca2+  Ca0  1  0.17596898  0.08820627  0.16810467  1
  Ca2+  Ca1  1  0.17535498  0.08416393  0.50293614  1
  Ca2+  Ca2  1  0.16946454  0.07689899  0.84864217  1
  Ca2+  Ca3  1  0.16683735  0.58269425  0.17225582  1
  Ca2+  Ca4  1  0.16366415  0.58959465  0.50334595  1
  Ca2+  Ca5  1  0.16500115  0.58362949  0.83408150  1
  Ca2+  Ca6  1  0.66850017  0.08477589  0.16914673  1
  Ca2+  Ca7  1  0.66217937  0.07828088  0.50148475  1
  Ca2+  Ca8  1  0.66607546  0.08711739  0.83644774  1
  Ca2+  Ca9  1  0.67722558  0.57640286  0.17828384  1
  Ca2+  Ca10  1  0.67083957  0.57417782  0.50641702  1
  Ca2+  Ca11  1  0.67841524  0.57683838  0.83689807  1
  Ca2+  Ca12  1  0.07099623  0.32753843  0.16061447  1
  Ca2+  Ca13  1  0.06747822  0.33948182  0.49629316  1
  Ca2+  Ca14  1  0.07285933  0.32670517  0.83393645  1
  Ca2+  Ca15  1  0.08739199  0.82895311  0.16533771  1
  Ca2+  Ca16  1  0.07423406  0.82216172  0.49860614  1
  Ca2+  Ca17  1  0.07863829  0.83066068  0.82566019  1
  Ca2+  Ca18  1  0.58004428  0.32946648  0.15770142  1
  Ca2+  Ca19  1  0.58968859  0.33280892  0.49915372  1
  Ca2+  Ca20  1  0.57950871  0.32295794  0.82662869  1
  Ca2+  Ca21  1  0.58675557  0.83371488  0.17094677  1
  Ca2+  Ca22  1  0.57740592  0.83119114  0.48940874  1
  Ca2+  Ca23  1  0.57573045  0.83392938  0.82659867  1
  Ca2+  Ca24  1  0.33212307  0.41211949  0.16957955  1
  Ca2+  Ca25  1  0.33122546  0.41759189  0.50765514  1
  Ca2+  Ca26  1  0.33707179  0.41157455  0.83661111  1
  Ca2+  Ca27  1  0.33261742  0.92811073  0.17140906  1
  Ca2+  Ca28  1  0.34194804  0.91895650  0.50200498  1
  Ca2+  Ca29  1  0.32657082  0.92067544  0.84229240  1
  Ca2+  Ca30  1  0.83367484  0.42027151  0.17447865  1
  Ca2+  Ca31  1  0.82743112  0.42176852  0.50531320  1
  Ca2+  Ca32  1  0.83867514  0.42260861  0.83603342  1
  Ca2+  Ca33  1  0.82872595  0.92809328  0.17062466  1
  Ca2+  Ca34  1  0.82773474  0.91185807  0.50407519  1
  Ca2+  Ca35  1  0.83640535  0.92341404  0.84086645  1
  Ca2+  Ca36  1  0.41953989  0.16675351  0.15759297  1
  Ca2+  Ca37  1  0.42180301  0.16928986  0.49904231  1
  Ca2+  Ca38  1  0.42381858  0.17021565  0.83018228  1
  Ca2+  Ca39  1  0.42657871  0.67044694  0.16739882  1
  Ca2+  Ca40  1  0.42324738  0.67931764  0.49103321  1
  Ca2+  Ca41  1  0.41847258  0.67434551  0.82550581  1
  Ca2+  Ca42  1  0.91399964  0.17798879  0.15568694  1
  Ca2+  Ca43  1  0.91077978  0.18157418  0.49693360  1
  Ca2+  Ca44  1  0.91207708  0.17493509  0.83083945  1
  Ca2+  Ca45  1  0.91679775  0.66017595  0.16539140  1
  Ca2+  Ca46  1  0.92239867  0.65581966  0.49718710  1
  Ca2+  Ca47  1  0.91802178  0.66892379  0.82500023  1
  Al0+  Al48  1  -0.00165145  -0.00252883  0.00858450  1
  Al0+  Al49  1  0.00388063  0.00021892  0.33565528  1
  Al0+  Al50  1  0.00124502  -0.00184117  0.66173567  1
  Al0+  Al51  1  0.00227194  0.50080543  -0.00004022  1
  Al0+  Al52  1  0.00073525  0.49887725  0.32696701  1
  Al0+  Al53  1  0.00214577  0.49855220  0.66536444  1
  Al0+  Al54  1  0.49813980  -0.00214987  -0.00038303  1
  Al0+  Al55  1  0.49960354  0.00231303  0.33670907  1
  Al0+  Al56  1  0.50022349  0.00210063  0.66182872  1
  Al0+  Al57  1  0.50109647  0.50197417  -0.00374587  1
  Al0+  Al58  1  0.49902480  0.50129759  0.33363918  1
  Al0+  Al59  1  0.49898370  0.49904684  0.67026246  1
  Al0+  Al60  1  0.24789738  0.25078799  -0.00227604  1
  Al0+  Al61  1  0.25002907  0.24954619  0.34008661  1
  Al0+  Al62  1  0.25207093  0.24992135  0.66608628  1
  Al0+  Al63  1  0.25026294  0.74862557  0.00437868  1
  Al0+  Al64  1  0.24890222  0.75212646  0.32516788  1
  Al0+  Al65  1  0.24937460  0.75098906  0.66016185  1
  Al0+  Al66  1  0.74744546  0.25087115  -0.00479792  1
  Al0+  Al67  1  0.74898373  0.25123174  0.33157102  1
  Al0+  Al68  1  0.74919799  0.24777374  0.66172904  1
  Al0+  Al69  1  0.75114694  0.74756701  0.00383472  1
  Al0+  Al70  1  0.75222213  0.75131498  0.33674853  1
  Al0+  Al71  1  0.74881151  0.75032296  0.67036514  1
  Al0+  Al72  1  0.32008809  0.07081023  0.35025794  1
  Al0+  Al73  1  0.42808593  0.32229587  0.64986596  1
  Al0+  Al74  1  0.68142913  0.93141804  0.34664857  1
  Al0+  Al75  1  0.92587622  0.82284766  0.65308972  1
  Al0+  Al76  1  0.82354261  0.57002946  0.34908604  1
  Al0+  Al77  1  0.81852141  0.07295105  0.01165783  1
  Al0+  Al78  1  0.92808967  0.32228300  0.98407048  1
  Al0+  Al79  1  0.42786174  0.32299535  0.98624797  1
  Al0+  Al80  1  0.43044365  0.82407847  0.31484404  1
  Al0+  Al81  1  0.06821845  0.67998066  0.31679731  1
  Al0+  Al82  1  0.57115377  0.18001716  0.64782567  1
  Al0+  Al83  1  0.17684743  0.92628390  0.01653345  1
  Al0+  Al84  1  0.32020817  0.07185817  0.01400009  1
  Al0+  Al85  1  0.06906985  0.67899531  0.65288828  1
  Al0+  Al86  1  0.82252546  0.56960592  0.01533499  1
  Al0+  Al87  1  0.06938858  0.17574294  0.98742364  1
  Al0+  Al88  1  0.92860089  0.31829787  0.31847834  1
  Al0+  Al89  1  0.57362351  0.67806852  0.31880668  1
  Al0+  Al90  1  0.82269783  0.56998823  0.68327087  1
  Al0+  Al91  1  0.67642636  0.42824014  0.34785525  1
  Al0+  Al92  1  0.67790642  0.42583887  0.68496432  1
  Al0+  Al93  1  0.57022604  0.17608795  0.98543541  1
  Al0+  Al94  1  0.93037695  0.31933727  0.65256971  1
  Al0+  Al95  1  0.42981110  0.82055302  0.65400701  1
  Si0+  Si96  1  0.57325971  0.67969361  0.98377878  1
  Si0+  Si97  1  0.18014607  0.43033995  0.01474432  1
  Si0+  Si98  1  0.32317888  0.57187308  0.01535921  1
  Si0+  Si99  1  0.42856050  0.81825734  0.98541801  1
  Si0+  Si100  1  0.82240010  0.06850999  0.67917612  1
  Si0+  Si101  1  0.18006647  0.92932888  0.68018483  1
  Si0+  Si102  1  0.82421843  0.07365147  0.34985957  1
  Si0+  Si103  1  0.92771931  0.81935367  0.98829883  1
  Si0+  Si104  1  0.31943653  0.57288653  0.68024638  1
  Si0+  Si105  1  0.07359155  0.17605019  0.65008824  1
  Si0+  Si106  1  0.67699447  0.92952183  0.68129654  1
  Si0+  Si107  1  0.67706219  0.42962886  0.01543782  1
  Si0+  Si108  1  0.42619268  0.32190384  0.32007050  1
  Si0+  Si109  1  0.56906238  0.18076349  0.31785000  1
  Si0+  Si110  1  0.07449779  0.17820196  0.31872440  1
  Si0+  Si111  1  0.32165003  0.07081121  0.68342002  1
  Si0+  Si112  1  0.57222282  0.67737489  0.65237549  1
  Si0+  Si113  1  0.17826272  0.92534775  0.35427466  1
  Si0+  Si114  1  0.92731669  0.82606078  0.31466096  1
  Si0+  Si115  1  0.18087490  0.43040672  0.34812727  1
  Si0+  Si116  1  0.17963085  0.42771209  0.68272056  1
  Si0+  Si117  1  0.67687083  0.92602855  0.01499882  1
  Si0+  Si118  1  0.07250619  0.67980003  0.98492195  1
  Si0+  Si119  1  0.32042245  0.57323336  0.34727126  1
  O2-  O120  1  0.24624809  0.00188609  0.06481378  1
  O2-  O121  1  0.24702999  -0.00562432  0.39800961  1
  O2-  O122  1  0.24856241  0.00148691  0.72464717  1
  O2-  O123  1  0.25599035  0.49694789  0.05676511  1
  O2-  O124  1  0.25016741  0.50259483  0.39126613  1
  O2-  O125  1  0.25177297  0.49900896  0.72370773  1
  O2-  O126  1  0.74097643  0.00002615  0.05715356  1
  O2-  O127  1  0.75974078  0.00170327  0.39505301  1
  O2-  O128  1  0.75322097  -0.00453836  0.72215520  1
  O2-  O129  1  0.74997775  0.49275535  0.06073152  1
  O2-  O130  1  0.74711988  0.50192599  0.39738643  1
  O2-  O131  1  0.75166119  0.49711052  0.73426647  1
  O2-  O132  1  -0.00083145  0.23843712  0.27427105  1
  O2-  O133  1  0.00528277  0.24440265  0.60525748  1
  O2-  O134  1  -0.00515371  0.24394360  0.93552831  1
  O2-  O135  1  -0.00639743  0.75483876  0.27010727  1
  O2-  O136  1  -0.00854957  0.74489477  0.60319714  1
  O2-  O137  1  0.00140764  0.75116838  0.94515612  1
  O2-  O138  1  0.50056605  0.25519549  0.27777783  1
  O2-  O139  1  0.50252353  0.25526758  0.59741848  1
  O2-  O140  1  0.49763521  0.24869352  0.93719393  1
  O2-  O141  1  0.50356220  0.75182388  0.26639352  1
  O2-  O142  1  0.50486994  0.74682787  0.60763410  1
  O2-  O143  1  0.50168977  0.75046241  0.94149023  1
  O2-  O144  1  0.06994965  0.18157910  0.10106071  1
  O2-  O145  1  0.07677041  0.18264526  0.42447650  1
  O2-  O146  1  0.07260000  0.17476885  0.75548980  1
  O2-  O147  1  0.07379507  0.67877553  0.08979486  1
  O2-  O148  1  0.06936014  0.67988801  0.42948366  1
  O2-  O149  1  0.07375983  0.68285588  0.76683658  1
  O2-  O150  1  0.56931990  0.17689031  0.09958793  1
  O2-  O151  1  0.56851582  0.17948700  0.42261122  1
  O2-  O152  1  0.56766486  0.17522629  0.76103940  1
  O2-  O153  1  0.57221924  0.67926425  0.08844755  1
  O2-  O154  1  0.56830569  0.67794409  0.43240075  1
  O2-  O155  1  0.56948466  0.68092736  0.75874350  1
  O2-  O156  1  0.18383645  0.42942196  0.24278224  1
  O2-  O157  1  0.17971232  0.42775510  0.57740997  1
  O2-  O158  1  0.17804452  0.43421105  0.90962043  1
  O2-  O159  1  0.17811909  0.92606062  0.24893993  1
  O2-  O160  1  0.18141737  0.93034271  0.57544415  1
  O2-  O161  1  0.18079592  0.92221381  0.90211850  1
  O2-  O162  1  0.67627743  0.42618598  0.23400417  1
  O2-  O163  1  0.67866573  0.42899454  0.57144892  1
  O2-  O164  1  0.67481085  0.43414181  0.91031916  1
  O2-  O165  1  0.68119252  0.93659162  0.23326835  1
  O2-  O166  1  0.67505934  0.93139569  0.57647033  1
  O2-  O167  1  0.67870120  0.92201854  0.90916723  1
  O2-  O168  1  0.43039718  0.32524719  0.10055940  1
  O2-  O169  1  0.42280813  0.32013341  0.42463676  1
  O2-  O170  1  0.42470247  0.31738220  0.76293231  1
  O2-  O171  1  0.42877005  0.81655157  0.08983020  1
  O2-  O172  1  0.43181325  0.82160737  0.42874976  1
  O2-  O173  1  0.42910082  0.81914822  0.76785871  1
  O2-  O174  1  0.93112529  0.32344008  0.09762099  1
  O2-  O175  1  0.93059106  0.31871595  0.43176590  1
  O2-  O176  1  0.93274772  0.31834177  0.76539417  1
  O2-  O177  1  0.92534281  0.81657013  0.09300466  1
  O2-  O178  1  0.93020436  0.82902863  0.41996416  1
  O2-  O179  1  0.93146617  0.82755368  0.76711194  1
  O2-  O180  1  0.31810985  0.07433207  0.23749507  1
  O2-  O181  1  0.32054609  0.07004384  0.57818441  1
  O2-  O182  1  0.32052606  0.06698141  0.90007739  1
  O2-  O183  1  0.31995737  0.57007382  0.24179755  1
  O2-  O184  1  0.31698671  0.57425738  0.57523731  1
  O2-  O185  1  0.32081991  0.57687483  0.91018583  1
  O2-  O186  1  0.82145183  0.07430692  0.24414813  1
  O2-  O187  1  0.82240511  0.06728921  0.57406406  1
  O2-  O188  1  0.82048153  0.06866171  0.89823316  1
  O2-  O189  1  0.82386190  0.56494084  0.23511597  1
  O2-  O190  1  0.82250213  0.56819744  0.57019843  1
  O2-  O191  1  0.82185706  0.57309070  0.90259082  1
  O2-  O192  1  0.05993065  0.08078112  0.27722599  1
  O2-  O193  1  0.05000557  0.08301571  0.60205819  1
  O2-  O194  1  0.04663000  0.07377474  0.93937200  1
  O2-  O195  1  0.04084124  0.58327783  0.26089431  1
  O2-  O196  1  0.04925613  0.57878840  0.60049674  1
  O2-  O197  1  0.04553083  0.58847021  0.93686257  1
  O2-  O198  1  0.53770628  0.09072389  0.27054919  1
  O2-  O199  1  0.53721003  0.08367187  0.59335562  1
  O2-  O200  1  0.54372746  0.07636236  0.93263251  1
  O2-  O201  1  0.53967390  0.58127296  0.26388546  1
  O2-  O202  1  0.54527462  0.58404706  0.60854298  1
  O2-  O203  1  0.54406189  0.58959435  0.93442445  1
  O2-  O204  1  0.16527098  0.21273553  0.27197263  1
  O2-  O205  1  0.16738238  0.20243727  0.60530934  1
  O2-  O206  1  0.16585320  0.20732992  0.93225051  1
  O2-  O207  1  0.16485023  0.70964079  0.26124367  1
  O2-  O208  1  0.16469417  0.71242237  0.59680351  1
  O2-  O209  1  0.16524140  0.70647285  0.93804680  1
  O2-  O210  1  0.66173076  0.20510033  0.27053645  1
  O2-  O211  1  0.67042861  0.20136772  0.59396552  1
  O2-  O212  1  0.66740637  0.20376253  0.93013679  1
  O2-  O213  1  0.67315635  0.70584976  0.26764409  1
  O2-  O214  1  0.66610603  0.70117451  0.60810475  1
  O2-  O215  1  0.66468529  0.70902892  0.93659399  1
  O2-  O216  1  0.09176013  0.46429556  0.06498141  1
  O2-  O217  1  0.08904430  0.45941474  0.39360185  1
  O2-  O218  1  0.08968499  0.45691062  0.73223512  1
  O2-  O219  1  0.07782759  0.94640180  0.07113073  1
  O2-  O220  1  0.08455667  0.95081483  0.40122412  1
  O2-  O221  1  0.08706263  0.95490308  0.72705467  1
  O2-  O222  1  0.58477333  0.46051234  0.06242614  1
  O2-  O223  1  0.57649602  0.45397848  0.40026237  1
  O2-  O224  1  0.57828876  0.45403369  0.73706822  1
  O2-  O225  1  0.58158343  0.94554917  0.05948892  1
  O2-  O226  1  0.58633074  0.96562995  0.40142752  1
  O2-  O227  1  0.58691255  0.96301035  0.72992448  1
  O2-  O228  1  0.20300862  0.33799374  0.06288978  1
  O2-  O229  1  0.20909780  0.34051963  0.39864012  1
  O2-  O230  1  0.20773516  0.33589131  0.73039734  1
  O2-  O231  1  0.21036063  0.82933286  0.07064448  1
  O2-  O232  1  0.20452436  0.83094538  0.39784697  1
  O2-  O233  1  0.20986863  0.83757719  0.72711497  1
  O2-  O234  1  0.69569683  0.33330425  0.05764733  1
  O2-  O235  1  0.70631633  0.32964975  0.40006761  1
  O2-  O236  1  0.70459336  0.32456078  0.73252254  1
  O2-  O237  1  0.70800717  0.83537543  0.06392439  1
  O2-  O238  1  0.70699893  0.83414689  0.40187972  1
  O2-  O239  1  0.69652510  0.83638311  0.72995021  1
  O2-  O240  1  0.44709120  0.41572896  0.27405334  1
  O2-  O241  1  0.44772368  0.42480098  0.60198044  1
  O2-  O242  1  0.45484463  0.42217852  0.93271306  1
  O2-  O243  1  0.46069098  0.92302324  0.26448902  1
  O2-  O244  1  0.46042575  0.91621596  0.60009096  1
  O2-  O245  1  0.45296324  0.91025227  0.93714288  1
  O2-  O246  1  0.96640729  0.41127614  0.26313613  1
  O2-  O247  1  0.96490123  0.41419540  0.59860236  1
  O2-  O248  1  0.96658489  0.41822472  0.93162752  1
  O2-  O249  1  0.95657966  0.91964847  0.26871627  1
  O2-  O250  1  0.95996072  0.91745029  0.59513832  1
  O2-  O251  1  0.95268226  0.91221096  0.94226894  1
  O2-  O252  1  0.33516167  0.28998847  0.27285990  1
  O2-  O253  1  0.32984200  0.29174381  0.59629826  1
  O2-  O254  1  0.32782878  0.30022246  0.93496089  1
  O2-  O255  1  0.33231357  0.79543662  0.26266487  1
  O2-  O256  1  0.33516463  0.78947090  0.59759162  1
  O2-  O257  1  0.33767747  0.78577130  0.93820854  1
  O2-  O258  1  0.83158202  0.29002673  0.26414627  1
  O2-  O259  1  0.83530599  0.28709146  0.59793445  1
  O2-  O260  1  0.82849262  0.29967380  0.93252856  1
  O2-  O261  1  0.83231588  0.80540873  0.27055935  1
  O2-  O262  1  0.82379503  0.80340201  0.60529813  1
  O2-  O263  1  0.83701169  0.78988606  0.93903696  1
  O2-  O264  1  0.41777364  0.03953842  0.06750744  1
  O2-  O265  1  0.41616051  0.04084487  0.40489362  1
  O2-  O266  1  0.41319883  0.04012546  0.72893912  1
  O2-  O267  1  0.41654786  0.54806432  0.06159311  1
  O2-  O268  1  0.41140032  0.54687881  0.39606636  1
  O2-  O269  1  0.41146075  0.55012678  0.72982103  1
  O2-  O270  1  0.91204362  0.03998759  0.07033665  1
  O2-  O271  1  0.92046479  0.05427332  0.39338962  1
  O2-  O272  1  0.91537777  0.04225114  0.72588338  1
  O2-  O273  1  0.92127458  0.54235861  0.06680014  1
  O2-  O274  1  0.92186169  0.53575574  0.39911999  1
  O2-  O275  1  0.92312846  0.54245494  0.73427023  1
  O2-  O276  1  0.29374251  0.17176059  0.06578436  1
  O2-  O277  1  0.28654156  0.16597080  0.40721884  1
  O2-  O278  1  0.29593962  0.16367563  0.72913491  1
  O2-  O279  1  0.29109312  0.66021322  0.06654316  1
  O2-  O280  1  0.29116991  0.66583562  0.39184305  1
  O2-  O281  1  0.28766010  0.66379655  0.72876073  1
  O2-  O282  1  0.78920779  0.17026454  0.06557484  1
  O2-  O283  1  0.79287215  0.16525924  0.39599776  1
  O2-  O284  1  0.79285715  0.15961817  0.72591878  1
  O2-  O285  1  0.78965784  0.66524496  0.07037177  1
  O2-  O286  1  0.80563956  0.67225140  0.39739927  1
  O2-  O287  1  0.79464011  0.67001892  0.73585608  1
