# generated using pymatgen
data_Ca2Al2SiO7
_symmetry_space_group_name_H-M   'P 1'
_cell_length_a   15.46352044
_cell_length_b   15.46193622
_cell_length_c   15.28677926
_cell_angle_alpha   89.99663185
_cell_angle_beta   89.99315779
_cell_angle_gamma   89.99330012
_symmetry_Int_Tables_number   1
_chemical_formula_structural   Ca2Al2SiO7
_chemical_formula_sum   'Ca48 Al48 Si24 O168'
_cell_volume   3655.00720808
_cell_formula_units_Z   24
loop_
 _symmetry_equiv_pos_site_id
 _symmetry_equiv_pos_as_xyz
  1  'x, y, z'
loop_
 _atom_type_symbol
 _atom_type_oxidation_number
  Ca2+  2.0
  Al0+  0.0
  Si0+  0.0
  O2-  -2.0
loop_
 _atom_site_type_symbol
 _atom_site_label
 _atom_site_symmetry_multiplicity
 _atom_site_fract_x
 _atom_site_fract_y
 _atom_site_fract_z
 _atom_site_occupancy
  Ca2+  Ca0  1  0.15909482  0.07199819  0.16623799  1
  Ca2+  Ca1  1  0.17021863  0.07793819  0.50351672  1
  Ca2+  Ca2  1  0.17160802  0.08246336  0.84237629  1
  Ca2+  Ca3  1  0.17031740  0.59010800  0.16314260  1
  Ca2+  Ca4  1  0.16831851  0.57951254  0.50325172  1
  Ca2+  Ca5  1  0.17070401  0.58258902  0.84661679  1
  Ca2+  Ca6  1  0.67259211  0.08334788  0.17269153  1
  Ca2+  Ca7  1  0.67201812  0.07706950  0.50229024  1
  Ca2+  Ca8  1  0.67541912  0.08523474  0.83833731  1
  Ca2+  Ca9  1  0.67075118  0.58367815  0.16801873  1
  Ca2+  Ca10  1  0.67094497  0.57926731  0.50853234  1
  Ca2+  Ca11  1  0.67624090  0.57598254  0.83609843  1
  Ca2+  Ca12  1  0.07249933  0.32305867  0.15903961  1
  Ca2+  Ca13  1  0.07310285  0.32797649  0.49289477  1
  Ca2+  Ca14  1  0.07795392  0.32951787  0.83688151  1
  Ca2+  Ca15  1  0.07577136  0.83729863  0.15696215  1
  Ca2+  Ca16  1  0.07528833  0.83412443  0.49212337  1
  Ca2+  Ca17  1  0.07842301  0.83446417  0.84015774  1
  Ca2+  Ca18  1  0.58295026  0.31837012  0.15889120  1
  Ca2+  Ca19  1  0.58310683  0.32878853  0.49630864  1
  Ca2+  Ca20  1  0.57779920  0.33167067  0.83250356  1
  Ca2+  Ca21  1  0.58350654  0.83052904  0.16286056  1
  Ca2+  Ca22  1  0.59277373  0.83143690  0.49259353  1
  Ca2+  Ca23  1  0.58080907  0.83772689  0.83072813  1
  Ca2+  Ca24  1  0.33907267  0.41904276  0.16356551  1
  Ca2+  Ca25  1  0.33418013  0.41499081  0.50732683  1
  Ca2+  Ca26  1  0.33930114  0.41947571  0.84282463  1
  Ca2+  Ca27  1  0.32096247  0.90734071  0.16714520  1
  Ca2+  Ca28  1  0.32732757  0.92352780  0.50365052  1
  Ca2+  Ca29  1  0.32992157  0.92116635  0.84238669  1
  Ca2+  Ca30  1  0.84538507  0.42045956  0.16695842  1
  Ca2+  Ca31  1  0.82624209  0.42105057  0.50885173  1
  Ca2+  Ca32  1  0.83518651  0.42483774  0.84110823  1
  Ca2+  Ca33  1  0.83721299  0.92743199  0.17347420  1
  Ca2+  Ca34  1  0.82552620  0.92390292  0.50236754  1
  Ca2+  Ca35  1  0.82883191  0.92385928  0.83928128  1
  Ca2+  Ca36  1  0.43122447  0.16618588  0.15772019  1
  Ca2+  Ca37  1  0.42172325  0.16736006  0.49781960  1
  Ca2+  Ca38  1  0.41936418  0.17298807  0.82716698  1
  Ca2+  Ca39  1  0.42267780  0.67040541  0.15882181  1
  Ca2+  Ca40  1  0.42919042  0.67017748  0.49246062  1
  Ca2+  Ca41  1  0.41170531  0.67276388  0.83555192  1
  Ca2+  Ca42  1  0.91183187  0.17246516  0.15664586  1
  Ca2+  Ca43  1  0.90446167  0.17011814  0.49431673  1
  Ca2+  Ca44  1  0.91824556  0.15918160  0.83624742  1
  Ca2+  Ca45  1  0.91911251  0.68212715  0.15592007  1
  Ca2+  Ca46  1  0.91040954  0.67437582  0.49358883  1
  Ca2+  Ca47  1  0.91332576  0.66690608  0.83421129  1
  Al0+  Al48  1  -0.00075181  -0.00043902  -0.00119559  1
  Al0+  Al49  1  0.00150482  0.00119310  0.34109077  1
  Al0+  Al50  1  0.00035656  -0.00273100  0.66679957  1
  Al0+  Al51  1  0.00180539  0.49978690  -0.00013952  1
  Al0+  Al52  1  0.00259537  0.49984893  0.33226780  1
  Al0+  Al53  1  0.00218062  0.49925119  0.66763679  1
  Al0+  Al54  1  0.50094512  -0.00118271  -0.00792462  1
  Al0+  Al55  1  0.49830174  -0.00021529  0.33258750  1
  Al0+  Al56  1  0.49693727  0.00090171  0.67114008  1
  Al0+  Al57  1  0.50136196  0.49988853  0.00280225  1
  Al0+  Al58  1  0.50055552  0.50245550  0.33015235  1
  Al0+  Al59  1  0.49926476  0.50144669  0.66573104  1
  Al0+  Al60  1  0.25024832  0.25056764  -0.00273513  1
  Al0+  Al61  1  0.24869826  0.25263673  0.33380744  1
  Al0+  Al62  1  0.24918122  0.24976712  0.66435296  1
  Al0+  Al63  1  0.25102123  0.74927655  0.00066115  1
  Al0+  Al64  1  0.25109373  0.74880369  0.34231601  1
  Al0+  Al65  1  0.24920310  0.74900086  0.66211384  1
  Al0+  Al66  1  0.74882938  0.25082362  -0.00551366  1
  Al0+  Al67  1  0.74798028  0.25331599  0.32839333  1
  Al0+  Al68  1  0.74844939  0.24928874  0.67297467  1
  Al0+  Al69  1  0.74958728  0.74825942  -0.00074745  1
  Al0+  Al70  1  0.75135415  0.75030736  0.32587756  1
  Al0+  Al71  1  0.75016551  0.75006145  0.67308628  1
  Al0+  Al72  1  0.92817386  0.32092267  0.32155522  1
  Al0+  Al73  1  0.31797261  0.07151441  0.68029929  1
  Al0+  Al74  1  0.07029306  0.17671798  0.98571443  1
  Al0+  Al75  1  0.82298322  0.56995046  0.68095029  1
  Al0+  Al76  1  0.82008923  0.07471014  0.34691461  1
  Al0+  Al77  1  0.32161280  0.57015525  0.01431559  1
  Al0+  Al78  1  0.92868029  0.32157474  0.98322728  1
  Al0+  Al79  1  0.57210841  0.17673420  0.98162791  1
  Al0+  Al80  1  0.82214787  0.07112972  0.68308703  1
  Al0+  Al81  1  0.67772939  0.92811952  0.68202901  1
  Al0+  Al82  1  0.93110618  0.82211046  0.32092124  1
  Al0+  Al83  1  0.67805766  0.92771212  0.34517986  1
  Al0+  Al84  1  0.82308604  0.57051511  0.01676991  1
  Al0+  Al85  1  0.67592886  0.42855162  0.68155119  1
  Al0+  Al86  1  0.42942544  0.81907122  0.98702532  1
  Al0+  Al87  1  0.43016624  0.32106967  0.98637219  1
  Al0+  Al88  1  0.81898578  0.06991141  0.01425703  1
  Al0+  Al89  1  0.07119223  0.68041157  0.98640550  1
  Al0+  Al90  1  0.57237295  0.67940226  0.31919534  1
  Al0+  Al91  1  0.17889339  0.92855602  0.34854529  1
  Al0+  Al92  1  0.56910013  0.17859303  0.32129151  1
  Al0+  Al93  1  0.42948081  0.32160328  0.65151914  1
  Al0+  Al94  1  0.92658692  0.82207041  0.98325232  1
  Al0+  Al95  1  0.18138248  0.93081184  0.01224199  1
  Si0+  Si96  1  0.07428480  0.67788079  0.31829585  1
  Si0+  Si97  1  0.07221909  0.67685184  0.64980262  1
  Si0+  Si98  1  0.17868407  0.92545112  0.68447980  1
  Si0+  Si99  1  0.32410266  0.07378688  0.01642069  1
  Si0+  Si100  1  0.42671640  0.82255280  0.64989199  1
  Si0+  Si101  1  0.92880665  0.81912135  0.65051262  1
  Si0+  Si102  1  0.31985482  0.57103324  0.68046589  1
  Si0+  Si103  1  0.67902139  0.42913428  0.01918163  1
  Si0+  Si104  1  0.42615255  0.32340735  0.31695717  1
  Si0+  Si105  1  0.82219807  0.57057944  0.34587997  1
  Si0+  Si106  1  0.07370149  0.17870473  0.31894438  1
  Si0+  Si107  1  0.67745956  0.43120653  0.34688966  1
  Si0+  Si108  1  0.67585715  0.92687157  0.01684282  1
  Si0+  Si109  1  0.42621838  0.82112850  0.31878947  1
  Si0+  Si110  1  0.57023677  0.68206472  0.65296565  1
  Si0+  Si111  1  0.92922855  0.32150441  0.65217644  1
  Si0+  Si112  1  0.32178741  0.07465168  0.34843836  1
  Si0+  Si113  1  0.57200434  0.17683517  0.64836292  1
  Si0+  Si114  1  0.07038836  0.17794642  0.65060632  1
  Si0+  Si115  1  0.32264554  0.56980753  0.35106591  1
  Si0+  Si116  1  0.17945556  0.42873355  0.68164901  1
  Si0+  Si117  1  0.57249300  0.67680117  0.98091301  1
  Si0+  Si118  1  0.17815022  0.42596693  0.01920957  1
  Si0+  Si119  1  0.17926176  0.42922838  0.35005712  1
  O2-  O120  1  0.25505624  0.00595106  0.06138016  1
  O2-  O121  1  0.25313233  0.00527912  0.39280250  1
  O2-  O122  1  0.24583208  -0.00478551  0.72781482  1
  O2-  O123  1  0.24820623  0.49454549  0.06233244  1
  O2-  O124  1  0.25233006  0.49806028  0.39352000  1
  O2-  O125  1  0.25071796  0.49930975  0.72315098  1
  O2-  O126  1  0.74465987  -0.00511707  0.06105752  1
  O2-  O127  1  0.74895878  0.00069749  0.39555999  1
  O2-  O128  1  0.74742041  0.00162876  0.73204427  1
  O2-  O129  1  0.75059293  0.49432039  0.06495631  1
  O2-  O130  1  0.75043464  0.50080171  0.38903418  1
  O2-  O131  1  0.75391770  0.49486335  0.73015888  1
  O2-  O132  1  -0.00130538  0.24133746  0.27720573  1
  O2-  O133  1  -0.00520903  0.24518579  0.60894840  1
  O2-  O134  1  -0.00151975  0.24756256  0.93307745  1
  O2-  O135  1  0.00866551  0.74914805  0.27584789  1
  O2-  O136  1  -0.00058390  0.74626917  0.60833491  1
  O2-  O137  1  -0.00381208  0.74687099  0.93341335  1
  O2-  O138  1  0.49163839  0.25156886  0.27521854  1
  O2-  O139  1  0.50496581  0.24821956  0.60410674  1
  O2-  O140  1  0.49691652  0.24683210  0.93360640  1
  O2-  O141  1  0.49927673  0.75699210  0.27528546  1
  O2-  O142  1  0.50260044  0.75605832  0.60869827  1
  O2-  O143  1  0.50573374  0.74753064  0.93718308  1
  O2-  O144  1  0.06973687  0.17774679  0.09967737  1
  O2-  O145  1  0.07920561  0.18376617  0.42490540  1
  O2-  O146  1  0.07315024  0.18006424  0.75495300  1
  O2-  O147  1  0.07201878  0.68416863  0.10034320  1
  O2-  O148  1  0.07254681  0.67535420  0.42463882  1
  O2-  O149  1  0.07757230  0.67616460  0.75373688  1
  O2-  O150  1  0.57110728  0.17720039  0.09588145  1
  O2-  O151  1  0.56811958  0.18161788  0.43463151  1
  O2-  O152  1  0.56893554  0.17623324  0.75323955  1
  O2-  O153  1  0.57099240  0.67683066  0.08687657  1
  O2-  O154  1  0.57003945  0.67565042  0.43294220  1
  O2-  O155  1  0.56678855  0.68077799  0.75749228  1
  O2-  O156  1  0.17860366  0.42874568  0.24594085  1
  O2-  O157  1  0.17850103  0.43118249  0.57586399  1
  O2-  O158  1  0.17799110  0.42709786  0.91323623  1
  O2-  O159  1  0.18034671  0.92618711  0.23587095  1
  O2-  O160  1  0.18004510  0.92550928  0.57837825  1
  O2-  O161  1  0.18434856  0.93080281  0.89905033  1
  O2-  O162  1  0.67478376  0.43275183  0.24246388  1
  O2-  O163  1  0.67719758  0.43205898  0.56669868  1
  O2-  O164  1  0.67668761  0.43371579  0.91372970  1
  O2-  O165  1  0.67780213  0.92756352  0.23224920  1
  O2-  O166  1  0.68109262  0.92553145  0.56819424  1
  O2-  O167  1  0.67619392  0.92768238  0.91117987  1
  O2-  O168  1  0.43344827  0.32067544  0.10045751  1
  O2-  O169  1  0.42628195  0.32505863  0.42288764  1
  O2-  O170  1  0.42800242  0.32220396  0.76362079  1
  O2-  O171  1  0.42927948  0.81605487  0.10040854  1
  O2-  O172  1  0.42413748  0.81727181  0.42484851  1
  O2-  O173  1  0.42156539  0.81789971  0.75441925  1
  O2-  O174  1  0.93217766  0.32088780  0.09717837  1
  O2-  O175  1  0.93040317  0.32398006  0.43544865  1
  O2-  O176  1  0.93499545  0.32702715  0.75609590  1
  O2-  O177  1  0.92975916  0.82362361  0.09707637  1
  O2-  O178  1  0.93039446  0.81739888  0.43483635  1
  O2-  O179  1  0.93070871  0.81955869  0.75490913  1
  O2-  O180  1  0.32133186  0.07665282  0.24349668  1
  O2-  O181  1  0.31585538  0.06997173  0.56647318  1
  O2-  O182  1  0.32147901  0.07237196  0.91065031  1
  O2-  O183  1  0.32257567  0.57105158  0.24660648  1
  O2-  O184  1  0.31813431  0.57086582  0.57484666  1
  O2-  O185  1  0.31971671  0.56947421  0.90064245  1
  O2-  O186  1  0.81963045  0.07513868  0.23372150  1
  O2-  O187  1  0.82148331  0.07064861  0.56919600  1
  O2-  O188  1  0.81876023  0.06695346  0.90136854  1
  O2-  O189  1  0.82305047  0.56878245  0.24137338  1
  O2-  O190  1  0.82138199  0.57058543  0.56612809  1
  O2-  O191  1  0.82018627  0.56914688  0.90370207  1
  O2-  O192  1  0.05553893  0.08208463  0.27870580  1
  O2-  O193  1  0.04816089  0.08355410  0.60467319  1
  O2-  O194  1  0.04317339  0.07994612  0.92998107  1
  O2-  O195  1  0.04954513  0.58471944  0.27206938  1
  O2-  O196  1  0.04750456  0.58380401  0.60160630  1
  O2-  O197  1  0.04930379  0.58006443  0.93531940  1
  O2-  O198  1  0.53999004  0.08191902  0.26637710  1
  O2-  O199  1  0.54161593  0.08371185  0.60282811  1
  O2-  O200  1  0.54728114  0.07856125  0.92783719  1
  O2-  O201  1  0.53713261  0.58519557  0.26300872  1
  O2-  O202  1  0.53838731  0.59208134  0.60322138  1
  O2-  O203  1  0.54306283  0.58446535  0.93589108  1
  O2-  O204  1  0.16416533  0.21082138  0.27010239  1
  O2-  O205  1  0.15926083  0.21119591  0.60004834  1
  O2-  O206  1  0.16876868  0.20606013  0.93283246  1
  O2-  O207  1  0.17059804  0.70028101  0.27731830  1
  O2-  O208  1  0.16282906  0.70613273  0.59842834  1
  O2-  O209  1  0.16840963  0.71061483  0.93206050  1
  O2-  O210  1  0.66251607  0.21391997  0.26484666  1
  O2-  O211  1  0.66707296  0.20109761  0.60420132  1
  O2-  O212  1  0.66732318  0.21004914  0.92710172  1
  O2-  O213  1  0.66784028  0.70583685  0.26227050  1
  O2-  O214  1  0.66373307  0.70664050  0.60650142  1
  O2-  O215  1  0.66629314  0.69950218  0.93526818  1
  O2-  O216  1  0.08607007  0.45366323  0.06648056  1
  O2-  O217  1  0.08912775  0.46061383  0.40053511  1
  O2-  O218  1  0.08905629  0.45730582  0.73012105  1
  O2-  O219  1  0.08493105  0.96141223  0.06618478  1
  O2-  O220  1  0.08485687  0.95905013  0.40796146  1
  O2-  O221  1  0.08428543  0.94874254  0.72782951  1
  O2-  O222  1  0.58751165  0.45875070  0.06760943  1
  O2-  O223  1  0.58603486  0.46061361  0.39535303  1
  O2-  O224  1  0.58000696  0.46432415  0.73462942  1
  O2-  O225  1  0.58083145  0.95134397  0.06080087  1
  O2-  O226  1  0.57751543  0.95179002  0.39786488  1
  O2-  O227  1  0.57665501  0.95021753  0.73152113  1
  O2-  O228  1  0.20409668  0.33259784  0.06601341  1
  O2-  O229  1  0.20499170  0.33753518  0.40008559  1
  O2-  O230  1  0.20563150  0.33664848  0.72708989  1
  O2-  O231  1  0.21446353  0.83533375  0.06691754  1
  O2-  O232  1  0.21022195  0.83276737  0.40623334  1
  O2-  O233  1  0.20632967  0.83128565  0.72756318  1
  O2-  O234  1  0.70137862  0.33369245  0.06154986  1
  O2-  O235  1  0.70463464  0.33986829  0.39479835  1
  O2-  O236  1  0.69534519  0.32857830  0.73221446  1
  O2-  O237  1  0.69802248  0.83124712  0.05981115  1
  O2-  O238  1  0.70889081  0.82830163  0.39692050  1
  O2-  O239  1  0.70593605  0.83097888  0.73703170  1
  O2-  O240  1  0.45378985  0.41643764  0.27161186  1
  O2-  O241  1  0.45747820  0.42000138  0.59731496  1
  O2-  O242  1  0.46109578  0.41960956  0.93445437  1
  O2-  O243  1  0.44262795  0.91659970  0.27471102  1
  O2-  O244  1  0.44845444  0.91660481  0.60459839  1
  O2-  O245  1  0.45560797  0.91499925  0.93005396  1
  O2-  O246  1  0.96600272  0.41559654  0.26771236  1
  O2-  O247  1  0.96252877  0.41152053  0.60227533  1
  O2-  O248  1  0.96197419  0.41864047  0.93085290  1
  O2-  O249  1  0.96144827  0.92060389  0.27151108  1
  O2-  O250  1  0.95915354  0.90998882  0.60171847  1
  O2-  O251  1  0.96075955  0.91725108  0.92889591  1
  O2-  O252  1  0.33064442  0.30306413  0.27283357  1
  O2-  O253  1  0.33203379  0.29041194  0.59686751  1
  O2-  O254  1  0.32954122  0.30107132  0.93512483  1
  O2-  O255  1  0.33434718  0.78744527  0.27373673  1
  O2-  O256  1  0.33729124  0.78923818  0.59932540  1
  O2-  O257  1  0.33559308  0.78405041  0.93082820  1
  O2-  O258  1  0.83109359  0.29926286  0.26608119  1
  O2-  O259  1  0.83440259  0.29846768  0.60811834  1
  O2-  O260  1  0.82956551  0.29939693  0.93149217  1
  O2-  O261  1  0.83748293  0.78979790  0.26390521  1
  O2-  O262  1  0.83647373  0.79001738  0.60449235  1
  O2-  O263  1  0.82772972  0.79396744  0.93149282  1
  O2-  O264  1  0.41832914  0.04554618  0.05922033  1
  O2-  O265  1  0.41412074  0.04800766  0.39674957  1
  O2-  O266  1  0.41406926  0.04391991  0.73493877  1
  O2-  O267  1  0.41800411  0.54026875  0.07002573  1
  O2-  O268  1  0.41468409  0.54169121  0.39882571  1
  O2-  O269  1  0.41183551  0.54633652  0.72706093  1
  O2-  O270  1  0.91638833  0.04038396  0.06688418  1
  O2-  O271  1  0.91931264  0.05081694  0.40090118  1
  O2-  O272  1  0.92115062  0.03985146  0.73307730  1
  O2-  O273  1  0.92077884  0.54145226  0.06963779  1
  O2-  O274  1  0.91458085  0.54364410  0.39374571  1
  O2-  O275  1  0.92296281  0.54458104  0.73178654  1
  O2-  O276  1  0.30114334  0.16834329  0.06134200  1
  O2-  O277  1  0.29536688  0.16844178  0.39575868  1
  O2-  O278  1  0.28516857  0.16766339  0.73317812  1
  O2-  O279  1  0.28880852  0.66491985  0.07022728  1
  O2-  O280  1  0.29497825  0.65973142  0.40295830  1
  O2-  O281  1  0.29022257  0.66314064  0.72595068  1
  O2-  O282  1  0.78925178  0.16918060  0.06359648  1
  O2-  O283  1  0.78846217  0.17361071  0.39882144  1
  O2-  O284  1  0.79968011  0.17081993  0.73496136  1
  O2-  O285  1  0.78987342  0.66740086  0.06938896  1
  O2-  O286  1  0.79353553  0.66245639  0.39211213  1
  O2-  O287  1  0.79267813  0.66622909  0.73486743  1
