# generated using pymatgen
data_Ca2Al2SiO7
_symmetry_space_group_name_H-M   'P 1'
_cell_length_a   15.45489970
_cell_length_b   15.45499094
_cell_length_c   15.28190968
_cell_angle_alpha   89.99286238
_cell_angle_beta   90.00217654
_cell_angle_gamma   90.00335941
_symmetry_Int_Tables_number   1
_chemical_formula_structural   Ca2Al2SiO7
_chemical_formula_sum   'Ca48 Al48 Si24 O168'
_cell_volume   3650.16561612
_cell_formula_units_Z   24
loop_
 _symmetry_equiv_pos_site_id
 _symmetry_equiv_pos_as_xyz
  1  'x, y, z'
loop_
 _atom_type_symbol
 _atom_type_oxidation_number
  Ca2+  2.0
  Al0+  0.0
  Si0+  0.0
  O2-  -2.0
loop_
 _atom_site_type_symbol
 _atom_site_label
 _atom_site_symmetry_multiplicity
 _atom_site_fract_x
 _atom_site_fract_y
 _atom_site_fract_z
 _atom_site_occupancy
  Ca2+  Ca0  1  0.16326974  0.07763742  0.17370975  1
  Ca2+  Ca1  1  0.16935342  0.06873164  0.50850332  1
  Ca2+  Ca2  1  0.16897753  0.07957688  0.83628726  1
  Ca2+  Ca3  1  0.17117617  0.58218811  0.17279968  1
  Ca2+  Ca4  1  0.17244447  0.58429651  0.50008219  1
  Ca2+  Ca5  1  0.17398487  0.57970982  0.84071805  1
  Ca2+  Ca6  1  0.66225574  0.08368637  0.17010956  1
  Ca2+  Ca7  1  0.66889238  0.08720274  0.50694677  1
  Ca2+  Ca8  1  0.67073800  0.09328491  0.83330659  1
  Ca2+  Ca9  1  0.67238039  0.58532704  0.17822127  1
  Ca2+  Ca10  1  0.67800138  0.58310426  0.50660841  1
  Ca2+  Ca11  1  0.67175158  0.57847476  0.83264454  1
  Ca2+  Ca12  1  0.08149268  0.34114995  0.16306793  1
  Ca2+  Ca13  1  0.07278889  0.33901260  0.49388292  1
  Ca2+  Ca14  1  0.08293189  0.33151570  0.83035221  1
  Ca2+  Ca15  1  0.08785207  0.82138386  0.16861517  1
  Ca2+  Ca16  1  0.08118750  0.83149136  0.49182384  1
  Ca2+  Ca17  1  0.09014753  0.82549901  0.82971813  1
  Ca2+  Ca18  1  0.58255345  0.32308782  0.16381949  1
  Ca2+  Ca19  1  0.59055722  0.32512540  0.49812591  1
  Ca2+  Ca20  1  0.58680630  0.32631870  0.82519272  1
  Ca2+  Ca21  1  0.57701596  0.82242623  0.16328098  1
  Ca2+  Ca22  1  0.57476808  0.82704395  0.49539674  1
  Ca2+  Ca23  1  0.56864682  0.83145276  0.82765083  1
  Ca2+  Ca24  1  0.31987635  0.42449144  0.17429523  1
  Ca2+  Ca25  1  0.33053453  0.42701428  0.50268549  1
  Ca2+  Ca26  1  0.33136055  0.42944726  0.84313877  1
  Ca2+  Ca27  1  0.32927058  0.91510388  0.17047685  1
  Ca2+  Ca28  1  0.32236368  0.91463509  0.50826921  1
  Ca2+  Ca29  1  0.33530407  0.91608414  0.83077125  1
  Ca2+  Ca30  1  0.83469069  0.42207377  0.17474919  1
  Ca2+  Ca31  1  0.83513480  0.42473115  0.50661964  1
  Ca2+  Ca32  1  0.83140864  0.41327345  0.82621776  1
  Ca2+  Ca33  1  0.83554874  0.91759767  0.17407935  1
  Ca2+  Ca34  1  0.83295953  0.92123090  0.50639843  1
  Ca2+  Ca35  1  0.83222780  0.92482634  0.83436202  1
  Ca2+  Ca36  1  0.42586234  0.16600806  0.16119804  1
  Ca2+  Ca37  1  0.42626145  0.16028922  0.49824833  1
  Ca2+  Ca38  1  0.42694148  0.16331146  0.82381818  1
  Ca2+  Ca39  1  0.41116863  0.66698877  0.16429708  1
  Ca2+  Ca40  1  0.41578152  0.66493629  0.49650260  1
  Ca2+  Ca41  1  0.40296811  0.67480505  0.82870013  1
  Ca2+  Ca42  1  0.92582232  0.17562203  0.16336184  1
  Ca2+  Ca43  1  0.90942175  0.17925221  0.49734497  1
  Ca2+  Ca44  1  0.92276092  0.17069875  0.82494923  1
  Ca2+  Ca45  1  0.92967454  0.66271358  0.16860258  1
  Ca2+  Ca46  1  0.92029978  0.66820264  0.48729920  1
  Ca2+  Ca47  1  0.92476474  0.66065781  0.82922225  1
  Al0+  Al48  1  -0.00089102  0.00261402  -0.00210393  1
  Al0+  Al49  1  -0.00145946  0.00219163  0.33537356  1
  Al0+  Al50  1  -0.00024080  -0.00239373  0.67600189  1
  Al0+  Al51  1  -0.00197918  0.50125006  -0.00332562  1
  Al0+  Al52  1  -0.00090925  0.50083570  0.33205361  1
  Al0+  Al53  1  0.00090567  0.49951874  0.66611897  1
  Al0+  Al54  1  0.50144274  -0.00149010  -0.00689372  1
  Al0+  Al55  1  0.50142192  -0.00062111  0.32869645  1
  Al0+  Al56  1  0.49824778  -0.00256340  0.65892201  1
  Al0+  Al57  1  0.50274296  0.50011282  0.00576081  1
  Al0+  Al58  1  0.49991408  0.49738139  0.33210069  1
  Al0+  Al59  1  0.50099765  0.49936874  0.67567737  1
  Al0+  Al60  1  0.25020442  0.25018022  0.00012749  1
  Al0+  Al61  1  0.25126950  0.25010378  0.33947786  1
  Al0+  Al62  1  0.25145577  0.24781550  0.66745663  1
  Al0+  Al63  1  0.24876184  0.75137622  -0.00391442  1
  Al0+  Al64  1  0.24927677  0.75189054  0.33759669  1
  Al0+  Al65  1  0.24870710  0.74913560  0.66818538  1
  Al0+  Al66  1  0.75139424  0.25021401  -0.00096724  1
  Al0+  Al67  1  0.75098603  0.24950012  0.32176876  1
  Al0+  Al68  1  0.75151727  0.24996329  0.66634814  1
  Al0+  Al69  1  0.74850729  0.75207072  -0.00043654  1
  Al0+  Al70  1  0.74731274  0.75240216  0.33058466  1
  Al0+  Al71  1  0.75076525  0.75013971  0.67360317  1
  Al0+  Al72  1  0.92713235  0.82471235  0.32030789  1
  Al0+  Al73  1  0.32229856  0.57143344  0.34944798  1
  Al0+  Al74  1  0.68058667  0.42861885  0.68034354  1
  Al0+  Al75  1  0.17860517  0.93143843  0.34570882  1
  Al0+  Al76  1  0.81860224  0.57198919  0.34468962  1
  Al0+  Al77  1  0.56974516  0.17940159  0.31800833  1
  Al0+  Al78  1  0.57018124  0.67679816  0.32253831  1
  Al0+  Al79  1  0.17675195  0.42782362  0.35048033  1
  Al0+  Al80  1  0.42959753  0.81775436  0.98623687  1
  Al0+  Al81  1  0.56995653  0.18034823  0.98375016  1
  Al0+  Al82  1  0.82414325  0.57327829  0.68248123  1
  Al0+  Al83  1  0.32284781  0.07059253  0.68136463  1
  Al0+  Al84  1  0.93244046  0.31871249  0.65218826  1
  Al0+  Al85  1  0.32039977  0.56899673  0.68116241  1
  Al0+  Al86  1  0.32080050  0.57403508  0.01686790  1
  Al0+  Al87  1  0.42825728  0.81763111  0.65001651  1
  Al0+  Al88  1  0.56964465  0.18084875  0.65166081  1
  Al0+  Al89  1  0.06866429  0.68038820  0.98492653  1
  Al0+  Al90  1  0.93091420  0.32165943  0.31866423  1
  Al0+  Al91  1  0.17871712  0.92826647  0.68505185  1
  Al0+  Al92  1  0.07266813  0.17848663  0.98626236  1
  Al0+  Al93  1  0.07156591  0.68026758  0.31975956  1
  Al0+  Al94  1  0.81879701  0.07075474  0.67970690  1
  Al0+  Al95  1  0.17770116  0.42813547  0.01439881  1
  Si0+  Si96  1  0.57418585  0.67620270  0.65226203  1
  Si0+  Si97  1  0.42650008  0.32522463  0.65079249  1
  Si0+  Si98  1  0.67841904  0.93058166  0.01558426  1
  Si0+  Si99  1  0.67730190  0.92968564  0.34785294  1
  Si0+  Si100  1  0.81899304  0.07197500  0.34626429  1
  Si0+  Si101  1  0.82097194  0.07166729  0.01740946  1
  Si0+  Si102  1  0.92562276  0.82366018  0.98201871  1
  Si0+  Si103  1  0.32379668  0.07016921  0.01403020  1
  Si0+  Si104  1  0.67894797  0.42498427  0.34734653  1
  Si0+  Si105  1  0.92870351  0.32239833  0.98130627  1
  Si0+  Si106  1  0.57488473  0.67571832  0.98230728  1
  Si0+  Si107  1  0.17795384  0.93114881  0.01584691  1
  Si0+  Si108  1  0.07355646  0.17831444  0.32052020  1
  Si0+  Si109  1  0.32563451  0.07188497  0.34853854  1
  Si0+  Si110  1  0.42803992  0.82068824  0.31684800  1
  Si0+  Si111  1  0.42533343  0.32234029  0.31594373  1
  Si0+  Si112  1  0.42875056  0.32299171  0.98432296  1
  Si0+  Si113  1  0.92725034  0.82201841  0.65420696  1
  Si0+  Si114  1  0.68079816  0.42687808  0.01750527  1
  Si0+  Si115  1  0.81926964  0.57273655  0.01598531  1
  Si0+  Si116  1  0.07383852  0.17429941  0.64985555  1
  Si0+  Si117  1  0.17720320  0.42648417  0.68262203  1
  Si0+  Si118  1  0.67637003  0.92679170  0.68323619  1
  Si0+  Si119  1  0.06897897  0.67984328  0.65106459  1
  O2-  O120  1  0.24916214  0.00304961  0.05739200  1
  O2-  O121  1  0.25345000  0.00641123  0.39126446  1
  O2-  O122  1  0.24899353  0.00252000  0.73453022  1
  O2-  O123  1  0.24935708  0.50038737  0.06466825  1
  O2-  O124  1  0.24943632  0.49992277  0.39913228  1
  O2-  O125  1  0.25026111  0.48989557  0.72714613  1
  O2-  O126  1  0.75054055  0.00001406  0.05958048  1
  O2-  O127  1  0.74946347  -0.00008628  0.38902972  1
  O2-  O128  1  0.74334345  -0.00283700  0.72806299  1
  O2-  O129  1  0.74763996  0.50230818  0.05851896  1
  O2-  O130  1  0.74336704  0.49760064  0.39112288  1
  O2-  O131  1  0.75052204  0.50240208  0.73175730  1
  O2-  O132  1  0.01143394  0.25186961  0.27397345  1
  O2-  O133  1  0.00813390  0.24508755  0.60459046  1
  O2-  O134  1  0.00106079  0.25613598  0.93977692  1
  O2-  O135  1  -0.00166603  0.75234839  0.26992629  1
  O2-  O136  1  -0.00570997  0.74837082  0.61119527  1
  O2-  O137  1  -0.00657252  0.75481597  0.93707579  1
  O2-  O138  1  0.49316585  0.25193669  0.27171951  1
  O2-  O139  1  0.49352662  0.25466761  0.60550029  1
  O2-  O140  1  0.49634027  0.25500610  0.93694238  1
  O2-  O141  1  0.49238313  0.74748518  0.27356045  1
  O2-  O142  1  0.50398024  0.74232441  0.60647814  1
  O2-  O143  1  0.49980810  0.73796126  0.93955878  1
  O2-  O144  1  0.06781226  0.17288341  0.09929664  1
  O2-  O145  1  0.06821184  0.17525882  0.42572761  1
  O2-  O146  1  0.07156432  0.17564152  0.75580909  1
  O2-  O147  1  0.06881191  0.68137834  0.09761297  1
  O2-  O148  1  0.07057453  0.68227138  0.43353691  1
  O2-  O149  1  0.06868773  0.68046049  0.75656607  1
  O2-  O150  1  0.56901087  0.17981694  0.09700950  1
  O2-  O151  1  0.57185970  0.17913815  0.43076671  1
  O2-  O152  1  0.57052072  0.18255864  0.76482777  1
  O2-  O153  1  0.58053500  0.68002606  0.08774145  1
  O2-  O154  1  0.57275243  0.68135639  0.43540286  1
  O2-  O155  1  0.57578135  0.67959212  0.75804070  1
  O2-  O156  1  0.17844679  0.42734003  0.23696274  1
  O2-  O157  1  0.17480712  0.43039876  0.57735236  1
  O2-  O158  1  0.17955209  0.42877539  0.90052106  1
  O2-  O159  1  0.18062392  0.93232012  0.23187590  1
  O2-  O160  1  0.17727436  0.92823499  0.57130722  1
  O2-  O161  1  0.17794322  0.93163957  0.91113233  1
  O2-  O162  1  0.68210742  0.42431464  0.24113896  1
  O2-  O163  1  0.68293277  0.42831292  0.56667700  1
  O2-  O164  1  0.68216525  0.42442949  0.91275965  1
  O2-  O165  1  0.67497876  0.93158676  0.24246007  1
  O2-  O166  1  0.67972450  0.92475081  0.57741634  1
  O2-  O167  1  0.67977558  0.93065854  0.91076054  1
  O2-  O168  1  0.43131924  0.31925186  0.08993650  1
  O2-  O169  1  0.42641033  0.32267442  0.42137781  1
  O2-  O170  1  0.42836593  0.32470569  0.75653513  1
  O2-  O171  1  0.43288578  0.82069891  0.09952083  1
  O2-  O172  1  0.43103535  0.82390352  0.42211720  1
  O2-  O173  1  0.42994490  0.81719364  0.76333317  1
  O2-  O174  1  0.92620787  0.32114273  0.08697747  1
  O2-  O175  1  0.92592281  0.31859506  0.43145670  1
  O2-  O176  1  0.93388387  0.31663190  0.76556048  1
  O2-  O177  1  0.92487649  0.82399357  0.08722527  1
  O2-  O178  1  0.92741084  0.82575280  0.43424294  1
  O2-  O179  1  0.92801100  0.82252282  0.75948401  1
  O2-  O180  1  0.32728775  0.06991177  0.24229938  1
  O2-  O181  1  0.32215281  0.06708975  0.56758283  1
  O2-  O182  1  0.32537713  0.06773091  0.90943524  1
  O2-  O183  1  0.32095138  0.57077477  0.23601875  1
  O2-  O184  1  0.31934653  0.56969466  0.56838199  1
  O2-  O185  1  0.31798698  0.57284763  0.90313623  1
  O2-  O186  1  0.81826458  0.07114605  0.24084120  1
  O2-  O187  1  0.81720858  0.06955430  0.56620805  1
  O2-  O188  1  0.81981036  0.07178338  0.91238865  1
  O2-  O189  1  0.81749013  0.56990027  0.23093770  1
  O2-  O190  1  0.82369043  0.57521563  0.56897995  1
  O2-  O191  1  0.81847402  0.57243164  0.91103496  1
  O2-  O192  1  0.04079852  0.08818848  0.27089124  1
  O2-  O193  1  0.04419162  0.07997214  0.60785935  1
  O2-  O194  1  0.03697146  0.08422333  0.92966565  1
  O2-  O195  1  0.04165795  0.58326054  0.26543130  1
  O2-  O196  1  0.04417343  0.58733999  0.60450849  1
  O2-  O197  1  0.03645935  0.58469996  0.92927317  1
  O2-  O198  1  0.54025077  0.08244399  0.26225696  1
  O2-  O199  1  0.54181175  0.08340314  0.59719057  1
  O2-  O200  1  0.54151905  0.08367004  0.92988726  1
  O2-  O201  1  0.54763307  0.57838762  0.26771038  1
  O2-  O202  1  0.55161755  0.58070417  0.61004807  1
  O2-  O203  1  0.55813310  0.57829143  0.94151910  1
  O2-  O204  1  0.17068832  0.19461287  0.27811739  1
  O2-  O205  1  0.16948540  0.19394377  0.60583627  1
  O2-  O206  1  0.17094944  0.20369002  0.93267578  1
  O2-  O207  1  0.16923261  0.71251098  0.26669881  1
  O2-  O208  1  0.15912102  0.71155923  0.60404910  1
  O2-  O209  1  0.16377698  0.71322706  0.92977499  1
  O2-  O210  1  0.66418816  0.21056500  0.25949475  1
  O2-  O211  1  0.66626557  0.21293485  0.59846142  1
  O2-  O212  1  0.66825074  0.21157784  0.93335801  1
  O2-  O213  1  0.66272344  0.71401246  0.26380952  1
  O2-  O214  1  0.66810603  0.70488450  0.60755737  1
  O2-  O215  1  0.66542435  0.70883892  0.93357596  1
  O2-  O216  1  0.07703611  0.45630287  0.06319960  1
  O2-  O217  1  0.07819682  0.45718144  0.40144529  1
  O2-  O218  1  0.08607688  0.45688209  0.73076009  1
  O2-  O219  1  0.08547434  0.95946221  0.06187424  1
  O2-  O220  1  0.08229668  0.96276631  0.40077501  1
  O2-  O221  1  0.08066981  0.95301325  0.74084029  1
  O2-  O222  1  0.58791460  0.44881478  0.06561958  1
  O2-  O223  1  0.58331104  0.44278731  0.39066424  1
  O2-  O224  1  0.58323830  0.45274756  0.73817429  1
  O2-  O225  1  0.58751216  0.96126901  0.06324652  1
  O2-  O226  1  0.58633503  0.95946598  0.39603277  1
  O2-  O227  1  0.58179797  0.95168012  0.72576811  1
  O2-  O228  1  0.20397477  0.32846409  0.06754884  1
  O2-  O229  1  0.20296249  0.32856290  0.40428686  1
  O2-  O230  1  0.19576341  0.32991652  0.72500741  1
  O2-  O231  1  0.20783699  0.83968961  0.06190144  1
  O2-  O232  1  0.20877885  0.83660795  0.40217405  1
  O2-  O233  1  0.21143497  0.83133118  0.73765561  1
  O2-  O234  1  0.71323104  0.33644210  0.06602130  1
  O2-  O235  1  0.71004838  0.33183801  0.39106421  1
  O2-  O236  1  0.71450447  0.33275429  0.73580322  1
  O2-  O237  1  0.70445869  0.83796286  0.06344920  1
  O2-  O238  1  0.70317562  0.83864997  0.39670250  1
  O2-  O239  1  0.70292098  0.83559327  0.73388855  1
  O2-  O240  1  0.45254412  0.41402255  0.26697790  1
  O2-  O241  1  0.45448818  0.41884176  0.60599623  1
  O2-  O242  1  0.45572826  0.41771045  0.94084051  1
  O2-  O243  1  0.45871973  0.91194686  0.26805225  1
  O2-  O244  1  0.45920640  0.91253005  0.59317171  1
  O2-  O245  1  0.46624659  0.91148709  0.93001714  1
  O2-  O246  1  0.95719935  0.41827430  0.26329413  1
  O2-  O247  1  0.96141068  0.41655930  0.59911947  1
  O2-  O248  1  0.94915635  0.41664089  0.93503203  1
  O2-  O249  1  0.95494360  0.92365148  0.26671123  1
  O2-  O250  1  0.95681364  0.91379951  0.60759039  1
  O2-  O251  1  0.95110551  0.91786433  0.93707318  1
  O2-  O252  1  0.33132058  0.29653494  0.27018266  1
  O2-  O253  1  0.33186738  0.30219678  0.60513146  1
  O2-  O254  1  0.33462979  0.29993908  0.93917287  1
  O2-  O255  1  0.33329102  0.79940610  0.27209339  1
  O2-  O256  1  0.33123141  0.78580735  0.59786517  1
  O2-  O257  1  0.33237428  0.79319918  0.93095116  1
  O2-  O258  1  0.83852550  0.28534229  0.25900213  1
  O2-  O259  1  0.83671609  0.28569855  0.59854259  1
  O2-  O260  1  0.83701238  0.29070483  0.93500984  1
  O2-  O261  1  0.82785269  0.80057900  0.26701958  1
  O2-  O262  1  0.83294676  0.79949075  0.60903126  1
  O2-  O263  1  0.83101452  0.79984227  0.93633439  1
  O2-  O264  1  0.41471956  0.03742828  0.06144548  1
  O2-  O265  1  0.41831640  0.04187831  0.39427046  1
  O2-  O266  1  0.42119750  0.03788755  0.73250591  1
  O2-  O267  1  0.42253493  0.55033953  0.06625617  1
  O2-  O268  1  0.42161286  0.54154189  0.40111343  1
  O2-  O269  1  0.41775992  0.54568429  0.73730821  1
  O2-  O270  1  0.91284743  0.04359458  0.06478995  1
  O2-  O271  1  0.91043612  0.04812812  0.39543916  1
  O2-  O272  1  0.91321286  0.03882465  0.73747021  1
  O2-  O273  1  0.91104850  0.54335744  0.06184345  1
  O2-  O274  1  0.91483412  0.54206732  0.39788869  1
  O2-  O275  1  0.92101458  0.54004278  0.73591436  1
  O2-  O276  1  0.30099484  0.16348148  0.06049250  1
  O2-  O277  1  0.30727203  0.16638427  0.39458485  1
  O2-  O278  1  0.30110023  0.17118136  0.73391704  1
  O2-  O279  1  0.29039446  0.67319559  0.06720945  1
  O2-  O280  1  0.29569654  0.67064306  0.40129427  1
  O2-  O281  1  0.28296229  0.66319640  0.73455671  1
  O2-  O282  1  0.79257141  0.16363735  0.06446282  1
  O2-  O283  1  0.78706671  0.16358375  0.39136486  1
  O2-  O284  1  0.78814053  0.16570225  0.73593357  1
  O2-  O285  1  0.79247859  0.66576432  0.06158212  1
  O2-  O286  1  0.78808657  0.66953247  0.39715966  1
  O2-  O287  1  0.79772879  0.67105685  0.73883249  1
