# generated using pymatgen
data_Ca2Al2SiO7
_symmetry_space_group_name_H-M   'P 1'
_cell_length_a   15.46150004
_cell_length_b   15.46158513
_cell_length_c   15.28541853
_cell_angle_alpha   90.00759406
_cell_angle_beta   90.00664887
_cell_angle_gamma   89.97363570
_symmetry_Int_Tables_number   1
_chemical_formula_structural   Ca2Al2SiO7
_chemical_formula_sum   'Ca48 Al48 Si24 O168'
_cell_volume   3654.12099752
_cell_formula_units_Z   24
loop_
 _symmetry_equiv_pos_site_id
 _symmetry_equiv_pos_as_xyz
  1  'x, y, z'
loop_
 _atom_type_symbol
 _atom_type_oxidation_number
  Ca2+  2.0
  Al0+  0.0
  Si0+  0.0
  O2-  -2.0
loop_
 _atom_site_type_symbol
 _atom_site_label
 _atom_site_symmetry_multiplicity
 _atom_site_fract_x
 _atom_site_fract_y
 _atom_site_fract_z
 _atom_site_occupancy
  Ca2+  Ca0  1  0.16868320  0.08447641  0.16930116  1
  Ca2+  Ca1  1  0.17424318  0.08200230  0.51171745  1
  Ca2+  Ca2  1  0.17292962  0.09173053  0.83713214  1
  Ca2+  Ca3  1  0.16385144  0.59017968  0.16905539  1
  Ca2+  Ca4  1  0.16902150  0.58755506  0.50784314  1
  Ca2+  Ca5  1  0.16899066  0.59008150  0.83350426  1
  Ca2+  Ca6  1  0.66994623  0.08236968  0.17720357  1
  Ca2+  Ca7  1  0.66565020  0.07870153  0.50075990  1
  Ca2+  Ca8  1  0.65676092  0.08096660  0.83276545  1
  Ca2+  Ca9  1  0.66394225  0.56887015  0.17184731  1
  Ca2+  Ca10  1  0.66357023  0.56939160  0.50686622  1
  Ca2+  Ca11  1  0.66008011  0.56885815  0.83785275  1
  Ca2+  Ca12  1  0.07372087  0.32834447  0.16318752  1
  Ca2+  Ca13  1  0.07785539  0.32691384  0.49660167  1
  Ca2+  Ca14  1  0.08564772  0.32249934  0.82837581  1
  Ca2+  Ca15  1  0.07059370  0.82700048  0.16238956  1
  Ca2+  Ca16  1  0.08028091  0.82167192  0.49292953  1
  Ca2+  Ca17  1  0.07745239  0.82476198  0.83060800  1
  Ca2+  Ca18  1  0.58883231  0.32431400  0.16107006  1
  Ca2+  Ca19  1  0.58851207  0.32533249  0.49636250  1
  Ca2+  Ca20  1  0.58217826  0.32689503  0.82670004  1
  Ca2+  Ca21  1  0.57427308  0.84233937  0.16459127  1
  Ca2+  Ca22  1  0.57481406  0.84722249  0.49773158  1
  Ca2+  Ca23  1  0.57364236  0.83721316  0.82536767  1
  Ca2+  Ca24  1  0.33263015  0.41520675  0.16870879  1
  Ca2+  Ca25  1  0.33460703  0.42485268  0.51171284  1
  Ca2+  Ca26  1  0.34216360  0.42030159  0.83659668  1
  Ca2+  Ca27  1  0.33491250  0.91320667  0.17109488  1
  Ca2+  Ca28  1  0.33718234  0.92025272  0.50851528  1
  Ca2+  Ca29  1  0.33862087  0.92155799  0.83329738  1
  Ca2+  Ca30  1  0.82442078  0.41142382  0.17449542  1
  Ca2+  Ca31  1  0.82445501  0.40961491  0.50132451  1
  Ca2+  Ca32  1  0.82066489  0.41327374  0.83689539  1
  Ca2+  Ca33  1  0.83205701  0.92133374  0.17822734  1
  Ca2+  Ca34  1  0.82448171  0.91605960  0.50234548  1
  Ca2+  Ca35  1  0.82851974  0.91507960  0.83722879  1
  Ca2+  Ca36  1  0.43348086  0.17145010  0.15927124  1
  Ca2+  Ca37  1  0.42747250  0.16609081  0.50234208  1
  Ca2+  Ca38  1  0.42474010  0.17778179  0.82509027  1
  Ca2+  Ca39  1  0.41832379  0.67870632  0.16432455  1
  Ca2+  Ca40  1  0.41355855  0.67699309  0.49870137  1
  Ca2+  Ca41  1  0.41064950  0.67791872  0.82773349  1
  Ca2+  Ca42  1  0.91366841  0.16910049  0.16586663  1
  Ca2+  Ca43  1  0.91653162  0.16753246  0.49558680  1
  Ca2+  Ca44  1  0.92926581  0.16286695  0.83136159  1
  Ca2+  Ca45  1  0.92145096  0.67580426  0.16151742  1
  Ca2+  Ca46  1  0.92722328  0.66857493  0.49138761  1
  Ca2+  Ca47  1  0.92399696  0.66698501  0.83017833  1
  Al0+  Al48  1  0.00042463  -0.00106441  -0.00609276  1
  Al0+  Al49  1  0.00277099  -0.00182531  0.33626430  1
  Al0+  Al50  1  -0.00075480  -0.00146334  0.66291103  1
  Al0+  Al51  1  0.00027969  0.50032030  -0.00242863  1
  Al0+  Al52  1  0.00091900  0.49624364  0.32546385  1
  Al0+  Al53  1  0.00007686  0.50016845  0.66391937  1
  Al0+  Al54  1  0.49914349  0.00188396  -0.00535029  1
  Al0+  Al55  1  0.49954143  0.00239232  0.32744873  1
  Al0+  Al56  1  0.49884494  0.00218359  0.66832953  1
  Al0+  Al57  1  0.49849435  0.50159070  0.00734179  1
  Al0+  Al58  1  0.49760308  0.50126406  0.33834739  1
  Al0+  Al59  1  0.49851606  0.50203327  0.67402212  1
  Al0+  Al60  1  0.25145919  0.25190095  -0.00146997  1
  Al0+  Al61  1  0.25110026  0.25131061  0.33590748  1
  Al0+  Al62  1  0.25030554  0.25047861  0.66243627  1
  Al0+  Al63  1  0.24921672  0.75145200  -0.00476998  1
  Al0+  Al64  1  0.25160251  0.75032018  0.32651827  1
  Al0+  Al65  1  0.24866087  0.75046296  0.66349248  1
  Al0+  Al66  1  0.75066831  0.24736433  -0.00060973  1
  Al0+  Al67  1  0.75170157  0.24818826  0.33414076  1
  Al0+  Al68  1  0.75146336  0.24803903  0.66976844  1
  Al0+  Al69  1  0.74869381  0.74923711  -0.00134243  1
  Al0+  Al70  1  0.74845224  0.74762437  0.33476146  1
  Al0+  Al71  1  0.74891705  0.74965133  0.67244491  1
  Al0+  Al72  1  0.43266650  0.82099445  0.32006633  1
  Al0+  Al73  1  0.67672039  0.92750525  0.34649712  1
  Al0+  Al74  1  0.67983732  0.42825108  0.68161924  1
  Al0+  Al75  1  0.92572057  0.82192504  0.98366971  1
  Al0+  Al76  1  0.67933754  0.42898100  0.34779718  1
  Al0+  Al77  1  0.57232431  0.17995647  0.64914566  1
  Al0+  Al78  1  0.31907087  0.57243126  0.68127456  1
  Al0+  Al79  1  0.06885481  0.68007600  0.65156734  1
  Al0+  Al80  1  0.31943911  0.07195246  0.68122291  1
  Al0+  Al81  1  0.07003303  0.67830597  0.98267811  1
  Al0+  Al82  1  0.92995691  0.31711723  0.32019186  1
  Al0+  Al83  1  0.43085664  0.82019105  0.65286335  1
  Al0+  Al84  1  0.67910813  0.93034226  0.68185390  1
  Al0+  Al85  1  0.42992523  0.32478202  0.65089505  1
  Al0+  Al86  1  0.57356064  0.18004675  0.98337610  1
  Al0+  Al87  1  0.43011051  0.82079532  0.98464884  1
  Al0+  Al88  1  0.82367452  0.07000413  0.34869309  1
  Al0+  Al89  1  0.67980709  0.42847880  0.01585987  1
  Al0+  Al90  1  0.07112755  0.17985808  0.98872036  1
  Al0+  Al91  1  0.92602025  0.82169516  0.32027358  1
  Al0+  Al92  1  0.56992316  0.18160151  0.32009561  1
  Al0+  Al93  1  0.42945669  0.32326706  0.98692282  1
  Al0+  Al94  1  0.07115772  0.67810528  0.31699860  1
  Al0+  Al95  1  0.07187355  0.17759648  0.65218980  1
  Si0+  Si96  1  0.17785908  0.42773979  0.34830319  1
  Si0+  Si97  1  0.31841709  0.57381671  0.01763807  1
  Si0+  Si98  1  0.57355289  0.67773872  0.65181040  1
  Si0+  Si99  1  0.17691771  0.92804620  0.68354389  1
  Si0+  Si100  1  0.82463525  0.07111211  0.68605431  1
  Si0+  Si101  1  0.17952827  0.92962241  0.01485514  1
  Si0+  Si102  1  0.57136887  0.67710767  0.98483015  1
  Si0+  Si103  1  0.82357625  0.06770449  0.01430188  1
  Si0+  Si104  1  0.32088761  0.07223474  0.01624028  1
  Si0+  Si105  1  0.07617180  0.17665670  0.31823481  1
  Si0+  Si106  1  0.32056321  0.07184655  0.34724133  1
  Si0+  Si107  1  0.82361439  0.57181381  0.68338924  1
  Si0+  Si108  1  0.18146318  0.92755976  0.34738789  1
  Si0+  Si109  1  0.31799051  0.57203166  0.34816434  1
  Si0+  Si110  1  0.67685375  0.92920277  0.01414027  1
  Si0+  Si111  1  0.82443089  0.57033605  0.34853890  1
  Si0+  Si112  1  0.42688701  0.32525946  0.31794521  1
  Si0+  Si113  1  0.57156925  0.67285539  0.31820820  1
  Si0+  Si114  1  0.92417652  0.82155191  0.64876204  1
  Si0+  Si115  1  0.92873673  0.32114948  0.65117409  1
  Si0+  Si116  1  0.82350953  0.57207539  0.01764273  1
  Si0+  Si117  1  0.17817024  0.42790710  0.01592604  1
  Si0+  Si118  1  0.17672122  0.42859110  0.68314468  1
  Si0+  Si119  1  0.92748792  0.32172661  0.98298171  1
  O2-  O120  1  0.25038062  0.00051635  0.05919966  1
  O2-  O121  1  0.24840749  0.00211700  0.38961423  1
  O2-  O122  1  0.24145166  0.00023556  0.72886300  1
  O2-  O123  1  0.24757421  0.50120639  0.05848459  1
  O2-  O124  1  0.24718565  0.50050380  0.38985938  1
  O2-  O125  1  0.24685456  0.49511017  0.72851819  1
  O2-  O126  1  0.75128051  -0.00290756  0.05550618  1
  O2-  O127  1  0.75345361  -0.00519367  0.39649669  1
  O2-  O128  1  0.75479659  0.00354820  0.73020592  1
  O2-  O129  1  0.75567840  0.50276038  0.06250870  1
  O2-  O130  1  0.75272594  0.50552895  0.39432744  1
  O2-  O131  1  0.75384866  0.50437850  0.72806070  1
  O2-  O132  1  0.00368794  0.24076212  0.27386705  1
  O2-  O133  1  -0.00307762  0.25195935  0.60682015  1
  O2-  O134  1  -0.00124827  0.25545867  0.93986876  1
  O2-  O135  1  -0.00384620  0.74806133  0.26954755  1
  O2-  O136  1  -0.00723220  0.75269124  0.60514261  1
  O2-  O137  1  -0.00503361  0.74727731  0.93390328  1
  O2-  O138  1  0.49762180  0.25921291  0.27406166  1
  O2-  O139  1  0.50364388  0.25572736  0.59954309  1
  O2-  O140  1  0.50403303  0.25551892  0.93622884  1
  O2-  O141  1  0.51072045  0.74912254  0.27422330  1
  O2-  O142  1  0.50770410  0.74810199  0.60575868  1
  O2-  O143  1  0.50668003  0.74830987  0.93892779  1
  O2-  O144  1  0.07012451  0.18069046  0.10196838  1
  O2-  O145  1  0.08007898  0.18071480  0.42342398  1
  O2-  O146  1  0.07078171  0.17973047  0.76561430  1
  O2-  O147  1  0.07025313  0.68139604  0.09608422  1
  O2-  O148  1  0.07310808  0.67948238  0.43063999  1
  O2-  O149  1  0.06780929  0.68100833  0.76430954  1
  O2-  O150  1  0.57337796  0.17866304  0.09735362  1
  O2-  O151  1  0.56766926  0.17990429  0.43257077  1
  O2-  O152  1  0.57031070  0.18099265  0.76253574  1
  O2-  O153  1  0.56890293  0.67705137  0.09070514  1
  O2-  O154  1  0.56493886  0.66490861  0.42305161  1
  O2-  O155  1  0.57201525  0.67904494  0.75763111  1
  O2-  O156  1  0.18038693  0.42415081  0.24309401  1
  O2-  O157  1  0.17503440  0.43120074  0.57718616  1
  O2-  O158  1  0.17808212  0.42538175  0.91129066  1
  O2-  O159  1  0.18271585  0.92778316  0.24193917  1
  O2-  O160  1  0.17919196  0.92833154  0.57746270  1
  O2-  O161  1  0.18043847  0.93026298  0.91002209  1
  O2-  O162  1  0.68012633  0.42954130  0.23452064  1
  O2-  O163  1  0.68227244  0.42874256  0.56835518  1
  O2-  O164  1  0.68097934  0.43001528  0.90284519  1
  O2-  O165  1  0.67457964  0.93264501  0.23241169  1
  O2-  O166  1  0.68013028  0.93081842  0.56905025  1
  O2-  O167  1  0.67621430  0.93087698  0.90912919  1
  O2-  O168  1  0.42723607  0.31920472  0.10095130  1
  O2-  O169  1  0.42432728  0.32554934  0.42293507  1
  O2-  O170  1  0.43109402  0.32377445  0.76441863  1
  O2-  O171  1  0.42997518  0.82035262  0.09810065  1
  O2-  O172  1  0.42911421  0.82012793  0.43275677  1
  O2-  O173  1  0.43045334  0.81896648  0.76598344  1
  O2-  O174  1  0.92743561  0.31995978  0.08871204  1
  O2-  O175  1  0.93315770  0.31832737  0.43318805  1
  O2-  O176  1  0.93054486  0.32170244  0.75697998  1
  O2-  O177  1  0.92758844  0.82367636  0.09714316  1
  O2-  O178  1  0.93020267  0.81965219  0.43377951  1
  O2-  O179  1  0.92549916  0.82095233  0.75445691  1
  O2-  O180  1  0.31840583  0.07256765  0.24175116  1
  O2-  O181  1  0.31914289  0.06815482  0.56743829  1
  O2-  O182  1  0.31926545  0.07218117  0.91152213  1
  O2-  O183  1  0.31812868  0.57193119  0.24280981  1
  O2-  O184  1  0.31580301  0.57403114  0.56771529  1
  O2-  O185  1  0.31779838  0.57525969  0.91286125  1
  O2-  O186  1  0.82240349  0.07089844  0.23436148  1
  O2-  O187  1  0.82694676  0.07051573  0.58083654  1
  O2-  O188  1  0.82658737  0.06702294  0.90945064  1
  O2-  O189  1  0.82396458  0.56724850  0.24288320  1
  O2-  O190  1  0.82429604  0.57100920  0.57782862  1
  O2-  O191  1  0.82336540  0.57035936  0.91202603  1
  O2-  O192  1  0.05734457  0.08061408  0.27559702  1
  O2-  O193  1  0.04347670  0.08031208  0.59842720  1
  O2-  O194  1  0.04135738  0.08493098  0.93226073  1
  O2-  O195  1  0.04775739  0.57867557  0.26449247  1
  O2-  O196  1  0.04130919  0.58222666  0.59786007  1
  O2-  O197  1  0.04663177  0.57801667  0.93080346  1
  O2-  O198  1  0.53527089  0.08828050  0.26211489  1
  O2-  O199  1  0.53752393  0.08314094  0.59778756  1
  O2-  O200  1  0.54006553  0.08382665  0.93043876  1
  O2-  O201  1  0.53644064  0.58375755  0.26724660  1
  O2-  O202  1  0.54492184  0.58490672  0.60698668  1
  O2-  O203  1  0.54133481  0.58464816  0.93994306  1
  O2-  O204  1  0.16792900  0.20759045  0.27015020  1
  O2-  O205  1  0.16682232  0.20865445  0.59625556  1
  O2-  O206  1  0.16702308  0.21131626  0.93488821  1
  O2-  O207  1  0.16783731  0.71037645  0.26296520  1
  O2-  O208  1  0.16383127  0.71360807  0.59667771  1
  O2-  O209  1  0.16679645  0.71109525  0.93006785  1
  O2-  O210  1  0.66713601  0.21008392  0.26718611  1
  O2-  O211  1  0.67372643  0.20394086  0.60055984  1
  O2-  O212  1  0.67304395  0.20323576  0.93105377  1
  O2-  O213  1  0.66827993  0.68798364  0.27571089  1
  O2-  O214  1  0.66894568  0.69825292  0.60766583  1
  O2-  O215  1  0.66624893  0.69589425  0.93958173  1
  O2-  O216  1  0.08498738  0.45383208  0.06290783  1
  O2-  O217  1  0.08492100  0.45289459  0.39418596  1
  O2-  O218  1  0.08345820  0.45527792  0.72995578  1
  O2-  O219  1  0.08741391  0.95868266  0.06157548  1
  O2-  O220  1  0.08941233  0.94947881  0.39656286  1
  O2-  O221  1  0.08098226  0.94869626  0.72690304  1
  O2-  O222  1  0.58368630  0.46074124  0.07131187  1
  O2-  O223  1  0.58169147  0.45871359  0.40089609  1
  O2-  O224  1  0.58445271  0.46057540  0.73690216  1
  O2-  O225  1  0.58528913  0.96038431  0.06091666  1
  O2-  O226  1  0.57929236  0.96356324  0.39816269  1
  O2-  O227  1  0.58324579  0.96317012  0.73608384  1
  O2-  O228  1  0.20853002  0.33771709  0.06633416  1
  O2-  O229  1  0.20617688  0.33692164  0.39830570  1
  O2-  O230  1  0.20019087  0.33368621  0.72663526  1
  O2-  O231  1  0.20932691  0.83820993  0.06233580  1
  O2-  O232  1  0.21413967  0.83682200  0.39418610  1
  O2-  O233  1  0.20710240  0.83631442  0.72988035  1
  O2-  O234  1  0.71258708  0.33073187  0.06730707  1
  O2-  O235  1  0.71428164  0.33397009  0.40081400  1
  O2-  O236  1  0.71339288  0.33255014  0.73612017  1
  O2-  O237  1  0.69820051  0.83457541  0.05927961  1
  O2-  O238  1  0.69472491  0.82546409  0.39765673  1
  O2-  O239  1  0.70590801  0.83243512  0.73707639  1
  O2-  O240  1  0.44842713  0.42028625  0.27312945  1
  O2-  O241  1  0.45358115  0.42638783  0.60231892  1
  O2-  O242  1  0.45146858  0.42526792  0.93993051  1
  O2-  O243  1  0.45891343  0.91719972  0.26285249  1
  O2-  O244  1  0.46054237  0.91735045  0.60057253  1
  O2-  O245  1  0.45834309  0.91757928  0.93131024  1
  O2-  O246  1  0.96210327  0.41079540  0.26122808  1
  O2-  O247  1  0.95394374  0.41404804  0.60382995  1
  O2-  O248  1  0.95005069  0.41597453  0.93815112  1
  O2-  O249  1  0.95902386  0.91959454  0.26764584  1
  O2-  O250  1  0.94904714  0.91504639  0.60326888  1
  O2-  O251  1  0.95855095  0.91738416  0.92806775  1
  O2-  O252  1  0.33339021  0.29722946  0.27178677  1
  O2-  O253  1  0.33126241  0.29685572  0.59844063  1
  O2-  O254  1  0.33195656  0.29468389  0.93338970  1
  O2-  O255  1  0.33850391  0.78641499  0.26302727  1
  O2-  O256  1  0.33467579  0.78867141  0.59889101  1
  O2-  O257  1  0.33455545  0.78882612  0.93100871  1
  O2-  O258  1  0.83481607  0.28650256  0.26411737  1
  O2-  O259  1  0.83588171  0.29401127  0.60544326  1
  O2-  O260  1  0.83630009  0.29184226  0.93568387  1
  O2-  O261  1  0.82589779  0.79723868  0.26828872  1
  O2-  O262  1  0.82992408  0.79563256  0.60504031  1
  O2-  O263  1  0.82603516  0.79623329  0.93177642  1
  O2-  O264  1  0.41303132  0.04263141  0.06267001  1
  O2-  O265  1  0.41143364  0.04125903  0.39313781  1
  O2-  O266  1  0.41382813  0.03857540  0.73678225  1
  O2-  O267  1  0.40963019  0.54840242  0.06803915  1
  O2-  O268  1  0.40895062  0.54586131  0.39754926  1
  O2-  O269  1  0.41556078  0.54757966  0.73848324  1
  O2-  O270  1  0.91543985  0.04017393  0.06243797  1
  O2-  O271  1  0.92451501  0.04746563  0.40089464  1
  O2-  O272  1  0.91819904  0.04268632  0.73236207  1
  O2-  O273  1  0.91817207  0.54781382  0.06284569  1
  O2-  O274  1  0.91785377  0.53998495  0.39309306  1
  O2-  O275  1  0.91666891  0.54359180  0.73020649  1
  O2-  O276  1  0.29158342  0.16347189  0.06455920  1
  O2-  O277  1  0.29471355  0.16387461  0.39564454  1
  O2-  O278  1  0.28891866  0.16955513  0.73382198  1
  O2-  O279  1  0.28778827  0.66537278  0.06518458  1
  O2-  O280  1  0.28932476  0.66419570  0.39461063  1
  O2-  O281  1  0.28336162  0.66802675  0.73515344  1
  O2-  O282  1  0.79681254  0.16037062  0.06099271  1
  O2-  O283  1  0.79341941  0.16708207  0.40254922  1
  O2-  O284  1  0.80277691  0.16531621  0.73239582  1
  O2-  O285  1  0.79715771  0.66627884  0.06300890  1
  O2-  O286  1  0.80456412  0.66514698  0.39420963  1
  O2-  O287  1  0.80079711  0.66531331  0.73092599  1
