# generated using pymatgen
data_Ca2Al2SiO7
_symmetry_space_group_name_H-M   'P 1'
_cell_length_a   15.45870153
_cell_length_b   15.45942039
_cell_length_c   15.28336865
_cell_angle_alpha   90.00708911
_cell_angle_beta   90.00194259
_cell_angle_gamma   90.00084310
_symmetry_Int_Tables_number   1
_chemical_formula_structural   Ca2Al2SiO7
_chemical_formula_sum   'Ca48 Al48 Si24 O168'
_cell_volume   3652.45862167
_cell_formula_units_Z   24
loop_
 _symmetry_equiv_pos_site_id
 _symmetry_equiv_pos_as_xyz
  1  'x, y, z'
loop_
 _atom_type_symbol
 _atom_type_oxidation_number
  Ca2+  2.0
  Al0+  0.0
  Si0+  0.0
  O2-  -2.0
loop_
 _atom_site_type_symbol
 _atom_site_label
 _atom_site_symmetry_multiplicity
 _atom_site_fract_x
 _atom_site_fract_y
 _atom_site_fract_z
 _atom_site_occupancy
  Ca2+  Ca0  1  0.17218347  0.09171302  0.16492428  1
  Ca2+  Ca1  1  0.17259884  0.07426026  0.51172877  1
  Ca2+  Ca2  1  0.17724787  0.08520639  0.84075505  1
  Ca2+  Ca3  1  0.16801652  0.58321610  0.16441350  1
  Ca2+  Ca4  1  0.17522679  0.59019965  0.50732473  1
  Ca2+  Ca5  1  0.16668775  0.58464676  0.83675458  1
  Ca2+  Ca6  1  0.66167750  0.07258530  0.16665624  1
  Ca2+  Ca7  1  0.66566392  0.07372961  0.50797891  1
  Ca2+  Ca8  1  0.65686824  0.07572035  0.83682015  1
  Ca2+  Ca9  1  0.66507517  0.57800891  0.17335909  1
  Ca2+  Ca10  1  0.67576861  0.56944336  0.51051666  1
  Ca2+  Ca11  1  0.67222122  0.58244887  0.83600492  1
  Ca2+  Ca12  1  0.07402408  0.33421150  0.15465336  1
  Ca2+  Ca13  1  0.07034362  0.33583348  0.49718587  1
  Ca2+  Ca14  1  0.07735714  0.33498672  0.83264988  1
  Ca2+  Ca15  1  0.07544517  0.82805159  0.16140236  1
  Ca2+  Ca16  1  0.08221576  0.82956731  0.49871943  1
  Ca2+  Ca17  1  0.09113370  0.82278408  0.82609879  1
  Ca2+  Ca18  1  0.58295538  0.32847656  0.16036892  1
  Ca2+  Ca19  1  0.59310661  0.32909522  0.49934106  1
  Ca2+  Ca20  1  0.58833742  0.32008094  0.82560536  1
  Ca2+  Ca21  1  0.58124479  0.82966205  0.15511616  1
  Ca2+  Ca22  1  0.57986348  0.83829164  0.49987991  1
  Ca2+  Ca23  1  0.57454615  0.83776729  0.83085207  1
  Ca2+  Ca24  1  0.32419655  0.42210314  0.17148120  1
  Ca2+  Ca25  1  0.33338389  0.43211142  0.50672329  1
  Ca2+  Ca26  1  0.32762928  0.42351274  0.83903259  1
  Ca2+  Ca27  1  0.33767180  0.92011346  0.16242710  1
  Ca2+  Ca28  1  0.32812541  0.91958971  0.51452639  1
  Ca2+  Ca29  1  0.33597028  0.92117081  0.83314598  1
  Ca2+  Ca30  1  0.83087640  0.41284685  0.17047328  1
  Ca2+  Ca31  1  0.82935080  0.41404004  0.50828767  1
  Ca2+  Ca32  1  0.83697549  0.41612732  0.83130086  1
  Ca2+  Ca33  1  0.82216596  0.91290571  0.17356371  1
  Ca2+  Ca34  1  0.82321571  0.91022707  0.50477649  1
  Ca2+  Ca35  1  0.81888500  0.91388586  0.83856694  1
  Ca2+  Ca36  1  0.42231977  0.16579831  0.15584288  1
  Ca2+  Ca37  1  0.42093319  0.16301068  0.50417751  1
  Ca2+  Ca38  1  0.42306789  0.15767912  0.82922219  1
  Ca2+  Ca39  1  0.42288082  0.67170969  0.15755075  1
  Ca2+  Ca40  1  0.41031779  0.67082496  0.49886482  1
  Ca2+  Ca41  1  0.41705186  0.67765702  0.82683318  1
  Ca2+  Ca42  1  0.92123449  0.17898502  0.15759745  1
  Ca2+  Ca43  1  0.91190085  0.17730991  0.49692966  1
  Ca2+  Ca44  1  0.91675987  0.17868368  0.82932498  1
  Ca2+  Ca45  1  0.91777444  0.67312967  0.16111079  1
  Ca2+  Ca46  1  0.91885307  0.66727571  0.50101635  1
  Ca2+  Ca47  1  0.92779963  0.66089489  0.82713341  1
  Al0+  Al48  1  -0.00035590  0.00189294  -0.00223866  1
  Al0+  Al49  1  0.00054065  -0.00000546  0.32829086  1
  Al0+  Al50  1  -0.00105069  -0.00155132  0.67018349  1
  Al0+  Al51  1  -0.00087314  0.50219087  -0.00098160  1
  Al0+  Al52  1  0.00092980  0.49984238  0.32803304  1
  Al0+  Al53  1  0.00045952  0.50069839  0.65828733  1
  Al0+  Al54  1  0.49901329  -0.00006742  0.00283369  1
  Al0+  Al55  1  0.49985059  -0.00050766  0.33659994  1
  Al0+  Al56  1  0.49963181  -0.00043842  0.66310098  1
  Al0+  Al57  1  0.50145217  0.50081577  -0.00235907  1
  Al0+  Al58  1  0.49973628  0.49895130  0.34135065  1
  Al0+  Al59  1  0.50054262  0.49892643  0.67584227  1
  Al0+  Al60  1  0.24885099  0.25183071  0.00719468  1
  Al0+  Al61  1  0.25155869  0.25138360  0.33677384  1
  Al0+  Al62  1  0.25170022  0.25064207  0.66738941  1
  Al0+  Al63  1  0.24981639  0.75265172  -0.00441620  1
  Al0+  Al64  1  0.25078287  0.75201297  0.33345110  1
  Al0+  Al65  1  0.25102146  0.75034458  0.66514964  1
  Al0+  Al66  1  0.74979980  0.24971458  -0.00668716  1
  Al0+  Al67  1  0.75026100  0.24699482  0.32993496  1
  Al0+  Al68  1  0.74960130  0.24809073  0.66066010  1
  Al0+  Al69  1  0.74941189  0.74847884  0.00219711  1
  Al0+  Al70  1  0.74907215  0.74840606  0.33487092  1
  Al0+  Al71  1  0.74994462  0.74766385  0.67550790  1
  Al0+  Al72  1  0.07385845  0.17878633  0.98461855  1
  Al0+  Al73  1  0.43046949  0.82093751  0.98473461  1
  Al0+  Al74  1  0.56863050  0.17960978  0.65063186  1
  Al0+  Al75  1  0.92883298  0.32014096  0.31761193  1
  Al0+  Al76  1  0.43241330  0.81837372  0.65073815  1
  Al0+  Al77  1  0.67947830  0.92925386  0.68108742  1
  Al0+  Al78  1  0.06875937  0.68216795  0.98708823  1
  Al0+  Al79  1  0.92885366  0.32187803  0.98277074  1
  Al0+  Al80  1  0.17844777  0.43184359  0.01329077  1
  Al0+  Al81  1  0.57367271  0.67586991  0.98465907  1
  Al0+  Al82  1  0.31926033  0.57146495  0.34579770  1
  Al0+  Al83  1  0.56839450  0.18062906  0.98768721  1
  Al0+  Al84  1  0.07069507  0.68089659  0.65121234  1
  Al0+  Al85  1  0.32122426  0.57217264  0.68224248  1
  Al0+  Al86  1  0.31940252  0.06977249  0.01510702  1
  Al0+  Al87  1  0.82293596  0.56934039  0.68237279  1
  Al0+  Al88  1  0.67909616  0.92783367  0.34826834  1
  Al0+  Al89  1  0.68028204  0.93010635  0.01491991  1
  Al0+  Al90  1  0.17676539  0.92799969  0.68168729  1
  Al0+  Al91  1  0.92724607  0.82006269  0.32065058  1
  Al0+  Al92  1  0.32004190  0.07163985  0.68153946  1
  Al0+  Al93  1  0.68075026  0.42693561  0.34560174  1
  Al0+  Al94  1  0.68015393  0.42541655  0.68405155  1
  Al0+  Al95  1  0.93175314  0.31868880  0.65056284  1
  Si0+  Si96  1  0.32291394  0.57455802  0.01580562  1
  Si0+  Si97  1  0.42887102  0.82196261  0.31794430  1
  Si0+  Si98  1  0.56911551  0.67756248  0.32214427  1
  Si0+  Si99  1  0.17546549  0.92641093  0.01825229  1
  Si0+  Si100  1  0.42623306  0.32517462  0.64959173  1
  Si0+  Si101  1  0.32164214  0.07195832  0.34934561  1
  Si0+  Si102  1  0.82300196  0.07395836  0.01665701  1
  Si0+  Si103  1  0.67881710  0.42684756  0.01447403  1
  Si0+  Si104  1  0.07492709  0.17832238  0.31742233  1
  Si0+  Si105  1  0.17831799  0.93029684  0.34657649  1
  Si0+  Si106  1  0.56852104  0.17777103  0.31728626  1
  Si0+  Si107  1  0.82316560  0.06999475  0.34832504  1
  Si0+  Si108  1  0.07490807  0.17574499  0.65034468  1
  Si0+  Si109  1  0.82072500  0.56969527  0.01689154  1
  Si0+  Si110  1  0.92592728  0.82393435  0.98371181  1
  Si0+  Si111  1  0.82351992  0.57177367  0.34861357  1
  Si0+  Si112  1  0.17779120  0.42887454  0.68091113  1
  Si0+  Si113  1  0.07468691  0.68001080  0.31531996  1
  Si0+  Si114  1  0.82235112  0.07283712  0.68276463  1
  Si0+  Si115  1  0.42629534  0.32399415  0.98565844  1
  Si0+  Si116  1  0.17653694  0.42788152  0.35090399  1
  Si0+  Si117  1  0.57425719  0.67515982  0.64971903  1
  Si0+  Si118  1  0.42902768  0.32274183  0.31943937  1
  Si0+  Si119  1  0.92445667  0.82293028  0.65243339  1
  O2-  O120  1  0.24187606  -0.00230718  0.06326340  1
  O2-  O121  1  0.24780688  0.00298193  0.38847443  1
  O2-  O122  1  0.24339766  0.00490964  0.73096154  1
  O2-  O123  1  0.25523306  0.50503577  0.06061063  1
  O2-  O124  1  0.24274035  0.49913737  0.39418016  1
  O2-  O125  1  0.24830624  0.49491738  0.72615696  1
  O2-  O126  1  0.75773526  0.00230237  0.06233609  1
  O2-  O127  1  0.75724352  -0.00059065  0.39395093  1
  O2-  O128  1  0.75668995  0.00149039  0.72708746  1
  O2-  O129  1  0.74746456  0.49982358  0.05806034  1
  O2-  O130  1  0.75938767  0.49803314  0.39112887  1
  O2-  O131  1  0.75024087  0.49895945  0.73409182  1
  O2-  O132  1  0.00737423  0.24828197  0.27344401  1
  O2-  O133  1  0.00588705  0.24272043  0.60356536  1
  O2-  O134  1  0.00038054  0.24847631  0.93442608  1
  O2-  O135  1  0.00114143  0.74469051  0.27294898  1
  O2-  O136  1  -0.00437471  0.75699054  0.60719107  1
  O2-  O137  1  -0.00138877  0.76023198  0.93934441  1
  O2-  O138  1  0.49814337  0.25014538  0.27593036  1
  O2-  O139  1  0.49619219  0.25754691  0.60440964  1
  O2-  O140  1  0.49503847  0.25615301  0.94092378  1
  O2-  O141  1  0.50031403  0.75036476  0.27810074  1
  O2-  O142  1  0.50585108  0.74265948  0.60228551  1
  O2-  O143  1  0.50065064  0.74680236  0.93560900  1
  O2-  O144  1  0.07217436  0.18247686  0.09907031  1
  O2-  O145  1  0.07527025  0.17750110  0.42293094  1
  O2-  O146  1  0.07495272  0.17839337  0.75534884  1
  O2-  O147  1  0.06594741  0.68265976  0.10091318  1
  O2-  O148  1  0.07782858  0.68250227  0.42055430  1
  O2-  O149  1  0.06975399  0.67981167  0.76414320  1
  O2-  O150  1  0.56767952  0.18203862  0.10179526  1
  O2-  O151  1  0.56738193  0.17641641  0.42207957  1
  O2-  O152  1  0.56684469  0.17868580  0.76352617  1
  O2-  O153  1  0.57192526  0.67486476  0.09976209  1
  O2-  O154  1  0.56793371  0.67788424  0.42676511  1
  O2-  O155  1  0.57282248  0.67782868  0.75493801  1
  O2-  O156  1  0.17843336  0.42642082  0.24538303  1
  O2-  O157  1  0.17928092  0.42995913  0.57474236  1
  O2-  O158  1  0.17954775  0.43387749  0.90033838  1
  O2-  O159  1  0.17940168  0.92868991  0.24163365  1
  O2-  O160  1  0.17853981  0.92920835  0.56667873  1
  O2-  O161  1  0.17687964  0.92429605  0.91349728  1
  O2-  O162  1  0.67851494  0.42939441  0.23198350  1
  O2-  O163  1  0.68359673  0.42593764  0.56963432  1
  O2-  O164  1  0.67990952  0.42553327  0.91036179  1
  O2-  O165  1  0.67660422  0.92983663  0.23526856  1
  O2-  O166  1  0.68070413  0.93054013  0.56735793  1
  O2-  O167  1  0.67947435  0.93254250  0.90225211  1
  O2-  O168  1  0.42931883  0.32425407  0.09226452  1
  O2-  O169  1  0.42800882  0.32192249  0.42407552  1
  O2-  O170  1  0.42369559  0.32466041  0.75489489  1
  O2-  O171  1  0.43199461  0.81958088  0.09979254  1
  O2-  O172  1  0.42732400  0.82298314  0.42270742  1
  O2-  O173  1  0.43314214  0.81994499  0.76305644  1
  O2-  O174  1  0.92824414  0.32110081  0.09694645  1
  O2-  O175  1  0.92878961  0.31818983  0.43053631  1
  O2-  O176  1  0.93343419  0.31892892  0.76298968  1
  O2-  O177  1  0.92518224  0.81998530  0.09008802  1
  O2-  O178  1  0.92874003  0.81910216  0.43347230  1
  O2-  O179  1  0.92323911  0.82189505  0.75767278  1
  O2-  O180  1  0.32391999  0.07243455  0.24432103  1
  O2-  O181  1  0.31913322  0.06891791  0.56673794  1
  O2-  O182  1  0.32090051  0.06870983  0.90304543  1
  O2-  O183  1  0.31965120  0.56975828  0.23263912  1
  O2-  O184  1  0.31880479  0.57200819  0.56836465  1
  O2-  O185  1  0.32163465  0.57344606  0.91066854  1
  O2-  O186  1  0.82083096  0.07041146  0.24283160  1
  O2-  O187  1  0.82078547  0.07272828  0.57656016  1
  O2-  O188  1  0.82137236  0.07405158  0.91135842  1
  O2-  O189  1  0.82052559  0.57410749  0.24270480  1
  O2-  O190  1  0.82214305  0.56856672  0.56802881  1
  O2-  O191  1  0.82285388  0.56955746  0.91255725  1
  O2-  O192  1  0.05103678  0.08506680  0.26977191  1
  O2-  O193  1  0.05005015  0.08063286  0.60591291  1
  O2-  O194  1  0.05154135  0.07820832  0.93393866  1
  O2-  O195  1  0.05448019  0.58434087  0.27140151  1
  O2-  O196  1  0.04051619  0.58613025  0.59290492  1
  O2-  O197  1  0.03509983  0.58751559  0.93299709  1
  O2-  O198  1  0.53685902  0.08656536  0.27002098  1
  O2-  O199  1  0.53460170  0.08525348  0.59370945  1
  O2-  O200  1  0.53521641  0.08493570  0.93570777  1
  O2-  O201  1  0.53920579  0.58592506  0.27465882  1
  O2-  O202  1  0.54963250  0.57949388  0.60721648  1
  O2-  O203  1  0.55010994  0.57662528  0.93176974  1
  O2-  O204  1  0.16999100  0.20367107  0.27298440  1
  O2-  O205  1  0.16862902  0.20131868  0.60329936  1
  O2-  O206  1  0.17236465  0.20998890  0.93475607  1
  O2-  O207  1  0.16587808  0.71163491  0.26699931  1
  O2-  O208  1  0.16599742  0.71393787  0.59592110  1
  O2-  O209  1  0.16631208  0.70808401  0.93371523  1
  O2-  O210  1  0.66085549  0.20269420  0.26994786  1
  O2-  O211  1  0.66515592  0.20769019  0.59422996  1
  O2-  O212  1  0.66416653  0.20845193  0.93216742  1
  O2-  O213  1  0.66158881  0.70218724  0.27436075  1
  O2-  O214  1  0.66905578  0.70079992  0.60591776  1
  O2-  O215  1  0.67270289  0.70332059  0.93397954  1
  O2-  O216  1  0.08306433  0.46641256  0.06888526  1
  O2-  O217  1  0.08143462  0.45148398  0.39458531  1
  O2-  O218  1  0.08517963  0.45795549  0.72486802  1
  O2-  O219  1  0.07982008  0.94859557  0.06297788  1
  O2-  O220  1  0.08577562  0.95601708  0.39370528  1
  O2-  O221  1  0.07563810  0.94582657  0.73287132  1
  O2-  O222  1  0.58551890  0.45192730  0.06201544  1
  O2-  O223  1  0.58582824  0.45788418  0.40214246  1
  O2-  O224  1  0.58067263  0.44770200  0.73616692  1
  O2-  O225  1  0.58517587  0.96381741  0.07042435  1
  O2-  O226  1  0.58338185  0.96228426  0.40233745  1
  O2-  O227  1  0.58402152  0.96488375  0.73216018  1
  O2-  O228  1  0.20765201  0.33698464  0.07209116  1
  O2-  O229  1  0.20377943  0.33511716  0.39824953  1
  O2-  O230  1  0.20036961  0.33451930  0.72609470  1
  O2-  O231  1  0.20496672  0.83406598  0.06644410  1
  O2-  O232  1  0.20811646  0.83950969  0.39476521  1
  O2-  O233  1  0.21211881  0.83236354  0.73348434  1
  O2-  O234  1  0.70853364  0.33526978  0.06244681  1
  O2-  O235  1  0.70870027  0.32827490  0.39683466  1
  O2-  O236  1  0.71098528  0.32637173  0.73322483  1
  O2-  O237  1  0.70940555  0.83206053  0.06882472  1
  O2-  O238  1  0.70708389  0.83021784  0.40152117  1
  O2-  O239  1  0.70642481  0.83287638  0.73627220  1
  O2-  O240  1  0.45858804  0.41395808  0.27182684  1
  O2-  O241  1  0.45165903  0.41989533  0.60507237  1
  O2-  O242  1  0.44937632  0.41757549  0.93961036  1
  O2-  O243  1  0.45770254  0.91413647  0.27137660  1
  O2-  O244  1  0.46377207  0.91400183  0.59452856  1
  O2-  O245  1  0.46191411  0.91826929  0.93362370  1
  O2-  O246  1  0.95538652  0.41849113  0.26395099  1
  O2-  O247  1  0.96296543  0.41378768  0.59360361  1
  O2-  O248  1  0.95912337  0.41992505  0.93227449  1
  O2-  O249  1  0.95739288  0.91634704  0.26470700  1
  O2-  O250  1  0.94511668  0.91812238  0.60638950  1
  O2-  O251  1  0.94305199  0.91991104  0.94100845  1
  O2-  O252  1  0.33587958  0.29677435  0.27253317  1
  O2-  O253  1  0.33339007  0.29874717  0.60056726  1
  O2-  O254  1  0.33221962  0.29930838  0.94278334  1
  O2-  O255  1  0.33716972  0.79491649  0.26973818  1
  O2-  O256  1  0.33577170  0.78752929  0.59597322  1
  O2-  O257  1  0.33132138  0.79721368  0.93268597  1
  O2-  O258  1  0.83319633  0.28605821  0.26259389  1
  O2-  O259  1  0.83590913  0.28586540  0.59562397  1
  O2-  O260  1  0.83139009  0.29317408  0.92912077  1
  O2-  O261  1  0.83065272  0.78819222  0.26566846  1
  O2-  O262  1  0.83185292  0.79252967  0.60584239  1
  O2-  O263  1  0.83402123  0.79326156  0.93868361  1
  O2-  O264  1  0.41390583  0.03576300  0.07272747  1
  O2-  O265  1  0.41178594  0.04100489  0.39771039  1
  O2-  O266  1  0.41704577  0.03735189  0.73159710  1
  O2-  O267  1  0.41753869  0.54944406  0.06107610  1
  O2-  O268  1  0.41345247  0.53872624  0.40313416  1
  O2-  O269  1  0.41746549  0.54510103  0.73747142  1
  O2-  O270  1  0.91837564  0.05358596  0.06228308  1
  O2-  O271  1  0.91865537  0.04922091  0.39264250  1
  O2-  O272  1  0.91703446  0.05322925  0.72844324  1
  O2-  O273  1  0.91096880  0.54084174  0.06692747  1
  O2-  O274  1  0.92016918  0.55184588  0.39055580  1
  O2-  O275  1  0.92209649  0.53826055  0.73189545  1
  O2-  O276  1  0.29179485  0.16685542  0.07217263  1
  O2-  O277  1  0.29794688  0.16497179  0.39674929  1
  O2-  O278  1  0.29926370  0.17248952  0.73270906  1
  O2-  O279  1  0.29532096  0.66802271  0.06168789  1
  O2-  O280  1  0.28998960  0.66926656  0.39922148  1
  O2-  O281  1  0.28741400  0.66718625  0.73491818  1
  O2-  O282  1  0.79264151  0.16688946  0.06268697  1
  O2-  O283  1  0.79303246  0.16208461  0.39510548  1
  O2-  O284  1  0.79289713  0.16488659  0.72812272  1
  O2-  O285  1  0.79401797  0.66151676  0.06601882  1
  O2-  O286  1  0.79373640  0.66260828  0.39729177  1
  O2-  O287  1  0.79778784  0.66689896  0.73817013  1
