# generated using pymatgen
data_Ca2Al2SiO7
_symmetry_space_group_name_H-M   'P 1'
_cell_length_a   15.46919433
_cell_length_b   15.46506462
_cell_length_c   15.28977741
_cell_angle_alpha   89.99805586
_cell_angle_beta   89.98928026
_cell_angle_gamma   89.99396453
_symmetry_Int_Tables_number   1
_chemical_formula_structural   Ca2Al2SiO7
_chemical_formula_sum   'Ca48 Al48 Si24 O168'
_cell_volume   3657.80531827
_cell_formula_units_Z   24
loop_
 _symmetry_equiv_pos_site_id
 _symmetry_equiv_pos_as_xyz
  1  'x, y, z'
loop_
 _atom_type_symbol
 _atom_type_oxidation_number
  Ca2+  2.0
  Al0+  0.0
  Si0+  0.0
  O2-  -2.0
loop_
 _atom_site_type_symbol
 _atom_site_label
 _atom_site_symmetry_multiplicity
 _atom_site_fract_x
 _atom_site_fract_y
 _atom_site_fract_z
 _atom_site_occupancy
  Ca2+  Ca0  1  0.17364341  0.08715280  0.16597235  1
  Ca2+  Ca1  1  0.17195364  0.08137243  0.50750633  1
  Ca2+  Ca2  1  0.18057361  0.08478914  0.83800521  1
  Ca2+  Ca3  1  0.16697532  0.58576607  0.16699176  1
  Ca2+  Ca4  1  0.17440424  0.58167017  0.51045522  1
  Ca2+  Ca5  1  0.17111486  0.58983188  0.83567375  1
  Ca2+  Ca6  1  0.66842636  0.06838652  0.17341365  1
  Ca2+  Ca7  1  0.67125911  0.07352299  0.50980063  1
  Ca2+  Ca8  1  0.65613578  0.07307777  0.83503878  1
  Ca2+  Ca9  1  0.67047853  0.58425011  0.16836689  1
  Ca2+  Ca10  1  0.66841051  0.58765684  0.50041787  1
  Ca2+  Ca11  1  0.66686188  0.58035584  0.84368275  1
  Ca2+  Ca12  1  0.06867422  0.33422836  0.16271838  1
  Ca2+  Ca13  1  0.07605604  0.32951469  0.49448499  1
  Ca2+  Ca14  1  0.07418740  0.33552143  0.83439138  1
  Ca2+  Ca15  1  0.07266314  0.82858100  0.16097158  1
  Ca2+  Ca16  1  0.07771744  0.82854668  0.49557304  1
  Ca2+  Ca17  1  0.08255027  0.82217599  0.82991182  1
  Ca2+  Ca18  1  0.57510934  0.33579246  0.15923354  1
  Ca2+  Ca19  1  0.57358787  0.32653242  0.49831935  1
  Ca2+  Ca20  1  0.57558305  0.33157672  0.82597600  1
  Ca2+  Ca21  1  0.59028665  0.82703979  0.16103722  1
  Ca2+  Ca22  1  0.59797852  0.82488012  0.49893702  1
  Ca2+  Ca23  1  0.59048765  0.82649422  0.83261708  1
  Ca2+  Ca24  1  0.33582841  0.41419762  0.17074004  1
  Ca2+  Ca25  1  0.33823654  0.41827640  0.50661466  1
  Ca2+  Ca26  1  0.34075245  0.42054853  0.83586777  1
  Ca2+  Ca27  1  0.33871670  0.91929686  0.16367899  1
  Ca2+  Ca28  1  0.33075053  0.92170569  0.50914135  1
  Ca2+  Ca29  1  0.34529434  0.92795909  0.83965139  1
  Ca2+  Ca30  1  0.83359146  0.42504423  0.16788478  1
  Ca2+  Ca31  1  0.83816435  0.42323178  0.50047637  1
  Ca2+  Ca32  1  0.82316140  0.42060038  0.84635558  1
  Ca2+  Ca33  1  0.82353837  0.91503454  0.17695214  1
  Ca2+  Ca34  1  0.82681371  0.92208800  0.50267132  1
  Ca2+  Ca35  1  0.82171979  0.92209583  0.83542613  1
  Ca2+  Ca36  1  0.41540689  0.17611910  0.15849083  1
  Ca2+  Ca37  1  0.41806369  0.17095607  0.49936057  1
  Ca2+  Ca38  1  0.41853183  0.17305974  0.82648663  1
  Ca2+  Ca39  1  0.43314555  0.67443996  0.15877728  1
  Ca2+  Ca40  1  0.42936028  0.66275936  0.49764383  1
  Ca2+  Ca41  1  0.43003967  0.66837133  0.82705735  1
  Ca2+  Ca42  1  0.90511809  0.17676003  0.16596317  1
  Ca2+  Ca43  1  0.90976747  0.16730003  0.49217449  1
  Ca2+  Ca44  1  0.90824004  0.17220417  0.82945491  1
  Ca2+  Ca45  1  0.91360535  0.66673309  0.16157196  1
  Ca2+  Ca46  1  0.91810103  0.67242957  0.49231587  1
  Ca2+  Ca47  1  0.92636779  0.65816190  0.83184858  1
  Al0+  Al48  1  0.00280702  0.00089432  -0.00066192  1
  Al0+  Al49  1  0.00244635  -0.00181466  0.33142337  1
  Al0+  Al50  1  -0.00135625  0.00041671  0.67188396  1
  Al0+  Al51  1  0.00081962  0.49867210  -0.00465788  1
  Al0+  Al52  1  0.00194353  0.49715904  0.33520657  1
  Al0+  Al53  1  0.00208430  0.50000295  0.66224688  1
  Al0+  Al54  1  0.49984154  0.00190444  0.00981868  1
  Al0+  Al55  1  0.49873151  -0.00142292  0.33987234  1
  Al0+  Al56  1  0.49967909  -0.00048699  0.67012993  1
  Al0+  Al57  1  0.49911229  0.50155427  -0.00163169  1
  Al0+  Al58  1  0.50038332  0.50056390  0.32555412  1
  Al0+  Al59  1  0.49948464  0.50155117  0.66235799  1
  Al0+  Al60  1  0.24953822  0.25118465  0.00064892  1
  Al0+  Al61  1  0.24888734  0.25054820  0.33109386  1
  Al0+  Al62  1  0.24492626  0.25112764  0.66749234  1
  Al0+  Al63  1  0.24871884  0.75283000  -0.00492765  1
  Al0+  Al64  1  0.25255018  0.74949579  0.33454328  1
  Al0+  Al65  1  0.25014008  0.74748700  0.66637031  1
  Al0+  Al66  1  0.74751070  0.25021750  -0.00077775  1
  Al0+  Al67  1  0.74753950  0.25060611  0.33066653  1
  Al0+  Al68  1  0.74829036  0.25219522  0.66352561  1
  Al0+  Al69  1  0.75217230  0.75156823  0.00166278  1
  Al0+  Al70  1  0.75303478  0.74746503  0.33322286  1
  Al0+  Al71  1  0.75251050  0.75084544  0.66736957  1
  Al0+  Al72  1  0.57297992  0.67999344  0.65196965  1
  Al0+  Al73  1  0.06938477  0.67912135  0.98670364  1
  Al0+  Al74  1  0.32001574  0.07156711  0.01540000  1
  Al0+  Al75  1  0.57172091  0.68129088  0.31909508  1
  Al0+  Al76  1  0.67947534  0.92781154  0.68420961  1
  Al0+  Al77  1  0.42931185  0.31843239  0.31845281  1
  Al0+  Al78  1  0.07183687  0.67865849  0.65051309  1
  Al0+  Al79  1  0.92747256  0.31846309  0.98578174  1
  Al0+  Al80  1  0.42659875  0.32050341  0.65177320  1
  Al0+  Al81  1  0.93158183  0.81965759  0.32020335  1
  Al0+  Al82  1  0.42784260  0.32165856  0.98563923  1
  Al0+  Al83  1  0.67539691  0.42834669  0.01495616  1
  Al0+  Al84  1  0.82167540  0.07224642  0.34631752  1
  Al0+  Al85  1  0.57105115  0.17684657  0.65131768  1
  Al0+  Al86  1  0.82202649  0.56761635  0.34793418  1
  Al0+  Al87  1  0.32183719  0.56949956  0.68065172  1
  Al0+  Al88  1  0.42989787  0.82372323  0.98580091  1
  Al0+  Al89  1  0.67861285  0.92710585  0.35040811  1
  Al0+  Al90  1  0.82103734  0.07463611  0.68265211  1
  Al0+  Al91  1  0.92728352  0.32079445  0.31983934  1
  Al0+  Al92  1  0.57304823  0.68117495  0.98437478  1
  Al0+  Al93  1  0.68092100  0.93042353  0.01540476  1
  Al0+  Al94  1  0.82296234  0.56959995  0.01347952  1
  Al0+  Al95  1  0.31913387  0.07135147  0.67990397  1
  Si0+  Si96  1  0.57066879  0.17482351  0.31615259  1
  Si0+  Si97  1  0.92998490  0.82275516  0.64993083  1
  Si0+  Si98  1  0.82346328  0.57002612  0.68009361  1
  Si0+  Si99  1  0.32022789  0.57385300  0.01522040  1
  Si0+  Si100  1  0.57044821  0.17830773  0.98563637  1
  Si0+  Si101  1  0.17982744  0.43006783  0.01553029  1
  Si0+  Si102  1  0.07285574  0.17855965  0.98243071  1
  Si0+  Si103  1  0.17737928  0.92640828  0.68395177  1
  Si0+  Si104  1  0.31840886  0.07253184  0.34915069  1
  Si0+  Si105  1  0.18019951  0.42824010  0.34887405  1
  Si0+  Si106  1  0.92791628  0.82505574  0.98180994  1
  Si0+  Si107  1  0.07221704  0.17713027  0.31668663  1
  Si0+  Si108  1  0.92807391  0.32088772  0.65132129  1
  Si0+  Si109  1  0.82539660  0.07277365  0.01669767  1
  Si0+  Si110  1  0.17667847  0.92708105  0.01844684  1
  Si0+  Si111  1  0.17992940  0.92690930  0.34812000  1
  Si0+  Si112  1  0.17563160  0.42872178  0.68522779  1
  Si0+  Si113  1  0.67455499  0.42840440  0.35067931  1
  Si0+  Si114  1  0.32170822  0.56996834  0.34673048  1
  Si0+  Si115  1  0.42813978  0.82197089  0.65064293  1
  Si0+  Si116  1  0.06898768  0.17806292  0.65293601  1
  Si0+  Si117  1  0.07490273  0.67701506  0.31779025  1
  Si0+  Si118  1  0.67914380  0.43132570  0.67848128  1
  Si0+  Si119  1  0.42474237  0.82314344  0.31799920  1
  O2-  O120  1  0.24605036  -0.00439252  0.06226862  1
  O2-  O121  1  0.25040443  -0.00172282  0.39088501  1
  O2-  O122  1  0.24796088  -0.00676684  0.72753438  1
  O2-  O123  1  0.25105706  0.50069322  0.05833744  1
  O2-  O124  1  0.25101187  0.49921165  0.39040538  1
  O2-  O125  1  0.24748030  0.49434001  0.72823507  1
  O2-  O126  1  0.75987877  0.00177454  0.06074673  1
  O2-  O127  1  0.74821756  0.00312043  0.39789906  1
  O2-  O128  1  0.74680076  0.00552042  0.73279046  1
  O2-  O129  1  0.74805549  0.50061313  0.06383851  1
  O2-  O130  1  0.74741654  0.49280244  0.39573153  1
  O2-  O131  1  0.75013591  0.50197663  0.72145122  1
  O2-  O132  1  -0.00262097  0.24013659  0.27458684  1
  O2-  O133  1  -0.00556535  0.24479499  0.61007927  1
  O2-  O134  1  -0.00152665  0.24055143  0.93781254  1
  O2-  O135  1  0.00487300  0.74310279  0.27334128  1
  O2-  O136  1  -0.00120784  0.75420738  0.60474230  1
  O2-  O137  1  -0.00609863  0.75269751  0.93897861  1
  O2-  O138  1  0.50269927  0.24372295  0.27073408  1
  O2-  O139  1  0.49567188  0.24609328  0.60152362  1
  O2-  O140  1  0.50574146  0.25049117  0.94077399  1
  O2-  O141  1  0.49933785  0.76020117  0.27626323  1
  O2-  O142  1  0.49894016  0.75618018  0.60538447  1
  O2-  O143  1  0.50077936  0.75258852  0.93354968  1
  O2-  O144  1  0.07580917  0.18182085  0.08801602  1
  O2-  O145  1  0.07714721  0.17990366  0.42246392  1
  O2-  O146  1  0.07128593  0.18085083  0.75763286  1
  O2-  O147  1  0.07056545  0.68039062  0.10008826  1
  O2-  O148  1  0.07710293  0.67927606  0.42328236  1
  O2-  O149  1  0.06927829  0.67749082  0.76349902  1
  O2-  O150  1  0.56781883  0.17841271  0.09143234  1
  O2-  O151  1  0.56765862  0.17560851  0.42158408  1
  O2-  O152  1  0.57025533  0.18034346  0.76495451  1
  O2-  O153  1  0.57142722  0.68111679  0.09800515  1
  O2-  O154  1  0.56856852  0.67935209  0.43245027  1
  O2-  O155  1  0.57332292  0.67768706  0.76437705  1
  O2-  O156  1  0.17931742  0.42789093  0.24378723  1
  O2-  O157  1  0.17227204  0.42962786  0.57936102  1
  O2-  O158  1  0.17881124  0.42949966  0.91057946  1
  O2-  O159  1  0.18098847  0.92514729  0.24347059  1
  O2-  O160  1  0.17720108  0.92882085  0.57758818  1
  O2-  O161  1  0.17335056  0.92816021  0.91322843  1
  O2-  O162  1  0.67278448  0.43113184  0.24544476  1
  O2-  O163  1  0.68131255  0.43125032  0.57326173  1
  O2-  O164  1  0.67710275  0.42799446  0.90056280  1
  O2-  O165  1  0.67937385  0.92812357  0.23681700  1
  O2-  O166  1  0.68456588  0.92534510  0.57090295  1
  O2-  O167  1  0.68001576  0.93204203  0.90262950  1
  O2-  O168  1  0.42558377  0.31849062  0.09905544  1
  O2-  O169  1  0.42691623  0.31718727  0.43124503  1
  O2-  O170  1  0.42924898  0.32113916  0.76509759  1
  O2-  O171  1  0.42997211  0.82013193  0.09988147  1
  O2-  O172  1  0.41479423  0.81972643  0.42294354  1
  O2-  O173  1  0.42678234  0.81984358  0.75581235  1
  O2-  O174  1  0.93142295  0.31928318  0.09879401  1
  O2-  O175  1  0.93390256  0.32307237  0.43317734  1
  O2-  O176  1  0.93044631  0.32342605  0.75622003  1
  O2-  O177  1  0.93111866  0.82671086  0.08749955  1
  O2-  O178  1  0.93596467  0.81894182  0.43335573  1
  O2-  O179  1  0.93156517  0.82208006  0.75543687  1
  O2-  O180  1  0.31543383  0.07455738  0.24430747  1
  O2-  O181  1  0.31401636  0.07064546  0.56612958  1
  O2-  O182  1  0.31740921  0.07261278  0.90249229  1
  O2-  O183  1  0.31847005  0.57037183  0.24165586  1
  O2-  O184  1  0.32024309  0.56757704  0.56680561  1
  O2-  O185  1  0.31888079  0.57256061  0.91026072  1
  O2-  O186  1  0.82018788  0.07047419  0.23273254  1
  O2-  O187  1  0.82375228  0.07219535  0.56928068  1
  O2-  O188  1  0.82595946  0.07173729  0.91127284  1
  O2-  O189  1  0.82450515  0.56666808  0.23553591  1
  O2-  O190  1  0.82552444  0.56783227  0.57483846  1
  O2-  O191  1  0.82480540  0.56544443  0.89927059  1
  O2-  O192  1  0.05634139  0.08155659  0.27169913  1
  O2-  O193  1  0.04712229  0.08402428  0.60679232  1
  O2-  O194  1  0.05598188  0.08236467  0.93851446  1
  O2-  O195  1  0.05257422  0.58160443  0.27501741  1
  O2-  O196  1  0.04151089  0.58217145  0.59558814  1
  O2-  O197  1  0.04159710  0.58295591  0.93034648  1
  O2-  O198  1  0.54338749  0.08037376  0.27242418  1
  O2-  O199  1  0.54427339  0.07725855  0.59998856  1
  O2-  O200  1  0.53839826  0.08662163  0.94083988  1
  O2-  O201  1  0.53656814  0.58738381  0.26295330  1
  O2-  O202  1  0.53930994  0.58535572  0.59584909  1
  O2-  O203  1  0.54256109  0.58286093  0.93274136  1
  O2-  O204  1  0.16194743  0.21105145  0.26736104  1
  O2-  O205  1  0.15774283  0.20988700  0.60125546  1
  O2-  O206  1  0.16292463  0.21225717  0.93439614  1
  O2-  O207  1  0.16803629  0.70478994  0.27141314  1
  O2-  O208  1  0.16900250  0.70777695  0.59649517  1
  O2-  O209  1  0.16447847  0.71183046  0.93078166  1
  O2-  O210  1  0.66428784  0.19853588  0.27007062  1
  O2-  O211  1  0.66767461  0.20992068  0.59634249  1
  O2-  O212  1  0.66515810  0.19701912  0.93959964  1
  O2-  O213  1  0.66934359  0.70744871  0.26662524  1
  O2-  O214  1  0.67113422  0.70925515  0.59909424  1
  O2-  O215  1  0.67262112  0.70790370  0.93311518  1
  O2-  O216  1  0.08877185  0.45974541  0.06328569  1
  O2-  O217  1  0.08974044  0.45496822  0.39927030  1
  O2-  O218  1  0.08362287  0.45939615  0.73248423  1
  O2-  O219  1  0.08417291  0.95517380  0.06690441  1
  O2-  O220  1  0.08923410  0.95478625  0.39729897  1
  O2-  O221  1  0.08498589  0.95302106  0.73102862  1
  O2-  O222  1  0.57680172  0.45696374  0.06806463  1
  O2-  O223  1  0.58228882  0.45965887  0.39687478  1
  O2-  O224  1  0.58750824  0.45932416  0.72502391  1
  O2-  O225  1  0.58670770  0.96351994  0.07261732  1
  O2-  O226  1  0.57788944  0.94949481  0.40289284  1
  O2-  O227  1  0.57909666  0.95107434  0.73508480  1
  O2-  O228  1  0.20675187  0.33885242  0.06440113  1
  O2-  O229  1  0.20797229  0.33632992  0.39698076  1
  O2-  O230  1  0.19504340  0.33389715  0.73062292  1
  O2-  O231  1  0.20221892  0.83367027  0.06510507  1
  O2-  O232  1  0.20802916  0.83552374  0.39752255  1
  O2-  O233  1  0.20030962  0.83156818  0.72749391  1
  O2-  O234  1  0.70258601  0.32897176  0.06689704  1
  O2-  O235  1  0.69515668  0.33249722  0.39360242  1
  O2-  O236  1  0.70633499  0.33992679  0.72626439  1
  O2-  O237  1  0.71075383  0.83361263  0.06890604  1
  O2-  O238  1  0.71338869  0.83005792  0.40125583  1
  O2-  O239  1  0.71461859  0.83098211  0.73750630  1
  O2-  O240  1  0.45805358  0.41514695  0.26414098  1
  O2-  O241  1  0.45890365  0.41722344  0.59768013  1
  O2-  O242  1  0.45381213  0.41976387  0.93373312  1
  O2-  O243  1  0.44432651  0.91986761  0.27619893  1
  O2-  O244  1  0.44862061  0.91707130  0.60586680  1
  O2-  O245  1  0.45732203  0.92449344  0.93851665  1
  O2-  O246  1  0.96715927  0.41443998  0.26550554  1
  O2-  O247  1  0.96308422  0.40972700  0.60199571  1
  O2-  O248  1  0.96455959  0.41192122  0.93000842  1
  O2-  O249  1  0.96465482  0.91475877  0.26410459  1
  O2-  O250  1  0.95652074  0.91684569  0.60484917  1
  O2-  O251  1  0.95794768  0.91739564  0.93507514  1
  O2-  O252  1  0.33161575  0.28869187  0.26505165  1
  O2-  O253  1  0.32510570  0.29645360  0.60207710  1
  O2-  O254  1  0.33120935  0.28978435  0.93273359  1
  O2-  O255  1  0.33419282  0.79234351  0.26743930  1
  O2-  O256  1  0.33454338  0.79517843  0.60427395  1
  O2-  O257  1  0.32995134  0.80077076  0.93405423  1
  O2-  O258  1  0.82902435  0.29743904  0.26577464  1
  O2-  O259  1  0.83573564  0.30015236  0.60275202  1
  O2-  O260  1  0.83009277  0.29152822  0.93130852  1
  O2-  O261  1  0.83651547  0.78786035  0.26570321  1
  O2-  O262  1  0.83791334  0.79463138  0.60320367  1
  O2-  O263  1  0.83414720  0.80249244  0.93684865  1
  O2-  O264  1  0.41404364  0.04284731  0.07469132  1
  O2-  O265  1  0.41053084  0.04839233  0.39683797  1
  O2-  O266  1  0.41601522  0.04468969  0.73392485  1
  O2-  O267  1  0.41182884  0.54704349  0.06277459  1
  O2-  O268  1  0.41341861  0.54040035  0.39264504  1
  O2-  O269  1  0.41846237  0.53884818  0.73427413  1
  O2-  O270  1  0.92163773  0.05294223  0.06046951  1
  O2-  O271  1  0.92260731  0.04477814  0.39623415  1
  O2-  O272  1  0.91940866  0.04622740  0.73713506  1
  O2-  O273  1  0.92095414  0.53723825  0.06590689  1
  O2-  O274  1  0.91931352  0.53638305  0.40277608  1
  O2-  O275  1  0.91471417  0.53823343  0.72635612  1
  O2-  O276  1  0.28392197  0.16710804  0.06989238  1
  O2-  O277  1  0.28543932  0.16282214  0.39684668  1
  O2-  O278  1  0.28299860  0.16678469  0.73312971  1
  O2-  O279  1  0.28827818  0.66481562  0.06181045  1
  O2-  O280  1  0.29481677  0.66156969  0.39545571  1
  O2-  O281  1  0.28970882  0.66570348  0.73444438  1
  O2-  O282  1  0.79701075  0.16621724  0.06089624  1
  O2-  O283  1  0.79767792  0.17350875  0.39633045  1
  O2-  O284  1  0.79658351  0.17603251  0.73133363  1
  O2-  O285  1  0.80072277  0.67013068  0.06372719  1
  O2-  O286  1  0.79220935  0.66378776  0.40255666  1
  O2-  O287  1  0.80116414  0.66315248  0.72568891  1
