# generated using pymatgen
data_Ca2Al2SiO7
_symmetry_space_group_name_H-M   'P 1'
_cell_length_a   15.46740989
_cell_length_b   15.46574041
_cell_length_c   15.28944509
_cell_angle_alpha   90.00385784
_cell_angle_beta   90.01735156
_cell_angle_gamma   89.98545573
_symmetry_Int_Tables_number   1
_chemical_formula_structural   Ca2Al2SiO7
_chemical_formula_sum   'Ca48 Al48 Si24 O168'
_cell_volume   3657.46348932
_cell_formula_units_Z   24
loop_
 _symmetry_equiv_pos_site_id
 _symmetry_equiv_pos_as_xyz
  1  'x, y, z'
loop_
 _atom_type_symbol
 _atom_type_oxidation_number
  Ca2+  2.0
  Al0+  0.0
  Si0+  0.0
  O2-  -2.0
loop_
 _atom_site_type_symbol
 _atom_site_label
 _atom_site_symmetry_multiplicity
 _atom_site_fract_x
 _atom_site_fract_y
 _atom_site_fract_z
 _atom_site_occupancy
  Ca2+  Ca0  1  0.16361037  0.07369941  0.17023553  1
  Ca2+  Ca1  1  0.15409263  0.07937564  0.50095462  1
  Ca2+  Ca2  1  0.16865361  0.08109623  0.84205586  1
  Ca2+  Ca3  1  0.16192709  0.58013270  0.17419157  1
  Ca2+  Ca4  1  0.15965572  0.58096241  0.50245563  1
  Ca2+  Ca5  1  0.16599179  0.58783964  0.83983096  1
  Ca2+  Ca6  1  0.67497350  0.07936626  0.16423779  1
  Ca2+  Ca7  1  0.66944740  0.07896529  0.50483718  1
  Ca2+  Ca8  1  0.67367580  0.07493370  0.84632382  1
  Ca2+  Ca9  1  0.66892605  0.57949873  0.16851640  1
  Ca2+  Ca10  1  0.66426653  0.57828578  0.50438068  1
  Ca2+  Ca11  1  0.67189528  0.57837555  0.84206834  1
  Ca2+  Ca12  1  0.08235475  0.32961423  0.16011492  1
  Ca2+  Ca13  1  0.08323333  0.32367613  0.49402958  1
  Ca2+  Ca14  1  0.06478612  0.32810371  0.82743433  1
  Ca2+  Ca15  1  0.07886475  0.82998769  0.16093657  1
  Ca2+  Ca16  1  0.08128529  0.82336805  0.48899291  1
  Ca2+  Ca17  1  0.08373879  0.82686094  0.83441557  1
  Ca2+  Ca18  1  0.57983327  0.34024420  0.15783363  1
  Ca2+  Ca19  1  0.57904760  0.34512469  0.49892213  1
  Ca2+  Ca20  1  0.57483046  0.34380864  0.83057171  1
  Ca2+  Ca21  1  0.58881774  0.82229516  0.15874590  1
  Ca2+  Ca22  1  0.58513502  0.81850224  0.49330960  1
  Ca2+  Ca23  1  0.59843628  0.81978734  0.83512347  1
  Ca2+  Ca24  1  0.32759711  0.41608514  0.16997837  1
  Ca2+  Ca25  1  0.32689625  0.41477956  0.50125461  1
  Ca2+  Ca26  1  0.33416857  0.41374216  0.83726007  1
  Ca2+  Ca27  1  0.31982977  0.91666990  0.16795275  1
  Ca2+  Ca28  1  0.32593513  0.91602534  0.50150636  1
  Ca2+  Ca29  1  0.32593303  0.92544535  0.84640017  1
  Ca2+  Ca30  1  0.82810605  0.42123049  0.16713777  1
  Ca2+  Ca31  1  0.82169423  0.41356987  0.50761851  1
  Ca2+  Ca32  1  0.82573733  0.41656823  0.84422925  1
  Ca2+  Ca33  1  0.83929273  0.91369453  0.16492121  1
  Ca2+  Ca34  1  0.84020095  0.91544897  0.49876019  1
  Ca2+  Ca35  1  0.83340689  0.92309285  0.84676311  1
  Ca2+  Ca36  1  0.41550459  0.17279089  0.15743965  1
  Ca2+  Ca37  1  0.41729597  0.17360747  0.49892689  1
  Ca2+  Ca38  1  0.41217822  0.17687689  0.83247243  1
  Ca2+  Ca39  1  0.42962064  0.66192839  0.16168413  1
  Ca2+  Ca40  1  0.42876431  0.66091810  0.49766792  1
  Ca2+  Ca41  1  0.43134421  0.66684195  0.83092543  1
  Ca2+  Ca42  1  0.91929057  0.17169407  0.16104695  1
  Ca2+  Ca43  1  0.92445191  0.17261109  0.49874739  1
  Ca2+  Ca44  1  0.91138322  0.17528233  0.83114930  1
  Ca2+  Ca45  1  0.92382714  0.67411717  0.15743156  1
  Ca2+  Ca46  1  0.92532085  0.67229103  0.49345477  1
  Ca2+  Ca47  1  0.92285272  0.66602878  0.83679646  1
  Al0+  Al48  1  0.00154764  -0.00078683  0.00402937  1
  Al0+  Al49  1  0.00081574  0.00234660  0.33171271  1
  Al0+  Al50  1  -0.00107453  0.00020665  0.66699672  1
  Al0+  Al51  1  -0.00038982  0.49798287  -0.00421603  1
  Al0+  Al52  1  -0.00207426  0.49935646  0.33759913  1
  Al0+  Al53  1  -0.00264717  0.50025428  0.66026236  1
  Al0+  Al54  1  0.50016385  0.00081192  0.00856359  1
  Al0+  Al55  1  0.50076164  0.00130993  0.33517100  1
  Al0+  Al56  1  0.49762418  -0.00002603  0.66828719  1
  Al0+  Al57  1  0.49844890  0.50015977  -0.00551328  1
  Al0+  Al58  1  0.49964151  0.50002539  0.33263428  1
  Al0+  Al59  1  0.49801573  0.50036720  0.66206472  1
  Al0+  Al60  1  0.25128971  0.25124983  -0.00165042  1
  Al0+  Al61  1  0.25122317  0.25102886  0.33352311  1
  Al0+  Al62  1  0.25054113  0.24963102  0.65929242  1
  Al0+  Al63  1  0.25376890  0.74973159  0.00118053  1
  Al0+  Al64  1  0.25281090  0.75112688  0.33701343  1
  Al0+  Al65  1  0.25017591  0.74987878  0.66452465  1
  Al0+  Al66  1  0.74767920  0.24836943  0.00469547  1
  Al0+  Al67  1  0.74856758  0.24903271  0.33947847  1
  Al0+  Al68  1  0.74675318  0.24831680  0.66787019  1
  Al0+  Al69  1  0.75382645  0.74860674  -0.00144683  1
  Al0+  Al70  1  0.74996757  0.74984030  0.32773167  1
  Al0+  Al71  1  0.75054633  0.74819175  0.66119608  1
  Al0+  Al72  1  0.06976666  0.17932331  0.65291645  1
  Al0+  Al73  1  0.67796020  0.43026169  0.68190417  1
  Al0+  Al74  1  0.07132850  0.18233766  0.31740678  1
  Al0+  Al75  1  0.17758886  0.42905845  0.34676563  1
  Al0+  Al76  1  0.07287222  0.67968991  0.65201247  1
  Al0+  Al77  1  0.57204821  0.67988583  0.98611100  1
  Al0+  Al78  1  0.17926073  0.93070179  0.34963396  1
  Al0+  Al79  1  0.32044355  0.07481945  0.01530439  1
  Al0+  Al80  1  0.92375130  0.32137493  0.65101869  1
  Al0+  Al81  1  0.42994852  0.32065596  0.65021085  1
  Al0+  Al82  1  0.68016124  0.92614953  0.01543461  1
  Al0+  Al83  1  0.67921851  0.43005849  0.34832865  1
  Al0+  Al84  1  0.93046805  0.82147789  0.31735501  1
  Al0+  Al85  1  0.57067690  0.68076651  0.65209694  1
  Al0+  Al86  1  0.82273019  0.07225763  0.01631566  1
  Al0+  Al87  1  0.42938832  0.32013332  0.98653491  1
  Al0+  Al88  1  0.92678546  0.31943866  0.98916611  1
  Al0+  Al89  1  0.56862516  0.67869458  0.31753024  1
  Al0+  Al90  1  0.93086478  0.82247693  0.98328345  1
  Al0+  Al91  1  0.17979718  0.92716795  0.01523791  1
  Al0+  Al92  1  0.07326043  0.67645073  0.31881912  1
  Al0+  Al93  1  0.07418474  0.67772604  0.98587818  1
  Al0+  Al94  1  0.82432602  0.56986863  0.01499892  1
  Al0+  Al95  1  0.67657404  0.43061940  0.01424236  1
  Si0+  Si96  1  0.57267119  0.17669904  0.31844155  1
  Si0+  Si97  1  0.57168540  0.17603213  0.98461983  1
  Si0+  Si98  1  0.92438064  0.32117623  0.31769432  1
  Si0+  Si99  1  0.17931724  0.43031564  0.01080321  1
  Si0+  Si100  1  0.82068028  0.57421909  0.35176724  1
  Si0+  Si101  1  0.67863088  0.92819784  0.34943602  1
  Si0+  Si102  1  0.42696219  0.82374038  0.65045069  1
  Si0+  Si103  1  0.82062803  0.07103859  0.35126274  1
  Si0+  Si104  1  0.32213769  0.57071443  0.01283396  1
  Si0+  Si105  1  0.17808483  0.42762516  0.68085660  1
  Si0+  Si106  1  0.31907598  0.57055964  0.68177138  1
  Si0+  Si107  1  0.67766184  0.92720095  0.67899290  1
  Si0+  Si108  1  0.32260776  0.57121453  0.35031520  1
  Si0+  Si109  1  0.81989721  0.06886823  0.68110055  1
  Si0+  Si110  1  0.07252398  0.17880596  0.98539272  1
  Si0+  Si111  1  0.17889158  0.92911712  0.68139795  1
  Si0+  Si112  1  0.57031401  0.17463576  0.65047418  1
  Si0+  Si113  1  0.42904299  0.82556338  0.31638496  1
  Si0+  Si114  1  0.32124297  0.07215705  0.68172349  1
  Si0+  Si115  1  0.43149232  0.31937598  0.31766257  1
  Si0+  Si116  1  0.82267287  0.57334647  0.68342094  1
  Si0+  Si117  1  0.92878190  0.82230090  0.65064172  1
  Si0+  Si118  1  0.42934433  0.82375098  0.98468492  1
  Si0+  Si119  1  0.32341376  0.07301094  0.35280790  1
  O2-  O120  1  0.24969430  0.00206596  0.06478557  1
  O2-  O121  1  0.25401242  0.00561358  0.39816639  1
  O2-  O122  1  0.24904154  0.00172490  0.72254902  1
  O2-  O123  1  0.24646218  0.50461504  0.05380051  1
  O2-  O124  1  0.24748626  0.50897056  0.39412723  1
  O2-  O125  1  0.24527738  0.50217981  0.72428430  1
  O2-  O126  1  0.75372371  -0.00340362  0.06590488  1
  O2-  O127  1  0.75081689  -0.00242144  0.39292988  1
  O2-  O128  1  0.74817913  -0.00215892  0.72159394  1
  O2-  O129  1  0.74956645  0.50054118  0.06510752  1
  O2-  O130  1  0.75396516  0.50352523  0.39670679  1
  O2-  O131  1  0.75648971  0.50144214  0.72659259  1
  O2-  O132  1  -0.00113800  0.25958753  0.27233483  1
  O2-  O133  1  0.00047690  0.25363978  0.60186814  1
  O2-  O134  1  -0.00154706  0.24161985  0.94186017  1
  O2-  O135  1  0.00287367  0.74922266  0.26899660  1
  O2-  O136  1  -0.00182701  0.75459702  0.60694484  1
  O2-  O137  1  0.00360275  0.75048164  0.93452713  1
  O2-  O138  1  0.50284961  0.24871095  0.27655009  1
  O2-  O139  1  0.50643276  0.24703178  0.60445202  1
  O2-  O140  1  0.50384567  0.24524534  0.93977870  1
  O2-  O141  1  0.49574964  0.75557545  0.27194739  1
  O2-  O142  1  0.49782403  0.75774765  0.60563598  1
  O2-  O143  1  0.50220096  0.76010496  0.93939213  1
  O2-  O144  1  0.07535302  0.18400741  0.09093165  1
  O2-  O145  1  0.06800646  0.18157927  0.43065798  1
  O2-  O146  1  0.06903779  0.17822574  0.76633805  1
  O2-  O147  1  0.07484798  0.67637870  0.09883782  1
  O2-  O148  1  0.07036295  0.67917273  0.43289971  1
  O2-  O149  1  0.07700204  0.68251369  0.76445197  1
  O2-  O150  1  0.57073057  0.17720654  0.09052106  1
  O2-  O151  1  0.57074503  0.17368638  0.42374713  1
  O2-  O152  1  0.56718433  0.16904375  0.75527826  1
  O2-  O153  1  0.56704034  0.67738276  0.09897103  1
  O2-  O154  1  0.56669393  0.67910675  0.43114056  1
  O2-  O155  1  0.57076163  0.68181329  0.76481259  1
  O2-  O156  1  0.18272195  0.42609368  0.23346726  1
  O2-  O157  1  0.18195224  0.42788298  0.57566056  1
  O2-  O158  1  0.18163660  0.42894136  0.90552535  1
  O2-  O159  1  0.18096972  0.93152865  0.23743476  1
  O2-  O160  1  0.17975456  0.92948997  0.57629507  1
  O2-  O161  1  0.18282389  0.92757014  0.90069561  1
  O2-  O162  1  0.67785518  0.42969071  0.23596927  1
  O2-  O163  1  0.67757389  0.43385965  0.56837767  1
  O2-  O164  1  0.67558495  0.43298878  0.90046029  1
  O2-  O165  1  0.67583570  0.93054352  0.24525243  1
  O2-  O166  1  0.67761354  0.92891953  0.57351214  1
  O2-  O167  1  0.68058797  0.92948979  0.90071643  1
  O2-  O168  1  0.42831116  0.32074201  0.09983813  1
  O2-  O169  1  0.43184760  0.31903069  0.42294062  1
  O2-  O170  1  0.42819802  0.31947393  0.76294663  1
  O2-  O171  1  0.42716186  0.81880235  0.09010650  1
  O2-  O172  1  0.43251859  0.82728174  0.42247931  1
  O2-  O173  1  0.42512505  0.82340326  0.75555652  1
  O2-  O174  1  0.93131572  0.32041992  0.10232097  1
  O2-  O175  1  0.92233851  0.31568782  0.42325513  1
  O2-  O176  1  0.92362921  0.31790315  0.76469840  1
  O2-  O177  1  0.93264737  0.82113442  0.09635917  1
  O2-  O178  1  0.93087330  0.82029695  0.43198189  1
  O2-  O179  1  0.92802721  0.82479634  0.75544663  1
  O2-  O180  1  0.32518504  0.07261267  0.24788709  1
  O2-  O181  1  0.32544212  0.07005145  0.57682918  1
  O2-  O182  1  0.31684010  0.07541073  0.90081739  1
  O2-  O183  1  0.32695202  0.56652925  0.24481186  1
  O2-  O184  1  0.31994718  0.56975093  0.57664327  1
  O2-  O185  1  0.32391943  0.56927545  0.90743071  1
  O2-  O186  1  0.81808071  0.07451821  0.24693729  1
  O2-  O187  1  0.81991134  0.06705551  0.57565632  1
  O2-  O188  1  0.81892685  0.07289410  0.90196272  1
  O2-  O189  1  0.81946771  0.57405040  0.24664663  1
  O2-  O190  1  0.81968410  0.57697684  0.57776064  1
  O2-  O191  1  0.82404490  0.56724337  0.90093296  1
  O2-  O192  1  0.03837974  0.08676474  0.26481406  1
  O2-  O193  1  0.03760944  0.08146142  0.59949609  1
  O2-  O194  1  0.05432446  0.08276280  0.94310721  1
  O2-  O195  1  0.04675754  0.57562954  0.27016320  1
  O2-  O196  1  0.04395642  0.58275989  0.59839218  1
  O2-  O197  1  0.04527679  0.57989984  0.93119424  1
  O2-  O198  1  0.54471083  0.08539591  0.27058006  1
  O2-  O199  1  0.54057178  0.08272681  0.60092805  1
  O2-  O200  1  0.54659799  0.08173055  0.93924977  1
  O2-  O201  1  0.53395847  0.58331691  0.26408696  1
  O2-  O202  1  0.53411358  0.58684610  0.59707851  1
  O2-  O203  1  0.53331283  0.58731122  0.92981178  1
  O2-  O204  1  0.16972210  0.21060618  0.26622847  1
  O2-  O205  1  0.16804813  0.20393494  0.59785943  1
  O2-  O206  1  0.16321967  0.21032650  0.93690203  1
  O2-  O207  1  0.17574699  0.69999688  0.27285834  1
  O2-  O208  1  0.16948424  0.70974034  0.59698094  1
  O2-  O209  1  0.17436756  0.70496665  0.93415636  1
  O2-  O210  1  0.66529000  0.20353877  0.27356400  1
  O2-  O211  1  0.66499713  0.19540602  0.60526517  1
  O2-  O212  1  0.66537820  0.19935686  0.93869378  1
  O2-  O213  1  0.66502752  0.70868657  0.26527752  1
  O2-  O214  1  0.66636423  0.71046189  0.59521982  1
  O2-  O215  1  0.66914457  0.70658793  0.93177736  1
  O2-  O216  1  0.08744155  0.45327874  0.05885259  1
  O2-  O217  1  0.07936514  0.45155893  0.40225520  1
  O2-  O218  1  0.08319555  0.45093415  0.72380164  1
  O2-  O219  1  0.08224389  0.95329647  0.06883685  1
  O2-  O220  1  0.08267927  0.96376242  0.40333485  1
  O2-  O221  1  0.08655690  0.95587686  0.72799155  1
  O2-  O222  1  0.57766374  0.46136978  0.06538116  1
  O2-  O223  1  0.58201515  0.46279315  0.40123863  1
  O2-  O224  1  0.57991012  0.46336501  0.73155856  1
  O2-  O225  1  0.58228505  0.95369494  0.07005330  1
  O2-  O226  1  0.58784438  0.95837688  0.39903163  1
  O2-  O227  1  0.58530040  0.95333344  0.72584392  1
  O2-  O228  1  0.21191447  0.34091462  0.05981850  1
  O2-  O229  1  0.21612663  0.33493167  0.40244943  1
  O2-  O230  1  0.21110538  0.33662380  0.72640780  1
  O2-  O231  1  0.21369087  0.83050131  0.06911550  1
  O2-  O232  1  0.21219828  0.83425003  0.40499989  1
  O2-  O233  1  0.20925527  0.83778000  0.72782263  1
  O2-  O234  1  0.69953005  0.33075464  0.06552516  1
  O2-  O235  1  0.70607059  0.33206214  0.40354094  1
  O2-  O236  1  0.70068017  0.32961955  0.73189331  1
  O2-  O237  1  0.70664339  0.82735627  0.06656863  1
  O2-  O238  1  0.70600669  0.83566838  0.39604629  1
  O2-  O239  1  0.70625909  0.83478600  0.72394565  1
  O2-  O240  1  0.45852918  0.41114242  0.27090558  1
  O2-  O241  1  0.45878904  0.41672059  0.59448587  1
  O2-  O242  1  0.45853557  0.41546557  0.92922989  1
  O2-  O243  1  0.45520240  0.91908870  0.27108929  1
  O2-  O244  1  0.44971748  0.91816453  0.60425753  1
  O2-  O245  1  0.44866566  0.92043862  0.94263115  1
  O2-  O246  1  0.94254489  0.41805927  0.27765841  1
  O2-  O247  1  0.94563081  0.42107401  0.59909417  1
  O2-  O248  1  0.96103216  0.41225489  0.93070687  1
  O2-  O249  1  0.95676788  0.92092134  0.26754909  1
  O2-  O250  1  0.95349636  0.91593310  0.60405303  1
  O2-  O251  1  0.95838728  0.92239934  0.93161819  1
  O2-  O252  1  0.34002914  0.29153643  0.27049269  1
  O2-  O253  1  0.33552998  0.28738505  0.59339495  1
  O2-  O254  1  0.33357834  0.28933312  0.92949004  1
  O2-  O255  1  0.33460905  0.80121347  0.27307783  1
  O2-  O256  1  0.33530893  0.79512566  0.60187967  1
  O2-  O257  1  0.33871238  0.79343765  0.93515172  1
  O2-  O258  1  0.83273013  0.28815357  0.27216578  1
  O2-  O259  1  0.82670540  0.28738588  0.59790297  1
  O2-  O260  1  0.82925136  0.28954987  0.93639318  1
  O2-  O261  1  0.83114500  0.79611417  0.26606198  1
  O2-  O262  1  0.83605823  0.79639690  0.60209272  1
  O2-  O263  1  0.83256094  0.79508749  0.92965490  1
  O2-  O264  1  0.41926137  0.05124708  0.06874649  1
  O2-  O265  1  0.41713016  0.04630418  0.40033140  1
  O2-  O266  1  0.41215210  0.04415438  0.73151596  1
  O2-  O267  1  0.41040384  0.53615086  0.06236503  1
  O2-  O268  1  0.41230447  0.53617301  0.39965789  1
  O2-  O269  1  0.40987387  0.53936136  0.72886460  1
  O2-  O270  1  0.92225364  0.04946625  0.06796535  1
  O2-  O271  1  0.91219155  0.04334315  0.39882919  1
  O2-  O272  1  0.91109936  0.04134300  0.72970335  1
  O2-  O273  1  0.92159499  0.53762552  0.06816785  1
  O2-  O274  1  0.91470881  0.55135754  0.39851539  1
  O2-  O275  1  0.91830666  0.55174224  0.72692801  1
  O2-  O276  1  0.29191316  0.17313566  0.06872906  1
  O2-  O277  1  0.29914696  0.16735930  0.39786133  1
  O2-  O278  1  0.29342315  0.16501236  0.72670163  1
  O2-  O279  1  0.30246300  0.66329259  0.06140516  1
  O2-  O280  1  0.30830530  0.66736966  0.39552208  1
  O2-  O281  1  0.29482829  0.66384065  0.72852230  1
  O2-  O282  1  0.78922883  0.16728086  0.07320521  1
  O2-  O283  1  0.78879241  0.15996818  0.40258304  1
  O2-  O284  1  0.79148171  0.16006210  0.72857730  1
  O2-  O285  1  0.79899109  0.66894745  0.06576815  1
  O2-  O286  1  0.79159444  0.66741869  0.39784185  1
  O2-  O287  1  0.79329379  0.66652193  0.72913014  1
