# generated using pymatgen
data_Ca2Al2SiO7
_symmetry_space_group_name_H-M   'P 1'
_cell_length_a   15.46184498
_cell_length_b   15.46006024
_cell_length_c   15.28583974
_cell_angle_alpha   90.01100678
_cell_angle_beta   90.01534970
_cell_angle_gamma   90.01527130
_symmetry_Int_Tables_number   1
_chemical_formula_structural   Ca2Al2SiO7
_chemical_formula_sum   'Ca48 Al48 Si24 O168'
_cell_volume   3653.94292798
_cell_formula_units_Z   24
loop_
 _symmetry_equiv_pos_site_id
 _symmetry_equiv_pos_as_xyz
  1  'x, y, z'
loop_
 _atom_type_symbol
 _atom_type_oxidation_number
  Ca2+  2.0
  Al0+  0.0
  Si0+  0.0
  O2-  -2.0
loop_
 _atom_site_type_symbol
 _atom_site_label
 _atom_site_symmetry_multiplicity
 _atom_site_fract_x
 _atom_site_fract_y
 _atom_site_fract_z
 _atom_site_occupancy
  Ca2+  Ca0  1  0.15645577  0.07506410  0.17026611  1
  Ca2+  Ca1  1  0.16574670  0.07621520  0.50496873  1
  Ca2+  Ca2  1  0.15723114  0.07914609  0.83434123  1
  Ca2+  Ca3  1  0.15974507  0.56978484  0.17373059  1
  Ca2+  Ca4  1  0.16667372  0.57531954  0.50657624  1
  Ca2+  Ca5  1  0.16753653  0.57073224  0.83562126  1
  Ca2+  Ca6  1  0.68379926  0.08232450  0.17630692  1
  Ca2+  Ca7  1  0.67031748  0.07158477  0.50274218  1
  Ca2+  Ca8  1  0.67409037  0.07795806  0.83822788  1
  Ca2+  Ca9  1  0.66860158  0.57880803  0.17503142  1
  Ca2+  Ca10  1  0.65968252  0.58278230  0.50192929  1
  Ca2+  Ca11  1  0.66714092  0.58465513  0.83399110  1
  Ca2+  Ca12  1  0.08383908  0.32198611  0.15806116  1
  Ca2+  Ca13  1  0.08887009  0.32453271  0.49520718  1
  Ca2+  Ca14  1  0.08205525  0.32574684  0.82567298  1
  Ca2+  Ca15  1  0.08521588  0.83177316  0.16158118  1
  Ca2+  Ca16  1  0.09242856  0.82958662  0.49088672  1
  Ca2+  Ca17  1  0.07939167  0.84393450  0.83229616  1
  Ca2+  Ca18  1  0.57837390  0.33652197  0.16172111  1
  Ca2+  Ca19  1  0.58033734  0.33416776  0.49328313  1
  Ca2+  Ca20  1  0.57454474  0.33209959  0.83117840  1
  Ca2+  Ca21  1  0.58264489  0.83539768  0.16947997  1
  Ca2+  Ca22  1  0.58096139  0.82848360  0.49057123  1
  Ca2+  Ca23  1  0.58386439  0.82778754  0.82101678  1
  Ca2+  Ca24  1  0.32311342  0.41231049  0.16829973  1
  Ca2+  Ca25  1  0.32021775  0.42327164  0.50610916  1
  Ca2+  Ca26  1  0.32269455  0.41587461  0.83595594  1
  Ca2+  Ca27  1  0.32469919  0.91548521  0.17287812  1
  Ca2+  Ca28  1  0.32568541  0.91738794  0.50559010  1
  Ca2+  Ca29  1  0.32075306  0.92358002  0.83440559  1
  Ca2+  Ca30  1  0.82905177  0.41228538  0.17330405  1
  Ca2+  Ca31  1  0.83009390  0.41499320  0.50281698  1
  Ca2+  Ca32  1  0.83828191  0.41119670  0.83727571  1
  Ca2+  Ca33  1  0.83724891  0.92769851  0.17207146  1
  Ca2+  Ca34  1  0.82667218  0.92061177  0.50086354  1
  Ca2+  Ca35  1  0.83163074  0.92102227  0.84157267  1
  Ca2+  Ca36  1  0.41987303  0.17358990  0.16092608  1
  Ca2+  Ca37  1  0.41269432  0.16358583  0.49824555  1
  Ca2+  Ca38  1  0.40916576  0.17029934  0.82974676  1
  Ca2+  Ca39  1  0.41955371  0.67244007  0.17014548  1
  Ca2+  Ca40  1  0.42244217  0.67012369  0.49214889  1
  Ca2+  Ca41  1  0.42051673  0.66516240  0.82409477  1
  Ca2+  Ca42  1  0.92348183  0.16452644  0.15954735  1
  Ca2+  Ca43  1  0.92754484  0.16740336  0.49666125  1
  Ca2+  Ca44  1  0.92578212  0.17314541  0.83089758  1
  Ca2+  Ca45  1  0.92280448  0.67402321  0.16515911  1
  Ca2+  Ca46  1  0.92566227  0.67096785  0.49367737  1
  Ca2+  Ca47  1  0.91744819  0.67508331  0.83169854  1
  Al0+  Al48  1  -0.00145412  -0.00119798  0.00001286  1
  Al0+  Al49  1  0.00154108  0.00131059  0.33988797  1
  Al0+  Al50  1  -0.00307024  0.00277452  0.66460119  1
  Al0+  Al51  1  -0.00040865  0.50135446  0.00260689  1
  Al0+  Al52  1  -0.00169773  0.49950702  0.33423444  1
  Al0+  Al53  1  -0.00378050  0.50227673  0.66731806  1
  Al0+  Al54  1  0.49903204  -0.00238012  -0.00102764  1
  Al0+  Al55  1  0.50107276  0.00171656  0.32964681  1
  Al0+  Al56  1  0.49940157  -0.00064856  0.67505555  1
  Al0+  Al57  1  0.50027478  0.49992616  -0.00410654  1
  Al0+  Al58  1  0.50022096  0.50088155  0.33214450  1
  Al0+  Al59  1  0.50109924  0.49959733  0.66622724  1
  Al0+  Al60  1  0.25181677  0.24973669  -0.00424369  1
  Al0+  Al61  1  0.24902735  0.24995072  0.33165546  1
  Al0+  Al62  1  0.24979905  0.25036288  0.66661178  1
  Al0+  Al63  1  0.25317684  0.74837667  0.00226472  1
  Al0+  Al64  1  0.25180074  0.74861930  0.32605267  1
  Al0+  Al65  1  0.24986615  0.75077421  0.67567734  1
  Al0+  Al66  1  0.74961144  0.24872022  0.00095274  1
  Al0+  Al67  1  0.75035344  0.25136828  0.34359273  1
  Al0+  Al68  1  0.74865982  0.25030726  0.66358954  1
  Al0+  Al69  1  0.75047360  0.74803325  -0.00236244  1
  Al0+  Al70  1  0.75106052  0.74972941  0.33119847  1
  Al0+  Al71  1  0.74920738  0.74835916  0.66503624  1
  Al0+  Al72  1  0.32266579  0.57078761  0.68065188  1
  Al0+  Al73  1  0.17998318  0.93014360  0.01518896  1
  Al0+  Al74  1  0.42912712  0.82384303  0.31771715  1
  Al0+  Al75  1  0.67792901  0.43108735  0.34704859  1
  Al0+  Al76  1  0.17776832  0.42802221  0.34629086  1
  Al0+  Al77  1  0.17563513  0.92909081  0.68173627  1
  Al0+  Al78  1  0.67820770  0.92867004  0.34692929  1
  Al0+  Al79  1  0.43035675  0.32058125  0.98530849  1
  Al0+  Al80  1  0.07083324  0.17831623  0.98459061  1
  Al0+  Al81  1  0.17901616  0.42883306  0.01457994  1
  Al0+  Al82  1  0.32145515  0.07164367  0.68128967  1
  Al0+  Al83  1  0.57043357  0.67908846  0.65173783  1
  Al0+  Al84  1  0.07223200  0.67709056  0.32068924  1
  Al0+  Al85  1  0.18167733  0.92772908  0.34483175  1
  Al0+  Al86  1  0.92722436  0.32282546  0.98762184  1
  Al0+  Al87  1  0.68083904  0.92758107  0.68043083  1
  Al0+  Al88  1  0.81879666  0.06988897  0.01284168  1
  Al0+  Al89  1  0.93066464  0.81919932  0.98752628  1
  Al0+  Al90  1  0.17619612  0.42985164  0.68155073  1
  Al0+  Al91  1  0.57265577  0.67852699  0.31622410  1
  Al0+  Al92  1  0.07109445  0.17928552  0.31823013  1
  Al0+  Al93  1  0.82385094  0.07239046  0.35192528  1
  Al0+  Al94  1  0.07181571  0.17978926  0.64821891  1
  Al0+  Al95  1  0.92736835  0.32369947  0.64912147  1
  Si0+  Si96  1  0.81965207  0.07328720  0.68530888  1
  Si0+  Si97  1  0.42992258  0.32079225  0.64999225  1
  Si0+  Si98  1  0.32154608  0.57075911  0.34765979  1
  Si0+  Si99  1  0.32434914  0.07217194  0.01820749  1
  Si0+  Si100  1  0.07104393  0.68123459  0.65436103  1
  Si0+  Si101  1  0.82096777  0.57321045  0.01547552  1
  Si0+  Si102  1  0.07429529  0.67714497  0.98291685  1
  Si0+  Si103  1  0.92785371  0.82144212  0.65185713  1
  Si0+  Si104  1  0.42728879  0.82241398  0.65224169  1
  Si0+  Si105  1  0.81953194  0.57143305  0.68268557  1
  Si0+  Si106  1  0.67692481  0.92456698  0.01643831  1
  Si0+  Si107  1  0.57337905  0.18022391  0.31963436  1
  Si0+  Si108  1  0.92973625  0.82252573  0.31845778  1
  Si0+  Si109  1  0.42749662  0.82143283  0.98159642  1
  Si0+  Si110  1  0.32312062  0.07337313  0.34623710  1
  Si0+  Si111  1  0.57007667  0.68009392  0.98360160  1
  Si0+  Si112  1  0.67878034  0.42771525  0.68323845  1
  Si0+  Si113  1  0.57019814  0.17742120  0.65169147  1
  Si0+  Si114  1  0.92679626  0.32121322  0.31781810  1
  Si0+  Si115  1  0.82221283  0.57262328  0.35059865  1
  Si0+  Si116  1  0.57238766  0.17668493  0.98399445  1
  Si0+  Si117  1  0.67938709  0.43039254  0.01265053  1
  Si0+  Si118  1  0.42961095  0.32082916  0.31936871  1
  Si0+  Si119  1  0.32506830  0.57052129  0.01895950  1
  O2-  O120  1  0.25418952  0.00558041  0.06240805  1
  O2-  O121  1  0.25798591  0.00138913  0.38963454  1
  O2-  O122  1  0.24518226  0.00413949  0.73100228  1
  O2-  O123  1  0.25288214  0.50514095  0.06213334  1
  O2-  O124  1  0.24920536  0.50644701  0.39194325  1
  O2-  O125  1  0.24987345  0.50051927  0.73171600  1
  O2-  O126  1  0.74273860  -0.00426041  0.05944642  1
  O2-  O127  1  0.75044647  -0.00081476  0.39839187  1
  O2-  O128  1  0.75396766  0.00169931  0.72984921  1
  O2-  O129  1  0.75462783  0.49644806  0.05534228  1
  O2-  O130  1  0.75070599  0.50679062  0.39498691  1
  O2-  O131  1  0.75165564  0.49684981  0.72502101  1
  O2-  O132  1  -0.00477126  0.25375688  0.27284375  1
  O2-  O133  1  0.00199022  0.25509137  0.59899116  1
  O2-  O134  1  0.00264078  0.25561696  0.93673422  1
  O2-  O135  1  0.00035931  0.75517862  0.27482864  1
  O2-  O136  1  0.00562288  0.75721175  0.61101523  1
  O2-  O137  1  0.00812010  0.74816709  0.93827708  1
  O2-  O138  1  0.50212805  0.25090237  0.27714701  1
  O2-  O139  1  0.49784334  0.24651667  0.60773337  1
  O2-  O140  1  0.50173753  0.24242055  0.93825914  1
  O2-  O141  1  0.50397975  0.75384063  0.26680975  1
  O2-  O142  1  0.49456636  0.75282166  0.60706738  1
  O2-  O143  1  0.50125411  0.75236688  0.94062007  1
  O2-  O144  1  0.06824309  0.17762235  0.09845384  1
  O2-  O145  1  0.07383148  0.18034991  0.43076138  1
  O2-  O146  1  0.06831050  0.17843780  0.76170274  1
  O2-  O147  1  0.07105643  0.67645076  0.08859198  1
  O2-  O148  1  0.07061994  0.67766985  0.43445805  1
  O2-  O149  1  0.06659324  0.67882353  0.75936883  1
  O2-  O150  1  0.57274541  0.17972372  0.08975102  1
  O2-  O151  1  0.57104691  0.18049869  0.42489725  1
  O2-  O152  1  0.57226754  0.18120013  0.75685169  1
  O2-  O153  1  0.57032388  0.67828925  0.08820882  1
  O2-  O154  1  0.56799532  0.67644708  0.42952706  1
  O2-  O155  1  0.57181602  0.67999088  0.76560228  1
  O2-  O156  1  0.18079652  0.42669938  0.23308488  1
  O2-  O157  1  0.17846198  0.43195316  0.56774471  1
  O2-  O158  1  0.17981287  0.43112481  0.90178192  1
  O2-  O159  1  0.18062253  0.92892618  0.23166865  1
  O2-  O160  1  0.17974304  0.92506183  0.56815610  1
  O2-  O161  1  0.18093991  0.93088741  0.90242119  1
  O2-  O162  1  0.67856084  0.43030300  0.23331225  1
  O2-  O163  1  0.67656472  0.42885179  0.57832326  1
  O2-  O164  1  0.67717058  0.43302624  0.90749925  1
  O2-  O165  1  0.67974914  0.93248188  0.23308815  1
  O2-  O166  1  0.68177036  0.92806560  0.56775885  1
  O2-  O167  1  0.67829773  0.92323410  0.91061312  1
  O2-  O168  1  0.43450159  0.32151838  0.09892480  1
  O2-  O169  1  0.43030165  0.32013162  0.42456362  1
  O2-  O170  1  0.43390842  0.32204349  0.75511359  1
  O2-  O171  1  0.42794605  0.82174632  0.08642992  1
  O2-  O172  1  0.42794937  0.82198846  0.43133634  1
  O2-  O173  1  0.43087957  0.82063183  0.75819998  1
  O2-  O174  1  0.92411529  0.32105850  0.10108781  1
  O2-  O175  1  0.92723753  0.32159946  0.42311716  1
  O2-  O176  1  0.92558902  0.32094285  0.76265521  1
  O2-  O177  1  0.92876665  0.81621922  0.10036660  1
  O2-  O178  1  0.92847884  0.81922337  0.42444271  1
  O2-  O179  1  0.92527800  0.81797071  0.75713292  1
  O2-  O180  1  0.32336902  0.07614347  0.24074045  1
  O2-  O181  1  0.32531866  0.06749525  0.56747492  1
  O2-  O182  1  0.32855852  0.06886762  0.91319113  1
  O2-  O183  1  0.32372657  0.56669062  0.24198811  1
  O2-  O184  1  0.32182045  0.56944438  0.56692140  1
  O2-  O185  1  0.32763310  0.56937016  0.91355507  1
  O2-  O186  1  0.82237029  0.07256516  0.23789054  1
  O2-  O187  1  0.81712653  0.07219307  0.57997318  1
  O2-  O188  1  0.81519704  0.06828813  0.89973750  1
  O2-  O189  1  0.82243126  0.57042903  0.24470670  1
  O2-  O190  1  0.81856455  0.57412337  0.57791812  1
  O2-  O191  1  0.81719385  0.57778304  0.91042013  1
  O2-  O192  1  0.03938958  0.08124977  0.26763720  1
  O2-  O193  1  0.03952070  0.08138672  0.59561747  1
  O2-  O194  1  0.03666560  0.08175709  0.93207971  1
  O2-  O195  1  0.03546920  0.58248082  0.26529431  1
  O2-  O196  1  0.03739078  0.59204040  0.60521346  1
  O2-  O197  1  0.04372067  0.58546766  0.93611034  1
  O2-  O198  1  0.54788640  0.08995298  0.26872531  1
  O2-  O199  1  0.54274179  0.08441693  0.60679871  1
  O2-  O200  1  0.55045609  0.08117308  0.93957021  1
  O2-  O201  1  0.54048050  0.58078721  0.26225387  1
  O2-  O202  1  0.54247343  0.58090690  0.59937428  1
  O2-  O203  1  0.54151199  0.58891102  0.93485805  1
  O2-  O204  1  0.16753266  0.21054385  0.26342708  1
  O2-  O205  1  0.17231421  0.20499205  0.59715763  1
  O2-  O206  1  0.17129122  0.20063293  0.93387283  1
  O2-  O207  1  0.16835489  0.70165358  0.26391214  1
  O2-  O208  1  0.16525209  0.70422189  0.60973236  1
  O2-  O209  1  0.17029702  0.69796632  0.94030318  1
  O2-  O210  1  0.66506996  0.21127258  0.27406556  1
  O2-  O211  1  0.66026195  0.20719684  0.60246274  1
  O2-  O212  1  0.66370551  0.20586320  0.93583755  1
  O2-  O213  1  0.67294482  0.70177339  0.26396165  1
  O2-  O214  1  0.66713963  0.70896947  0.59780190  1
  O2-  O215  1  0.66249262  0.70540960  0.93566723  1
  O2-  O216  1  0.08205448  0.45970475  0.06873910  1
  O2-  O217  1  0.08046496  0.45657521  0.39897383  1
  O2-  O218  1  0.07803807  0.46115738  0.73335021  1
  O2-  O219  1  0.08210254  0.95782132  0.06753206  1
  O2-  O220  1  0.08634010  0.95642075  0.40094440  1
  O2-  O221  1  0.07516424  0.95635645  0.73179703  1
  O2-  O222  1  0.58935999  0.46350368  0.06080433  1
  O2-  O223  1  0.58097568  0.46048347  0.40163735  1
  O2-  O224  1  0.58848860  0.45821701  0.73208091  1
  O2-  O225  1  0.58121121  0.94660065  0.05951603  1
  O2-  O226  1  0.57979936  0.95919607  0.39903257  1
  O2-  O227  1  0.58515499  0.95701191  0.73660900  1
  O2-  O228  1  0.21380506  0.33200504  0.06606581  1
  O2-  O229  1  0.21493138  0.33374319  0.40035681  1
  O2-  O230  1  0.20618934  0.33177412  0.73240228  1
  O2-  O231  1  0.21149222  0.83163145  0.06623815  1
  O2-  O232  1  0.21148509  0.82927048  0.39598653  1
  O2-  O233  1  0.20344438  0.83227775  0.73859870  1
  O2-  O234  1  0.70079693  0.33710753  0.05978356  1
  O2-  O235  1  0.70645023  0.33632523  0.40518510  1
  O2-  O236  1  0.70352125  0.33490199  0.73024249  1
  O2-  O237  1  0.70435016  0.83109995  0.06142959  1
  O2-  O238  1  0.70442152  0.82845986  0.39718807  1
  O2-  O239  1  0.71247763  0.83076290  0.73409539  1
  O2-  O240  1  0.45793451  0.41166327  0.27091929  1
  O2-  O241  1  0.46361218  0.41033385  0.60201388  1
  O2-  O242  1  0.46665283  0.41482744  0.92940793  1
  O2-  O243  1  0.45534511  0.92265337  0.26247673  1
  O2-  O244  1  0.45425961  0.91636817  0.60845575  1
  O2-  O245  1  0.45254571  0.91424919  0.93455252  1
  O2-  O246  1  0.94826225  0.41622403  0.27292072  1
  O2-  O247  1  0.94738328  0.42606596  0.59994390  1
  O2-  O248  1  0.94774748  0.42502528  0.93825324  1
  O2-  O249  1  0.95490619  0.91670088  0.27505578  1
  O2-  O250  1  0.94594045  0.91567360  0.60648686  1
  O2-  O251  1  0.95817999  0.91505513  0.93157187  1
  O2-  O252  1  0.33972473  0.29061857  0.26999168  1
  O2-  O253  1  0.33750944  0.29720850  0.60274795  1
  O2-  O254  1  0.33486898  0.29235846  0.92918628  1
  O2-  O255  1  0.33441258  0.79017928  0.25950503  1
  O2-  O256  1  0.33208999  0.79813445  0.60921750  1
  O2-  O257  1  0.33698441  0.79047612  0.93378753  1
  O2-  O258  1  0.83108743  0.29640042  0.27475441  1
  O2-  O259  1  0.82767311  0.29451619  0.59743209  1
  O2-  O260  1  0.82851194  0.29333031  0.93411164  1
  O2-  O261  1  0.83751959  0.79568860  0.27015932  1
  O2-  O262  1  0.84009594  0.78444343  0.60265401  1
  O2-  O263  1  0.83494756  0.78449469  0.93169952  1
  O2-  O264  1  0.41837557  0.04504967  0.06496698  1
  O2-  O265  1  0.41852843  0.05324082  0.39091846  1
  O2-  O266  1  0.41775338  0.04284920  0.73954212  1
  O2-  O267  1  0.41779291  0.54011824  0.06487438  1
  O2-  O268  1  0.41335927  0.54134846  0.39503216  1
  O2-  O269  1  0.42086000  0.53988503  0.73423345  1
  O2-  O270  1  0.91356512  0.03613374  0.06742894  1
  O2-  O271  1  0.91960592  0.04140096  0.40744338  1
  O2-  O272  1  0.91366793  0.04935577  0.72952814  1
  O2-  O273  1  0.91399369  0.55301728  0.06299746  1
  O2-  O274  1  0.91373065  0.54451152  0.39946395  1
  O2-  O275  1  0.91108986  0.54863790  0.73271133  1
  O2-  O276  1  0.30376031  0.16803265  0.06086300  1
  O2-  O277  1  0.29510004  0.16524374  0.39447806  1
  O2-  O278  1  0.30008978  0.17256441  0.73128106  1
  O2-  O279  1  0.30422468  0.66561409  0.06371860  1
  O2-  O280  1  0.30079513  0.66607939  0.39068317  1
  O2-  O281  1  0.29772579  0.66851077  0.73645130  1
  O2-  O282  1  0.78714946  0.16591160  0.06868654  1
  O2-  O283  1  0.79343824  0.16894187  0.40638207  1
  O2-  O284  1  0.78874752  0.16595263  0.73034954  1
  O2-  O285  1  0.78604900  0.66144406  0.06585264  1
  O2-  O286  1  0.80086704  0.66742162  0.39550575  1
  O2-  O287  1  0.78692043  0.66081394  0.73257982  1
