# generated using pymatgen
data_Ca2Al2SiO7
_symmetry_space_group_name_H-M   'P 1'
_cell_length_a   15.45768098
_cell_length_b   15.45707626
_cell_length_c   15.28301813
_cell_angle_alpha   89.98936037
_cell_angle_beta   90.00963825
_cell_angle_gamma   90.01204495
_symmetry_Int_Tables_number   1
_chemical_formula_structural   Ca2Al2SiO7
_chemical_formula_sum   'Ca48 Al48 Si24 O168'
_cell_volume   3651.57979071
_cell_formula_units_Z   24
loop_
 _symmetry_equiv_pos_site_id
 _symmetry_equiv_pos_as_xyz
  1  'x, y, z'
loop_
 _atom_type_symbol
 _atom_type_oxidation_number
  Ca2+  2.0
  Al0+  0.0
  Si0+  0.0
  O2-  -2.0
loop_
 _atom_site_type_symbol
 _atom_site_label
 _atom_site_symmetry_multiplicity
 _atom_site_fract_x
 _atom_site_fract_y
 _atom_site_fract_z
 _atom_site_occupancy
  Ca2+  Ca0  1  0.16166178  0.07819188  0.17492830  1
  Ca2+  Ca1  1  0.17401027  0.07503515  0.50419973  1
  Ca2+  Ca2  1  0.17339156  0.08716758  0.83798279  1
  Ca2+  Ca3  1  0.16554662  0.57719831  0.16926450  1
  Ca2+  Ca4  1  0.16994137  0.57881939  0.50130218  1
  Ca2+  Ca5  1  0.17690266  0.58269155  0.84278972  1
  Ca2+  Ca6  1  0.66413051  0.07761354  0.17269201  1
  Ca2+  Ca7  1  0.65726047  0.07745130  0.50168965  1
  Ca2+  Ca8  1  0.65344299  0.07445202  0.83739937  1
  Ca2+  Ca9  1  0.67737012  0.58150093  0.17331191  1
  Ca2+  Ca10  1  0.67637422  0.59292635  0.50235142  1
  Ca2+  Ca11  1  0.67847063  0.57736719  0.84454955  1
  Ca2+  Ca12  1  0.07938135  0.33545930  0.15609021  1
  Ca2+  Ca13  1  0.08388576  0.33462327  0.49306881  1
  Ca2+  Ca14  1  0.08140774  0.33899892  0.84017051  1
  Ca2+  Ca15  1  0.08422789  0.82255124  0.16178542  1
  Ca2+  Ca16  1  0.08306382  0.82531126  0.48901615  1
  Ca2+  Ca17  1  0.07998843  0.82556876  0.83155066  1
  Ca2+  Ca18  1  0.58785101  0.32330223  0.16001396  1
  Ca2+  Ca19  1  0.57587916  0.32196845  0.48864114  1
  Ca2+  Ca20  1  0.59405293  0.32192916  0.83115296  1
  Ca2+  Ca21  1  0.59274871  0.83037926  0.16679034  1
  Ca2+  Ca22  1  0.58185309  0.83406660  0.49649287  1
  Ca2+  Ca23  1  0.58086224  0.83532030  0.82656010  1
  Ca2+  Ca24  1  0.32261453  0.41332233  0.17086548  1
  Ca2+  Ca25  1  0.33187089  0.41764827  0.50086922  1
  Ca2+  Ca26  1  0.33131460  0.43023896  0.84286376  1
  Ca2+  Ca27  1  0.32476345  0.91895021  0.17148881  1
  Ca2+  Ca28  1  0.33250408  0.91745146  0.50531470  1
  Ca2+  Ca29  1  0.34149750  0.92305439  0.83319320  1
  Ca2+  Ca30  1  0.83448484  0.42108865  0.16505876  1
  Ca2+  Ca31  1  0.83190402  0.42890297  0.50206503  1
  Ca2+  Ca32  1  0.83103324  0.42236480  0.84122352  1
  Ca2+  Ca33  1  0.82492101  0.92542592  0.17475229  1
  Ca2+  Ca34  1  0.82024930  0.92263511  0.49965386  1
  Ca2+  Ca35  1  0.81811294  0.91724750  0.83930261  1
  Ca2+  Ca36  1  0.42498387  0.17361087  0.16561513  1
  Ca2+  Ca37  1  0.42375425  0.16645482  0.49479410  1
  Ca2+  Ca38  1  0.42526159  0.16735110  0.82674789  1
  Ca2+  Ca39  1  0.42083798  0.66668747  0.16378315  1
  Ca2+  Ca40  1  0.41960893  0.67091832  0.49505453  1
  Ca2+  Ca41  1  0.41249528  0.67106098  0.82606639  1
  Ca2+  Ca42  1  0.92059963  0.17054531  0.15580991  1
  Ca2+  Ca43  1  0.91499491  0.16750410  0.49307105  1
  Ca2+  Ca44  1  0.92032836  0.17363199  0.83475122  1
  Ca2+  Ca45  1  0.92515964  0.65606467  0.16314547  1
  Ca2+  Ca46  1  0.91787703  0.66511291  0.49101742  1
  Ca2+  Ca47  1  0.92135480  0.65377765  0.83365019  1
  Al0+  Al48  1  0.00018773  -0.00141390  -0.00702164  1
  Al0+  Al49  1  -0.00138682  -0.00144969  0.34276022  1
  Al0+  Al50  1  -0.00165118  -0.00098541  0.66553647  1
  Al0+  Al51  1  0.00223785  0.50000183  -0.00415685  1
  Al0+  Al52  1  0.00132727  0.49964497  0.33861658  1
  Al0+  Al53  1  -0.00041269  0.49847100  0.66837773  1
  Al0+  Al54  1  0.49841637  -0.00019718  0.00343519  1
  Al0+  Al55  1  0.49816025  0.00051348  0.33121035  1
  Al0+  Al56  1  0.49776933  -0.00130087  0.66526256  1
  Al0+  Al57  1  0.50197812  0.50101679  0.00670777  1
  Al0+  Al58  1  0.49811262  0.50116125  0.32508748  1
  Al0+  Al59  1  0.50052774  0.49844625  0.66998312  1
  Al0+  Al60  1  0.25316817  0.25102424  -0.00103263  1
  Al0+  Al61  1  0.24899474  0.25002014  0.33485077  1
  Al0+  Al62  1  0.24874462  0.24812500  0.67075795  1
  Al0+  Al63  1  0.25039765  0.75235448  -0.00193408  1
  Al0+  Al64  1  0.24936109  0.74877772  0.33237929  1
  Al0+  Al65  1  0.24838462  0.74864596  0.66466506  1
  Al0+  Al66  1  0.75162188  0.24856701  -0.00793790  1
  Al0+  Al67  1  0.75086181  0.25194752  0.33249511  1
  Al0+  Al68  1  0.75282891  0.24905715  0.65903502  1
  Al0+  Al69  1  0.75001419  0.75124185  0.00698746  1
  Al0+  Al70  1  0.75008433  0.75293935  0.33694688  1
  Al0+  Al71  1  0.75236050  0.75140478  0.67572639  1
  Al0+  Al72  1  0.82089809  0.07483519  0.34738773  1
  Al0+  Al73  1  0.42890931  0.81867850  0.65306067  1
  Al0+  Al74  1  0.81970812  0.56921092  0.34712206  1
  Al0+  Al75  1  0.56924767  0.17886939  0.98534253  1
  Al0+  Al76  1  0.07450701  0.17606490  0.98529064  1
  Al0+  Al77  1  0.67960571  0.42488907  0.01476824  1
  Al0+  Al78  1  0.32155515  0.57090271  0.67831159  1
  Al0+  Al79  1  0.82184127  0.57052248  0.01655120  1
  Al0+  Al80  1  0.07008559  0.67838531  0.31984788  1
  Al0+  Al81  1  0.57178358  0.17928306  0.31610979  1
  Al0+  Al82  1  0.31927845  0.06867160  0.68050393  1
  Al0+  Al83  1  0.17988338  0.42913805  0.34761711  1
  Al0+  Al84  1  0.82013580  0.57068984  0.68149900  1
  Al0+  Al85  1  0.67696131  0.93081553  0.34996826  1
  Al0+  Al86  1  0.67951708  0.93262826  0.68124276  1
  Al0+  Al87  1  0.67685422  0.93086931  0.01521006  1
  Al0+  Al88  1  0.92989960  0.32127056  0.98383485  1
  Al0+  Al89  1  0.57295176  0.68106972  0.32030887  1
  Al0+  Al90  1  0.42580496  0.32201909  0.31752370  1
  Al0+  Al91  1  0.32274850  0.57626360  0.01734511  1
  Al0+  Al92  1  0.56964027  0.17958304  0.65176344  1
  Al0+  Al93  1  0.17866754  0.92636799  0.34619994  1
  Al0+  Al94  1  0.07064584  0.68013138  0.98502177  1
  Al0+  Al95  1  0.18227930  0.42994732  0.01489880  1
  Si0+  Si96  1  0.82425222  0.07423141  0.68527654  1
  Si0+  Si97  1  0.57426448  0.67705646  0.65445063  1
  Si0+  Si98  1  0.07229222  0.17725612  0.64953592  1
  Si0+  Si99  1  0.06919548  0.17733242  0.32260444  1
  Si0+  Si100  1  0.92628016  0.82227060  0.98226804  1
  Si0+  Si101  1  0.67882988  0.42527955  0.67999446  1
  Si0+  Si102  1  0.42901336  0.32443922  0.98210230  1
  Si0+  Si103  1  0.42548825  0.32336057  0.65171490  1
  Si0+  Si104  1  0.67488737  0.42830508  0.34937762  1
  Si0+  Si105  1  0.06886605  0.67865338  0.65021701  1
  Si0+  Si106  1  0.32095567  0.07101341  0.01556099  1
  Si0+  Si107  1  0.82389436  0.07025973  0.01277607  1
  Si0+  Si108  1  0.31953155  0.07135183  0.34928254  1
  Si0+  Si109  1  0.17762931  0.93069928  0.01259256  1
  Si0+  Si110  1  0.93060578  0.32206343  0.32001864  1
  Si0+  Si111  1  0.17791253  0.42730839  0.68453156  1
  Si0+  Si112  1  0.42668334  0.82205086  0.31546911  1
  Si0+  Si113  1  0.92863232  0.82288418  0.31738357  1
  Si0+  Si114  1  0.93181193  0.32093958  0.64789775  1
  Si0+  Si115  1  0.57335099  0.67903502  0.98590813  1
  Si0+  Si116  1  0.42989962  0.82001592  0.98534637  1
  Si0+  Si117  1  0.92726972  0.82168941  0.65042283  1
  Si0+  Si118  1  0.32369642  0.57256841  0.35005812  1
  Si0+  Si119  1  0.17545215  0.92648495  0.68434838  1
  O2-  O120  1  0.24232136  0.00709379  0.05568378  1
  O2-  O121  1  0.25368551  -0.00015569  0.39359684  1
  O2-  O122  1  0.24367663  -0.00489741  0.72921786  1
  O2-  O123  1  0.25341413  0.50154856  0.06670662  1
  O2-  O124  1  0.25675543  0.50168249  0.39394132  1
  O2-  O125  1  0.24976808  0.49385970  0.72571188  1
  O2-  O126  1  0.75293765  0.00548319  0.05838892  1
  O2-  O127  1  0.74445716  0.00802071  0.39860188  1
  O2-  O128  1  0.75236102  0.00910558  0.72909975  1
  O2-  O129  1  0.74910483  0.49890360  0.06558375  1
  O2-  O130  1  0.74047532  0.49956963  0.39524040  1
  O2-  O131  1  0.74205990  0.49853853  0.72501387  1
  O2-  O132  1  -0.00347425  0.24538573  0.27976491  1
  O2-  O133  1  0.00217890  0.24858475  0.60625421  1
  O2-  O134  1  0.00361644  0.24908597  0.93480118  1
  O2-  O135  1  -0.00376450  0.75371675  0.27241378  1
  O2-  O136  1  -0.00171504  0.75023804  0.60806383  1
  O2-  O137  1  -0.00778792  0.75088953  0.93715198  1
  O2-  O138  1  0.50269372  0.25505644  0.26754342  1
  O2-  O139  1  0.49616583  0.25681441  0.60722006  1
  O2-  O140  1  0.50008725  0.25839069  0.93717280  1
  O2-  O141  1  0.49819607  0.75602335  0.27227297  1
  O2-  O142  1  0.50239228  0.74169392  0.60859302  1
  O2-  O143  1  0.49943503  0.74723618  0.94337810  1
  O2-  O144  1  0.07026441  0.17153763  0.09916531  1
  O2-  O145  1  0.06975835  0.17967637  0.42813683  1
  O2-  O146  1  0.07208530  0.17658214  0.75412223  1
  O2-  O147  1  0.07164109  0.68262209  0.09794880  1
  O2-  O148  1  0.06861981  0.67900461  0.43370793  1
  O2-  O149  1  0.06892575  0.67963222  0.75527136  1
  O2-  O150  1  0.56635368  0.17652155  0.09790005  1
  O2-  O151  1  0.56769493  0.17870532  0.43010051  1
  O2-  O152  1  0.56802633  0.17996641  0.76501743  1
  O2-  O153  1  0.57446486  0.68266817  0.09086452  1
  O2-  O154  1  0.57171736  0.68233892  0.43410610  1
  O2-  O155  1  0.57399491  0.67928523  0.76011903  1
  O2-  O156  1  0.17717651  0.42869653  0.23541337  1
  O2-  O157  1  0.17592539  0.42806548  0.57863097  1
  O2-  O158  1  0.18488135  0.43197767  0.90081874  1
  O2-  O159  1  0.17889388  0.92894662  0.23258379  1
  O2-  O160  1  0.17547730  0.92752074  0.57868562  1
  O2-  O161  1  0.18021723  0.92871467  0.90746931  1
  O2-  O162  1  0.67932666  0.42710422  0.24425682  1
  O2-  O163  1  0.68112576  0.42485592  0.57439656  1
  O2-  O164  1  0.68101534  0.42744064  0.90033400  1
  O2-  O165  1  0.68079225  0.93080138  0.23648607  1
  O2-  O166  1  0.68036725  0.93164743  0.56870169  1
  O2-  O167  1  0.67487790  0.93145879  0.90172322  1
  O2-  O168  1  0.42569930  0.31908552  0.08725061  1
  O2-  O169  1  0.42585356  0.31871293  0.43195994  1
  O2-  O170  1  0.42470979  0.32260204  0.75702726  1
  O2-  O171  1  0.42804583  0.82159684  0.09026979  1
  O2-  O172  1  0.42446509  0.82037526  0.42118592  1
  O2-  O173  1  0.43027305  0.81920470  0.76654720  1
  O2-  O174  1  0.93095833  0.31932340  0.09786375  1
  O2-  O175  1  0.93365739  0.32329629  0.42572033  1
  O2-  O176  1  0.93208078  0.32176372  0.75234514  1
  O2-  O177  1  0.93067313  0.82723482  0.08741051  1
  O2-  O178  1  0.93060664  0.82105349  0.42354067  1
  O2-  O179  1  0.92925129  0.82348320  0.75533765  1
  O2-  O180  1  0.31621776  0.07113295  0.24343106  1
  O2-  O181  1  0.31652926  0.06748391  0.56747978  1
  O2-  O182  1  0.32345589  0.06707230  0.91029435  1
  O2-  O183  1  0.32091026  0.57585607  0.24509580  1
  O2-  O184  1  0.31932928  0.57141389  0.56530766  1
  O2-  O185  1  0.31993235  0.57734439  0.90299508  1
  O2-  O186  1  0.82627302  0.07174351  0.23385479  1
  O2-  O187  1  0.82717886  0.07212345  0.57994348  1
  O2-  O188  1  0.82562578  0.06653566  0.90708231  1
  O2-  O189  1  0.82256595  0.56547323  0.23490197  1
  O2-  O190  1  0.82161856  0.57043849  0.56813873  1
  O2-  O191  1  0.81934673  0.56952478  0.90251031  1
  O2-  O192  1  0.04386854  0.08363899  0.27783498  1
  O2-  O193  1  0.04463199  0.08459194  0.60271752  1
  O2-  O194  1  0.04662311  0.07862226  0.92827675  1
  O2-  O195  1  0.03691687  0.58177409  0.26796854  1
  O2-  O196  1  0.04061536  0.58585661  0.60482302  1
  O2-  O197  1  0.04368187  0.58413518  0.92848902  1
  O2-  O198  1  0.53971906  0.08131776  0.26402445  1
  O2-  O199  1  0.53364503  0.08456947  0.59879713  1
  O2-  O200  1  0.53014248  0.08341040  0.93287998  1
  O2-  O201  1  0.54490497  0.58498093  0.26447028  1
  O2-  O202  1  0.55442366  0.58121897  0.61002767  1
  O2-  O203  1  0.55058109  0.58502820  0.94041119  1
  O2-  O204  1  0.16072142  0.20400436  0.27531989  1
  O2-  O205  1  0.16460962  0.20468870  0.60246185  1
  O2-  O206  1  0.17370645  0.20408842  0.93287828  1
  O2-  O207  1  0.16661600  0.70881184  0.26616557  1
  O2-  O208  1  0.16020836  0.70619628  0.60193664  1
  O2-  O209  1  0.16550746  0.71749730  0.92993613  1
  O2-  O210  1  0.67215291  0.20544204  0.26569675  1
  O2-  O211  1  0.66811730  0.20543484  0.59835865  1
  O2-  O212  1  0.66714437  0.20233427  0.92995744  1
  O2-  O213  1  0.66922693  0.71372015  0.26630429  1
  O2-  O214  1  0.66752178  0.70779307  0.61001871  1
  O2-  O215  1  0.66450094  0.71010463  0.93845735  1
  O2-  O216  1  0.08268761  0.45714915  0.06414535  1
  O2-  O217  1  0.08624682  0.46271228  0.40616422  1
  O2-  O218  1  0.08575388  0.45692615  0.73061280  1
  O2-  O219  1  0.08386147  0.95249000  0.05862000  1
  O2-  O220  1  0.08426278  0.95630575  0.40448381  1
  O2-  O221  1  0.08122161  0.95193826  0.72927527  1
  O2-  O222  1  0.58059676  0.44827321  0.06744515  1
  O2-  O223  1  0.57889660  0.45034400  0.39162244  1
  O2-  O224  1  0.58338108  0.44193997  0.72558600  1
  O2-  O225  1  0.58116910  0.96177410  0.07029019  1
  O2-  O226  1  0.57560580  0.95437932  0.39963112  1
  O2-  O227  1  0.58198490  0.96161790  0.73394206  1
  O2-  O228  1  0.20860272  0.32982462  0.06661998  1
  O2-  O229  1  0.20840753  0.33192541  0.40317119  1
  O2-  O230  1  0.19806431  0.33232612  0.72934387  1
  O2-  O231  1  0.21181461  0.84201729  0.06155222  1
  O2-  O232  1  0.20960549  0.83035095  0.40134357  1
  O2-  O233  1  0.20036966  0.83229466  0.72862816  1
  O2-  O234  1  0.71050199  0.32577011  0.06468878  1
  O2-  O235  1  0.70371189  0.33613094  0.39677236  1
  O2-  O236  1  0.71206190  0.33337628  0.72556443  1
  O2-  O237  1  0.70798621  0.83537927  0.06968630  1
  O2-  O238  1  0.70991819  0.83484227  0.40520717  1
  O2-  O239  1  0.71224260  0.83755546  0.73771964  1
  O2-  O240  1  0.44352252  0.42252624  0.26595930  1
  O2-  O241  1  0.44852227  0.41795746  0.60545627  1
  O2-  O242  1  0.45110646  0.42076743  0.93978924  1
  O2-  O243  1  0.44686482  0.91693704  0.26995128  1
  O2-  O244  1  0.45995154  0.91395753  0.59762771  1
  O2-  O245  1  0.46043975  0.91130279  0.93801365  1
  O2-  O246  1  0.96538055  0.41086741  0.27257186  1
  O2-  O247  1  0.96237256  0.41234991  0.59997060  1
  O2-  O248  1  0.96046441  0.41782962  0.92774991  1
  O2-  O249  1  0.95634860  0.91679521  0.27304273  1
  O2-  O250  1  0.95397452  0.91373599  0.60209637  1
  O2-  O251  1  0.95465763  0.91299117  0.93093402  1
  O2-  O252  1  0.32901455  0.28652464  0.26413692  1
  O2-  O253  1  0.33131269  0.29588914  0.60684661  1
  O2-  O254  1  0.33713175  0.29616258  0.93355240  1
  O2-  O255  1  0.33436890  0.79346037  0.26782994  1
  O2-  O256  1  0.33098572  0.79056123  0.59889944  1
  O2-  O257  1  0.33824548  0.79581376  0.93535783  1
  O2-  O258  1  0.83710716  0.30206297  0.27349197  1
  O2-  O259  1  0.84073995  0.29467387  0.59795485  1
  O2-  O260  1  0.83409844  0.29137705  0.92554017  1
  O2-  O261  1  0.83452684  0.79992710  0.27289284  1
  O2-  O262  1  0.83541477  0.79222035  0.60440406  1
  O2-  O263  1  0.83103035  0.79817830  0.93867041  1
  O2-  O264  1  0.40722716  0.03389719  0.06660633  1
  O2-  O265  1  0.41340487  0.04684106  0.39431100  1
  O2-  O266  1  0.41401929  0.03514244  0.73581480  1
  O2-  O267  1  0.42305635  0.55384690  0.06726178  1
  O2-  O268  1  0.41838209  0.54949446  0.39533535  1
  O2-  O269  1  0.41948436  0.54562940  0.73373380  1
  O2-  O270  1  0.91711014  0.04209231  0.05906295  1
  O2-  O271  1  0.91612544  0.04204893  0.40611999  1
  O2-  O272  1  0.91738815  0.04576667  0.73130367  1
  O2-  O273  1  0.92143694  0.54138711  0.06485697  1
  O2-  O274  1  0.91386589  0.53426539  0.40385910  1
  O2-  O275  1  0.91588410  0.53475396  0.73413419  1
  O2-  O276  1  0.30140265  0.16497673  0.06065512  1
  O2-  O277  1  0.29076248  0.16257287  0.39780790  1
  O2-  O278  1  0.28945585  0.16511503  0.73623798  1
  O2-  O279  1  0.29190136  0.67473349  0.06849613  1
  O2-  O280  1  0.29497852  0.66502870  0.39711183  1
  O2-  O281  1  0.28715370  0.66663878  0.73256467  1
  O2-  O282  1  0.80284409  0.16573625  0.05470653  1
  O2-  O283  1  0.80015142  0.17558511  0.39973207  1
  O2-  O284  1  0.80287182  0.17045416  0.72683536  1
  O2-  O285  1  0.79577146  0.66925452  0.06913285  1
  O2-  O286  1  0.79277491  0.66753471  0.40010341  1
  O2-  O287  1  0.79587361  0.66730203  0.73771743  1
