# generated using pymatgen
data_Ca2Al2SiO7
_symmetry_space_group_name_H-M   'P 1'
_cell_length_a   15.45751470
_cell_length_b   15.45817848
_cell_length_c   15.28459717
_cell_angle_alpha   90.00376173
_cell_angle_beta   89.99720825
_cell_angle_gamma   89.97909445
_symmetry_Int_Tables_number   1
_chemical_formula_structural   Ca2Al2SiO7
_chemical_formula_sum   'Ca48 Al48 Si24 O168'
_cell_volume   3652.17813609
_cell_formula_units_Z   24
loop_
 _symmetry_equiv_pos_site_id
 _symmetry_equiv_pos_as_xyz
  1  'x, y, z'
loop_
 _atom_type_symbol
 _atom_type_oxidation_number
  Ca2+  2.0
  Al0+  0.0
  Si0+  0.0
  O2-  -2.0
loop_
 _atom_site_type_symbol
 _atom_site_label
 _atom_site_symmetry_multiplicity
 _atom_site_fract_x
 _atom_site_fract_y
 _atom_site_fract_z
 _atom_site_occupancy
  Ca2+  Ca0  1  0.17915892  0.08914064  0.17105465  1
  Ca2+  Ca1  1  0.17350548  0.09018429  0.50409334  1
  Ca2+  Ca2  1  0.17062710  0.09053719  0.84037682  1
  Ca2+  Ca3  1  0.16806447  0.58479793  0.17420739  1
  Ca2+  Ca4  1  0.16319070  0.58165576  0.50688308  1
  Ca2+  Ca5  1  0.15683408  0.57457540  0.83073659  1
  Ca2+  Ca6  1  0.65691476  0.08123837  0.16990990  1
  Ca2+  Ca7  1  0.67184197  0.07825603  0.50744819  1
  Ca2+  Ca8  1  0.67069886  0.07712948  0.83556133  1
  Ca2+  Ca9  1  0.66396480  0.57584659  0.17661736  1
  Ca2+  Ca10  1  0.66759484  0.57358278  0.50717366  1
  Ca2+  Ca11  1  0.67163068  0.57737756  0.83006412  1
  Ca2+  Ca12  1  0.07626390  0.32968587  0.16450210  1
  Ca2+  Ca13  1  0.07188941  0.33551420  0.50326042  1
  Ca2+  Ca14  1  0.08193928  0.32306854  0.82199800  1
  Ca2+  Ca15  1  0.08002786  0.83217401  0.16920459  1
  Ca2+  Ca16  1  0.07036068  0.82413545  0.49571625  1
  Ca2+  Ca17  1  0.07505399  0.82671826  0.82022256  1
  Ca2+  Ca18  1  0.58294432  0.32224986  0.16796725  1
  Ca2+  Ca19  1  0.57841163  0.33522251  0.49063568  1
  Ca2+  Ca20  1  0.57898760  0.32903773  0.82572128  1
  Ca2+  Ca21  1  0.57381121  0.83829212  0.16305548  1
  Ca2+  Ca22  1  0.58409806  0.82780477  0.49253697  1
  Ca2+  Ca23  1  0.58124868  0.84494732  0.83256340  1
  Ca2+  Ca24  1  0.33206881  0.41478952  0.17483622  1
  Ca2+  Ca25  1  0.33040841  0.41232909  0.50890046  1
  Ca2+  Ca26  1  0.32895883  0.41133213  0.82982519  1
  Ca2+  Ca27  1  0.34148398  0.92502692  0.17216442  1
  Ca2+  Ca28  1  0.33721440  0.92179472  0.49954826  1
  Ca2+  Ca29  1  0.33067773  0.92339591  0.84374101  1
  Ca2+  Ca30  1  0.82761995  0.41551223  0.17767728  1
  Ca2+  Ca31  1  0.82513166  0.41527617  0.50882849  1
  Ca2+  Ca32  1  0.83737647  0.41839814  0.82815652  1
  Ca2+  Ca33  1  0.82922383  0.91801847  0.17109037  1
  Ca2+  Ca34  1  0.83238234  0.91816903  0.51110398  1
  Ca2+  Ca35  1  0.82625878  0.91735209  0.83269834  1
  Ca2+  Ca36  1  0.42348392  0.16188353  0.16608068  1
  Ca2+  Ca37  1  0.42323764  0.17684350  0.49291171  1
  Ca2+  Ca38  1  0.42305550  0.16517949  0.83107347  1
  Ca2+  Ca39  1  0.42294622  0.67709248  0.16717637  1
  Ca2+  Ca40  1  0.42525462  0.67288593  0.49012736  1
  Ca2+  Ca41  1  0.41784025  0.67469674  0.83039720  1
  Ca2+  Ca42  1  0.92060842  0.17312966  0.16312821  1
  Ca2+  Ca43  1  0.91239494  0.17485933  0.49903718  1
  Ca2+  Ca44  1  0.92788539  0.16631891  0.82169503  1
  Ca2+  Ca45  1  0.91820621  0.67100743  0.17041084  1
  Ca2+  Ca46  1  0.91857420  0.66971183  0.49799717  1
  Ca2+  Ca47  1  0.91763782  0.67094888  0.82031031  1
  Al0+  Al48  1  -0.00073512  -0.00059534  -0.00285275  1
  Al0+  Al49  1  0.00109729  -0.00073289  0.32980734  1
  Al0+  Al50  1  0.00312297  -0.00169042  0.66215859  1
  Al0+  Al51  1  -0.00102860  0.50114220  0.00332911  1
  Al0+  Al52  1  0.00003931  0.49967834  0.32519485  1
  Al0+  Al53  1  0.00130816  0.49736164  0.66926722  1
  Al0+  Al54  1  0.49937383  0.00094676  -0.00151243  1
  Al0+  Al55  1  0.50007580  0.00097423  0.33574454  1
  Al0+  Al56  1  0.49895848  0.00164519  0.66917245  1
  Al0+  Al57  1  0.49973286  0.50145127  0.00063477  1
  Al0+  Al58  1  0.49794734  0.50014533  0.32971846  1
  Al0+  Al59  1  0.49855027  0.50157907  0.66980736  1
  Al0+  Al60  1  0.24898652  0.25155543  0.00324127  1
  Al0+  Al61  1  0.25053325  0.25035056  0.33677413  1
  Al0+  Al62  1  0.25244571  0.25151803  0.66447247  1
  Al0+  Al63  1  0.24993642  0.74911180  -0.00373532  1
  Al0+  Al64  1  0.24934363  0.75079472  0.32826884  1
  Al0+  Al65  1  0.25153516  0.75158587  0.66347783  1
  Al0+  Al66  1  0.74944317  0.25097244  -0.00498767  1
  Al0+  Al67  1  0.74981800  0.24985660  0.32926200  1
  Al0+  Al68  1  0.75052374  0.24668754  0.67370759  1
  Al0+  Al69  1  0.74931359  0.74864726  0.00572067  1
  Al0+  Al70  1  0.75215924  0.74860406  0.32586139  1
  Al0+  Al71  1  0.74718183  0.74917407  0.67207956  1
  Al0+  Al72  1  0.32157841  0.07061934  0.35023194  1
  Al0+  Al73  1  0.18059018  0.42987620  0.67946101  1
  Al0+  Al74  1  0.43231337  0.32141546  0.65447899  1
  Al0+  Al75  1  0.82515376  0.07048587  0.68100279  1
  Al0+  Al76  1  0.07405104  0.17709367  0.65035276  1
  Al0+  Al77  1  0.07062302  0.18063098  0.98812134  1
  Al0+  Al78  1  0.43055753  0.82218765  0.31952802  1
  Al0+  Al79  1  0.67568017  0.42632343  0.68242014  1
  Al0+  Al80  1  0.42648528  0.32156931  0.31840345  1
  Al0+  Al81  1  0.57147776  0.17949160  0.32053562  1
  Al0+  Al82  1  0.07050532  0.67850769  0.31731206  1
  Al0+  Al83  1  0.57017529  0.17926059  0.98375850  1
  Al0+  Al84  1  0.67740915  0.92856668  0.68075347  1
  Al0+  Al85  1  0.92785484  0.82371915  0.31638775  1
  Al0+  Al86  1  0.67879790  0.42908325  0.34575377  1
  Al0+  Al87  1  0.68040941  0.93131409  0.01632872  1
  Al0+  Al88  1  0.82102938  0.56935355  0.68001878  1
  Al0+  Al89  1  0.43062575  0.82020847  0.98487781  1
  Al0+  Al90  1  0.31885350  0.07075984  0.01419504  1
  Al0+  Al91  1  0.92567649  0.81986860  0.65333906  1
  Al0+  Al92  1  0.92728862  0.31895039  0.65285882  1
  Al0+  Al93  1  0.92892590  0.31986521  0.32008596  1
  Al0+  Al94  1  0.07202585  0.67728368  0.65284263  1
  Al0+  Al95  1  0.57262270  0.67728230  0.31933383  1
  Si0+  Si96  1  0.31912862  0.07108922  0.68274305  1
  Si0+  Si97  1  0.57185850  0.17675126  0.65120629  1
  Si0+  Si98  1  0.17770441  0.42958257  0.34862662  1
  Si0+  Si99  1  0.82370610  0.07317203  0.01748148  1
  Si0+  Si100  1  0.32238919  0.57541995  0.68397143  1
  Si0+  Si101  1  0.07296052  0.17776616  0.31709676  1
  Si0+  Si102  1  0.68049637  0.92824261  0.34659028  1
  Si0+  Si103  1  0.56934397  0.67930096  0.65386628  1
  Si0+  Si104  1  0.92740527  0.81948210  0.98440254  1
  Si0+  Si105  1  0.17601127  0.92540417  0.01609490  1
  Si0+  Si106  1  0.92805676  0.32386964  0.98238322  1
  Si0+  Si107  1  0.17925956  0.43086189  0.01691492  1
  Si0+  Si108  1  0.57313765  0.67657361  0.98112600  1
  Si0+  Si109  1  0.42764418  0.32469486  0.98332159  1
  Si0+  Si110  1  0.82318894  0.07077766  0.34591552  1
  Si0+  Si111  1  0.82328590  0.57146940  0.34902499  1
  Si0+  Si112  1  0.32123490  0.57290131  0.01609372  1
  Si0+  Si113  1  0.18105601  0.92685945  0.68043169  1
  Si0+  Si114  1  0.42914919  0.82371574  0.65179555  1
  Si0+  Si115  1  0.07054616  0.67854777  0.98374247  1
  Si0+  Si116  1  0.67799376  0.42837696  0.01597526  1
  Si0+  Si117  1  0.31949232  0.57239147  0.34769801  1
  Si0+  Si118  1  0.17717137  0.92716386  0.35144617  1
  Si0+  Si119  1  0.82124818  0.57013870  0.01827897  1
  O2-  O120  1  0.24316333  -0.00436747  0.06027079  1
  O2-  O121  1  0.24540658  -0.00365604  0.39628712  1
  O2-  O122  1  0.24735109  0.00109033  0.72518517  1
  O2-  O123  1  0.25107586  0.50111407  0.05895891  1
  O2-  O124  1  0.24948504  0.50054505  0.38993099  1
  O2-  O125  1  0.25208990  0.50785570  0.72779462  1
  O2-  O126  1  0.75373056  0.00713471  0.06413468  1
  O2-  O127  1  0.75444970  -0.00324656  0.38744567  1
  O2-  O128  1  0.75210091  -0.00156822  0.73011048  1
  O2-  O129  1  0.75038899  0.49812636  0.05857252  1
  O2-  O130  1  0.75190773  0.50550259  0.39222904  1
  O2-  O131  1  0.75156905  0.49519193  0.73213085  1
  O2-  O132  1  0.00333010  0.24520595  0.27262501  1
  O2-  O133  1  -0.00338408  0.24432378  0.60227184  1
  O2-  O134  1  -0.00562579  0.25244607  0.94023849  1
  O2-  O135  1  0.00002481  0.75142880  0.26633539  1
  O2-  O136  1  -0.00381552  0.74563922  0.60450055  1
  O2-  O137  1  0.00098300  0.75080564  0.94261840  1
  O2-  O138  1  0.49796601  0.24951656  0.26887510  1
  O2-  O139  1  0.51181171  0.25287840  0.60745627  1
  O2-  O140  1  0.49610518  0.25607979  0.93925503  1
  O2-  O141  1  0.50458582  0.75274848  0.26872435  1
  O2-  O142  1  0.50092034  0.75302493  0.61170071  1
  O2-  O143  1  0.50645334  0.74720225  0.93648813  1
  O2-  O144  1  0.07059147  0.18482288  0.10136880  1
  O2-  O145  1  0.07238026  0.17807028  0.42216966  1
  O2-  O146  1  0.07650876  0.18036579  0.76441798  1
  O2-  O147  1  0.07045460  0.67712207  0.08853262  1
  O2-  O148  1  0.06958251  0.67724695  0.43025038  1
  O2-  O149  1  0.07263285  0.68138103  0.76731983  1
  O2-  O150  1  0.56916875  0.18043792  0.09661246  1
  O2-  O151  1  0.57240522  0.17967222  0.43396234  1
  O2-  O152  1  0.56538192  0.17356381  0.75686808  1
  O2-  O153  1  0.57044603  0.67387098  0.08633629  1
  O2-  O154  1  0.57057642  0.67850642  0.43341131  1
  O2-  O155  1  0.56617449  0.67754261  0.75907887  1
  O2-  O156  1  0.17861448  0.43049517  0.24272980  1
  O2-  O157  1  0.18298701  0.43005380  0.56645151  1
  O2-  O158  1  0.17825879  0.43122622  0.91207185  1
  O2-  O159  1  0.17685516  0.92856719  0.24553457  1
  O2-  O160  1  0.18639261  0.92357967  0.57585576  1
  O2-  O161  1  0.17770417  0.92383859  0.91029129  1
  O2-  O162  1  0.68196584  0.42905354  0.23187112  1
  O2-  O163  1  0.67255081  0.43088898  0.56894755  1
  O2-  O164  1  0.67679729  0.43059896  0.91123905  1
  O2-  O165  1  0.67954430  0.93090815  0.24136520  1
  O2-  O166  1  0.67391696  0.92955905  0.56685616  1
  O2-  O167  1  0.68299806  0.93135747  0.90363448  1
  O2-  O168  1  0.42810966  0.32701143  0.08855068  1
  O2-  O169  1  0.42692799  0.32157533  0.43190375  1
  O2-  O170  1  0.42999430  0.31741560  0.76801807  1
  O2-  O171  1  0.43085041  0.81828278  0.09745568  1
  O2-  O172  1  0.43210205  0.82017648  0.43364276  1
  O2-  O173  1  0.42731926  0.82346850  0.75703533  1
  O2-  O174  1  0.92944196  0.32504917  0.08841281  1
  O2-  O175  1  0.92826439  0.32047613  0.43238967  1
  O2-  O176  1  0.93299447  0.31968630  0.76674097  1
  O2-  O177  1  0.92852479  0.81858697  0.08930637  1
  O2-  O178  1  0.92687730  0.82369632  0.42931375  1
  O2-  O179  1  0.92871515  0.81861988  0.76775854  1
  O2-  O180  1  0.32002951  0.07000851  0.23690209  1
  O2-  O181  1  0.32116674  0.06901518  0.57781893  1
  O2-  O182  1  0.31692955  0.07005243  0.90061895  1
  O2-  O183  1  0.31747379  0.57196096  0.24206764  1
  O2-  O184  1  0.32442239  0.57643320  0.57853800  1
  O2-  O185  1  0.32100231  0.57384160  0.91116770  1
  O2-  O186  1  0.82373294  0.07065351  0.24056601  1
  O2-  O187  1  0.82153273  0.07021861  0.56672101  1
  O2-  O188  1  0.82591233  0.06971702  0.91250474  1
  O2-  O189  1  0.82356497  0.56828713  0.24269098  1
  O2-  O190  1  0.81769279  0.57089580  0.56668738  1
  O2-  O191  1  0.82405613  0.57070328  0.91358809  1
  O2-  O192  1  0.05029044  0.08421181  0.26999837  1
  O2-  O193  1  0.05590691  0.07637693  0.59922702  1
  O2-  O194  1  0.04529991  0.08183901  0.93504927  1
  O2-  O195  1  0.04208454  0.58204257  0.25959841  1
  O2-  O196  1  0.04939205  0.57707390  0.60370448  1
  O2-  O197  1  0.03979625  0.58637372  0.93821147  1
  O2-  O198  1  0.54146342  0.08157743  0.26790631  1
  O2-  O199  1  0.53734619  0.08662933  0.60299247  1
  O2-  O200  1  0.53642212  0.08446757  0.92910409  1
  O2-  O201  1  0.53827896  0.58262925  0.26276832  1
  O2-  O202  1  0.53823412  0.58931259  0.60540504  1
  O2-  O203  1  0.54374332  0.58407956  0.93414483  1
  O2-  O204  1  0.16562893  0.20706105  0.27166362  1
  O2-  O205  1  0.17003234  0.21236821  0.59737257  1
  O2-  O206  1  0.16675018  0.21435778  0.93455061  1
  O2-  O207  1  0.16822001  0.70702836  0.26232768  1
  O2-  O208  1  0.16993624  0.70837810  0.60004881  1
  O2-  O209  1  0.16305089  0.70214656  0.93635774  1
  O2-  O210  1  0.66772553  0.20776812  0.26310774  1
  O2-  O211  1  0.66934313  0.19150367  0.61184612  1
  O2-  O212  1  0.66774895  0.20776748  0.93012860  1
  O2-  O213  1  0.67179196  0.69784141  0.26559857  1
  O2-  O214  1  0.66127990  0.70431926  0.60710316  1
  O2-  O215  1  0.66867252  0.70020852  0.93886266  1
  O2-  O216  1  0.08760342  0.46050952  0.06493101  1
  O2-  O217  1  0.08536211  0.45931622  0.39319355  1
  O2-  O218  1  0.08539858  0.45708053  0.73824509  1
  O2-  O219  1  0.08119260  0.94896676  0.06083944  1
  O2-  O220  1  0.08273496  0.95224880  0.39620632  1
  O2-  O221  1  0.08756121  0.94851969  0.72658577  1
  O2-  O222  1  0.58616571  0.45788711  0.06296324  1
  O2-  O223  1  0.58043963  0.45920088  0.39671264  1
  O2-  O224  1  0.57972675  0.46164855  0.73822113  1
  O2-  O225  1  0.58291122  0.96258575  0.06772236  1
  O2-  O226  1  0.58990009  0.95652340  0.39563418  1
  O2-  O227  1  0.58009111  0.96176078  0.73565590  1
  O2-  O228  1  0.20609719  0.33999746  0.06635905  1
  O2-  O229  1  0.20356654  0.33796849  0.39626424  1
  O2-  O230  1  0.21755410  0.33521647  0.73527318  1
  O2-  O231  1  0.20269339  0.83136519  0.06133158  1
  O2-  O232  1  0.20397860  0.83313511  0.39588734  1
  O2-  O233  1  0.21260356  0.83707114  0.73117823  1
  O2-  O234  1  0.70510207  0.33539830  0.06153319  1
  O2-  O235  1  0.71089103  0.33223976  0.39801746  1
  O2-  O236  1  0.69882155  0.32710161  0.73536779  1
  O2-  O237  1  0.70933242  0.83317448  0.06945786  1
  O2-  O238  1  0.70606489  0.83399192  0.39032037  1
  O2-  O239  1  0.69972051  0.83008193  0.73636489  1
  O2-  O240  1  0.45178832  0.41981079  0.26451981  1
  O2-  O241  1  0.45437330  0.42144126  0.60342154  1
  O2-  O242  1  0.45284539  0.41869499  0.93703271  1
  O2-  O243  1  0.45953827  0.92005356  0.26716100  1
  O2-  O244  1  0.45635404  0.91574448  0.60504179  1
  O2-  O245  1  0.45998707  0.91652620  0.93047624  1
  O2-  O246  1  0.96073061  0.41396759  0.26162062  1
  O2-  O247  1  0.95918881  0.41639373  0.60083468  1
  O2-  O248  1  0.95756917  0.41753403  0.93858716  1
  O2-  O249  1  0.95795276  0.92096729  0.26043786  1
  O2-  O250  1  0.95723675  0.91604931  0.59906669  1
  O2-  O251  1  0.95184173  0.91227251  0.93778628  1
  O2-  O252  1  0.32736784  0.29376019  0.26607477  1
  O2-  O253  1  0.33841651  0.28678225  0.59913204  1
  O2-  O254  1  0.33274079  0.29946533  0.94017131  1
  O2-  O255  1  0.33291698  0.79407033  0.26597519  1
  O2-  O256  1  0.33887835  0.79553254  0.60250088  1
  O2-  O257  1  0.33374744  0.78798113  0.93053420  1
  O2-  O258  1  0.83488720  0.28770167  0.26229272  1
  O2-  O259  1  0.82652289  0.29359317  0.60290482  1
  O2-  O260  1  0.83327654  0.30389841  0.93778529  1
  O2-  O261  1  0.83167359  0.79435312  0.25938038  1
  O2-  O262  1  0.82554426  0.79409536  0.60337498  1
  O2-  O263  1  0.83595900  0.78751467  0.93945675  1
  O2-  O264  1  0.41489066  0.03785598  0.06676926  1
  O2-  O265  1  0.41728485  0.03829549  0.40586711  1
  O2-  O266  1  0.40987003  0.04106228  0.73115792  1
  O2-  O267  1  0.41368146  0.54653291  0.06335102  1
  O2-  O268  1  0.41185328  0.54654694  0.39443224  1
  O2-  O269  1  0.41364465  0.54805096  0.73394741  1
  O2-  O270  1  0.91700724  0.04520826  0.06446710  1
  O2-  O271  1  0.91636726  0.04649170  0.39218694  1
  O2-  O272  1  0.92491935  0.04202335  0.73238123  1
  O2-  O273  1  0.91304537  0.54257095  0.06728791  1
  O2-  O274  1  0.91712591  0.54326722  0.39213505  1
  O2-  O275  1  0.91948823  0.54309004  0.73529548  1
  O2-  O276  1  0.28862356  0.16777897  0.06874154  1
  O2-  O277  1  0.29014320  0.16751669  0.40422084  1
  O2-  O278  1  0.29238585  0.16286437  0.72986670  1
  O2-  O279  1  0.29070769  0.66390930  0.06389363  1
  O2-  O280  1  0.29173744  0.66450820  0.39483171  1
  O2-  O281  1  0.29817112  0.66983219  0.73018271  1
  O2-  O282  1  0.80058781  0.16964646  0.05939086  1
  O2-  O283  1  0.79215263  0.16151145  0.39276973  1
  O2-  O284  1  0.79932128  0.16723096  0.73859940  1
  O2-  O285  1  0.79333698  0.66101160  0.06742374  1
  O2-  O286  1  0.80214285  0.66762063  0.39124728  1
  O2-  O287  1  0.78878513  0.66527410  0.73727406  1
