# generated using pymatgen
data_Ca2Al2SiO7
_symmetry_space_group_name_H-M   'P 1'
_cell_length_a   15.45935803
_cell_length_b   15.45878374
_cell_length_c   15.28433350
_cell_angle_alpha   89.99482530
_cell_angle_beta   90.00391764
_cell_angle_gamma   89.99164379
_symmetry_Int_Tables_number   1
_chemical_formula_structural   Ca2Al2SiO7
_chemical_formula_sum   'Ca48 Al48 Si24 O168'
_cell_volume   3652.69386555
_cell_formula_units_Z   24
loop_
 _symmetry_equiv_pos_site_id
 _symmetry_equiv_pos_as_xyz
  1  'x, y, z'
loop_
 _atom_type_symbol
 _atom_type_oxidation_number
  Ca2+  2.0
  Al0+  0.0
  Si0+  0.0
  O2-  -2.0
loop_
 _atom_site_type_symbol
 _atom_site_label
 _atom_site_symmetry_multiplicity
 _atom_site_fract_x
 _atom_site_fract_y
 _atom_site_fract_z
 _atom_site_occupancy
  Ca2+  Ca0  1  0.15872183  0.07910819  0.17335099  1
  Ca2+  Ca1  1  0.16689611  0.07940022  0.50554664  1
  Ca2+  Ca2  1  0.16915971  0.09115632  0.83230921  1
  Ca2+  Ca3  1  0.16274419  0.57605782  0.17553913  1
  Ca2+  Ca4  1  0.17214102  0.57038832  0.51300853  1
  Ca2+  Ca5  1  0.16885467  0.58813547  0.83406815  1
  Ca2+  Ca6  1  0.67424109  0.07732356  0.16569303  1
  Ca2+  Ca7  1  0.67481705  0.08442897  0.51044502  1
  Ca2+  Ca8  1  0.68011849  0.07757241  0.84284485  1
  Ca2+  Ca9  1  0.67182501  0.59099409  0.17162732  1
  Ca2+  Ca10  1  0.66655301  0.58661689  0.50419390  1
  Ca2+  Ca11  1  0.65601043  0.57954683  0.83463021  1
  Ca2+  Ca12  1  0.08149968  0.32424938  0.16084576  1
  Ca2+  Ca13  1  0.09842005  0.32242047  0.49767747  1
  Ca2+  Ca14  1  0.07725780  0.32563192  0.82823202  1
  Ca2+  Ca15  1  0.07871716  0.82918972  0.15865751  1
  Ca2+  Ca16  1  0.08869392  0.82725715  0.49864034  1
  Ca2+  Ca17  1  0.08017332  0.82543928  0.83099659  1
  Ca2+  Ca18  1  0.57545717  0.33611803  0.16651747  1
  Ca2+  Ca19  1  0.57083940  0.34207097  0.50079907  1
  Ca2+  Ca20  1  0.57791379  0.33515071  0.82267105  1
  Ca2+  Ca21  1  0.58563221  0.82472970  0.16147470  1
  Ca2+  Ca22  1  0.57039110  0.82634775  0.49497829  1
  Ca2+  Ca23  1  0.58464319  0.82507088  0.82672734  1
  Ca2+  Ca24  1  0.32621006  0.41796372  0.17538567  1
  Ca2+  Ca25  1  0.32861214  0.41668276  0.50976229  1
  Ca2+  Ca26  1  0.32911182  0.41994725  0.82851475  1
  Ca2+  Ca27  1  0.32533859  0.91718785  0.17593513  1
  Ca2+  Ca28  1  0.33291861  0.91630311  0.50561612  1
  Ca2+  Ca29  1  0.33908065  0.92148864  0.83338358  1
  Ca2+  Ca30  1  0.83828080  0.42444373  0.17188625  1
  Ca2+  Ca31  1  0.82464434  0.42307028  0.50537047  1
  Ca2+  Ca32  1  0.82901212  0.41388016  0.83616822  1
  Ca2+  Ca33  1  0.83389740  0.91450144  0.16499780  1
  Ca2+  Ca34  1  0.83140047  0.92423910  0.50698340  1
  Ca2+  Ca35  1  0.83430928  0.92406946  0.84142703  1
  Ca2+  Ca36  1  0.41398153  0.17409375  0.16702432  1
  Ca2+  Ca37  1  0.40429034  0.17849330  0.50043406  1
  Ca2+  Ca38  1  0.41697472  0.17095607  0.82285150  1
  Ca2+  Ca39  1  0.42649688  0.67131850  0.16423842  1
  Ca2+  Ca40  1  0.42246025  0.66860583  0.49780729  1
  Ca2+  Ca41  1  0.42443513  0.67169574  0.82098012  1
  Ca2+  Ca42  1  0.92670876  0.17014055  0.15641440  1
  Ca2+  Ca43  1  0.92612729  0.16631854  0.49809948  1
  Ca2+  Ca44  1  0.92285201  0.16142884  0.82930557  1
  Ca2+  Ca45  1  0.92088922  0.67021410  0.15744365  1
  Ca2+  Ca46  1  0.92055731  0.66163561  0.49840179  1
  Ca2+  Ca47  1  0.92633761  0.67093734  0.83154661  1
  Al0+  Al48  1  0.00234747  0.00035694  -0.00345735  1
  Al0+  Al49  1  0.00115430  -0.00075433  0.33504578  1
  Al0+  Al50  1  0.00048589  0.00047303  0.66650969  1
  Al0+  Al51  1  0.00017759  0.49675075  -0.00669887  1
  Al0+  Al52  1  -0.00118200  0.49810146  0.34444862  1
  Al0+  Al53  1  -0.00266353  0.49836775  0.66709750  1
  Al0+  Al54  1  0.50006718  0.00176940  0.00783704  1
  Al0+  Al55  1  0.49997227  0.00147777  0.32984375  1
  Al0+  Al56  1  0.50050370  -0.00065459  0.66732785  1
  Al0+  Al57  1  0.49788198  0.50153052  -0.00041859  1
  Al0+  Al58  1  0.50055961  0.49974742  0.32289373  1
  Al0+  Al59  1  0.49933127  0.50011941  0.66665267  1
  Al0+  Al60  1  0.24969733  0.25230022  -0.00187693  1
  Al0+  Al61  1  0.25010732  0.24872081  0.32576935  1
  Al0+  Al62  1  0.24900433  0.24850431  0.66899207  1
  Al0+  Al63  1  0.25367821  0.75084787  -0.00056823  1
  Al0+  Al64  1  0.25020223  0.74987190  0.33335432  1
  Al0+  Al65  1  0.24837835  0.74948434  0.66352082  1
  Al0+  Al66  1  0.74775113  0.25016938  0.00493534  1
  Al0+  Al67  1  0.74984867  0.25107301  0.33361795  1
  Al0+  Al68  1  0.75172222  0.25107466  0.67478462  1
  Al0+  Al69  1  0.74942233  0.74849593  -0.00582776  1
  Al0+  Al70  1  0.75103315  0.75122425  0.33692286  1
  Al0+  Al71  1  0.75159165  0.75028566  0.66287444  1
  Al0+  Al72  1  0.06937083  0.18036615  0.65099212  1
  Al0+  Al73  1  0.56984829  0.67997260  0.98449703  1
  Al0+  Al74  1  0.67974039  0.92669609  0.01567373  1
  Al0+  Al75  1  0.07004151  0.67705979  0.65129008  1
  Al0+  Al76  1  0.57226434  0.68096956  0.31654002  1
  Al0+  Al77  1  0.31990529  0.57207217  0.68136328  1
  Al0+  Al78  1  0.18017482  0.42760940  0.34637751  1
  Al0+  Al79  1  0.67913147  0.43232125  0.67978865  1
  Al0+  Al80  1  0.57161463  0.67812888  0.65023754  1
  Al0+  Al81  1  0.92890799  0.82075138  0.98547362  1
  Al0+  Al82  1  0.42969602  0.31877641  0.65501905  1
  Al0+  Al83  1  0.42816108  0.82379836  0.65210090  1
  Al0+  Al84  1  0.82418602  0.07117758  0.01768827  1
  Al0+  Al85  1  0.17853776  0.92808110  0.34695385  1
  Al0+  Al86  1  0.17719029  0.42665686  0.68435028  1
  Al0+  Al87  1  0.07433940  0.67687678  0.98729537  1
  Al0+  Al88  1  0.92566978  0.32084246  0.98538448  1
  Al0+  Al89  1  0.06893461  0.17915211  0.31969574  1
  Al0+  Al90  1  0.07162070  0.17875819  0.98312723  1
  Al0+  Al91  1  0.82022159  0.57240000  0.34676587  1
  Al0+  Al92  1  0.32077422  0.06935987  0.67906153  1
  Al0+  Al93  1  0.42961408  0.31953943  0.31892862  1
  Al0+  Al94  1  0.82188694  0.07038009  0.68060245  1
  Al0+  Al95  1  0.42648908  0.82312327  0.31596250  1
  Si0+  Si96  1  0.67859402  0.92965899  0.34930487  1
  Si0+  Si97  1  0.56923738  0.17851321  0.98649232  1
  Si0+  Si98  1  0.42964467  0.32106926  0.98351939  1
  Si0+  Si99  1  0.32087898  0.07426968  0.01678943  1
  Si0+  Si100  1  0.67632167  0.42771394  0.34842523  1
  Si0+  Si101  1  0.57445160  0.17823028  0.65348302  1
  Si0+  Si102  1  0.67850596  0.92738359  0.68187113  1
  Si0+  Si103  1  0.18161149  0.92830923  0.01372952  1
  Si0+  Si104  1  0.57686491  0.17704581  0.31546118  1
  Si0+  Si105  1  0.82223526  0.57454241  0.68640487  1
  Si0+  Si106  1  0.92552137  0.32251608  0.31894962  1
  Si0+  Si107  1  0.17931083  0.43023784  0.01549033  1
  Si0+  Si108  1  0.06943922  0.67632461  0.32187253  1
  Si0+  Si109  1  0.32303108  0.57114002  0.34783987  1
  Si0+  Si110  1  0.42866093  0.82501821  0.98395366  1
  Si0+  Si111  1  0.32172513  0.57170781  0.01667649  1
  Si0+  Si112  1  0.93017416  0.82091468  0.32027155  1
  Si0+  Si113  1  0.17746782  0.92718636  0.68476685  1
  Si0+  Si114  1  0.67469372  0.42923117  0.01689351  1
  Si0+  Si115  1  0.92981441  0.82217176  0.64814113  1
  Si0+  Si116  1  0.32246784  0.07178461  0.34843050  1
  Si0+  Si117  1  0.82095642  0.07126131  0.34817346  1
  Si0+  Si118  1  0.92477702  0.32186138  0.64794382  1
  Si0+  Si119  1  0.82114939  0.56791824  0.01215367  1
  O2-  O120  1  0.24970660  0.00243440  0.05697091  1
  O2-  O121  1  0.25751715  -0.00066524  0.39168454  1
  O2-  O122  1  0.24925696  -0.00692907  0.72871694  1
  O2-  O123  1  0.24612034  0.50515677  0.05881719  1
  O2-  O124  1  0.25456637  0.50263841  0.39216186  1
  O2-  O125  1  0.24497620  0.50349364  0.73370419  1
  O2-  O126  1  0.75420504  -0.00371003  0.06743135  1
  O2-  O127  1  0.74634613  0.00431365  0.39122412  1
  O2-  O128  1  0.74636710  -0.00357162  0.72628768  1
  O2-  O129  1  0.74979631  0.49745907  0.05665503  1
  O2-  O130  1  0.74302921  0.49879480  0.39120964  1
  O2-  O131  1  0.75095146  0.50814988  0.72985952  1
  O2-  O132  1  -0.00576830  0.25430854  0.27448566  1
  O2-  O133  1  -0.00278484  0.25729563  0.60318238  1
  O2-  O134  1  -0.00637156  0.24532203  0.93511942  1
  O2-  O135  1  -0.00000127  0.74823125  0.27838504  1
  O2-  O136  1  -0.00452730  0.75128886  0.60279286  1
  O2-  O137  1  0.00281347  0.74952146  0.93773306  1
  O2-  O138  1  0.50623864  0.24555078  0.27304679  1
  O2-  O139  1  0.50433932  0.24403796  0.60722355  1
  O2-  O140  1  0.50057993  0.25018268  0.94211561  1
  O2-  O141  1  0.50042897  0.75310368  0.26587764  1
  O2-  O142  1  0.49853720  0.75005154  0.60239405  1
  O2-  O143  1  0.49886435  0.75853598  0.93992001  1
  O2-  O144  1  0.07387793  0.18151603  0.09719302  1
  O2-  O145  1  0.06854877  0.17821553  0.43258681  1
  O2-  O146  1  0.06796693  0.17998688  0.76361777  1
  O2-  O147  1  0.07203649  0.67634138  0.10189008  1
  O2-  O148  1  0.06732394  0.67725287  0.42654528  1
  O2-  O149  1  0.06841495  0.68077167  0.76435461  1
  O2-  O150  1  0.56643440  0.18013681  0.09190927  1
  O2-  O151  1  0.58257713  0.17625000  0.42052831  1
  O2-  O152  1  0.57298516  0.18026241  0.75934946  1
  O2-  O153  1  0.56878019  0.67856532  0.09753926  1
  O2-  O154  1  0.57195220  0.68158726  0.42945829  1
  O2-  O155  1  0.57057784  0.67993564  0.76403686  1
  O2-  O156  1  0.17915088  0.43019660  0.23241299  1
  O2-  O157  1  0.18318284  0.42542279  0.57040907  1
  O2-  O158  1  0.18235511  0.42784859  0.91128238  1
  O2-  O159  1  0.17546950  0.93005659  0.23328759  1
  O2-  O160  1  0.17558672  0.92977246  0.57896453  1
  O2-  O161  1  0.18526938  0.92506928  0.90919075  1
  O2-  O162  1  0.67852630  0.42561571  0.24253765  1
  O2-  O163  1  0.68054027  0.43122925  0.56653153  1
  O2-  O164  1  0.67062605  0.43025309  0.91218641  1
  O2-  O165  1  0.68205423  0.92840173  0.24439073  1
  O2-  O166  1  0.68031755  0.93003909  0.57572907  1
  O2-  O167  1  0.67742813  0.93137528  0.90238029  1
  O2-  O168  1  0.42963187  0.32026479  0.08902238  1
  O2-  O169  1  0.42938765  0.31904383  0.43165491  1
  O2-  O170  1  0.43172587  0.31715857  0.76844527  1
  O2-  O171  1  0.42595211  0.82240465  0.08944780  1
  O2-  O172  1  0.42813091  0.82309853  0.42896138  1
  O2-  O173  1  0.43240220  0.82543531  0.76608952  1
  O2-  O174  1  0.93115129  0.32486402  0.09953927  1
  O2-  O175  1  0.92022052  0.31941205  0.42396379  1
  O2-  O176  1  0.92278570  0.31888229  0.75338209  1
  O2-  O177  1  0.93079996  0.81764275  0.10010984  1
  O2-  O178  1  0.93028734  0.82253631  0.42518174  1
  O2-  O179  1  0.93067250  0.82234983  0.75347309  1
  O2-  O180  1  0.32004607  0.07279550  0.24224793  1
  O2-  O181  1  0.31783504  0.07085614  0.56608521  1
  O2-  O182  1  0.32336813  0.07494771  0.91196525  1
  O2-  O183  1  0.31981222  0.56959336  0.24145354  1
  O2-  O184  1  0.32048607  0.56891313  0.56745870  1
  O2-  O185  1  0.32430544  0.56971269  0.91228114  1
  O2-  O186  1  0.82152023  0.06974975  0.24347498  1
  O2-  O187  1  0.82031411  0.06913447  0.56644501  1
  O2-  O188  1  0.82047831  0.07074769  0.90432199  1
  O2-  O189  1  0.82299159  0.57184688  0.23296859  1
  O2-  O190  1  0.82201559  0.57298242  0.58046448  1
  O2-  O191  1  0.82063992  0.56619653  0.90757306  1
  O2-  O192  1  0.03598902  0.08259283  0.26627495  1
  O2-  O193  1  0.03716536  0.08346829  0.59770921  1
  O2-  O194  1  0.05203421  0.07861819  0.93162196  1
  O2-  O195  1  0.03959010  0.58398359  0.27623850  1
  O2-  O196  1  0.03867184  0.57973540  0.59861116  1
  O2-  O197  1  0.04621440  0.57996952  0.93314311  1
  O2-  O198  1  0.55122692  0.08425182  0.26778967  1
  O2-  O199  1  0.55304150  0.08375784  0.60831708  1
  O2-  O200  1  0.54006010  0.08692354  0.94022827  1
  O2-  O201  1  0.54756518  0.58223688  0.26181208  1
  O2-  O202  1  0.54353066  0.57980272  0.59811958  1
  O2-  O203  1  0.53418809  0.58390573  0.93238512  1
  O2-  O204  1  0.16452919  0.20790683  0.26317196  1
  O2-  O205  1  0.16689413  0.20955448  0.59855970  1
  O2-  O206  1  0.16897133  0.21327708  0.93121890  1
  O2-  O207  1  0.16201053  0.70095209  0.27487905  1
  O2-  O208  1  0.16583370  0.70709142  0.59617549  1
  O2-  O209  1  0.17302640  0.70623562  0.93563119  1
  O2-  O210  1  0.66872632  0.20544803  0.26620065  1
  O2-  O211  1  0.66780173  0.20614583  0.60825172  1
  O2-  O212  1  0.66225122  0.20372487  0.94146857  1
  O2-  O213  1  0.67169909  0.71251657  0.26580080  1
  O2-  O214  1  0.67117062  0.70553351  0.59857752  1
  O2-  O215  1  0.66689846  0.70417543  0.92973397  1
  O2-  O216  1  0.08562058  0.45411474  0.06142154  1
  O2-  O217  1  0.08443289  0.45415534  0.40319916  1
  O2-  O218  1  0.07529872  0.44890147  0.73201711  1
  O2-  O219  1  0.08873898  0.95323037  0.06036033  1
  O2-  O220  1  0.08354774  0.96104737  0.40327593  1
  O2-  O221  1  0.08547520  0.95700106  0.73122854  1
  O2-  O222  1  0.58432535  0.46139103  0.06585610  1
  O2-  O223  1  0.58098779  0.45195727  0.39090920  1
  O2-  O224  1  0.58263124  0.45989514  0.73568112  1
  O2-  O225  1  0.58271418  0.95895176  0.07175220  1
  O2-  O226  1  0.58508108  0.95532812  0.39393910  1
  O2-  O227  1  0.58506152  0.95056081  0.72821250  1
  O2-  O228  1  0.21289415  0.34004966  0.06431969  1
  O2-  O229  1  0.21422624  0.33035347  0.39625660  1
  O2-  O230  1  0.21100228  0.33080311  0.73839201  1
  O2-  O231  1  0.21118712  0.83760994  0.06409154  1
  O2-  O232  1  0.20569193  0.83011613  0.40047348  1
  O2-  O233  1  0.19861382  0.83231627  0.72887147  1
  O2-  O234  1  0.69632945  0.33632092  0.06491235  1
  O2-  O235  1  0.70244400  0.33478466  0.39593969  1
  O2-  O236  1  0.71007328  0.33671364  0.73688882  1
  O2-  O237  1  0.70770970  0.82664043  0.06673239  1
  O2-  O238  1  0.71041449  0.84063900  0.39904710  1
  O2-  O239  1  0.70573360  0.83370725  0.72657868  1
  O2-  O240  1  0.45888084  0.41428454  0.25953508  1
  O2-  O241  1  0.46120692  0.41416019  0.60043962  1
  O2-  O242  1  0.45829157  0.41280584  0.93794947  1
  O2-  O243  1  0.45106798  0.92372627  0.26477688  1
  O2-  O244  1  0.45787048  0.92177543  0.59726420  1
  O2-  O245  1  0.45141465  0.92122639  0.94239864  1
  O2-  O246  1  0.95297947  0.41717170  0.27586644  1
  O2-  O247  1  0.94336839  0.41767361  0.60450685  1
  O2-  O248  1  0.95630807  0.41610222  0.92816392  1
  O2-  O249  1  0.95962489  0.91145663  0.27163031  1
  O2-  O250  1  0.95808049  0.91461311  0.60105216  1
  O2-  O251  1  0.95719092  0.91849645  0.93274057  1
  O2-  O252  1  0.33618323  0.28572604  0.25963691  1
  O2-  O253  1  0.33415580  0.28571105  0.60119277  1
  O2-  O254  1  0.33814143  0.29336187  0.93707656  1
  O2-  O255  1  0.32781941  0.79297434  0.26268622  1
  O2-  O256  1  0.32830092  0.79977550  0.60130901  1
  O2-  O257  1  0.33645474  0.79838930  0.93645585  1
  O2-  O258  1  0.83212388  0.29937957  0.27055988  1
  O2-  O259  1  0.83238870  0.29121908  0.60168795  1
  O2-  O260  1  0.82319840  0.29966797  0.93764124  1
  O2-  O261  1  0.83816382  0.79438481  0.27328986  1
  O2-  O262  1  0.83551203  0.79994032  0.60156174  1
  O2-  O263  1  0.83239341  0.79201131  0.93050290  1
  O2-  O264  1  0.41179630  0.04857882  0.06732136  1
  O2-  O265  1  0.41885228  0.05455867  0.39207814  1
  O2-  O266  1  0.41902110  0.04303304  0.73439351  1
  O2-  O267  1  0.41072059  0.53738478  0.06671997  1
  O2-  O268  1  0.41812790  0.54479538  0.38911577  1
  O2-  O269  1  0.41696959  0.54029886  0.73504562  1
  O2-  O270  1  0.92471800  0.04491543  0.06780632  1
  O2-  O271  1  0.91063568  0.03870064  0.39675351  1
  O2-  O272  1  0.91736331  0.03685736  0.73431312  1
  O2-  O273  1  0.91335742  0.53959448  0.06004554  1
  O2-  O274  1  0.91328042  0.53930673  0.40638381  1
  O2-  O275  1  0.91449126  0.54600905  0.73275895  1
  O2-  O276  1  0.29251725  0.16670129  0.06372037  1
  O2-  O277  1  0.29142029  0.16415089  0.39309894  1
  O2-  O278  1  0.28849885  0.16381634  0.73627701  1
  O2-  O279  1  0.30017167  0.66566009  0.06315850  1
  O2-  O280  1  0.29930372  0.66497538  0.39283601  1
  O2-  O281  1  0.29342995  0.67170716  0.73371438  1
  O2-  O282  1  0.79094728  0.16875758  0.07166601  1
  O2-  O283  1  0.79608178  0.16453439  0.39435895  1
  O2-  O284  1  0.79285229  0.16578467  0.73663490  1
  O2-  O285  1  0.79377106  0.66027805  0.05860057  1
  O2-  O286  1  0.79252216  0.66888234  0.40312252  1
  O2-  O287  1  0.80099522  0.67038268  0.72931157  1
