# generated using pymatgen
data_Ca2Al2SiO7
_symmetry_space_group_name_H-M   'P 1'
_cell_length_a   15.45869476
_cell_length_b   15.45958081
_cell_length_c   15.28451889
_cell_angle_alpha   90.00059615
_cell_angle_beta   90.00017299
_cell_angle_gamma   90.00406403
_symmetry_Int_Tables_number   1
_chemical_formula_structural   Ca2Al2SiO7
_chemical_formula_sum   'Ca48 Al48 Si24 O168'
_cell_volume   3652.76983546
_cell_formula_units_Z   24
loop_
 _symmetry_equiv_pos_site_id
 _symmetry_equiv_pos_as_xyz
  1  'x, y, z'
loop_
 _atom_type_symbol
 _atom_type_oxidation_number
  Ca2+  2.0
  Al0+  0.0
  Si0+  0.0
  O2-  -2.0
loop_
 _atom_site_type_symbol
 _atom_site_label
 _atom_site_symmetry_multiplicity
 _atom_site_fract_x
 _atom_site_fract_y
 _atom_site_fract_z
 _atom_site_occupancy
  Ca2+  Ca0  1  0.16778877  0.07426446  0.16461268  1
  Ca2+  Ca1  1  0.15926403  0.07097946  0.50468136  1
  Ca2+  Ca2  1  0.16317086  0.07765348  0.84017578  1
  Ca2+  Ca3  1  0.17409264  0.58568642  0.17629628  1
  Ca2+  Ca4  1  0.17611811  0.59405089  0.49895811  1
  Ca2+  Ca5  1  0.17821446  0.58570411  0.83781835  1
  Ca2+  Ca6  1  0.66653058  0.07744958  0.17143049  1
  Ca2+  Ca7  1  0.67357999  0.07343067  0.50381283  1
  Ca2+  Ca8  1  0.67584995  0.08739820  0.83787134  1
  Ca2+  Ca9  1  0.66962123  0.58692789  0.16710111  1
  Ca2+  Ca10  1  0.67776586  0.58272410  0.50400367  1
  Ca2+  Ca11  1  0.66362750  0.57256245  0.84141751  1
  Ca2+  Ca12  1  0.08828843  0.32918615  0.16077951  1
  Ca2+  Ca13  1  0.08711231  0.32777267  0.49515496  1
  Ca2+  Ca14  1  0.08163855  0.31859368  0.82450896  1
  Ca2+  Ca15  1  0.07787076  0.83655847  0.16572905  1
  Ca2+  Ca16  1  0.07616650  0.83372469  0.49352951  1
  Ca2+  Ca17  1  0.07756042  0.84313886  0.82960962  1
  Ca2+  Ca18  1  0.58408783  0.32792901  0.15711742  1
  Ca2+  Ca19  1  0.58723649  0.33440973  0.50139425  1
  Ca2+  Ca20  1  0.58900060  0.33263738  0.83162726  1
  Ca2+  Ca21  1  0.57069346  0.83168743  0.15931253  1
  Ca2+  Ca22  1  0.57526537  0.83519443  0.48881743  1
  Ca2+  Ca23  1  0.57405460  0.82753891  0.83533520  1
  Ca2+  Ca24  1  0.32897748  0.42991018  0.17196330  1
  Ca2+  Ca25  1  0.32603194  0.42800594  0.50128967  1
  Ca2+  Ca26  1  0.33669607  0.42853059  0.83887794  1
  Ca2+  Ca27  1  0.32600824  0.91178421  0.17017795  1
  Ca2+  Ca28  1  0.31877316  0.90624525  0.50059738  1
  Ca2+  Ca29  1  0.31879937  0.91970797  0.84440802  1
  Ca2+  Ca30  1  0.82741981  0.42439248  0.17164060  1
  Ca2+  Ca31  1  0.83356102  0.42197123  0.50586299  1
  Ca2+  Ca32  1  0.82467293  0.40757488  0.83517518  1
  Ca2+  Ca33  1  0.82755762  0.90761473  0.17217821  1
  Ca2+  Ca34  1  0.83371328  0.91440035  0.50485640  1
  Ca2+  Ca35  1  0.84272107  0.92067812  0.83568327  1
  Ca2+  Ca36  1  0.42070512  0.16661324  0.15550818  1
  Ca2+  Ca37  1  0.41778952  0.16962366  0.49417497  1
  Ca2+  Ca38  1  0.42160084  0.16081724  0.83456020  1
  Ca2+  Ca39  1  0.41308827  0.67412060  0.16060653  1
  Ca2+  Ca40  1  0.41551607  0.66662146  0.49364027  1
  Ca2+  Ca41  1  0.41477905  0.66411508  0.83453505  1
  Ca2+  Ca42  1  0.92539784  0.16859853  0.15957276  1
  Ca2+  Ca43  1  0.91655131  0.16880102  0.50609894  1
  Ca2+  Ca44  1  0.92735096  0.16599745  0.82388002  1
  Ca2+  Ca45  1  0.91945245  0.67351067  0.16576068  1
  Ca2+  Ca46  1  0.92169123  0.67478993  0.48807667  1
  Ca2+  Ca47  1  0.91771877  0.68095484  0.82921187  1
  Al0+  Al48  1  0.00018162  0.00246861  -0.00140516  1
  Al0+  Al49  1  -0.00039432  0.00298415  0.33226216  1
  Al0+  Al50  1  -0.00159204  -0.00011452  0.66486076  1
  Al0+  Al51  1  -0.00242032  0.50179920  -0.00246558  1
  Al0+  Al52  1  -0.00110641  0.49853275  0.33618702  1
  Al0+  Al53  1  0.00171067  0.50096132  0.66570245  1
  Al0+  Al54  1  0.50099576  0.00052403  -0.00807820  1
  Al0+  Al55  1  0.50159533  0.00032111  0.33410246  1
  Al0+  Al56  1  0.49948400  -0.00137584  0.66455127  1
  Al0+  Al57  1  0.50050542  0.49882785  0.00744367  1
  Al0+  Al58  1  0.49966647  0.49743394  0.33584541  1
  Al0+  Al59  1  0.50139035  0.49971525  0.67214028  1
  Al0+  Al60  1  0.25091744  0.24940373  -0.00277035  1
  Al0+  Al61  1  0.25175901  0.25090245  0.33412437  1
  Al0+  Al62  1  0.25266589  0.24947281  0.66043182  1
  Al0+  Al63  1  0.24731183  0.75064319  0.00431536  1
  Al0+  Al64  1  0.24973307  0.75117236  0.33400957  1
  Al0+  Al65  1  0.25027136  0.75148088  0.67690648  1
  Al0+  Al66  1  0.74917912  0.25017269  0.00326982  1
  Al0+  Al67  1  0.75156457  0.24896362  0.33283310  1
  Al0+  Al68  1  0.75084668  0.24784389  0.66861638  1
  Al0+  Al69  1  0.74968848  0.75010251  -0.00990899  1
  Al0+  Al70  1  0.74808235  0.74954258  0.33952080  1
  Al0+  Al71  1  0.74765568  0.74899056  0.66454846  1
  Al0+  Al72  1  0.32333171  0.07155417  0.01359531  1
  Al0+  Al73  1  0.07060568  0.67816579  0.31905801  1
  Al0+  Al74  1  0.17847643  0.93103764  0.34741236  1
  Al0+  Al75  1  0.17987052  0.93231077  0.68047667  1
  Al0+  Al76  1  0.81773063  0.06664871  0.68059377  1
  Al0+  Al77  1  0.17779973  0.42684850  0.34776761  1
  Al0+  Al78  1  0.68298955  0.43100690  0.68026264  1
  Al0+  Al79  1  0.42518264  0.82111346  0.98356562  1
  Al0+  Al80  1  0.92880804  0.81968079  0.65151757  1
  Al0+  Al81  1  0.92794429  0.32153279  0.65150156  1
  Al0+  Al82  1  0.57228931  0.17841058  0.98572716  1
  Al0+  Al83  1  0.17652280  0.93037394  0.01767229  1
  Al0+  Al84  1  0.67886582  0.92934318  0.34491606  1
  Al0+  Al85  1  0.31969962  0.57067466  0.01578121  1
  Al0+  Al86  1  0.07254970  0.17888237  0.64846257  1
  Al0+  Al87  1  0.56970418  0.67750856  0.98517289  1
  Al0+  Al88  1  0.32057481  0.57232285  0.34886095  1
  Al0+  Al89  1  0.81990937  0.57109423  0.34615616  1
  Al0+  Al90  1  0.68054149  0.42876412  0.01595594  1
  Al0+  Al91  1  0.07141415  0.18178826  0.98697055  1
  Al0+  Al92  1  0.92987601  0.82065179  0.98617924  1
  Al0+  Al93  1  0.42938899  0.82048342  0.32096771  1
  Al0+  Al94  1  0.92727837  0.82271456  0.31851121  1
  Al0+  Al95  1  0.31953404  0.56928225  0.68221286  1
  Si0+  Si96  1  0.67894426  0.42475571  0.35034351  1
  Si0+  Si97  1  0.92745395  0.32126437  0.31722848  1
  Si0+  Si98  1  0.92701920  0.32362345  0.98526728  1
  Si0+  Si99  1  0.07244550  0.18030781  0.31654871  1
  Si0+  Si100  1  0.42873857  0.81985023  0.65162773  1
  Si0+  Si101  1  0.82179231  0.57520140  0.01534019  1
  Si0+  Si102  1  0.57144559  0.17791714  0.65015491  1
  Si0+  Si103  1  0.17773413  0.42427435  0.68355415  1
  Si0+  Si104  1  0.42914612  0.32087700  0.31752556  1
  Si0+  Si105  1  0.07490573  0.67911545  0.65206358  1
  Si0+  Si106  1  0.42927358  0.32139782  0.98339377  1
  Si0+  Si107  1  0.17598036  0.42797913  0.01271670  1
  Si0+  Si108  1  0.82217126  0.07402614  0.35001327  1
  Si0+  Si109  1  0.43151431  0.32313244  0.65090984  1
  Si0+  Si110  1  0.67381028  0.92497186  0.68572667  1
  Si0+  Si111  1  0.82068241  0.07086946  0.01575929  1
  Si0+  Si112  1  0.32367012  0.07228144  0.34956352  1
  Si0+  Si113  1  0.57155928  0.18020549  0.31929785  1
  Si0+  Si114  1  0.56860157  0.67660829  0.65084373  1
  Si0+  Si115  1  0.07212699  0.67582255  0.98274172  1
  Si0+  Si116  1  0.32524366  0.07476439  0.68172319  1
  Si0+  Si117  1  0.57189911  0.67505191  0.31905026  1
  Si0+  Si118  1  0.68001704  0.92814326  0.01177645  1
  Si0+  Si119  1  0.82509701  0.57481031  0.68467539  1
  O2-  O120  1  0.25485744  -0.00230419  0.06547115  1
  O2-  O121  1  0.25490111  0.00452160  0.39448919  1
  O2-  O122  1  0.25321259  0.00976760  0.72448786  1
  O2-  O123  1  0.24059329  0.49884857  0.05919542  1
  O2-  O124  1  0.24510108  0.50315465  0.39835334  1
  O2-  O125  1  0.24415866  0.49466660  0.72838415  1
  O2-  O126  1  0.75029579  -0.00106654  0.05664423  1
  O2-  O127  1  0.75755168  0.00004602  0.39156091  1
  O2-  O128  1  0.74507272  -0.00910711  0.72961161  1
  O2-  O129  1  0.75448516  0.50496696  0.06000100  1
  O2-  O130  1  0.74496244  0.49600051  0.39320049  1
  O2-  O131  1  0.76025637  0.50215046  0.72866774  1
  O2-  O132  1  0.00197993  0.25324765  0.27561814  1
  O2-  O133  1  0.00444540  0.25556479  0.59886977  1
  O2-  O134  1  -0.00016996  0.25988079  0.94157907  1
  O2-  O135  1  -0.00059597  0.75107474  0.26834653  1
  O2-  O136  1  0.00042982  0.74112137  0.60733294  1
  O2-  O137  1  0.00563208  0.74711209  0.93941143  1
  O2-  O138  1  0.50110433  0.25057403  0.27601395  1
  O2-  O139  1  0.49881278  0.24772150  0.60814515  1
  O2-  O140  1  0.49646672  0.25154901  0.93809738  1
  O2-  O141  1  0.50218090  0.74295316  0.27588456  1
  O2-  O142  1  0.50133888  0.75090330  0.60829904  1
  O2-  O143  1  0.49431593  0.74547206  0.93365244  1
  O2-  O144  1  0.06891938  0.18273481  0.10068750  1
  O2-  O145  1  0.07229223  0.17955312  0.42135434  1
  O2-  O146  1  0.07137812  0.17922851  0.76207243  1
  O2-  O147  1  0.06929896  0.67054588  0.08790904  1
  O2-  O148  1  0.06966106  0.68084663  0.43307654  1
  O2-  O149  1  0.07576651  0.68135429  0.75779924  1
  O2-  O150  1  0.57396177  0.18073633  0.09933322  1
  O2-  O151  1  0.57113898  0.18172073  0.42473289  1
  O2-  O152  1  0.57145480  0.17813803  0.75493194  1
  O2-  O153  1  0.57276834  0.68199598  0.09879905  1
  O2-  O154  1  0.57121900  0.67505412  0.42524357  1
  O2-  O155  1  0.56699966  0.67500389  0.75555283  1
  O2-  O156  1  0.18343247  0.42241573  0.23412637  1
  O2-  O157  1  0.18114044  0.42274309  0.57823919  1
  O2-  O158  1  0.17803916  0.42868339  0.90708407  1
  O2-  O159  1  0.17711422  0.93411670  0.23497913  1
  O2-  O160  1  0.18181490  0.92976357  0.56710445  1
  O2-  O161  1  0.17397200  0.93490221  0.90397673  1
  O2-  O162  1  0.68089662  0.42035786  0.24510636  1
  O2-  O163  1  0.68118952  0.43383220  0.56690638  1
  O2-  O164  1  0.68319356  0.42683376  0.90279675  1
  O2-  O165  1  0.67656201  0.93270872  0.23157881  1
  O2-  O166  1  0.67047653  0.92819372  0.57985698  1
  O2-  O167  1  0.68187337  0.92970288  0.90673742  1
  O2-  O168  1  0.43065499  0.32006266  0.08929222  1
  O2-  O169  1  0.43004070  0.32002190  0.42295919  1
  O2-  O170  1  0.43324871  0.32437448  0.75569606  1
  O2-  O171  1  0.42897538  0.82194579  0.09732983  1
  O2-  O172  1  0.43143791  0.82050131  0.43480342  1
  O2-  O173  1  0.43017403  0.81990259  0.75620137  1
  O2-  O174  1  0.92663803  0.32196736  0.09136278  1
  O2-  O175  1  0.92245077  0.31781227  0.42174508  1
  O2-  O176  1  0.92709463  0.31584454  0.76521030  1
  O2-  O177  1  0.92620399  0.81862239  0.09889314  1
  O2-  O178  1  0.92862298  0.82180899  0.43213230  1
  O2-  O179  1  0.93096940  0.82049209  0.76473494  1
  O2-  O180  1  0.32494340  0.07392550  0.24433092  1
  O2-  O181  1  0.32986715  0.07343789  0.57598384  1
  O2-  O182  1  0.32100703  0.07196166  0.89983698  1
  O2-  O183  1  0.32242594  0.56905664  0.23570705  1
  O2-  O184  1  0.32091057  0.56966819  0.56947475  1
  O2-  O185  1  0.32024860  0.56693654  0.90228089  1
  O2-  O186  1  0.81887719  0.08013508  0.24433833  1
  O2-  O187  1  0.81406042  0.06665512  0.56733943  1
  O2-  O188  1  0.82016388  0.07177414  0.91071938  1
  O2-  O189  1  0.81740033  0.56949474  0.23279880  1
  O2-  O190  1  0.82072081  0.57599238  0.57902273  1
  O2-  O191  1  0.82197118  0.57494210  0.90992591  1
  O2-  O192  1  0.04149250  0.09051316  0.26757762  1
  O2-  O193  1  0.03573025  0.08336209  0.59546687  1
  O2-  O194  1  0.03504400  0.08807185  0.93209950  1
  O2-  O195  1  0.04344278  0.57808644  0.26802795  1
  O2-  O196  1  0.05909609  0.58251566  0.60861182  1
  O2-  O197  1  0.04532644  0.58352711  0.93284628  1
  O2-  O198  1  0.54457338  0.08858873  0.27175277  1
  O2-  O199  1  0.54463601  0.08552568  0.60207048  1
  O2-  O200  1  0.54663774  0.08330309  0.92687580  1
  O2-  O201  1  0.54992446  0.57978313  0.27429463  1
  O2-  O202  1  0.53779421  0.58598837  0.60282759  1
  O2-  O203  1  0.54333657  0.57653149  0.93602052  1
  O2-  O204  1  0.16511887  0.20763487  0.27054517  1
  O2-  O205  1  0.17325545  0.20151086  0.59582705  1
  O2-  O206  1  0.16803395  0.20881496  0.93102686  1
  O2-  O207  1  0.16918863  0.70625870  0.26746069  1
  O2-  O208  1  0.16705563  0.71223499  0.60697073  1
  O2-  O209  1  0.16641262  0.69973893  0.93858098  1
  O2-  O210  1  0.66351923  0.20754689  0.27163484  1
  O2-  O211  1  0.66162455  0.20842651  0.60181210  1
  O2-  O212  1  0.66848188  0.21287597  0.93228688  1
  O2-  O213  1  0.66515714  0.70172667  0.27428006  1
  O2-  O214  1  0.66175332  0.70078429  0.60401865  1
  O2-  O215  1  0.66552185  0.70757169  0.92746399  1
  O2-  O216  1  0.07983129  0.44818400  0.05660359  1
  O2-  O217  1  0.07679957  0.44449374  0.39824354  1
  O2-  O218  1  0.08249501  0.44600174  0.72789696  1
  O2-  O219  1  0.08026806  0.96687792  0.07074771  1
  O2-  O220  1  0.08203940  0.96488535  0.40076186  1
  O2-  O221  1  0.08283419  0.96279398  0.73232211  1
  O2-  O222  1  0.58452397  0.45595894  0.07205780  1
  O2-  O223  1  0.58393202  0.44591998  0.39494743  1
  O2-  O224  1  0.58763261  0.46283393  0.73586106  1
  O2-  O225  1  0.58784713  0.95655484  0.05735371  1
  O2-  O226  1  0.58545175  0.96602086  0.40332348  1
  O2-  O227  1  0.58098045  0.95411044  0.73127564  1
  O2-  O228  1  0.20413754  0.33521229  0.05876863  1
  O2-  O229  1  0.21350510  0.33091881  0.40324202  1
  O2-  O230  1  0.20691229  0.33071347  0.72824540  1
  O2-  O231  1  0.19768358  0.82989831  0.06824779  1
  O2-  O232  1  0.20943570  0.83505085  0.40181699  1
  O2-  O233  1  0.21232618  0.83848711  0.73828591  1
  O2-  O234  1  0.71281885  0.33305834  0.07196938  1
  O2-  O235  1  0.70773210  0.33232213  0.39793291  1
  O2-  O236  1  0.70978069  0.33264514  0.73297231  1
  O2-  O237  1  0.70903201  0.83623437  0.05772691  1
  O2-  O238  1  0.70210111  0.83294762  0.40235490  1
  O2-  O239  1  0.69539358  0.82931474  0.72819040  1
  O2-  O240  1  0.45692190  0.41245217  0.26970638  1
  O2-  O241  1  0.46607028  0.41246558  0.60252367  1
  O2-  O242  1  0.45888255  0.41411955  0.93855903  1
  O2-  O243  1  0.46300582  0.91710017  0.26811235  1
  O2-  O244  1  0.45446657  0.91224529  0.60337375  1
  O2-  O245  1  0.45808684  0.91700421  0.92812700  1
  O2-  O246  1  0.94998695  0.41383252  0.26993067  1
  O2-  O247  1  0.94779821  0.42406377  0.60297154  1
  O2-  O248  1  0.94369046  0.41904048  0.93951611  1
  O2-  O249  1  0.95221915  0.92323908  0.26744258  1
  O2-  O250  1  0.95998971  0.91546303  0.59758128  1
  O2-  O251  1  0.96010606  0.91810031  0.93368165  1
  O2-  O252  1  0.33837539  0.29231639  0.26898254  1
  O2-  O253  1  0.33979777  0.29928262  0.60132473  1
  O2-  O254  1  0.33580462  0.29901334  0.93586716  1
  O2-  O255  1  0.33287961  0.79265122  0.26725396  1
  O2-  O256  1  0.33655487  0.78879249  0.60714311  1
  O2-  O257  1  0.32487953  0.79527021  0.93370201  1
  O2-  O258  1  0.83722576  0.28902694  0.26747602  1
  O2-  O259  1  0.83109759  0.28647648  0.59765844  1
  O2-  O260  1  0.83530086  0.29156218  0.94000465  1
  O2-  O261  1  0.82696849  0.79261990  0.26977396  1
  O2-  O262  1  0.82880497  0.79372762  0.60044866  1
  O2-  O263  1  0.83526504  0.79072904  0.92755884  1
  O2-  O264  1  0.42560232  0.04901068  0.06200574  1
  O2-  O265  1  0.41754553  0.04859512  0.39628388  1
  O2-  O266  1  0.41810910  0.04607510  0.72823128  1
  O2-  O267  1  0.41436263  0.53701808  0.07102986  1
  O2-  O268  1  0.41858585  0.53927899  0.40199678  1
  O2-  O269  1  0.41499425  0.53512346  0.73633625  1
  O2-  O270  1  0.91210944  0.04448396  0.06360883  1
  O2-  O271  1  0.91701042  0.05430416  0.39447696  1
  O2-  O272  1  0.91451230  0.03756923  0.73434538  1
  O2-  O273  1  0.91565537  0.55042040  0.06172464  1
  O2-  O274  1  0.91488918  0.53974337  0.40192662  1
  O2-  O275  1  0.92129782  0.55644553  0.72803518  1
  O2-  O276  1  0.29459328  0.17075263  0.06622966  1
  O2-  O277  1  0.29892900  0.16615558  0.39551475  1
  O2-  O278  1  0.30614727  0.17090704  0.72481452  1
  O2-  O279  1  0.29169322  0.66779145  0.06857488  1
  O2-  O280  1  0.29421528  0.67064249  0.40274097  1
  O2-  O281  1  0.28949586  0.66461891  0.73865173  1
  O2-  O282  1  0.79162191  0.16147280  0.06492382  1
  O2-  O283  1  0.78979050  0.16451381  0.39928702  1
  O2-  O284  1  0.78485612  0.16198963  0.73572203  1
  O2-  O285  1  0.79227597  0.66805783  0.06055280  1
  O2-  O286  1  0.78830997  0.66502554  0.40490678  1
  O2-  O287  1  0.79348075  0.66692882  0.73078964  1
