# generated using pymatgen
data_Ca2Al2SiO7
_symmetry_space_group_name_H-M   'P 1'
_cell_length_a   15.45425655
_cell_length_b   15.45386692
_cell_length_c   15.28015228
_cell_angle_alpha   89.99469252
_cell_angle_beta   89.99110126
_cell_angle_gamma   89.99584455
_symmetry_Int_Tables_number   1
_chemical_formula_structural   Ca2Al2SiO7
_chemical_formula_sum   'Ca48 Al48 Si24 O168'
_cell_volume   3649.32850571
_cell_formula_units_Z   24
loop_
 _symmetry_equiv_pos_site_id
 _symmetry_equiv_pos_as_xyz
  1  'x, y, z'
loop_
 _atom_type_symbol
 _atom_type_oxidation_number
  Ca2+  2.0
  Al0+  0.0
  Si0+  0.0
  O2-  -2.0
loop_
 _atom_site_type_symbol
 _atom_site_label
 _atom_site_symmetry_multiplicity
 _atom_site_fract_x
 _atom_site_fract_y
 _atom_site_fract_z
 _atom_site_occupancy
  Ca2+  Ca0  1  0.17165004  0.08603640  0.17092689  1
  Ca2+  Ca1  1  0.17752796  0.08707593  0.50616616  1
  Ca2+  Ca2  1  0.17140077  0.09114475  0.83458259  1
  Ca2+  Ca3  1  0.17614190  0.57711218  0.17094436  1
  Ca2+  Ca4  1  0.16856875  0.57464838  0.50850292  1
  Ca2+  Ca5  1  0.17514102  0.58656911  0.83405800  1
  Ca2+  Ca6  1  0.65833029  0.07582778  0.17024434  1
  Ca2+  Ca7  1  0.66645439  0.08031248  0.50791323  1
  Ca2+  Ca8  1  0.66758373  0.09187180  0.83472857  1
  Ca2+  Ca9  1  0.67322140  0.58140729  0.17044426  1
  Ca2+  Ca10  1  0.67591780  0.58744087  0.50332527  1
  Ca2+  Ca11  1  0.67405896  0.57604719  0.84162308  1
  Ca2+  Ca12  1  0.08083920  0.33401399  0.16767138  1
  Ca2+  Ca13  1  0.08136223  0.33123083  0.49436527  1
  Ca2+  Ca14  1  0.08491459  0.32249141  0.83013778  1
  Ca2+  Ca15  1  0.07443474  0.83142207  0.15759093  1
  Ca2+  Ca16  1  0.08333090  0.82472374  0.50162500  1
  Ca2+  Ca17  1  0.07706353  0.82574976  0.82792752  1
  Ca2+  Ca18  1  0.57393819  0.33102679  0.15696572  1
  Ca2+  Ca19  1  0.57171307  0.33041605  0.49749107  1
  Ca2+  Ca20  1  0.57933047  0.33168761  0.83071716  1
  Ca2+  Ca21  1  0.58361127  0.82811148  0.16494136  1
  Ca2+  Ca22  1  0.58174425  0.83060046  0.49617291  1
  Ca2+  Ca23  1  0.57025168  0.83119482  0.82995039  1
  Ca2+  Ca24  1  0.33239236  0.41337472  0.17026428  1
  Ca2+  Ca25  1  0.33196113  0.41481941  0.50490989  1
  Ca2+  Ca26  1  0.34317377  0.42514758  0.83687521  1
  Ca2+  Ca27  1  0.33814596  0.92428576  0.16984075  1
  Ca2+  Ca28  1  0.33895183  0.92880735  0.50727406  1
  Ca2+  Ca29  1  0.33873196  0.91942120  0.83503549  1
  Ca2+  Ca30  1  0.83006798  0.42352643  0.17215491  1
  Ca2+  Ca31  1  0.83676896  0.42362814  0.50468096  1
  Ca2+  Ca32  1  0.82719941  0.42549792  0.84093739  1
  Ca2+  Ca33  1  0.82802349  0.91643242  0.17252384  1
  Ca2+  Ca34  1  0.82352795  0.92187516  0.50517816  1
  Ca2+  Ca35  1  0.83582381  0.92130101  0.83610891  1
  Ca2+  Ca36  1  0.41682361  0.17659169  0.16048314  1
  Ca2+  Ca37  1  0.41163372  0.17313683  0.49795981  1
  Ca2+  Ca38  1  0.42703866  0.17804260  0.82365313  1
  Ca2+  Ca39  1  0.42332772  0.66803372  0.15898191  1
  Ca2+  Ca40  1  0.42014228  0.67016500  0.49727442  1
  Ca2+  Ca41  1  0.40572594  0.67437385  0.82626377  1
  Ca2+  Ca42  1  0.92232403  0.17462240  0.15943951  1
  Ca2+  Ca43  1  0.91948075  0.16995295  0.49784373  1
  Ca2+  Ca44  1  0.92702102  0.16243656  0.82500259  1
  Ca2+  Ca45  1  0.91150832  0.66821532  0.16169173  1
  Ca2+  Ca46  1  0.92039987  0.65569500  0.49665398  1
  Ca2+  Ca47  1  0.91465669  0.66686234  0.82878340  1
  Al0+  Al48  1  0.00056196  -0.00156218  -0.00629471  1
  Al0+  Al49  1  0.00107278  -0.00168752  0.33432176  1
  Al0+  Al50  1  -0.00113846  -0.00163128  0.66338661  1
  Al0+  Al51  1  0.00231238  0.50010079  0.00372338  1
  Al0+  Al52  1  0.00219148  0.49861254  0.33473457  1
  Al0+  Al53  1  0.00048929  0.50017712  0.67039738  1
  Al0+  Al54  1  0.50083318  -0.00011649  -0.00595499  1
  Al0+  Al55  1  0.50009336  -0.00071126  0.34286693  1
  Al0+  Al56  1  0.49907025  -0.00064900  0.66523394  1
  Al0+  Al57  1  0.50168003  0.50094359  0.00553649  1
  Al0+  Al58  1  0.50169137  0.50087480  0.32441507  1
  Al0+  Al59  1  0.49997980  0.50081564  0.66623973  1
  Al0+  Al60  1  0.25052033  0.25138855  -0.00678701  1
  Al0+  Al61  1  0.25009862  0.25019671  0.33689861  1
  Al0+  Al62  1  0.24849489  0.24870383  0.66479214  1
  Al0+  Al63  1  0.24872750  0.75081821  0.00358544  1
  Al0+  Al64  1  0.24958921  0.75113470  0.33143878  1
  Al0+  Al65  1  0.24729989  0.74972877  0.65888224  1
  Al0+  Al66  1  0.75119082  0.25053764  0.00273844  1
  Al0+  Al67  1  0.75036451  0.25094695  0.32798404  1
  Al0+  Al68  1  0.74962500  0.24919645  0.66710805  1
  Al0+  Al69  1  0.74988205  0.75248023  -0.00270629  1
  Al0+  Al70  1  0.74974894  0.75045447  0.33914303  1
  Al0+  Al71  1  0.74885370  0.75157640  0.67259634  1
  Al0+  Al72  1  0.07030654  0.17721739  0.65065572  1
  Al0+  Al73  1  0.92889048  0.32196468  0.31972113  1
  Al0+  Al74  1  0.82179855  0.57256758  0.01612380  1
  Al0+  Al75  1  0.68059637  0.93008118  0.34730409  1
  Al0+  Al76  1  0.57261712  0.17921309  0.64977969  1
  Al0+  Al77  1  0.42916288  0.32316672  0.65048650  1
  Al0+  Al78  1  0.57218794  0.68080597  0.31970772  1
  Al0+  Al79  1  0.42797676  0.81947595  0.98784516  1
  Al0+  Al80  1  0.42824389  0.31963002  0.31846395  1
  Al0+  Al81  1  0.32034185  0.57086781  0.67706693  1
  Al0+  Al82  1  0.82193493  0.57096902  0.68175343  1
  Al0+  Al83  1  0.57221807  0.17795813  0.98583514  1
  Al0+  Al84  1  0.42912308  0.32366636  0.98381631  1
  Al0+  Al85  1  0.32039881  0.57304791  0.01431565  1
  Al0+  Al86  1  0.67931853  0.42691890  0.01757286  1
  Al0+  Al87  1  0.06820075  0.67840603  0.65282739  1
  Al0+  Al88  1  0.18167269  0.43112982  0.34735176  1
  Al0+  Al89  1  0.42771709  0.81994889  0.65143438  1
  Al0+  Al90  1  0.32041924  0.07107320  0.68353193  1
  Al0+  Al91  1  0.81923250  0.56863281  0.34792084  1
  Al0+  Al92  1  0.31868728  0.06928056  0.34597995  1
  Al0+  Al93  1  0.92747255  0.81951221  0.98638314  1
  Al0+  Al94  1  0.06967230  0.17948736  0.98678993  1
  Al0+  Al95  1  0.82057104  0.07069796  0.67985467  1
  Si0+  Si96  1  0.82464408  0.06975928  0.01473754  1
  Si0+  Si97  1  0.67761226  0.42811870  0.68206836  1
  Si0+  Si98  1  0.17777066  0.92969409  0.01429042  1
  Si0+  Si99  1  0.82436741  0.07406554  0.34761356  1
  Si0+  Si100  1  0.07184890  0.67778980  0.31701955  1
  Si0+  Si101  1  0.07129527  0.17738184  0.31762788  1
  Si0+  Si102  1  0.67591512  0.42609946  0.35039483  1
  Si0+  Si103  1  0.67681576  0.92829061  0.68733668  1
  Si0+  Si104  1  0.92534662  0.82121491  0.64770163  1
  Si0+  Si105  1  0.42811313  0.82348520  0.31705456  1
  Si0+  Si106  1  0.92838486  0.32403805  0.98365388  1
  Si0+  Si107  1  0.57232613  0.67884951  0.98316253  1
  Si0+  Si108  1  0.17789141  0.92720795  0.68335113  1
  Si0+  Si109  1  0.32486471  0.57402908  0.34891160  1
  Si0+  Si110  1  0.57336636  0.67845540  0.65163678  1
  Si0+  Si111  1  0.92856117  0.32178936  0.65219647  1
  Si0+  Si112  1  0.67827705  0.93134531  0.01409018  1
  Si0+  Si113  1  0.17460829  0.92513465  0.35087676  1
  Si0+  Si114  1  0.57194277  0.17597309  0.31779693  1
  Si0+  Si115  1  0.93007602  0.82008746  0.32032634  1
  Si0+  Si116  1  0.07209323  0.67731245  0.98516275  1
  Si0+  Si117  1  0.17956322  0.42538709  0.01698592  1
  Si0+  Si118  1  0.32099398  0.07061722  0.01237254  1
  Si0+  Si119  1  0.17767353  0.42714930  0.68493070  1
  O2-  O120  1  0.24920949  0.00051885  0.05619294  1
  O2-  O121  1  0.24498863  -0.00722034  0.39262970  1
  O2-  O122  1  0.24460172  -0.00359111  0.73009179  1
  O2-  O123  1  0.24901366  0.49440537  0.05990066  1
  O2-  O124  1  0.25753135  0.50476503  0.39369930  1
  O2-  O125  1  0.24977935  0.49353615  0.72684388  1
  O2-  O126  1  0.74931927  0.00294136  0.05686686  1
  O2-  O127  1  0.75246136  0.00879114  0.39151338  1
  O2-  O128  1  0.74502262  -0.00155020  0.72997143  1
  O2-  O129  1  0.75190733  0.49944953  0.06700769  1
  O2-  O130  1  0.74592677  0.49302848  0.39596148  1
  O2-  O131  1  0.74643793  0.49708990  0.72642569  1
  O2-  O132  1  -0.00042004  0.24259918  0.27333058  1
  O2-  O133  1  -0.00456171  0.25232206  0.60601051  1
  O2-  O134  1  -0.00516617  0.25352253  0.93912151  1
  O2-  O135  1  0.00230147  0.75115118  0.27622821  1
  O2-  O136  1  -0.01038151  0.74831244  0.60361209  1
  O2-  O137  1  -0.00203261  0.74029226  0.94129538  1
  O2-  O138  1  0.50530596  0.24610065  0.27322811  1
  O2-  O139  1  0.49844137  0.24861978  0.59971613  1
  O2-  O140  1  0.50314610  0.25259771  0.93633279  1
  O2-  O141  1  0.49329942  0.75189599  0.27279073  1
  O2-  O142  1  0.50332193  0.74534033  0.60665319  1
  O2-  O143  1  0.49745804  0.74096425  0.93930259  1
  O2-  O144  1  0.06867255  0.17816457  0.10029117  1
  O2-  O145  1  0.06995100  0.17730957  0.42297141  1
  O2-  O146  1  0.06901735  0.17854502  0.76401291  1
  O2-  O147  1  0.07384233  0.68137601  0.09112269  1
  O2-  O148  1  0.07141665  0.67780997  0.42208334  1
  O2-  O149  1  0.06891566  0.68159408  0.76596725  1
  O2-  O150  1  0.56618431  0.17242827  0.09974801  1
  O2-  O151  1  0.57218528  0.17640649  0.42306418  1
  O2-  O152  1  0.57343717  0.18291438  0.76313859  1
  O2-  O153  1  0.57460757  0.68444109  0.08893969  1
  O2-  O154  1  0.57280424  0.68344948  0.43294284  1
  O2-  O155  1  0.57445353  0.68028880  0.75718633  1
  O2-  O156  1  0.18132893  0.43245235  0.23399716  1
  O2-  O157  1  0.17443461  0.42957437  0.57915811  1
  O2-  O158  1  0.17666065  0.42504671  0.91161977  1
  O2-  O159  1  0.17053082  0.92504428  0.24497744  1
  O2-  O160  1  0.17912555  0.92788087  0.57745340  1
  O2-  O161  1  0.17650073  0.92787261  0.90970011  1
  O2-  O162  1  0.67793552  0.42773831  0.24521121  1
  O2-  O163  1  0.67805251  0.42894288  0.57631977  1
  O2-  O164  1  0.68165718  0.42860950  0.90343950  1
  O2-  O165  1  0.68190911  0.92997739  0.23349307  1
  O2-  O166  1  0.67996911  0.92578864  0.58148424  1
  O2-  O167  1  0.67844604  0.93100609  0.90940957  1
  O2-  O168  1  0.42571835  0.31775981  0.09776362  1
  O2-  O169  1  0.42744140  0.31868783  0.43117640  1
  O2-  O170  1  0.43271884  0.32544585  0.76367799  1
  O2-  O171  1  0.43156415  0.82243099  0.10111131  1
  O2-  O172  1  0.42857937  0.82280020  0.42249463  1
  O2-  O173  1  0.42758684  0.81807745  0.76489460  1
  O2-  O174  1  0.93092296  0.32269096  0.08949528  1
  O2-  O175  1  0.93136401  0.32173690  0.43289091  1
  O2-  O176  1  0.93073905  0.32131557  0.75791087  1
  O2-  O177  1  0.92977384  0.82250765  0.10015313  1
  O2-  O178  1  0.93183631  0.82078274  0.42513081  1
  O2-  O179  1  0.92790796  0.82220115  0.75342670  1
  O2-  O180  1  0.31732989  0.06795559  0.23187527  1
  O2-  O181  1  0.31816757  0.06985131  0.57020277  1
  O2-  O182  1  0.31954807  0.06853879  0.90773562  1
  O2-  O183  1  0.32092621  0.57572235  0.24315377  1
  O2-  O184  1  0.31795273  0.57095047  0.56390854  1
  O2-  O185  1  0.31549621  0.57668278  0.90125695  1
  O2-  O186  1  0.82813182  0.07010644  0.24179985  1
  O2-  O187  1  0.82038510  0.06764609  0.56639790  1
  O2-  O188  1  0.82720972  0.06669730  0.90979239  1
  O2-  O189  1  0.81865054  0.57100284  0.23521786  1
  O2-  O190  1  0.82155638  0.56891351  0.56833284  1
  O2-  O191  1  0.81990471  0.57136181  0.90245408  1
  O2-  O192  1  0.05009646  0.08156026  0.27266218  1
  O2-  O193  1  0.03995449  0.08058227  0.59651573  1
  O2-  O194  1  0.03975767  0.08380519  0.93110992  1
  O2-  O195  1  0.04262201  0.58731772  0.26907255  1
  O2-  O196  1  0.03979779  0.58054853  0.59944524  1
  O2-  O197  1  0.05435159  0.58142568  0.94121662  1
  O2-  O198  1  0.54362160  0.08146396  0.27442760  1
  O2-  O199  1  0.54747154  0.07867314  0.60064855  1
  O2-  O200  1  0.54361030  0.08128767  0.92993995  1
  O2-  O201  1  0.54637483  0.58487923  0.26213141  1
  O2-  O202  1  0.55071321  0.58494949  0.60496262  1
  O2-  O203  1  0.55391952  0.58269801  0.94177547  1
  O2-  O204  1  0.16325690  0.20729034  0.27140338  1
  O2-  O205  1  0.16586253  0.20864800  0.59634913  1
  O2-  O206  1  0.16497453  0.21035171  0.93101403  1
  O2-  O207  1  0.16408924  0.70497176  0.26899884  1
  O2-  O208  1  0.16085754  0.71256181  0.59343755  1
  O2-  O209  1  0.16248022  0.71096411  0.93794152  1
  O2-  O210  1  0.66695327  0.19564709  0.27143455  1
  O2-  O211  1  0.67161569  0.20673137  0.59661786  1
  O2-  O212  1  0.67393334  0.20162790  0.93710905  1
  O2-  O213  1  0.66752754  0.71782398  0.26641519  1
  O2-  O214  1  0.66642136  0.70802746  0.60547021  1
  O2-  O215  1  0.66264247  0.71104085  0.93458996  1
  O2-  O216  1  0.08653306  0.45134644  0.06499425  1
  O2-  O217  1  0.08665916  0.46368585  0.40310657  1
  O2-  O218  1  0.08629557  0.45627328  0.73371720  1
  O2-  O219  1  0.08638708  0.95940581  0.06281386  1
  O2-  O220  1  0.08184059  0.95028654  0.39935921  1
  O2-  O221  1  0.08251585  0.94995661  0.72691699  1
  O2-  O222  1  0.58160682  0.45532615  0.07173810  1
  O2-  O223  1  0.58200741  0.45425770  0.39424398  1
  O2-  O224  1  0.58520991  0.45553479  0.72940073  1
  O2-  O225  1  0.58675131  0.95941899  0.06302869  1
  O2-  O226  1  0.58478053  0.95624541  0.40461492  1
  O2-  O227  1  0.58245660  0.95198132  0.73146541  1
  O2-  O228  1  0.20574155  0.33187681  0.06389074  1
  O2-  O229  1  0.20886193  0.33419154  0.40185094  1
  O2-  O230  1  0.19962930  0.33227478  0.72875814  1
  O2-  O231  1  0.20413637  0.83922119  0.06546988  1
  O2-  O232  1  0.19894986  0.83064299  0.39607682  1
  O2-  O233  1  0.20445848  0.83345170  0.72810656  1
  O2-  O234  1  0.70644721  0.32797980  0.07185007  1
  O2-  O235  1  0.69960771  0.33071887  0.39388617  1
  O2-  O236  1  0.70413152  0.33530281  0.72865773  1
  O2-  O237  1  0.70737974  0.83998802  0.06175242  1
  O2-  O238  1  0.71614232  0.83736128  0.40531257  1
  O2-  O239  1  0.70354934  0.83599694  0.73584562  1
  O2-  O240  1  0.45530458  0.41689011  0.26406440  1
  O2-  O241  1  0.45827969  0.42154403  0.59658883  1
  O2-  O242  1  0.45679398  0.42411539  0.93522803  1
  O2-  O243  1  0.45822703  0.91661173  0.27244550  1
  O2-  O244  1  0.46014952  0.91566348  0.59771042  1
  O2-  O245  1  0.46221153  0.91343785  0.93148102  1
  O2-  O246  1  0.96628819  0.41592224  0.26437412  1
  O2-  O247  1  0.95669615  0.41484803  0.60647631  1
  O2-  O248  1  0.95573062  0.41756073  0.93830298  1
  O2-  O249  1  0.95594178  0.91257144  0.27159592  1
  O2-  O250  1  0.95497665  0.91224166  0.59905931  1
  O2-  O251  1  0.96341951  0.91274109  0.92940870  1
  O2-  O252  1  0.33176047  0.28562939  0.26531355  1
  O2-  O253  1  0.32930436  0.29542396  0.60072702  1
  O2-  O254  1  0.33151630  0.29619783  0.92980791  1
  O2-  O255  1  0.33203424  0.80405649  0.27200397  1
  O2-  O256  1  0.33241067  0.79061432  0.59492209  1
  O2-  O257  1  0.32911225  0.79354641  0.93599279  1
  O2-  O258  1  0.83193626  0.29591584  0.26321513  1
  O2-  O259  1  0.83485543  0.29832641  0.60608384  1
  O2-  O260  1  0.83413157  0.30043048  0.93956075  1
  O2-  O261  1  0.83866588  0.79081858  0.27373496  1
  O2-  O262  1  0.82928929  0.79988469  0.60555920  1
  O2-  O263  1  0.83071955  0.79526464  0.92988281  1
  O2-  O264  1  0.41215154  0.03974341  0.05944171  1
  O2-  O265  1  0.41371962  0.03973971  0.40320880  1
  O2-  O266  1  0.41735429  0.03864497  0.73536527  1
  O2-  O267  1  0.41851353  0.54863223  0.06750785  1
  O2-  O268  1  0.42043096  0.55080967  0.39071244  1
  O2-  O269  1  0.41861276  0.54678674  0.73156639  1
  O2-  O270  1  0.91449084  0.03626654  0.06319827  1
  O2-  O271  1  0.91667337  0.04492829  0.39521801  1
  O2-  O272  1  0.91698250  0.03623589  0.73333505  1
  O2-  O273  1  0.92256660  0.54820650  0.06725385  1
  O2-  O274  1  0.91692491  0.53765827  0.39962970  1
  O2-  O275  1  0.91802604  0.54067947  0.73686623  1
  O2-  O276  1  0.29184147  0.16288537  0.05824958  1
  O2-  O277  1  0.28531726  0.16364919  0.40173350  1
  O2-  O278  1  0.28784123  0.16784101  0.73611917  1
  O2-  O279  1  0.28597158  0.66777868  0.07185130  1
  O2-  O280  1  0.29877864  0.66880380  0.39286253  1
  O2-  O281  1  0.28337347  0.66695571  0.72917358  1
  O2-  O282  1  0.80351612  0.16352368  0.06074728  1
  O2-  O283  1  0.80280713  0.16952827  0.39102364  1
  O2-  O284  1  0.79461813  0.16837349  0.73450740  1
  O2-  O285  1  0.79208235  0.67275947  0.06591714  1
  O2-  O286  1  0.78924548  0.66479896  0.40326889  1
  O2-  O287  1  0.79332925  0.66876697  0.73451093  1
