# generated using pymatgen
data_Ca2Al2SiO7
_symmetry_space_group_name_H-M   'P 1'
_cell_length_a   15.45617108
_cell_length_b   15.45564550
_cell_length_c   15.28234946
_cell_angle_alpha   89.99880082
_cell_angle_beta   90.00092218
_cell_angle_gamma   90.01173530
_symmetry_Int_Tables_number   1
_chemical_formula_structural   Ca2Al2SiO7
_chemical_formula_sum   'Ca48 Al48 Si24 O168'
_cell_volume   3650.72551543
_cell_formula_units_Z   24
loop_
 _symmetry_equiv_pos_site_id
 _symmetry_equiv_pos_as_xyz
  1  'x, y, z'
loop_
 _atom_type_symbol
 _atom_type_oxidation_number
  Ca2+  2.0
  Al0+  0.0
  Si0+  0.0
  O2-  -2.0
loop_
 _atom_site_type_symbol
 _atom_site_label
 _atom_site_symmetry_multiplicity
 _atom_site_fract_x
 _atom_site_fract_y
 _atom_site_fract_z
 _atom_site_occupancy
  Ca2+  Ca0  1  0.17663223  0.08431468  0.16687962  1
  Ca2+  Ca1  1  0.17573104  0.08042904  0.51468259  1
  Ca2+  Ca2  1  0.17518806  0.08203074  0.83108338  1
  Ca2+  Ca3  1  0.17506512  0.57765808  0.17102362  1
  Ca2+  Ca4  1  0.16571350  0.57307488  0.50608972  1
  Ca2+  Ca5  1  0.16839972  0.58166470  0.83458360  1
  Ca2+  Ca6  1  0.66652260  0.08186303  0.17155840  1
  Ca2+  Ca7  1  0.66211049  0.07567328  0.50860317  1
  Ca2+  Ca8  1  0.67332855  0.08353061  0.83213129  1
  Ca2+  Ca9  1  0.67216657  0.57404247  0.17160402  1
  Ca2+  Ca10  1  0.66560867  0.58191504  0.50266353  1
  Ca2+  Ca11  1  0.66780247  0.58030141  0.84048543  1
  Ca2+  Ca12  1  0.08382377  0.33612169  0.16586058  1
  Ca2+  Ca13  1  0.08841557  0.33167614  0.49893648  1
  Ca2+  Ca14  1  0.08074972  0.32880484  0.82335263  1
  Ca2+  Ca15  1  0.07951735  0.82927122  0.16039897  1
  Ca2+  Ca16  1  0.07881185  0.83572064  0.50263075  1
  Ca2+  Ca17  1  0.07739922  0.82928750  0.81935340  1
  Ca2+  Ca18  1  0.57987289  0.33759465  0.16326866  1
  Ca2+  Ca19  1  0.58144049  0.31930313  0.49078924  1
  Ca2+  Ca20  1  0.57880646  0.33086263  0.82852437  1
  Ca2+  Ca21  1  0.57572692  0.83631988  0.16617232  1
  Ca2+  Ca22  1  0.58459981  0.83424051  0.49502695  1
  Ca2+  Ca23  1  0.58163821  0.82947507  0.82650663  1
  Ca2+  Ca24  1  0.33692611  0.41810385  0.17118075  1
  Ca2+  Ca25  1  0.32518908  0.40793935  0.50279891  1
  Ca2+  Ca26  1  0.32953979  0.42032460  0.83930820  1
  Ca2+  Ca27  1  0.34499634  0.92087165  0.16825398  1
  Ca2+  Ca28  1  0.33214186  0.92208948  0.50922704  1
  Ca2+  Ca29  1  0.33604770  0.92755676  0.83683812  1
  Ca2+  Ca30  1  0.82006996  0.42378201  0.17147489  1
  Ca2+  Ca31  1  0.82847489  0.42052766  0.49896836  1
  Ca2+  Ca32  1  0.82419916  0.42298605  0.84278748  1
  Ca2+  Ca33  1  0.82490245  0.92293972  0.17192243  1
  Ca2+  Ca34  1  0.82199438  0.91924540  0.51018964  1
  Ca2+  Ca35  1  0.83350165  0.92339465  0.83128004  1
  Ca2+  Ca36  1  0.42281932  0.17766484  0.16257828  1
  Ca2+  Ca37  1  0.42598220  0.16468399  0.49461301  1
  Ca2+  Ca38  1  0.41640708  0.16860349  0.82928490  1
  Ca2+  Ca39  1  0.41199911  0.67713824  0.15822849  1
  Ca2+  Ca40  1  0.42292865  0.67472284  0.49715299  1
  Ca2+  Ca41  1  0.41953234  0.66938839  0.83015142  1
  Ca2+  Ca42  1  0.91700696  0.16628428  0.16022185  1
  Ca2+  Ca43  1  0.92420842  0.15747805  0.50209249  1
  Ca2+  Ca44  1  0.91918961  0.16175772  0.82381834  1
  Ca2+  Ca45  1  0.91258153  0.65939224  0.16413921  1
  Ca2+  Ca46  1  0.91822880  0.66843716  0.50026661  1
  Ca2+  Ca47  1  0.91985526  0.67110939  0.82117732  1
  Al0+  Al48  1  -0.00009845  -0.00142204  0.00415009  1
  Al0+  Al49  1  0.00138646  -0.00151830  0.32902601  1
  Al0+  Al50  1  0.00036655  0.00032759  0.66361276  1
  Al0+  Al51  1  -0.00033551  0.49856759  0.00110697  1
  Al0+  Al52  1  0.00222033  0.49951716  0.33955573  1
  Al0+  Al53  1  -0.00059036  0.49982367  0.66695632  1
  Al0+  Al54  1  0.49916935  0.00084674  -0.00101800  1
  Al0+  Al55  1  0.50149703  0.00076245  0.32901877  1
  Al0+  Al56  1  0.50065137  0.00109676  0.67289608  1
  Al0+  Al57  1  0.49700733  0.50022806  0.00314086  1
  Al0+  Al58  1  0.50082944  0.50118128  0.33562758  1
  Al0+  Al59  1  0.49831589  0.50141899  0.66081031  1
  Al0+  Al60  1  0.25043558  0.24704666  -0.00020564  1
  Al0+  Al61  1  0.25149756  0.24898784  0.33238522  1
  Al0+  Al62  1  0.24698671  0.25172580  0.67217872  1
  Al0+  Al63  1  0.24813821  0.74962048  -0.00228220  1
  Al0+  Al64  1  0.24834843  0.74964747  0.32903757  1
  Al0+  Al65  1  0.24948571  0.74819115  0.66473081  1
  Al0+  Al66  1  0.75066978  0.24908230  0.00701002  1
  Al0+  Al67  1  0.75471724  0.25053401  0.33315334  1
  Al0+  Al68  1  0.74798159  0.25109354  0.66525439  1
  Al0+  Al69  1  0.75042422  0.75124313  0.00313052  1
  Al0+  Al70  1  0.75122675  0.75234425  0.33829197  1
  Al0+  Al71  1  0.74886667  0.74969390  0.66272339  1
  Al0+  Al72  1  0.42869221  0.32108727  0.31887791  1
  Al0+  Al73  1  0.32176115  0.07080707  0.01664411  1
  Al0+  Al74  1  0.82090286  0.57118789  0.35145213  1
  Al0+  Al75  1  0.42863120  0.81933965  0.32027910  1
  Al0+  Al76  1  0.82213680  0.57265353  0.01265197  1
  Al0+  Al77  1  0.57435388  0.17880342  0.31713128  1
  Al0+  Al78  1  0.92908305  0.82179388  0.65031138  1
  Al0+  Al79  1  0.67795572  0.92628785  0.68351585  1
  Al0+  Al80  1  0.67659635  0.42864740  0.01366071  1
  Al0+  Al81  1  0.82011839  0.07239379  0.67932303  1
  Al0+  Al82  1  0.07263590  0.67669287  0.65006217  1
  Al0+  Al83  1  0.57066517  0.67836026  0.65329690  1
  Al0+  Al84  1  0.42858373  0.32204056  0.98487366  1
  Al0+  Al85  1  0.67892174  0.93345398  0.34662724  1
  Al0+  Al86  1  0.67665930  0.42745576  0.35160476  1
  Al0+  Al87  1  0.32242315  0.07176798  0.68163807  1
  Al0+  Al88  1  0.18303207  0.42886447  0.34693671  1
  Al0+  Al89  1  0.42834454  0.82205809  0.98387419  1
  Al0+  Al90  1  0.17806997  0.43031173  0.68194115  1
  Al0+  Al91  1  0.17869501  0.92664572  0.68008918  1
  Al0+  Al92  1  0.57044393  0.17964857  0.65486421  1
  Al0+  Al93  1  0.07027364  0.18047947  0.65393273  1
  Al0+  Al94  1  0.82222785  0.06947095  0.01436015  1
  Al0+  Al95  1  0.31892488  0.57190002  0.01265426  1
  Si0+  Si96  1  0.31919773  0.06837523  0.34677350  1
  Si0+  Si97  1  0.17813908  0.42655519  0.01597423  1
  Si0+  Si98  1  0.92905939  0.32008230  0.98629004  1
  Si0+  Si99  1  0.06928909  0.67770722  0.31625200  1
  Si0+  Si100  1  0.06949079  0.67771147  0.98539548  1
  Si0+  Si101  1  0.93229583  0.32270376  0.31758266  1
  Si0+  Si102  1  0.82632346  0.07237175  0.34998492  1
  Si0+  Si103  1  0.07174566  0.17761730  0.31684121  1
  Si0+  Si104  1  0.92870919  0.82154404  0.98603495  1
  Si0+  Si105  1  0.67739837  0.92792011  0.01712760  1
  Si0+  Si106  1  0.32233166  0.57589816  0.35038818  1
  Si0+  Si107  1  0.57373177  0.17894195  0.98230261  1
  Si0+  Si108  1  0.57447602  0.67881032  0.31590405  1
  Si0+  Si109  1  0.57195765  0.67905872  0.98591056  1
  Si0+  Si110  1  0.42869673  0.82294129  0.65209862  1
  Si0+  Si111  1  0.17697147  0.92710959  0.34693562  1
  Si0+  Si112  1  0.42683783  0.32228534  0.65118691  1
  Si0+  Si113  1  0.67669953  0.42929552  0.68025142  1
  Si0+  Si114  1  0.07004755  0.17740361  0.98497515  1
  Si0+  Si115  1  0.32361813  0.57172023  0.68220029  1
  Si0+  Si116  1  0.81937610  0.56996135  0.68092376  1
  Si0+  Si117  1  0.92886380  0.82097933  0.31583179  1
  Si0+  Si118  1  0.17858186  0.92810364  0.01754885  1
  Si0+  Si119  1  0.92617486  0.32304603  0.64959310  1
  O2-  O120  1  0.24982443  -0.00703873  0.06389150  1
  O2-  O121  1  0.24954278  -0.00405348  0.38855588  1
  O2-  O122  1  0.25206522  -0.00337443  0.73057819  1
  O2-  O123  1  0.24768357  0.49398022  0.06019965  1
  O2-  O124  1  0.26055043  0.50059509  0.39387791  1
  O2-  O125  1  0.25249432  0.50552144  0.72683793  1
  O2-  O126  1  0.74557399  -0.00243186  0.06101836  1
  O2-  O127  1  0.75260108  0.00953018  0.39265283  1
  O2-  O128  1  0.74995579  -0.00027165  0.73134715  1
  O2-  O129  1  0.74875450  0.50216651  0.06158434  1
  O2-  O130  1  0.74591958  0.50250021  0.40173177  1
  O2-  O131  1  0.74713769  0.50056642  0.72332775  1
  O2-  O132  1  -0.00002419  0.24789395  0.27461607  1
  O2-  O133  1  -0.00571569  0.25323528  0.60556517  1
  O2-  O134  1  -0.00115753  0.24855672  0.94323466  1
  O2-  O135  1  -0.00215229  0.74799470  0.27274157  1
  O2-  O136  1  0.00264956  0.75063941  0.59978159  1
  O2-  O137  1  -0.00475403  0.74597699  0.94488511  1
  O2-  O138  1  0.50674044  0.25588471  0.26791776  1
  O2-  O139  1  0.49396738  0.25223039  0.60776386  1
  O2-  O140  1  0.50542002  0.24891773  0.93905441  1
  O2-  O141  1  0.50114896  0.74277186  0.27170056  1
  O2-  O142  1  0.49887974  0.75628351  0.60725564  1
  O2-  O143  1  0.50420427  0.74765162  0.93961143  1
  O2-  O144  1  0.06943801  0.17823726  0.09076193  1
  O2-  O145  1  0.07205384  0.17556718  0.42148339  1
  O2-  O146  1  0.06983681  0.18281232  0.76740763  1
  O2-  O147  1  0.07023934  0.67866821  0.09099849  1
  O2-  O148  1  0.07047008  0.67895862  0.42055228  1
  O2-  O149  1  0.06759133  0.67500269  0.76433799  1
  O2-  O150  1  0.57319150  0.17855002  0.08790106  1
  O2-  O151  1  0.56915643  0.17547439  0.43070006  1
  O2-  O152  1  0.57327428  0.18450406  0.76793008  1
  O2-  O153  1  0.57242716  0.68124179  0.09142035  1
  O2-  O154  1  0.57394814  0.68227381  0.42158199  1
  O2-  O155  1  0.56868871  0.67469780  0.76662839  1
  O2-  O156  1  0.18068775  0.43165472  0.23354542  1
  O2-  O157  1  0.18066372  0.42912150  0.56870834  1
  O2-  O158  1  0.17564217  0.42878605  0.91067384  1
  O2-  O159  1  0.17349683  0.92901614  0.24163576  1
  O2-  O160  1  0.18176208  0.92964101  0.56561668  1
  O2-  O161  1  0.17569605  0.93039491  0.91264632  1
  O2-  O162  1  0.67951301  0.42885532  0.23798552  1
  O2-  O163  1  0.67832640  0.42955314  0.57560960  1
  O2-  O164  1  0.67935596  0.42910608  0.89924313  1
  O2-  O165  1  0.68137395  0.93314006  0.23305241  1
  O2-  O166  1  0.67724390  0.92798301  0.56979398  1
  O2-  O167  1  0.67953178  0.92529017  0.91204071  1
  O2-  O168  1  0.42751390  0.32045431  0.09772739  1
  O2-  O169  1  0.42281265  0.31255399  0.43216161  1
  O2-  O170  1  0.42976463  0.32522498  0.75701444  1
  O2-  O171  1  0.43016586  0.82050991  0.09733134  1
  O2-  O172  1  0.42732332  0.81937333  0.43322572  1
  O2-  O173  1  0.42875165  0.81993591  0.75773484  1
  O2-  O174  1  0.93267823  0.32060923  0.09157238  1
  O2-  O175  1  0.93413648  0.32352194  0.42239893  1
  O2-  O176  1  0.92700753  0.32418336  0.75567351  1
  O2-  O177  1  0.93180565  0.82319153  0.09155904  1
  O2-  O178  1  0.93195334  0.82458384  0.42000556  1
  O2-  O179  1  0.92907225  0.81833459  0.76478202  1
  O2-  O180  1  0.31641002  0.06847915  0.24142532  1
  O2-  O181  1  0.32207604  0.07092451  0.56723615  1
  O2-  O182  1  0.31855675  0.07212201  0.90422173  1
  O2-  O183  1  0.31671245  0.57960142  0.24459384  1
  O2-  O184  1  0.32548836  0.57030731  0.57672085  1
  O2-  O185  1  0.31585795  0.57227228  0.89967613  1
  O2-  O186  1  0.83059341  0.06756914  0.24406153  1
  O2-  O187  1  0.81887542  0.07185953  0.56572955  1
  O2-  O188  1  0.82584707  0.06810792  0.90200275  1
  O2-  O189  1  0.82135528  0.56784685  0.23761445  1
  O2-  O190  1  0.82014727  0.56787595  0.57612205  1
  O2-  O191  1  0.82311822  0.57108098  0.89884145  1
  O2-  O192  1  0.04464724  0.08603435  0.26697046  1
  O2-  O193  1  0.04266376  0.08467185  0.59688950  1
  O2-  O194  1  0.04101402  0.08500634  0.94007678  1
  O2-  O195  1  0.04151683  0.58533258  0.26950337  1
  O2-  O196  1  0.03981217  0.57923830  0.59711463  1
  O2-  O197  1  0.04513892  0.58434717  0.93899863  1
  O2-  O198  1  0.54025727  0.08342040  0.26139857  1
  O2-  O199  1  0.54100279  0.08162495  0.60295502  1
  O2-  O200  1  0.54700173  0.08551531  0.93721520  1
  O2-  O201  1  0.55453547  0.58276944  0.27320848  1
  O2-  O202  1  0.53701185  0.58440846  0.59440815  1
  O2-  O203  1  0.54561665  0.58555457  0.94050421  1
  O2-  O204  1  0.16242652  0.20742197  0.26829391  1
  O2-  O205  1  0.16628645  0.21414479  0.59959868  1
  O2-  O206  1  0.16166360  0.20440414  0.93806506  1
  O2-  O207  1  0.15992687  0.70714818  0.26633621  1
  O2-  O208  1  0.17247807  0.69946680  0.59712840  1
  O2-  O209  1  0.15927408  0.70757805  0.93614524  1
  O2-  O210  1  0.67696206  0.19969111  0.26861257  1
  O2-  O211  1  0.66543461  0.21177224  0.59830514  1
  O2-  O212  1  0.66898554  0.20391432  0.93889787  1
  O2-  O213  1  0.66721646  0.70934171  0.27049614  1
  O2-  O214  1  0.66693048  0.70479800  0.59765830  1
  O2-  O215  1  0.66644270  0.70436899  0.93993727  1
  O2-  O216  1  0.08515583  0.45368608  0.06321655  1
  O2-  O217  1  0.08837519  0.46148478  0.40257575  1
  O2-  O218  1  0.08058845  0.45962139  0.73596482  1
  O2-  O219  1  0.08684646  0.95702677  0.06706528  1
  O2-  O220  1  0.08565410  0.95677942  0.39397990  1
  O2-  O221  1  0.08069569  0.95632461  0.73199388  1
  O2-  O222  1  0.57920235  0.45649141  0.06738353  1
  O2-  O223  1  0.57670416  0.45145710  0.40381183  1
  O2-  O224  1  0.58408224  0.45790485  0.72554148  1
  O2-  O225  1  0.58385628  0.95427049  0.06223955  1
  O2-  O226  1  0.58160433  0.96211216  0.40018378  1
  O2-  O227  1  0.58069802  0.95386537  0.73786131  1
  O2-  O228  1  0.20078478  0.33202879  0.06067762  1
  O2-  O229  1  0.21002497  0.33032052  0.39998137  1
  O2-  O230  1  0.20732843  0.33542067  0.73905985  1
  O2-  O231  1  0.19985421  0.83290579  0.06208863  1
  O2-  O232  1  0.20143786  0.83385479  0.39188972  1
  O2-  O233  1  0.20115861  0.82586563  0.73113478  1
  O2-  O234  1  0.70774161  0.33242480  0.06898938  1
  O2-  O235  1  0.71178465  0.32946502  0.40251087  1
  O2-  O236  1  0.70505050  0.33874258  0.72900401  1
  O2-  O237  1  0.70410730  0.83560111  0.06566521  1
  O2-  O238  1  0.71056418  0.83753528  0.40044851  1
  O2-  O239  1  0.70723157  0.82725277  0.73504806  1
  O2-  O240  1  0.44871036  0.42424323  0.27105133  1
  O2-  O241  1  0.45151851  0.41479053  0.60275600  1
  O2-  O242  1  0.45496568  0.42059220  0.93185085  1
  O2-  O243  1  0.46232369  0.91449250  0.26490623  1
  O2-  O244  1  0.45208381  0.91760873  0.60812528  1
  O2-  O245  1  0.45794462  0.91934691  0.93121404  1
  O2-  O246  1  0.96622575  0.41263732  0.26978366  1
  O2-  O247  1  0.95452777  0.41518664  0.60258332  1
  O2-  O248  1  0.95728805  0.41154539  0.93737244  1
  O2-  O249  1  0.96041743  0.91117642  0.26530997  1
  O2-  O250  1  0.95683059  0.91931653  0.59556213  1
  O2-  O251  1  0.96155095  0.91179977  0.93867580  1
  O2-  O252  1  0.33195973  0.28755978  0.26330442  1
  O2-  O253  1  0.33184067  0.29754830  0.60905534  1
  O2-  O254  1  0.33145209  0.28895384  0.93202435  1
  O2-  O255  1  0.33095554  0.79180668  0.26430973  1
  O2-  O256  1  0.33579336  0.79628468  0.60494459  1
  O2-  O257  1  0.33090112  0.79073530  0.93198596  1
  O2-  O258  1  0.84037279  0.29813978  0.26880856  1
  O2-  O259  1  0.83257984  0.29964538  0.60317048  1
  O2-  O260  1  0.83612578  0.29407044  0.94076544  1
  O2-  O261  1  0.83632860  0.79503474  0.26898211  1
  O2-  O262  1  0.83194735  0.79070904  0.59696549  1
  O2-  O263  1  0.83497620  0.79943437  0.94045218  1
  O2-  O264  1  0.41910018  0.04160093  0.06972709  1
  O2-  O265  1  0.41152951  0.04096247  0.39168908  1
  O2-  O266  1  0.41920997  0.04582721  0.73803886  1
  O2-  O267  1  0.41530980  0.54639905  0.06843911  1
  O2-  O268  1  0.41894977  0.56010783  0.39248119  1
  O2-  O269  1  0.41599648  0.54317164  0.72991035  1
  O2-  O270  1  0.91742727  0.03670671  0.07158492  1
  O2-  O271  1  0.91897499  0.04024451  0.39518085  1
  O2-  O272  1  0.91950183  0.04510431  0.73046254  1
  O2-  O273  1  0.91985688  0.54185409  0.06686526  1
  O2-  O274  1  0.91838216  0.53899414  0.40394931  1
  O2-  O275  1  0.91048716  0.54115672  0.72892331  1
  O2-  O276  1  0.28552260  0.16550532  0.07170014  1
  O2-  O277  1  0.28866015  0.15865105  0.39424643  1
  O2-  O278  1  0.28933339  0.16814445  0.73555250  1
  O2-  O279  1  0.28347675  0.66694865  0.06795792  1
  O2-  O280  1  0.28814175  0.66649104  0.39770265  1
  O2-  O281  1  0.30034802  0.66588777  0.72771542  1
  O2-  O282  1  0.79599091  0.16622023  0.07015612  1
  O2-  O283  1  0.81240730  0.16930296  0.39143199  1
  O2-  O284  1  0.79213581  0.17152245  0.73279112  1
  O2-  O285  1  0.79801915  0.67170922  0.06684256  1
  O2-  O286  1  0.79777044  0.67150067  0.40189995  1
  O2-  O287  1  0.79298876  0.66219710  0.72697321  1
