# generated using pymatgen
data_Ca2Al2SiO7
_symmetry_space_group_name_H-M   'P 1'
_cell_length_a   15.47118759
_cell_length_b   15.47337889
_cell_length_c   15.29261376
_cell_angle_alpha   90.00548772
_cell_angle_beta   89.99794150
_cell_angle_gamma   90.00480772
_symmetry_Int_Tables_number   1
_chemical_formula_structural   Ca2Al2SiO7
_chemical_formula_sum   'Ca48 Al48 Si24 O168'
_cell_volume   3660.92244013
_cell_formula_units_Z   24
loop_
 _symmetry_equiv_pos_site_id
 _symmetry_equiv_pos_as_xyz
  1  'x, y, z'
loop_
 _atom_type_symbol
 _atom_type_oxidation_number
  Ca2+  2.0
  Al0+  0.0
  Si0+  0.0
  O2-  -2.0
loop_
 _atom_site_type_symbol
 _atom_site_label
 _atom_site_symmetry_multiplicity
 _atom_site_fract_x
 _atom_site_fract_y
 _atom_site_fract_z
 _atom_site_occupancy
  Ca2+  Ca0  1  0.16768228  0.08050483  0.17489800  1
  Ca2+  Ca1  1  0.15193978  0.07607211  0.49662644  1
  Ca2+  Ca2  1  0.17414493  0.07997549  0.83993328  1
  Ca2+  Ca3  1  0.17034743  0.57609086  0.17809252  1
  Ca2+  Ca4  1  0.17419290  0.59505262  0.50239729  1
  Ca2+  Ca5  1  0.16939097  0.58130011  0.83359690  1
  Ca2+  Ca6  1  0.67080398  0.06974108  0.17617495  1
  Ca2+  Ca7  1  0.67109578  0.07630584  0.49669039  1
  Ca2+  Ca8  1  0.66763365  0.07320443  0.83905190  1
  Ca2+  Ca9  1  0.67701058  0.58485982  0.17223504  1
  Ca2+  Ca10  1  0.67433609  0.57766619  0.50124086  1
  Ca2+  Ca11  1  0.66804996  0.58570923  0.83514379  1
  Ca2+  Ca12  1  0.08276040  0.33884066  0.16848304  1
  Ca2+  Ca13  1  0.07306065  0.33029489  0.48804904  1
  Ca2+  Ca14  1  0.07928621  0.33617254  0.82894077  1
  Ca2+  Ca15  1  0.08043084  0.83118094  0.17391829  1
  Ca2+  Ca16  1  0.07747399  0.82539727  0.49292695  1
  Ca2+  Ca17  1  0.07592473  0.82485136  0.82166060  1
  Ca2+  Ca18  1  0.58556738  0.33559553  0.16730395  1
  Ca2+  Ca19  1  0.57949373  0.34805467  0.49629727  1
  Ca2+  Ca20  1  0.57702606  0.33415871  0.82013641  1
  Ca2+  Ca21  1  0.59035319  0.82954551  0.16030743  1
  Ca2+  Ca22  1  0.57683939  0.83132962  0.49847084  1
  Ca2+  Ca23  1  0.58258598  0.82182381  0.82849280  1
  Ca2+  Ca24  1  0.32220310  0.42265375  0.17417737  1
  Ca2+  Ca25  1  0.32709154  0.42726137  0.50228478  1
  Ca2+  Ca26  1  0.33121770  0.42202060  0.83293470  1
  Ca2+  Ca27  1  0.32950864  0.92453900  0.17486954  1
  Ca2+  Ca28  1  0.32652115  0.91178461  0.50382770  1
  Ca2+  Ca29  1  0.33982233  0.92057155  0.83532421  1
  Ca2+  Ca30  1  0.82953212  0.42774393  0.17712716  1
  Ca2+  Ca31  1  0.82940737  0.41257326  0.50427714  1
  Ca2+  Ca32  1  0.83049901  0.42256838  0.83495494  1
  Ca2+  Ca33  1  0.82425863  0.91671722  0.17979148  1
  Ca2+  Ca34  1  0.84634734  0.92021692  0.49956129  1
  Ca2+  Ca35  1  0.82954924  0.91164024  0.83782436  1
  Ca2+  Ca36  1  0.41445364  0.16658679  0.16215972  1
  Ca2+  Ca37  1  0.41876741  0.17577948  0.49753408  1
  Ca2+  Ca38  1  0.41580160  0.17214831  0.82836530  1
  Ca2+  Ca39  1  0.42333684  0.66471850  0.16453457  1
  Ca2+  Ca40  1  0.42158745  0.65623821  0.49886842  1
  Ca2+  Ca41  1  0.42809775  0.66672295  0.82122870  1
  Ca2+  Ca42  1  0.91610293  0.16906561  0.17433117  1
  Ca2+  Ca43  1  0.91510100  0.17678201  0.48892504  1
  Ca2+  Ca44  1  0.91936049  0.17493756  0.82512952  1
  Ca2+  Ca45  1  0.91437976  0.66290126  0.16803580  1
  Ca2+  Ca46  1  0.92607944  0.67143336  0.48969576  1
  Ca2+  Ca47  1  0.92148783  0.66825317  0.82578454  1
  Al0+  Al48  1  0.00059758  0.00197258  -0.00227528  1
  Al0+  Al49  1  0.00005699  0.00086537  0.33172396  1
  Al0+  Al50  1  0.00099366  -0.00000264  0.67063632  1
  Al0+  Al51  1  -0.00087500  0.50005869  0.00493873  1
  Al0+  Al52  1  0.00025447  0.49992141  0.33091855  1
  Al0+  Al53  1  0.00040463  0.49858471  0.65940218  1
  Al0+  Al54  1  0.50019416  0.00103092  0.00738535  1
  Al0+  Al55  1  0.49996617  0.00165840  0.33704344  1
  Al0+  Al56  1  0.50117245  -0.00017183  0.66476250  1
  Al0+  Al57  1  0.49940320  0.49898794  -0.00552965  1
  Al0+  Al58  1  0.49899264  0.50124499  0.33493745  1
  Al0+  Al59  1  0.49914843  0.49861035  0.66688878  1
  Al0+  Al60  1  0.24942103  0.24877233  0.00575559  1
  Al0+  Al61  1  0.25170494  0.25219250  0.33267089  1
  Al0+  Al62  1  0.25176794  0.24833925  0.66268367  1
  Al0+  Al63  1  0.24892681  0.75079728  -0.00081333  1
  Al0+  Al64  1  0.25158394  0.75349676  0.33472406  1
  Al0+  Al65  1  0.25059514  0.75141275  0.67026781  1
  Al0+  Al66  1  0.75026521  0.24967375  -0.00247815  1
  Al0+  Al67  1  0.74696937  0.24694040  0.33376213  1
  Al0+  Al68  1  0.75035966  0.24737912  0.66998261  1
  Al0+  Al69  1  0.74974448  0.74970176  0.00166614  1
  Al0+  Al70  1  0.74615129  0.74784254  0.33916525  1
  Al0+  Al71  1  0.74922378  0.75127376  0.65971671  1
  Al0+  Al72  1  0.43013627  0.82245182  0.65254537  1
  Al0+  Al73  1  0.81892824  0.56968855  0.01126696  1
  Al0+  Al74  1  0.42917161  0.32042350  0.65199285  1
  Al0+  Al75  1  0.67653212  0.92607416  0.35145324  1
  Al0+  Al76  1  0.31976881  0.06894224  0.01328870  1
  Al0+  Al77  1  0.82293998  0.57129916  0.34979504  1
  Al0+  Al78  1  0.18001532  0.43079678  0.01212852  1
  Al0+  Al79  1  0.92838898  0.82263263  0.65308998  1
  Al0+  Al80  1  0.07353553  0.67922356  0.31624420  1
  Al0+  Al81  1  0.31967674  0.57149673  0.68224460  1
  Al0+  Al82  1  0.67990137  0.42857195  0.34589455  1
  Al0+  Al83  1  0.57087875  0.67955778  0.98700761  1
  Al0+  Al84  1  0.68045129  0.42893215  0.68135522  1
  Al0+  Al85  1  0.07195862  0.18050065  0.31685964  1
  Al0+  Al86  1  0.31938119  0.57236043  0.34728989  1
  Al0+  Al87  1  0.68223787  0.93036006  0.01209687  1
  Al0+  Al88  1  0.92708883  0.81930068  0.31732718  1
  Al0+  Al89  1  0.92545323  0.32209722  0.31605919  1
  Al0+  Al90  1  0.57098238  0.67654169  0.64863129  1
  Al0+  Al91  1  0.82048608  0.06820309  0.34871531  1
  Al0+  Al92  1  0.18018572  0.93176798  0.34724862  1
  Al0+  Al93  1  0.92871587  0.31917438  0.65475173  1
  Al0+  Al94  1  0.07134057  0.67789422  0.65302725  1
  Al0+  Al95  1  0.17779325  0.42801441  0.34939396  1
  Si0+  Si96  1  0.17914250  0.93015466  0.68412647  1
  Si0+  Si97  1  0.42993075  0.82448072  0.31721768  1
  Si0+  Si98  1  0.56796085  0.67829616  0.31726083  1
  Si0+  Si99  1  0.82204940  0.06919761  0.68441532  1
  Si0+  Si100  1  0.07177947  0.17949008  0.98364696  1
  Si0+  Si101  1  0.93026150  0.82122853  0.98678741  1
  Si0+  Si102  1  0.17497554  0.92699402  0.01641297  1
  Si0+  Si103  1  0.07325953  0.17777407  0.65250660  1
  Si0+  Si104  1  0.32296740  0.07408003  0.35272860  1
  Si0+  Si105  1  0.56882578  0.17696930  0.31638605  1
  Si0+  Si106  1  0.57265072  0.17740679  0.65009427  1
  Si0+  Si107  1  0.82433634  0.07491262  0.01619407  1
  Si0+  Si108  1  0.42789263  0.31854595  0.98506087  1
  Si0+  Si109  1  0.67717245  0.92907848  0.68328092  1
  Si0+  Si110  1  0.17759183  0.42516974  0.68186717  1
  Si0+  Si111  1  0.07158346  0.67703553  0.98541270  1
  Si0+  Si112  1  0.82320881  0.57275427  0.68189651  1
  Si0+  Si113  1  0.32296008  0.07123673  0.68136034  1
  Si0+  Si114  1  0.32410995  0.57324771  0.01454497  1
  Si0+  Si115  1  0.43101253  0.32255232  0.31596606  1
  Si0+  Si116  1  0.67538903  0.42546766  0.01366528  1
  Si0+  Si117  1  0.42691625  0.82366068  0.98595047  1
  Si0+  Si118  1  0.57135988  0.17804777  0.98542219  1
  Si0+  Si119  1  0.92890298  0.32228577  0.98415756  1
  O2-  O120  1  0.24784373  -0.00808974  0.05910253  1
  O2-  O121  1  0.25151626  0.00897557  0.39670279  1
  O2-  O122  1  0.25234660  0.00031110  0.72459438  1
  O2-  O123  1  0.25307407  0.50742718  0.05784147  1
  O2-  O124  1  0.24237081  0.50663418  0.39859097  1
  O2-  O125  1  0.24382241  0.49613035  0.72708501  1
  O2-  O126  1  0.75684254  0.00483423  0.05834786  1
  O2-  O127  1  0.75463569  -0.00842691  0.40118138  1
  O2-  O128  1  0.75263966  -0.00390685  0.72582238  1
  O2-  O129  1  0.74257348  0.49537684  0.05589042  1
  O2-  O130  1  0.75793552  0.49178770  0.39779511  1
  O2-  O131  1  0.75378439  0.50513350  0.72831549  1
  O2-  O132  1  0.00186199  0.25383561  0.26533757  1
  O2-  O133  1  0.00632095  0.24756511  0.60989489  1
  O2-  O134  1  -0.00058961  0.24959093  0.94216006  1
  O2-  O135  1  -0.00376107  0.74565662  0.26478015  1
  O2-  O136  1  -0.00412009  0.74667283  0.60476071  1
  O2-  O137  1  0.00377747  0.75240547  0.94484877  1
  O2-  O138  1  0.50029041  0.25002389  0.27315427  1
  O2-  O139  1  0.50868351  0.25023116  0.60590141  1
  O2-  O140  1  0.50333174  0.25159278  0.94246173  1
  O2-  O141  1  0.50108371  0.75388439  0.27508769  1
  O2-  O142  1  0.49644783  0.74725947  0.59990567  1
  O2-  O143  1  0.49180851  0.75149042  0.94203160  1
  O2-  O144  1  0.07290189  0.17683721  0.08773825  1
  O2-  O145  1  0.06996647  0.18107799  0.43080470  1
  O2-  O146  1  0.07306467  0.17694953  0.75899013  1
  O2-  O147  1  0.07323078  0.67608043  0.08961679  1
  O2-  O148  1  0.07702317  0.68569398  0.42927453  1
  O2-  O149  1  0.06983416  0.67944539  0.76816534  1
  O2-  O150  1  0.57093034  0.17835957  0.09015554  1
  O2-  O151  1  0.56529815  0.17358338  0.42115615  1
  O2-  O152  1  0.56928452  0.17569640  0.75652698  1
  O2-  O153  1  0.57025761  0.68080408  0.10007038  1
  O2-  O154  1  0.56426809  0.67474968  0.42162696  1
  O2-  O155  1  0.57163176  0.67982037  0.76318658  1
  O2-  O156  1  0.18530807  0.42706370  0.23519047  1
  O2-  O157  1  0.17998436  0.42042760  0.57753119  1
  O2-  O158  1  0.18042811  0.43075820  0.89850855  1
  O2-  O159  1  0.18465700  0.93238893  0.23361497  1
  O2-  O160  1  0.17642953  0.93277169  0.57964479  1
  O2-  O161  1  0.17264799  0.92967795  0.91065186  1
  O2-  O162  1  0.67636464  0.43286649  0.23152404  1
  O2-  O163  1  0.68285671  0.42694224  0.56918658  1
  O2-  O164  1  0.67620230  0.42248315  0.90822255  1
  O2-  O165  1  0.67464611  0.93056723  0.23728933  1
  O2-  O166  1  0.67167506  0.93404465  0.57935186  1
  O2-  O167  1  0.68326500  0.93157029  0.89852916  1
  O2-  O168  1  0.42854750  0.31796029  0.09003539  1
  O2-  O169  1  0.43232929  0.32189244  0.42083993  1
  O2-  O170  1  0.42758350  0.31599925  0.76605943  1
  O2-  O171  1  0.42671306  0.82456830  0.09142605  1
  O2-  O172  1  0.43072990  0.82740057  0.42179739  1
  O2-  O173  1  0.43527606  0.82587905  0.76683320  1
  O2-  O174  1  0.92708039  0.32174660  0.08832677  1
  O2-  O175  1  0.92316545  0.31609596  0.42960194  1
  O2-  O176  1  0.93028563  0.31772554  0.76904444  1
  O2-  O177  1  0.93005517  0.82298661  0.09100840  1
  O2-  O178  1  0.93251357  0.81996108  0.43048523  1
  O2-  O179  1  0.93103573  0.82345498  0.76807896  1
  O2-  O180  1  0.32528597  0.07068088  0.24666697  1
  O2-  O181  1  0.32411793  0.07225237  0.57704767  1
  O2-  O182  1  0.31905402  0.07010948  0.89967695  1
  O2-  O183  1  0.32369955  0.56876455  0.23289591  1
  O2-  O184  1  0.31890580  0.57033477  0.57000334  1
  O2-  O185  1  0.32491774  0.57171086  0.90908601  1
  O2-  O186  1  0.81593811  0.06878791  0.23461220  1
  O2-  O187  1  0.82350335  0.07020124  0.58018597  1
  O2-  O188  1  0.82367828  0.07606509  0.91009424  1
  O2-  O189  1  0.81588236  0.57294368  0.23555284  1
  O2-  O190  1  0.82322199  0.57043034  0.57728408  1
  O2-  O191  1  0.82100286  0.56862688  0.89781257  1
  O2-  O192  1  0.04264404  0.08264020  0.26290737  1
  O2-  O193  1  0.04462093  0.08471341  0.60863413  1
  O2-  O194  1  0.04511889  0.08778407  0.93336777  1
  O2-  O195  1  0.05167870  0.57855837  0.26537589  1
  O2-  O196  1  0.05108417  0.57880789  0.60005003  1
  O2-  O197  1  0.03929288  0.58677202  0.93747034  1
  O2-  O198  1  0.53657377  0.08693337  0.26685269  1
  O2-  O199  1  0.54161587  0.08689411  0.60241873  1
  O2-  O200  1  0.53996902  0.08692158  0.93803540  1
  O2-  O201  1  0.53449578  0.58913796  0.26708605  1
  O2-  O202  1  0.54183709  0.57832291  0.59808121  1
  O2-  O203  1  0.54420715  0.58165262  0.93198619  1
  O2-  O204  1  0.17302488  0.20549447  0.26577644  1
  O2-  O205  1  0.16722842  0.19718918  0.60619998  1
  O2-  O206  1  0.16364090  0.20885963  0.93633007  1
  O2-  O207  1  0.17105744  0.71489978  0.26305419  1
  O2-  O208  1  0.16875922  0.71172637  0.60402139  1
  O2-  O209  1  0.16485751  0.70161827  0.93743893  1
  O2-  O210  1  0.66026631  0.20133022  0.26750967  1
  O2-  O211  1  0.66821105  0.19666120  0.60786074  1
  O2-  O212  1  0.66447065  0.20095121  0.93692855  1
  O2-  O213  1  0.66075265  0.70315155  0.27114796  1
  O2-  O214  1  0.66864529  0.70493439  0.59654717  1
  O2-  O215  1  0.66619256  0.71425168  0.93183665  1
  O2-  O216  1  0.08381639  0.45880077  0.06658296  1
  O2-  O217  1  0.07524027  0.44375901  0.39488473  1
  O2-  O218  1  0.08278157  0.44979945  0.72699128  1
  O2-  O219  1  0.08330542  0.95808728  0.06266637  1
  O2-  O220  1  0.08381822  0.96171879  0.40091816  1
  O2-  O221  1  0.08949922  0.96134857  0.73551591  1
  O2-  O222  1  0.58020131  0.44790442  0.05768573  1
  O2-  O223  1  0.58396256  0.46444875  0.39876570  1
  O2-  O224  1  0.58249736  0.45660548  0.73457420  1
  O2-  O225  1  0.58656101  0.96085404  0.06745445  1
  O2-  O226  1  0.58166153  0.96541543  0.40474454  1
  O2-  O227  1  0.58798473  0.96317798  0.73336023  1
  O2-  O228  1  0.21197390  0.33539440  0.06663670  1
  O2-  O229  1  0.21338631  0.33190755  0.40216921  1
  O2-  O230  1  0.20645784  0.33171403  0.72907463  1
  O2-  O231  1  0.19595639  0.83160679  0.06033791  1
  O2-  O232  1  0.21504090  0.83813982  0.40266986  1
  O2-  O233  1  0.20527710  0.83964585  0.73453939  1
  O2-  O234  1  0.70119882  0.33155373  0.05949221  1
  O2-  O235  1  0.69418913  0.32623215  0.39490651  1
  O2-  O236  1  0.70968963  0.33077417  0.73615613  1
  O2-  O237  1  0.71236067  0.83493112  0.06684524  1
  O2-  O238  1  0.69175621  0.82539509  0.40108273  1
  O2-  O239  1  0.70209059  0.83537531  0.72844896  1
  O2-  O240  1  0.46172768  0.41282202  0.26711114  1
  O2-  O241  1  0.45700329  0.41663428  0.59863117  1
  O2-  O242  1  0.45094310  0.41114824  0.93656889  1
  O2-  O243  1  0.45754665  0.91709040  0.27015408  1
  O2-  O244  1  0.46067914  0.91960582  0.59806929  1
  O2-  O245  1  0.45600430  0.91736741  0.94122108  1
  O2-  O246  1  0.94966185  0.42154240  0.26377188  1
  O2-  O247  1  0.95342230  0.41539467  0.59976602  1
  O2-  O248  1  0.95963525  0.41319950  0.93644270  1
  O2-  O249  1  0.95742188  0.91773344  0.26489764  1
  O2-  O250  1  0.96282296  0.92029286  0.60299979  1
  O2-  O251  1  0.95515785  0.91436434  0.93831009  1
  O2-  O252  1  0.33991627  0.29435030  0.26770541  1
  O2-  O253  1  0.33546588  0.28457883  0.59627749  1
  O2-  O254  1  0.33777754  0.28461779  0.93818031  1
  O2-  O255  1  0.33900213  0.79745906  0.26847098  1
  O2-  O256  1  0.32816000  0.80261205  0.60621724  1
  O2-  O257  1  0.33109645  0.80473491  0.94011110  1
  O2-  O258  1  0.82751037  0.28764631  0.26330802  1
  O2-  O259  1  0.83345226  0.28310948  0.60293824  1
  O2-  O260  1  0.83657698  0.29487454  0.93568508  1
  O2-  O261  1  0.82494200  0.79350481  0.26970988  1
  O2-  O262  1  0.82784661  0.80685418  0.60254676  1
  O2-  O263  1  0.83956397  0.79098036  0.93861208  1
  O2-  O264  1  0.41589379  0.04285062  0.07050352  1
  O2-  O265  1  0.41478013  0.04590020  0.39971456  1
  O2-  O266  1  0.41462478  0.04302822  0.73014001  1
  O2-  O267  1  0.41694502  0.54410648  0.06038471  1
  O2-  O268  1  0.41443742  0.53539160  0.40076743  1
  O2-  O269  1  0.41529079  0.53706354  0.73649343  1
  O2-  O270  1  0.91908224  0.05140719  0.05954843  1
  O2-  O271  1  0.92042552  0.04627626  0.40043690  1
  O2-  O272  1  0.91392898  0.04332305  0.73445853  1
  O2-  O273  1  0.91362542  0.53858221  0.06723447  1
  O2-  O274  1  0.92495557  0.55348189  0.39658986  1
  O2-  O275  1  0.91729349  0.54515197  0.72756992  1
  O2-  O276  1  0.28782627  0.16345590  0.06970938  1
  O2-  O277  1  0.30275848  0.16958494  0.39512444  1
  O2-  O278  1  0.29386302  0.16255097  0.73031515  1
  O2-  O279  1  0.30259509  0.66893856  0.05815242  1
  O2-  O280  1  0.29990880  0.67303872  0.39819537  1
  O2-  O281  1  0.29154341  0.66854505  0.73841497  1
  O2-  O282  1  0.79729492  0.16820447  0.06141433  1
  O2-  O283  1  0.78449450  0.16380875  0.40221968  1
  O2-  O284  1  0.79183597  0.15895553  0.73515535  1
  O2-  O285  1  0.78848152  0.66521520  0.06612914  1
  O2-  O286  1  0.78740851  0.66556079  0.40491019  1
  O2-  O287  1  0.79806084  0.66808645  0.72606066  1
