# generated using pymatgen
data_Ca2Al2SiO7
_symmetry_space_group_name_H-M   'P 1'
_cell_length_a   15.46005299
_cell_length_b   15.46053481
_cell_length_c   15.28481973
_cell_angle_alpha   90.00403033
_cell_angle_beta   89.99982285
_cell_angle_gamma   89.98387226
_symmetry_Int_Tables_number   1
_chemical_formula_structural   Ca2Al2SiO7
_chemical_formula_sum   'Ca48 Al48 Si24 O168'
_cell_volume   3653.38796648
_cell_formula_units_Z   24
loop_
 _symmetry_equiv_pos_site_id
 _symmetry_equiv_pos_as_xyz
  1  'x, y, z'
loop_
 _atom_type_symbol
 _atom_type_oxidation_number
  Ca2+  2.0
  Al0+  0.0
  Si0+  0.0
  O2-  -2.0
loop_
 _atom_site_type_symbol
 _atom_site_label
 _atom_site_symmetry_multiplicity
 _atom_site_fract_x
 _atom_site_fract_y
 _atom_site_fract_z
 _atom_site_occupancy
  Ca2+  Ca0  1  0.17621106  0.08593475  0.17439206  1
  Ca2+  Ca1  1  0.17219170  0.07845709  0.50625590  1
  Ca2+  Ca2  1  0.16241601  0.07637756  0.83323324  1
  Ca2+  Ca3  1  0.16517140  0.57354051  0.17105343  1
  Ca2+  Ca4  1  0.17573602  0.58449248  0.50552527  1
  Ca2+  Ca5  1  0.16766603  0.58420782  0.83665836  1
  Ca2+  Ca6  1  0.66110491  0.08153802  0.16675567  1
  Ca2+  Ca7  1  0.66884479  0.08013402  0.51083379  1
  Ca2+  Ca8  1  0.66541428  0.07930790  0.83524408  1
  Ca2+  Ca9  1  0.67250000  0.57292512  0.17036795  1
  Ca2+  Ca10  1  0.67272162  0.58670023  0.50612939  1
  Ca2+  Ca11  1  0.66678841  0.57729490  0.83854473  1
  Ca2+  Ca12  1  0.08236215  0.34048682  0.15905487  1
  Ca2+  Ca13  1  0.08022734  0.33856103  0.50017118  1
  Ca2+  Ca14  1  0.07216076  0.34019064  0.83166922  1
  Ca2+  Ca15  1  0.06993613  0.82490605  0.15602475  1
  Ca2+  Ca16  1  0.07676725  0.83483950  0.49916458  1
  Ca2+  Ca17  1  0.07807242  0.82521451  0.82312007  1
  Ca2+  Ca18  1  0.57946079  0.32201538  0.15473416  1
  Ca2+  Ca19  1  0.57768749  0.32095863  0.49903921  1
  Ca2+  Ca20  1  0.57806962  0.32885928  0.82510203  1
  Ca2+  Ca21  1  0.58259837  0.83260644  0.16085245  1
  Ca2+  Ca22  1  0.59253260  0.82768252  0.50212111  1
  Ca2+  Ca23  1  0.58838960  0.83070513  0.82752875  1
  Ca2+  Ca24  1  0.32245480  0.41541024  0.17236642  1
  Ca2+  Ca25  1  0.33147144  0.42321868  0.50569127  1
  Ca2+  Ca26  1  0.33523557  0.41839170  0.83881376  1
  Ca2+  Ca27  1  0.33191821  0.92474388  0.17325346  1
  Ca2+  Ca28  1  0.32885385  0.92243581  0.50747432  1
  Ca2+  Ca29  1  0.32600152  0.91424441  0.83328696  1
  Ca2+  Ca30  1  0.83160573  0.41902629  0.16880807  1
  Ca2+  Ca31  1  0.83552804  0.42295516  0.50472174  1
  Ca2+  Ca32  1  0.82930990  0.41166144  0.84162086  1
  Ca2+  Ca33  1  0.82987256  0.90910704  0.16770641  1
  Ca2+  Ca34  1  0.83418898  0.92237189  0.51293558  1
  Ca2+  Ca35  1  0.82641879  0.91384415  0.83550111  1
  Ca2+  Ca36  1  0.42344334  0.16947156  0.15962316  1
  Ca2+  Ca37  1  0.42603155  0.16213864  0.49508546  1
  Ca2+  Ca38  1  0.42694301  0.17913595  0.82836726  1
  Ca2+  Ca39  1  0.41354609  0.66418352  0.16687520  1
  Ca2+  Ca40  1  0.41804590  0.66108486  0.50167067  1
  Ca2+  Ca41  1  0.42365152  0.66321929  0.82228866  1
  Ca2+  Ca42  1  0.92170720  0.17507604  0.16061416  1
  Ca2+  Ca43  1  0.91165745  0.17088331  0.50291233  1
  Ca2+  Ca44  1  0.90809083  0.17741924  0.82804162  1
  Ca2+  Ca45  1  0.91746545  0.67122333  0.16092026  1
  Ca2+  Ca46  1  0.91772609  0.67867172  0.49551366  1
  Ca2+  Ca47  1  0.92799419  0.67489900  0.82754932  1
  Al0+  Al48  1  -0.00187593  0.00016324  -0.00093882  1
  Al0+  Al49  1  -0.00279431  0.00122548  0.32659337  1
  Al0+  Al50  1  0.00023367  0.00301509  0.67286750  1
  Al0+  Al51  1  0.00198165  0.50139406  -0.00346596  1
  Al0+  Al52  1  -0.00205647  0.50123835  0.34116587  1
  Al0+  Al53  1  0.00175993  0.50188149  0.65846666  1
  Al0+  Al54  1  0.50100109  -0.00124253  -0.00007932  1
  Al0+  Al55  1  0.50055795  -0.00171606  0.33352661  1
  Al0+  Al56  1  0.49955570  0.00009788  0.66895142  1
  Al0+  Al57  1  0.50093554  0.50011840  0.00455118  1
  Al0+  Al58  1  0.49914305  0.49749937  0.33458476  1
  Al0+  Al59  1  0.50037428  0.50076207  0.66083203  1
  Al0+  Al60  1  0.25133977  0.25046880  -0.00031372  1
  Al0+  Al61  1  0.25017454  0.24860133  0.34374718  1
  Al0+  Al62  1  0.24800404  0.25254701  0.66483487  1
  Al0+  Al63  1  0.25026991  0.75094866  -0.00030870  1
  Al0+  Al64  1  0.24877089  0.74857513  0.33404293  1
  Al0+  Al65  1  0.25155471  0.74901891  0.67136207  1
  Al0+  Al66  1  0.75093901  0.24701027  -0.00019864  1
  Al0+  Al67  1  0.74950955  0.24775561  0.32813343  1
  Al0+  Al68  1  0.74921990  0.25101041  0.66036773  1
  Al0+  Al69  1  0.74907446  0.75139805  0.00191597  1
  Al0+  Al70  1  0.74887317  0.74864750  0.33107702  1
  Al0+  Al71  1  0.75131226  0.75017626  0.66418443  1
  Al0+  Al72  1  0.92621512  0.82180113  0.98267254  1
  Al0+  Al73  1  0.92837669  0.32157518  0.65197292  1
  Al0+  Al74  1  0.57122578  0.17691607  0.98343658  1
  Al0+  Al75  1  0.93071646  0.32031475  0.98910981  1
  Al0+  Al76  1  0.18000853  0.43033147  0.01134319  1
  Al0+  Al77  1  0.17750888  0.42812186  0.35110631  1
  Al0+  Al78  1  0.81773232  0.57100513  0.34750830  1
  Al0+  Al79  1  0.57191150  0.67996888  0.65406426  1
  Al0+  Al80  1  0.07433202  0.68001761  0.64816855  1
  Al0+  Al81  1  0.18001183  0.93006788  0.68018085  1
  Al0+  Al82  1  0.92814593  0.82186982  0.31771995  1
  Al0+  Al83  1  0.32241778  0.06856139  0.34718332  1
  Al0+  Al84  1  0.42847934  0.32261481  0.98654659  1
  Al0+  Al85  1  0.07244495  0.67930780  0.98488295  1
  Al0+  Al86  1  0.32212988  0.57204533  0.34960848  1
  Al0+  Al87  1  0.82049584  0.07428071  0.68241271  1
  Al0+  Al88  1  0.42702986  0.32274513  0.64953373  1
  Al0+  Al89  1  0.67841706  0.42620574  0.01246050  1
  Al0+  Al90  1  0.56936426  0.17798298  0.65062403  1
  Al0+  Al91  1  0.57030546  0.17748762  0.31706614  1
  Al0+  Al92  1  0.32157320  0.56818175  0.68225381  1
  Al0+  Al93  1  0.67992138  0.92957021  0.01614033  1
  Al0+  Al94  1  0.67913006  0.92780696  0.68173769  1
  Al0+  Al95  1  0.93042387  0.82252370  0.65173986  1
  Si0+  Si96  1  0.82171487  0.07156489  0.34690372  1
  Si0+  Si97  1  0.32254532  0.07489012  0.68551550  1
  Si0+  Si98  1  0.07169967  0.17944905  0.32004300  1
  Si0+  Si99  1  0.17711887  0.92772894  0.01632068  1
  Si0+  Si100  1  0.42654888  0.32066839  0.31640284  1
  Si0+  Si101  1  0.07460437  0.17708393  0.98474178  1
  Si0+  Si102  1  0.17617340  0.42815255  0.68565862  1
  Si0+  Si103  1  0.93011063  0.32222795  0.31842275  1
  Si0+  Si104  1  0.17555949  0.92949952  0.34649010  1
  Si0+  Si105  1  0.57105005  0.67721365  0.31699286  1
  Si0+  Si106  1  0.07166507  0.67774522  0.31618271  1
  Si0+  Si107  1  0.67873961  0.42464283  0.35023727  1
  Si0+  Si108  1  0.07214361  0.17799967  0.65003164  1
  Si0+  Si109  1  0.68126728  0.43137757  0.67879265  1
  Si0+  Si110  1  0.82370335  0.07263607  0.02013711  1
  Si0+  Si111  1  0.67982635  0.92905297  0.34758357  1
  Si0+  Si112  1  0.82321240  0.57179174  0.68161151  1
  Si0+  Si113  1  0.31941049  0.06862563  0.01353741  1
  Si0+  Si114  1  0.42844445  0.81987928  0.31961767  1
  Si0+  Si115  1  0.32400480  0.57420971  0.01692611  1
  Si0+  Si116  1  0.82119831  0.57077476  0.01429514  1
  Si0+  Si117  1  0.56969869  0.67890553  0.98818190  1
  Si0+  Si118  1  0.42761293  0.82198098  0.65137240  1
  Si0+  Si119  1  0.42887813  0.82142536  0.98634525  1
  O2-  O120  1  0.24601898  0.00070769  0.05873689  1
  O2-  O121  1  0.24625047  -0.00523730  0.39250987  1
  O2-  O122  1  0.25382182  0.00562351  0.72908855  1
  O2-  O123  1  0.25513246  0.50461283  0.05890528  1
  O2-  O124  1  0.25053147  0.49994581  0.39930022  1
  O2-  O125  1  0.24760950  0.49373372  0.72981322  1
  O2-  O126  1  0.75581900  0.00248125  0.06431260  1
  O2-  O127  1  0.75174517  -0.00071907  0.38809237  1
  O2-  O128  1  0.75003038  0.00059310  0.73209192  1
  O2-  O129  1  0.75495348  0.49954720  0.05924434  1
  O2-  O130  1  0.74376107  0.49603890  0.39565007  1
  O2-  O131  1  0.75391125  0.49935843  0.72406971  1
  O2-  O132  1  0.00524005  0.25471169  0.27724893  1
  O2-  O133  1  0.00349675  0.24682567  0.60560049  1
  O2-  O134  1  0.00487060  0.24520819  0.94212317  1
  O2-  O135  1  0.00353002  0.74717782  0.27201661  1
  O2-  O136  1  0.00225827  0.75223801  0.59883658  1
  O2-  O137  1  0.00280812  0.75378834  0.93548355  1
  O2-  O138  1  0.49614398  0.25330375  0.27134315  1
  O2-  O139  1  0.49300918  0.24496994  0.59977611  1
  O2-  O140  1  0.50505169  0.25559499  0.93639988  1
  O2-  O141  1  0.49580100  0.74517549  0.27643475  1
  O2-  O142  1  0.49994303  0.75744491  0.60671312  1
  O2-  O143  1  0.49576035  0.74635605  0.94586843  1
  O2-  O144  1  0.07552653  0.17719771  0.09105592  1
  O2-  O145  1  0.06802591  0.17470172  0.42448576  1
  O2-  O146  1  0.07415856  0.17911439  0.75557691  1
  O2-  O147  1  0.07165650  0.67952693  0.09909158  1
  O2-  O148  1  0.07253858  0.68069672  0.42117618  1
  O2-  O149  1  0.07244028  0.68006721  0.76180205  1
  O2-  O150  1  0.56577499  0.17577137  0.09760004  1
  O2-  O151  1  0.57071578  0.17647372  0.42962139  1
  O2-  O152  1  0.57009534  0.18097388  0.76383840  1
  O2-  O153  1  0.56899292  0.68022102  0.09375698  1
  O2-  O154  1  0.57473622  0.68012662  0.42168467  1
  O2-  O155  1  0.57048720  0.67778032  0.76757294  1
  O2-  O156  1  0.17714766  0.42844382  0.23680354  1
  O2-  O157  1  0.17607524  0.42954967  0.58013637  1
  O2-  O158  1  0.17932652  0.43096007  0.89898130  1
  O2-  O159  1  0.17802957  0.93274509  0.24048686  1
  O2-  O160  1  0.18224648  0.93281693  0.56648880  1
  O2-  O161  1  0.17995333  0.92734898  0.91150149  1
  O2-  O162  1  0.68161320  0.42553371  0.24431217  1
  O2-  O163  1  0.68348091  0.43349629  0.57348036  1
  O2-  O164  1  0.67823295  0.43042098  0.89917624  1
  O2-  O165  1  0.67862205  0.92890691  0.24229254  1
  O2-  O166  1  0.68114642  0.92765589  0.56735309  1
  O2-  O167  1  0.67818751  0.92764776  0.90412406  1
  O2-  O168  1  0.42573174  0.31847822  0.10043370  1
  O2-  O169  1  0.42877538  0.31952984  0.42157342  1
  O2-  O170  1  0.43129202  0.32374313  0.76324948  1
  O2-  O171  1  0.42890167  0.82273634  0.09205593  1
  O2-  O172  1  0.42999517  0.82282208  0.42408708  1
  O2-  O173  1  0.42662888  0.81927497  0.75736552  1
  O2-  O174  1  0.93291024  0.32025128  0.10287877  1
  O2-  O175  1  0.92776925  0.31936936  0.42322870  1
  O2-  O176  1  0.92832025  0.32230711  0.76516064  1
  O2-  O177  1  0.92694982  0.81753710  0.09700504  1
  O2-  O178  1  0.92929839  0.82489736  0.43014933  1
  O2-  O179  1  0.93001713  0.81873337  0.76484886  1
  O2-  O180  1  0.32083457  0.06755392  0.23338870  1
  O2-  O181  1  0.32198096  0.07167368  0.57956610  1
  O2-  O182  1  0.31778995  0.06539059  0.90887320  1
  O2-  O183  1  0.32098484  0.57249203  0.23568800  1
  O2-  O184  1  0.32146987  0.56787472  0.56943533  1
  O2-  O185  1  0.32654211  0.57588181  0.91176314  1
  O2-  O186  1  0.82312285  0.07310837  0.24208180  1
  O2-  O187  1  0.81910147  0.07340142  0.56767514  1
  O2-  O188  1  0.82426361  0.07456217  0.91528199  1
  O2-  O189  1  0.81660276  0.56920266  0.23391744  1
  O2-  O190  1  0.81981236  0.57152007  0.57624885  1
  O2-  O191  1  0.81861651  0.57110392  0.90872360  1
  O2-  O192  1  0.04092391  0.09091243  0.26701935  1
  O2-  O193  1  0.04701247  0.08481008  0.60340523  1
  O2-  O194  1  0.05002904  0.08303999  0.93962699  1
  O2-  O195  1  0.04216761  0.58368038  0.27291570  1
  O2-  O196  1  0.04673723  0.58250752  0.59430541  1
  O2-  O197  1  0.04338551  0.58277993  0.93006281  1
  O2-  O198  1  0.53796452  0.08015666  0.26446664  1
  O2-  O199  1  0.54382778  0.07751791  0.59940579  1
  O2-  O200  1  0.53672048  0.08027387  0.93147843  1
  O2-  O201  1  0.54674258  0.58348731  0.27088247  1
  O2-  O202  1  0.54013608  0.58630255  0.59581789  1
  O2-  O203  1  0.54596237  0.58628222  0.94111290  1
  O2-  O204  1  0.16616592  0.20296150  0.27545115  1
  O2-  O205  1  0.16523665  0.20281405  0.60189901  1
  O2-  O206  1  0.16742500  0.20119777  0.93785434  1
  O2-  O207  1  0.16594513  0.70099266  0.26949292  1
  O2-  O208  1  0.17351600  0.71015502  0.59852538  1
  O2-  O209  1  0.17197171  0.70697529  0.93355863  1
  O2-  O210  1  0.66741216  0.20688500  0.26219944  1
  O2-  O211  1  0.66507986  0.21127287  0.59531972  1
  O2-  O212  1  0.67262853  0.19719129  0.93601477  1
  O2-  O213  1  0.65984792  0.70929526  0.26629897  1
  O2-  O214  1  0.66750872  0.70973830  0.59713120  1
  O2-  O215  1  0.66026599  0.70890975  0.94093624  1
  O2-  O216  1  0.08350528  0.46202403  0.06693257  1
  O2-  O217  1  0.07905763  0.45526788  0.40381170  1
  O2-  O218  1  0.08226505  0.45785951  0.72919613  1
  O2-  O219  1  0.08395009  0.95296098  0.06227297  1
  O2-  O220  1  0.08278244  0.95970279  0.39112166  1
  O2-  O221  1  0.08556248  0.96181506  0.73746759  1
  O2-  O222  1  0.58431536  0.45978322  0.07097358  1
  O2-  O223  1  0.58344836  0.44639727  0.39316621  1
  O2-  O224  1  0.59021200  0.46206005  0.72505473  1
  O2-  O225  1  0.58224580  0.96000897  0.07067707  1
  O2-  O226  1  0.58839692  0.95597870  0.39514713  1
  O2-  O227  1  0.57851787  0.95139969  0.73323755  1
  O2-  O228  1  0.20849219  0.33241863  0.06651682  1
  O2-  O229  1  0.20228504  0.32954962  0.40529145  1
  O2-  O230  1  0.19554528  0.33215072  0.72939793  1
  O2-  O231  1  0.20819043  0.83738844  0.06530829  1
  O2-  O232  1  0.19772962  0.83466290  0.39000827  1
  O2-  O233  1  0.21400017  0.83571919  0.73652808  1
  O2-  O234  1  0.70832498  0.32956681  0.06682891  1
  O2-  O235  1  0.70867497  0.33180109  0.39511133  1
  O2-  O236  1  0.70761897  0.33905296  0.72459603  1
  O2-  O237  1  0.70865697  0.83218916  0.07219575  1
  O2-  O238  1  0.70561093  0.83602758  0.39271213  1
  O2-  O239  1  0.70819536  0.82867208  0.73396534  1
  O2-  O240  1  0.44930225  0.41554942  0.27106373  1
  O2-  O241  1  0.46279340  0.41722259  0.59407337  1
  O2-  O242  1  0.45302979  0.42365986  0.93767674  1
  O2-  O243  1  0.46082713  0.90904366  0.26890098  1
  O2-  O244  1  0.44736026  0.91748874  0.60720518  1
  O2-  O245  1  0.45965889  0.91053456  0.93709812  1
  O2-  O246  1  0.95426795  0.41595415  0.27335752  1
  O2-  O247  1  0.95926475  0.41688889  0.59569722  1
  O2-  O248  1  0.95965915  0.41615849  0.93382067  1
  O2-  O249  1  0.95668320  0.91845400  0.26122792  1
  O2-  O250  1  0.95821902  0.92332415  0.60317981  1
  O2-  O251  1  0.94925461  0.92303854  0.93492078  1
  O2-  O252  1  0.33166526  0.29255832  0.27406112  1
  O2-  O253  1  0.32540645  0.30191157  0.60045141  1
  O2-  O254  1  0.33199259  0.29052116  0.93192801  1
  O2-  O255  1  0.33520783  0.79659570  0.27117447  1
  O2-  O256  1  0.33635895  0.79266871  0.60383236  1
  O2-  O257  1  0.33592020  0.79869447  0.93929890  1
  O2-  O258  1  0.84010898  0.29031789  0.26952524  1
  O2-  O259  1  0.83371597  0.29133456  0.59410581  1
  O2-  O260  1  0.83448149  0.28982450  0.93514049  1
  O2-  O261  1  0.83155578  0.78802049  0.26451663  1
  O2-  O262  1  0.83296605  0.79241978  0.59798906  1
  O2-  O263  1  0.82801713  0.79053633  0.93221723  1
  O2-  O264  1  0.40939448  0.03611252  0.06198155  1
  O2-  O265  1  0.41694816  0.03291875  0.40195346  1
  O2-  O266  1  0.41531441  0.04873020  0.73205816  1
  O2-  O267  1  0.41722420  0.55094969  0.06524206  1
  O2-  O268  1  0.42252295  0.54624643  0.40051974  1
  O2-  O269  1  0.42010729  0.53807007  0.73382882  1
  O2-  O270  1  0.91875244  0.04949522  0.06661778  1
  O2-  O271  1  0.91412086  0.04494825  0.39384128  1
  O2-  O272  1  0.92033155  0.05380773  0.73496516  1
  O2-  O273  1  0.91516721  0.54647284  0.05986675  1
  O2-  O274  1  0.91304065  0.54257066  0.40369985  1
  O2-  O275  1  0.91650220  0.54506677  0.72540073  1
  O2-  O276  1  0.29377928  0.16067148  0.06189252  1
  O2-  O277  1  0.29334393  0.16305776  0.40427449  1
  O2-  O278  1  0.29506769  0.16877735  0.72938280  1
  O2-  O279  1  0.29863887  0.66858707  0.06327406  1
  O2-  O280  1  0.29577450  0.67201116  0.40152322  1
  O2-  O281  1  0.29449615  0.66553357  0.73653975  1
  O2-  O282  1  0.79744647  0.16519244  0.06877586  1
  O2-  O283  1  0.79298200  0.16336286  0.39390895  1
  O2-  O284  1  0.78916130  0.17329524  0.73293368  1
  O2-  O285  1  0.79122801  0.66236890  0.06229916  1
  O2-  O286  1  0.78398622  0.66694259  0.40135240  1
  O2-  O287  1  0.79303398  0.66221040  0.72902948  1
