# generated using pymatgen
data_Ca2Al2SiO7
_symmetry_space_group_name_H-M   'P 1'
_cell_length_a   15.45784225
_cell_length_b   15.45645383
_cell_length_c   15.28251635
_cell_angle_alpha   89.99574784
_cell_angle_beta   89.99335729
_cell_angle_gamma   90.00381432
_symmetry_Int_Tables_number   1
_chemical_formula_structural   Ca2Al2SiO7
_chemical_formula_sum   'Ca48 Al48 Si24 O168'
_cell_volume   3651.35110674
_cell_formula_units_Z   24
loop_
 _symmetry_equiv_pos_site_id
 _symmetry_equiv_pos_as_xyz
  1  'x, y, z'
loop_
 _atom_type_symbol
 _atom_type_oxidation_number
  Ca2+  2.0
  Al0+  0.0
  Si0+  0.0
  O2-  -2.0
loop_
 _atom_site_type_symbol
 _atom_site_label
 _atom_site_symmetry_multiplicity
 _atom_site_fract_x
 _atom_site_fract_y
 _atom_site_fract_z
 _atom_site_occupancy
  Ca2+  Ca0  1  0.17190918  0.08625341  0.17262821  1
  Ca2+  Ca1  1  0.17099449  0.08123013  0.50688963  1
  Ca2+  Ca2  1  0.15772744  0.08127404  0.83210411  1
  Ca2+  Ca3  1  0.17642061  0.57544861  0.17529847  1
  Ca2+  Ca4  1  0.17214361  0.57917668  0.49883773  1
  Ca2+  Ca5  1  0.17477501  0.58051047  0.84000226  1
  Ca2+  Ca6  1  0.66204373  0.07503009  0.16765515  1
  Ca2+  Ca7  1  0.66816466  0.07674437  0.50777381  1
  Ca2+  Ca8  1  0.67580263  0.08857032  0.83938151  1
  Ca2+  Ca9  1  0.67712495  0.58453788  0.17002775  1
  Ca2+  Ca10  1  0.67326801  0.58149254  0.50887703  1
  Ca2+  Ca11  1  0.67290922  0.57990430  0.83062490  1
  Ca2+  Ca12  1  0.08651162  0.33001968  0.16324946  1
  Ca2+  Ca13  1  0.08111718  0.33301045  0.49873771  1
  Ca2+  Ca14  1  0.07469911  0.32106169  0.82528280  1
  Ca2+  Ca15  1  0.07458941  0.83305215  0.16561114  1
  Ca2+  Ca16  1  0.07295717  0.83729661  0.49901397  1
  Ca2+  Ca17  1  0.07620002  0.83187221  0.82157330  1
  Ca2+  Ca18  1  0.57678168  0.32879495  0.16296670  1
  Ca2+  Ca19  1  0.57847730  0.33210467  0.50088695  1
  Ca2+  Ca20  1  0.58422995  0.32700971  0.82209884  1
  Ca2+  Ca21  1  0.58192700  0.83975131  0.16688986  1
  Ca2+  Ca22  1  0.58624429  0.82695894  0.49258136  1
  Ca2+  Ca23  1  0.58867479  0.82751274  0.82987331  1
  Ca2+  Ca24  1  0.33130196  0.42387557  0.17813679  1
  Ca2+  Ca25  1  0.33428253  0.41146344  0.50100618  1
  Ca2+  Ca26  1  0.33859997  0.41940287  0.83488134  1
  Ca2+  Ca27  1  0.33451876  0.92396525  0.17766053  1
  Ca2+  Ca28  1  0.33233685  0.92095827  0.50243403  1
  Ca2+  Ca29  1  0.32414514  0.91545698  0.83407460  1
  Ca2+  Ca30  1  0.83563152  0.42756807  0.17242873  1
  Ca2+  Ca31  1  0.83042965  0.42692782  0.51204851  1
  Ca2+  Ca32  1  0.83355795  0.42096227  0.83224347  1
  Ca2+  Ca33  1  0.82224152  0.91991026  0.17045543  1
  Ca2+  Ca34  1  0.83387939  0.91752601  0.50521573  1
  Ca2+  Ca35  1  0.83066909  0.92762453  0.83562009  1
  Ca2+  Ca36  1  0.41834566  0.17004865  0.16393656  1
  Ca2+  Ca37  1  0.41803164  0.17412072  0.49590532  1
  Ca2+  Ca38  1  0.43262350  0.17209624  0.82472692  1
  Ca2+  Ca39  1  0.40864056  0.67068038  0.16479738  1
  Ca2+  Ca40  1  0.42352864  0.67027261  0.49305583  1
  Ca2+  Ca41  1  0.42384513  0.66496767  0.82566264  1
  Ca2+  Ca42  1  0.92344758  0.16601717  0.15745157  1
  Ca2+  Ca43  1  0.91735655  0.16802402  0.50393270  1
  Ca2+  Ca44  1  0.91997087  0.16378512  0.82269193  1
  Ca2+  Ca45  1  0.90837601  0.66906103  0.16674819  1
  Ca2+  Ca46  1  0.90694042  0.67553174  0.49453411  1
  Ca2+  Ca47  1  0.90647343  0.67272490  0.82662337  1
  Al0+  Al48  1  -0.00145327  -0.00129637  0.00059681  1
  Al0+  Al49  1  -0.00096216  -0.00038184  0.32607225  1
  Al0+  Al50  1  0.00026517  -0.00233990  0.66571291  1
  Al0+  Al51  1  0.00172003  0.50087708  0.00364573  1
  Al0+  Al52  1  0.00100507  0.50042008  0.34014527  1
  Al0+  Al53  1  0.00343464  0.50111221  0.66944974  1
  Al0+  Al54  1  0.49759635  0.00039463  -0.00382359  1
  Al0+  Al55  1  0.50066301  -0.00239662  0.33930716  1
  Al0+  Al56  1  0.49773427  -0.00016982  0.66635497  1
  Al0+  Al57  1  0.50022303  0.50327142  0.00505050  1
  Al0+  Al58  1  0.50180266  0.49899200  0.33008939  1
  Al0+  Al59  1  0.50186635  0.50132956  0.66231292  1
  Al0+  Al60  1  0.24806613  0.24938373  -0.00716406  1
  Al0+  Al61  1  0.25142264  0.24945386  0.33654075  1
  Al0+  Al62  1  0.25090719  0.24951209  0.66375370  1
  Al0+  Al63  1  0.24828264  0.75051216  0.00305758  1
  Al0+  Al64  1  0.24883218  0.74891132  0.33254032  1
  Al0+  Al65  1  0.24890392  0.75039685  0.67062854  1
  Al0+  Al66  1  0.75044514  0.25182817  0.00247004  1
  Al0+  Al67  1  0.75230293  0.24899997  0.32972056  1
  Al0+  Al68  1  0.75062582  0.25001891  0.66475839  1
  Al0+  Al69  1  0.74742230  0.75028925  0.00661267  1
  Al0+  Al70  1  0.74975733  0.75155466  0.33372364  1
  Al0+  Al71  1  0.74926960  0.75052697  0.66212770  1
  Al0+  Al72  1  0.32101596  0.06988701  0.34663972  1
  Al0+  Al73  1  0.57040645  0.68164347  0.65343643  1
  Al0+  Al74  1  0.42959812  0.31978040  0.31776102  1
  Al0+  Al75  1  0.42842939  0.82004123  0.32041658  1
  Al0+  Al76  1  0.82254850  0.07347653  0.01568753  1
  Al0+  Al77  1  0.82289219  0.57324408  0.68158019  1
  Al0+  Al78  1  0.57059312  0.17903999  0.98713440  1
  Al0+  Al79  1  0.57398695  0.17637181  0.65061432  1
  Al0+  Al80  1  0.81914302  0.56992838  0.34829215  1
  Al0+  Al81  1  0.32183375  0.57135434  0.01352725  1
  Al0+  Al82  1  0.06975985  0.17782770  0.98555908  1
  Al0+  Al83  1  0.32367936  0.57259533  0.35029902  1
  Al0+  Al84  1  0.92998914  0.81830665  0.65444455  1
  Al0+  Al85  1  0.18057247  0.42782109  0.35012786  1
  Al0+  Al86  1  0.82096982  0.57010232  0.01436679  1
  Al0+  Al87  1  0.81939945  0.06952175  0.67762127  1
  Al0+  Al88  1  0.43037557  0.32178644  0.65170951  1
  Al0+  Al89  1  0.68054931  0.93155062  0.34884875  1
  Al0+  Al90  1  0.06976657  0.17745016  0.64969326  1
  Al0+  Al91  1  0.18027411  0.93019396  0.67946504  1
  Al0+  Al92  1  0.67727353  0.93029406  0.01433760  1
  Al0+  Al93  1  0.92818029  0.82078910  0.31632934  1
  Al0+  Al94  1  0.92903184  0.32356613  0.65172752  1
  Al0+  Al95  1  0.67849572  0.42940318  0.68051164  1
  Si0+  Si96  1  0.67870319  0.42431724  0.34884953  1
  Si0+  Si97  1  0.57323917  0.17626690  0.31652701  1
  Si0+  Si98  1  0.07107356  0.67615028  0.31557044  1
  Si0+  Si99  1  0.17931480  0.42647332  0.68448812  1
  Si0+  Si100  1  0.18012689  0.42713141  0.01501355  1
  Si0+  Si101  1  0.07215184  0.67947767  0.98572662  1
  Si0+  Si102  1  0.82502995  0.07305682  0.34960379  1
  Si0+  Si103  1  0.17524782  0.92823254  0.34778195  1
  Si0+  Si104  1  0.17768291  0.92824100  0.01643537  1
  Si0+  Si105  1  0.07064416  0.17994202  0.31826145  1
  Si0+  Si106  1  0.57075972  0.67997705  0.98565563  1
  Si0+  Si107  1  0.67517794  0.92743564  0.68244052  1
  Si0+  Si108  1  0.92938466  0.32303682  0.31795808  1
  Si0+  Si109  1  0.31886679  0.07030283  0.01227285  1
  Si0+  Si110  1  0.57215391  0.67836723  0.31389133  1
  Si0+  Si111  1  0.42899183  0.32408320  0.98460829  1
  Si0+  Si112  1  0.92767354  0.81775646  0.98512247  1
  Si0+  Si113  1  0.42446953  0.82111309  0.65152274  1
  Si0+  Si114  1  0.32246268  0.07397619  0.68631506  1
  Si0+  Si115  1  0.07608260  0.67726738  0.65061865  1
  Si0+  Si116  1  0.67679231  0.42742591  0.01816489  1
  Si0+  Si117  1  0.32055253  0.57039686  0.68104881  1
  Si0+  Si118  1  0.92866669  0.32522872  0.98536297  1
  Si0+  Si119  1  0.42606636  0.82133800  0.98432546  1
  O2-  O120  1  0.24693576  0.00132201  0.05722599  1
  O2-  O121  1  0.24687988  -0.00653989  0.39147234  1
  O2-  O122  1  0.25342383  0.00477235  0.72983716  1
  O2-  O123  1  0.25079564  0.49330582  0.05943615  1
  O2-  O124  1  0.25452920  0.49819326  0.40055400  1
  O2-  O125  1  0.25131244  0.49810181  0.72483770  1
  O2-  O126  1  0.74688230  0.00474148  0.06482478  1
  O2-  O127  1  0.75453759  0.00697406  0.39380694  1
  O2-  O128  1  0.73924091  0.00059753  0.72556372  1
  O2-  O129  1  0.74927754  0.49288429  0.06164458  1
  O2-  O130  1  0.74635152  0.49354341  0.39304645  1
  O2-  O131  1  0.75400819  0.49800314  0.73134696  1
  O2-  O132  1  -0.00036958  0.25099731  0.27569546  1
  O2-  O133  1  0.00062027  0.25185499  0.59945942  1
  O2-  O134  1  -0.00887624  0.25015195  0.94217759  1
  O2-  O135  1  0.00246123  0.74474773  0.27006273  1
  O2-  O136  1  0.00130982  0.73972905  0.60797161  1
  O2-  O137  1  -0.00165713  0.74644842  0.94217044  1
  O2-  O138  1  0.50555277  0.24597887  0.27138372  1
  O2-  O139  1  0.50061955  0.24777877  0.60208887  1
  O2-  O140  1  0.49955750  0.25781053  0.94087847  1
  O2-  O141  1  0.49881874  0.74291733  0.26971849  1
  O2-  O142  1  0.49790589  0.75859295  0.60737981  1
  O2-  O143  1  0.49762474  0.74991826  0.94384762  1
  O2-  O144  1  0.07365620  0.18097809  0.09922870  1
  O2-  O145  1  0.06906011  0.17742570  0.42270901  1
  O2-  O146  1  0.06718608  0.17831723  0.76364679  1
  O2-  O147  1  0.07450345  0.68219722  0.09046500  1
  O2-  O148  1  0.07181292  0.67664127  0.42095115  1
  O2-  O149  1  0.08164262  0.68093286  0.75665279  1
  O2-  O150  1  0.56409385  0.17773695  0.10040590  1
  O2-  O151  1  0.57421264  0.17744929  0.42156823  1
  O2-  O152  1  0.57203204  0.17703836  0.76482060  1
  O2-  O153  1  0.57106364  0.67999951  0.09044372  1
  O2-  O154  1  0.57292196  0.68115280  0.41936555  1
  O2-  O155  1  0.56862625  0.68193957  0.76754112  1
  O2-  O156  1  0.18066300  0.42813233  0.23569720  1
  O2-  O157  1  0.17857602  0.42721936  0.57979325  1
  O2-  O158  1  0.17962639  0.42934413  0.90949674  1
  O2-  O159  1  0.17441169  0.93189378  0.24144834  1
  O2-  O160  1  0.18308288  0.92955252  0.56650363  1
  O2-  O161  1  0.17866971  0.92481139  0.91155856  1
  O2-  O162  1  0.68159830  0.42372739  0.24264213  1
  O2-  O163  1  0.67690049  0.43381149  0.56695738  1
  O2-  O164  1  0.67348895  0.42891150  0.91316427  1
  O2-  O165  1  0.67925240  0.93328295  0.23555351  1
  O2-  O166  1  0.67701683  0.92616355  0.57692779  1
  O2-  O167  1  0.68053238  0.92597620  0.90103188  1
  O2-  O168  1  0.42734458  0.32202058  0.09024155  1
  O2-  O169  1  0.43006713  0.31750182  0.43007734  1
  O2-  O170  1  0.43104864  0.32176784  0.76616251  1
  O2-  O171  1  0.42373915  0.82217902  0.08923149  1
  O2-  O172  1  0.43077735  0.82006018  0.43322834  1
  O2-  O173  1  0.42157909  0.81706478  0.75774967  1
  O2-  O174  1  0.93392632  0.32830869  0.09137028  1
  O2-  O175  1  0.92832332  0.32278420  0.42237843  1
  O2-  O176  1  0.93226347  0.32390592  0.76583277  1
  O2-  O177  1  0.92988660  0.81682686  0.09023119  1
  O2-  O178  1  0.93097908  0.82205020  0.42912262  1
  O2-  O179  1  0.93111873  0.81818292  0.76828992  1
  O2-  O180  1  0.31837760  0.07006248  0.23236208  1
  O2-  O181  1  0.32250612  0.07245503  0.58075717  1
  O2-  O182  1  0.31847994  0.06706880  0.90766274  1
  O2-  O183  1  0.31889777  0.57194064  0.23626561  1
  O2-  O184  1  0.31805542  0.57317599  0.57662927  1
  O2-  O185  1  0.32087007  0.57182494  0.89994615  1
  O2-  O186  1  0.82617681  0.07269675  0.24398694  1
  O2-  O187  1  0.82105576  0.06492966  0.56450826  1
  O2-  O188  1  0.82463072  0.06983027  0.90223271  1
  O2-  O189  1  0.81834959  0.56818405  0.23445097  1
  O2-  O190  1  0.81891538  0.57441872  0.56829153  1
  O2-  O191  1  0.81900695  0.57220126  0.90196230  1
  O2-  O192  1  0.04362313  0.08904297  0.26752330  1
  O2-  O193  1  0.04089209  0.07965174  0.59712505  1
  O2-  O194  1  0.04262555  0.07889292  0.93388992  1
  O2-  O195  1  0.04482559  0.58226739  0.26967415  1
  O2-  O196  1  0.05930878  0.58120068  0.60799727  1
  O2-  O197  1  0.04982354  0.58526305  0.94039145  1
  O2-  O198  1  0.54376928  0.08301226  0.27254245  1
  O2-  O199  1  0.54416859  0.07698066  0.59951074  1
  O2-  O200  1  0.53639870  0.08437731  0.93090310  1
  O2-  O201  1  0.55387802  0.58274934  0.26875500  1
  O2-  O202  1  0.53787124  0.58768841  0.59721221  1
  O2-  O203  1  0.54325310  0.58776228  0.93847209  1
  O2-  O204  1  0.16247843  0.20842512  0.27106718  1
  O2-  O205  1  0.16982898  0.20337546  0.60014493  1
  O2-  O206  1  0.16498103  0.20869133  0.92799370  1
  O2-  O207  1  0.16427571  0.70216111  0.26807001  1
  O2-  O208  1  0.16631459  0.71025134  0.60186913  1
  O2-  O209  1  0.16252780  0.71089533  0.93634900  1
  O2-  O210  1  0.66757654  0.20012845  0.26919945  1
  O2-  O211  1  0.67162457  0.20232886  0.59696867  1
  O2-  O212  1  0.66985509  0.20651042  0.93676810  1
  O2-  O213  1  0.66327972  0.71102535  0.26680842  1
  O2-  O214  1  0.66507400  0.71162200  0.59633555  1
  O2-  O215  1  0.66171964  0.71057598  0.93807390  1
  O2-  O216  1  0.08826457  0.45493167  0.06366019  1
  O2-  O217  1  0.08363339  0.45826164  0.40440426  1
  O2-  O218  1  0.08930416  0.45532441  0.73485708  1
  O2-  O219  1  0.08557997  0.95402088  0.06370603  1
  O2-  O220  1  0.08281517  0.95849386  0.39314506  1
  O2-  O221  1  0.08444526  0.95980226  0.73555367  1
  O2-  O222  1  0.58540949  0.45801576  0.06698333  1
  O2-  O223  1  0.58421638  0.44845933  0.39196926  1
  O2-  O224  1  0.58141483  0.46308291  0.73483097  1
  O2-  O225  1  0.57641733  0.95702250  0.06493433  1
  O2-  O226  1  0.58471968  0.95849396  0.40509972  1
  O2-  O227  1  0.57870446  0.94484940  0.72677486  1
  O2-  O228  1  0.20335466  0.33199777  0.05935121  1
  O2-  O229  1  0.20716160  0.32971971  0.40309277  1
  O2-  O230  1  0.20777112  0.33469153  0.73176962  1
  O2-  O231  1  0.20715580  0.83795186  0.06588795  1
  O2-  O232  1  0.19543033  0.83288971  0.39076082  1
  O2-  O233  1  0.21176240  0.83440243  0.73756908  1
  O2-  O234  1  0.69797309  0.33349880  0.06542970  1
  O2-  O235  1  0.70446481  0.33028314  0.39343220  1
  O2-  O236  1  0.70390140  0.33002322  0.73232730  1
  O2-  O237  1  0.70679220  0.83367069  0.07060697  1
  O2-  O238  1  0.71250020  0.83513635  0.40105292  1
  O2-  O239  1  0.70628670  0.83560900  0.72859519  1
  O2-  O240  1  0.45901028  0.41702088  0.26257800  1
  O2-  O241  1  0.45779425  0.41946028  0.59788809  1
  O2-  O242  1  0.45284150  0.41981409  0.94175076  1
  O2-  O243  1  0.46191852  0.91672779  0.26652885  1
  O2-  O244  1  0.44205590  0.91753476  0.60959522  1
  O2-  O245  1  0.45201767  0.91219435  0.93452828  1
  O2-  O246  1  0.95955877  0.41479006  0.27113638  1
  O2-  O247  1  0.95969717  0.42278650  0.60065900  1
  O2-  O248  1  0.96059652  0.41659788  0.93760233  1
  O2-  O249  1  0.96087386  0.91603468  0.25917578  1
  O2-  O250  1  0.96607270  0.91151625  0.59842430  1
  O2-  O251  1  0.95679275  0.90958571  0.93921464  1
  O2-  O252  1  0.33269388  0.28708509  0.26422452  1
  O2-  O253  1  0.33153439  0.29460016  0.59965657  1
  O2-  O254  1  0.33579599  0.29838583  0.93766314  1
  O2-  O255  1  0.32967056  0.79466334  0.26568676  1
  O2-  O256  1  0.33324763  0.79028009  0.60425493  1
  O2-  O257  1  0.33401426  0.79184529  0.93713437  1
  O2-  O258  1  0.83798921  0.29681119  0.26765638  1
  O2-  O259  1  0.83114072  0.29714004  0.59837141  1
  O2-  O260  1  0.83177468  0.30869747  0.94387389  1
  O2-  O261  1  0.83199935  0.78832362  0.26234567  1
  O2-  O262  1  0.83381778  0.79166396  0.59843437  1
  O2-  O263  1  0.83523583  0.78871481  0.94032659  1
  O2-  O264  1  0.40932921  0.04077879  0.06071830  1
  O2-  O265  1  0.41565781  0.03901966  0.40265750  1
  O2-  O266  1  0.41564919  0.04641367  0.73334496  1
  O2-  O267  1  0.41885040  0.54734081  0.06946990  1
  O2-  O268  1  0.42510307  0.54811883  0.39732062  1
  O2-  O269  1  0.41273223  0.54331149  0.72787342  1
  O2-  O270  1  0.91975469  0.04021380  0.06971763  1
  O2-  O271  1  0.91822445  0.04401779  0.39399337  1
  O2-  O272  1  0.91399228  0.03287457  0.73231742  1
  O2-  O273  1  0.91933731  0.54356976  0.06842178  1
  O2-  O274  1  0.91656596  0.54373231  0.40108552  1
  O2-  O275  1  0.92413940  0.55161241  0.73302961  1
  O2-  O276  1  0.29196642  0.16377904  0.05758264  1
  O2-  O277  1  0.28851715  0.16408907  0.40203677  1
  O2-  O278  1  0.29707505  0.16751323  0.73216493  1
  O2-  O279  1  0.28661134  0.66679151  0.06750923  1
  O2-  O280  1  0.29260481  0.67092624  0.40219047  1
  O2-  O281  1  0.29113869  0.66093785  0.73112694  1
  O2-  O282  1  0.80189068  0.17451198  0.06718926  1
  O2-  O283  1  0.80314457  0.16866287  0.39292460  1
  O2-  O284  1  0.79605304  0.16781975  0.73126669  1
  O2-  O285  1  0.78595359  0.66442026  0.07032599  1
  O2-  O286  1  0.78682318  0.66659216  0.39923037  1
  O2-  O287  1  0.78745962  0.67050286  0.73385824  1
