# generated using pymatgen
data_Ca2Al2SiO7
_symmetry_space_group_name_H-M   'P 1'
_cell_length_a   15.46576064
_cell_length_b   15.46657586
_cell_length_c   15.28828021
_cell_angle_alpha   89.99639875
_cell_angle_beta   89.98891327
_cell_angle_gamma   89.99450496
_symmetry_Int_Tables_number   1
_chemical_formula_structural   Ca2Al2SiO7
_chemical_formula_sum   'Ca48 Al48 Si24 O168'
_cell_volume   3656.99261715
_cell_formula_units_Z   24
loop_
 _symmetry_equiv_pos_site_id
 _symmetry_equiv_pos_as_xyz
  1  'x, y, z'
loop_
 _atom_type_symbol
 _atom_type_oxidation_number
  Ca2+  2.0
  Al0+  0.0
  Si0+  0.0
  O2-  -2.0
loop_
 _atom_site_type_symbol
 _atom_site_label
 _atom_site_symmetry_multiplicity
 _atom_site_fract_x
 _atom_site_fract_y
 _atom_site_fract_z
 _atom_site_occupancy
  Ca2+  Ca0  1  0.17510319  0.09205387  0.17153228  1
  Ca2+  Ca1  1  0.17429617  0.08288113  0.50865620  1
  Ca2+  Ca2  1  0.17784241  0.08244760  0.83477486  1
  Ca2+  Ca3  1  0.17382066  0.58080276  0.17385737  1
  Ca2+  Ca4  1  0.16827003  0.57991154  0.50873110  1
  Ca2+  Ca5  1  0.15842062  0.57803460  0.82778128  1
  Ca2+  Ca6  1  0.66667570  0.07559221  0.17596822  1
  Ca2+  Ca7  1  0.66665640  0.08196393  0.50650386  1
  Ca2+  Ca8  1  0.67305361  0.09224365  0.82763036  1
  Ca2+  Ca9  1  0.67311392  0.57813488  0.17738908  1
  Ca2+  Ca10  1  0.67620408  0.58094247  0.51140466  1
  Ca2+  Ca11  1  0.66553052  0.58273131  0.82668899  1
  Ca2+  Ca12  1  0.08106319  0.32261620  0.16193294  1
  Ca2+  Ca13  1  0.08059505  0.33222302  0.49989148  1
  Ca2+  Ca14  1  0.07537442  0.33031387  0.82665166  1
  Ca2+  Ca15  1  0.07654557  0.83361540  0.16729894  1
  Ca2+  Ca16  1  0.07337567  0.83797188  0.50345050  1
  Ca2+  Ca17  1  0.08295895  0.82733484  0.81903094  1
  Ca2+  Ca18  1  0.58290555  0.32555596  0.16688373  1
  Ca2+  Ca19  1  0.58636079  0.32228260  0.50308717  1
  Ca2+  Ca20  1  0.57549101  0.33001802  0.81731296  1
  Ca2+  Ca21  1  0.57731730  0.83566032  0.16371456  1
  Ca2+  Ca22  1  0.58211716  0.83325646  0.50097974  1
  Ca2+  Ca23  1  0.57137591  0.83031019  0.82399660  1
  Ca2+  Ca24  1  0.33186269  0.42464165  0.17532546  1
  Ca2+  Ca25  1  0.32907579  0.41860065  0.50922883  1
  Ca2+  Ca26  1  0.32538504  0.40786564  0.82998057  1
  Ca2+  Ca27  1  0.33318008  0.92485114  0.17044598  1
  Ca2+  Ca28  1  0.32978187  0.92723421  0.51064850  1
  Ca2+  Ca29  1  0.33632446  0.92128501  0.83396241  1
  Ca2+  Ca30  1  0.83774741  0.42068868  0.17029437  1
  Ca2+  Ca31  1  0.83185943  0.42565088  0.51404555  1
  Ca2+  Ca32  1  0.83366557  0.41543844  0.83056311  1
  Ca2+  Ca33  1  0.82500488  0.91381251  0.17814704  1
  Ca2+  Ca34  1  0.83164095  0.91786037  0.50735992  1
  Ca2+  Ca35  1  0.83878284  0.92283084  0.82871938  1
  Ca2+  Ca36  1  0.42038237  0.15452762  0.16711066  1
  Ca2+  Ca37  1  0.41984952  0.16535007  0.49861555  1
  Ca2+  Ca38  1  0.42060578  0.16513159  0.82217044  1
  Ca2+  Ca39  1  0.41532100  0.67307730  0.16041864  1
  Ca2+  Ca40  1  0.41785847  0.66936362  0.49982378  1
  Ca2+  Ca41  1  0.41945592  0.67929722  0.82091098  1
  Ca2+  Ca42  1  0.93275588  0.16897065  0.15833431  1
  Ca2+  Ca43  1  0.91955902  0.16933391  0.49740361  1
  Ca2+  Ca44  1  0.91814349  0.17555715  0.82386151  1
  Ca2+  Ca45  1  0.91022915  0.67047253  0.17035507  1
  Ca2+  Ca46  1  0.91497513  0.67093777  0.49942665  1
  Ca2+  Ca47  1  0.92102828  0.67317868  0.81840736  1
  Al0+  Al48  1  0.00217019  -0.00090386  -0.00260515  1
  Al0+  Al49  1  -0.00078232  -0.00000813  0.32147644  1
  Al0+  Al50  1  0.00114864  -0.00024159  0.67224793  1
  Al0+  Al51  1  -0.00068047  0.50004986  0.00112525  1
  Al0+  Al52  1  0.00071931  0.50179950  0.33487415  1
  Al0+  Al53  1  0.00093628  0.50037084  0.66743313  1
  Al0+  Al54  1  0.50003960  -0.00122849  -0.00055593  1
  Al0+  Al55  1  0.49957258  -0.00055328  0.33689826  1
  Al0+  Al56  1  0.50163243  -0.00043841  0.66376461  1
  Al0+  Al57  1  0.50242069  0.49878100  0.00260235  1
  Al0+  Al58  1  0.50008735  0.50017864  0.33636499  1
  Al0+  Al59  1  0.50005670  0.50038342  0.66329468  1
  Al0+  Al60  1  0.25130608  0.24964375  0.00342451  1
  Al0+  Al61  1  0.25006434  0.25177787  0.33247208  1
  Al0+  Al62  1  0.25036609  0.25096326  0.67185677  1
  Al0+  Al63  1  0.24943180  0.75147388  -0.00261437  1
  Al0+  Al64  1  0.24875337  0.75038868  0.33604174  1
  Al0+  Al65  1  0.24893523  0.75033397  0.66110405  1
  Al0+  Al66  1  0.75035019  0.25045350  0.00143565  1
  Al0+  Al67  1  0.74845135  0.24946657  0.32527564  1
  Al0+  Al68  1  0.75002037  0.25105855  0.66610254  1
  Al0+  Al69  1  0.74988748  0.74847256  0.00112008  1
  Al0+  Al70  1  0.74814150  0.74907388  0.33639376  1
  Al0+  Al71  1  0.74921429  0.75118833  0.66670161  1
  Al0+  Al72  1  0.92935311  0.32082201  0.98394646  1
  Al0+  Al73  1  0.32292678  0.07062930  0.68196692  1
  Al0+  Al74  1  0.17925911  0.92810250  0.68126779  1
  Al0+  Al75  1  0.07162239  0.17969179  0.32066018  1
  Al0+  Al76  1  0.31888990  0.07069176  0.34772886  1
  Al0+  Al77  1  0.92939586  0.32052371  0.65248695  1
  Al0+  Al78  1  0.67846238  0.42903769  0.68168783  1
  Al0+  Al79  1  0.92745419  0.81897487  0.31918043  1
  Al0+  Al80  1  0.42787152  0.82217889  0.64861193  1
  Al0+  Al81  1  0.82122703  0.57257813  0.68364557  1
  Al0+  Al82  1  0.32091657  0.06955445  0.01558833  1
  Al0+  Al83  1  0.82030952  0.56892378  0.34763058  1
  Al0+  Al84  1  0.07489265  0.17792787  0.98159733  1
  Al0+  Al85  1  0.42995513  0.82010770  0.98717216  1
  Al0+  Al86  1  0.42548383  0.32075475  0.65196823  1
  Al0+  Al87  1  0.57173272  0.17912485  0.65201630  1
  Al0+  Al88  1  0.17892975  0.42928741  0.68078413  1
  Al0+  Al89  1  0.32201271  0.57301751  0.34708702  1
  Al0+  Al90  1  0.56959281  0.17759700  0.31769697  1
  Al0+  Al91  1  0.82149910  0.07174383  0.67811220  1
  Al0+  Al92  1  0.92884454  0.82391751  0.65278074  1
  Al0+  Al93  1  0.67912943  0.92970977  0.34745591  1
  Al0+  Al94  1  0.57096478  0.67870320  0.65054984  1
  Al0+  Al95  1  0.07068830  0.67769373  0.65040295  1
  Si0+  Si96  1  0.67811563  0.92805785  0.68512612  1
  Si0+  Si97  1  0.57305118  0.67582820  0.98491574  1
  Si0+  Si98  1  0.42765173  0.82032875  0.31777537  1
  Si0+  Si99  1  0.82065522  0.57097618  0.01662298  1
  Si0+  Si100  1  0.56988399  0.17863092  0.98634513  1
  Si0+  Si101  1  0.92828048  0.32414345  0.31730988  1
  Si0+  Si102  1  0.67784437  0.42508293  0.35000598  1
  Si0+  Si103  1  0.07252024  0.67699390  0.31491935  1
  Si0+  Si104  1  0.17926786  0.42935251  0.34940915  1
  Si0+  Si105  1  0.82321289  0.07236385  0.34555434  1
  Si0+  Si106  1  0.17895141  0.43026784  0.01643260  1
  Si0+  Si107  1  0.82241061  0.07199279  0.01574519  1
  Si0+  Si108  1  0.07075571  0.67996240  0.98694282  1
  Si0+  Si109  1  0.17448815  0.92802219  0.34858668  1
  Si0+  Si110  1  0.68158330  0.92912584  0.01399043  1
  Si0+  Si111  1  0.43099459  0.32413106  0.98742262  1
  Si0+  Si112  1  0.32173027  0.57192936  0.01246671  1
  Si0+  Si113  1  0.32227287  0.57257721  0.68335627  1
  Si0+  Si114  1  0.17719653  0.92511720  0.01890669  1
  Si0+  Si115  1  0.67786587  0.42762042  0.01772259  1
  Si0+  Si116  1  0.92631678  0.81966156  0.98572012  1
  Si0+  Si117  1  0.07190456  0.17843309  0.65184240  1
  Si0+  Si118  1  0.56964443  0.67840291  0.31753480  1
  Si0+  Si119  1  0.42847662  0.32285182  0.31567586  1
  O2-  O120  1  0.24269106  -0.00252892  0.06237691  1
  O2-  O121  1  0.24162916  -0.00194412  0.39183313  1
  O2-  O122  1  0.25325501  -0.00308596  0.73284189  1
  O2-  O123  1  0.25193925  0.50062718  0.05720955  1
  O2-  O124  1  0.24748355  0.49854064  0.39228532  1
  O2-  O125  1  0.25477764  0.50315756  0.72894829  1
  O2-  O126  1  0.75398359  -0.00181158  0.05806937  1
  O2-  O127  1  0.75417328  0.00528776  0.39065664  1
  O2-  O128  1  0.74734350  -0.00282672  0.72798178  1
  O2-  O129  1  0.75005611  0.49874583  0.05837768  1
  O2-  O130  1  0.75044708  0.48970076  0.39219596  1
  O2-  O131  1  0.74932108  0.50083173  0.73480883  1
  O2-  O132  1  -0.00519215  0.25316058  0.27360180  1
  O2-  O133  1  0.00295361  0.24545420  0.60561945  1
  O2-  O134  1  -0.00102237  0.24689694  0.93371178  1
  O2-  O135  1  0.00278052  0.74490425  0.27039404  1
  O2-  O136  1  -0.00206607  0.74970216  0.60231848  1
  O2-  O137  1  0.00062659  0.75184629  0.94588130  1
  O2-  O138  1  0.49467898  0.25223745  0.26953870  1
  O2-  O139  1  0.49691147  0.24836644  0.60237153  1
  O2-  O140  1  0.49992912  0.25110431  0.94641190  1
  O2-  O141  1  0.49654071  0.74698659  0.27396048  1
  O2-  O142  1  0.49929814  0.74962691  0.59847156  1
  O2-  O143  1  0.50209733  0.74222657  0.94256693  1
  O2-  O144  1  0.07407821  0.18198137  0.09590165  1
  O2-  O145  1  0.07069786  0.18026470  0.43327691  1
  O2-  O146  1  0.07059682  0.18081319  0.75745239  1
  O2-  O147  1  0.07158714  0.67979289  0.09244772  1
  O2-  O148  1  0.07332858  0.67444577  0.41904285  1
  O2-  O149  1  0.06901509  0.67861847  0.76530770  1
  O2-  O150  1  0.56931771  0.17804907  0.09185712  1
  O2-  O151  1  0.57167809  0.17857111  0.42932635  1
  O2-  O152  1  0.57140879  0.18153216  0.76671358  1
  O2-  O153  1  0.57376007  0.67569027  0.09110557  1
  O2-  O154  1  0.56987344  0.67856302  0.42151629  1
  O2-  O155  1  0.56820074  0.68146072  0.76520209  1
  O2-  O156  1  0.18040775  0.43110711  0.24281503  1
  O2-  O157  1  0.17987752  0.42951056  0.56763144  1
  O2-  O158  1  0.17793859  0.43143151  0.91195369  1
  O2-  O159  1  0.17714362  0.92561891  0.24238275  1
  O2-  O160  1  0.17685271  0.93341130  0.56741188  1
  O2-  O161  1  0.17872598  0.91993209  0.91441731  1
  O2-  O162  1  0.67659470  0.42787588  0.24323639  1
  O2-  O163  1  0.68244438  0.42831527  0.56809093  1
  O2-  O164  1  0.67297852  0.42707830  0.91391685  1
  O2-  O165  1  0.67899998  0.92971835  0.23289745  1
  O2-  O166  1  0.67838399  0.92839615  0.57953332  1
  O2-  O167  1  0.68247456  0.92767465  0.90976445  1
  O2-  O168  1  0.43398618  0.32980937  0.09258687  1
  O2-  O169  1  0.42832207  0.32373404  0.42018684  1
  O2-  O170  1  0.42654431  0.31880149  0.76677981  1
  O2-  O171  1  0.43191138  0.81880543  0.10108945  1
  O2-  O172  1  0.42831435  0.81971671  0.42182824  1
  O2-  O173  1  0.43035269  0.82097245  0.76295367  1
  O2-  O174  1  0.93169159  0.32162013  0.09831650  1
  O2-  O175  1  0.92881424  0.32488870  0.42223929  1
  O2-  O176  1  0.93054113  0.31900447  0.76562653  1
  O2-  O177  1  0.92279644  0.81674910  0.09113204  1
  O2-  O178  1  0.92803949  0.82038887  0.43086815  1
  O2-  O179  1  0.93122395  0.82248390  0.76735843  1
  O2-  O180  1  0.31953781  0.06695347  0.23387995  1
  O2-  O181  1  0.31946452  0.07175480  0.56833226  1
  O2-  O182  1  0.32443551  0.06823822  0.90365755  1
  O2-  O183  1  0.32050363  0.57173447  0.23241110  1
  O2-  O184  1  0.32020564  0.57093382  0.57766003  1
  O2-  O185  1  0.32239286  0.57141827  0.90834175  1
  O2-  O186  1  0.82121223  0.06937457  0.23916811  1
  O2-  O187  1  0.82156345  0.07081900  0.56489101  1
  O2-  O188  1  0.81982990  0.07323905  0.91102037  1
  O2-  O189  1  0.81756566  0.56790161  0.23306599  1
  O2-  O190  1  0.82053788  0.57073735  0.57006118  1
  O2-  O191  1  0.82103786  0.57450964  0.91276373  1
  O2-  O192  1  0.04358795  0.08490057  0.26029078  1
  O2-  O193  1  0.04665740  0.08473214  0.60777821  1
  O2-  O194  1  0.05210244  0.07640931  0.93365008  1
  O2-  O195  1  0.04715470  0.58351421  0.26645023  1
  O2-  O196  1  0.04364587  0.57960619  0.59777960  1
  O2-  O197  1  0.04198640  0.58815924  0.94115723  1
  O2-  O198  1  0.53702521  0.08055583  0.26348579  1
  O2-  O199  1  0.54908827  0.07991145  0.60027280  1
  O2-  O200  1  0.54231324  0.08752190  0.93913179  1
  O2-  O201  1  0.54383455  0.58548381  0.26935595  1
  O2-  O202  1  0.54576509  0.58042109  0.59716779  1
  O2-  O203  1  0.55015830  0.58116214  0.94069214  1
  O2-  O204  1  0.16672381  0.21472204  0.26417074  1
  O2-  O205  1  0.16497011  0.20643945  0.60749507  1
  O2-  O206  1  0.17336988  0.21011824  0.93224886  1
  O2-  O207  1  0.16595139  0.70504120  0.26756299  1
  O2-  O208  1  0.16844815  0.70362018  0.59664283  1
  O2-  O209  1  0.16226499  0.70535934  0.93866794  1
  O2-  O210  1  0.66576661  0.20715005  0.25903005  1
  O2-  O211  1  0.66836696  0.21034232  0.59776105  1
  O2-  O212  1  0.66300315  0.20533580  0.94208215  1
  O2-  O213  1  0.66011441  0.70872618  0.26835133  1
  O2-  O214  1  0.66917816  0.70795901  0.59902570  1
  O2-  O215  1  0.66589409  0.70374424  0.93937560  1
  O2-  O216  1  0.08842840  0.46094635  0.06565511  1
  O2-  O217  1  0.08559611  0.45433467  0.39428968  1
  O2-  O218  1  0.08462864  0.46236698  0.73776935  1
  O2-  O219  1  0.08117248  0.94667260  0.06336806  1
  O2-  O220  1  0.07908821  0.95316300  0.38951514  1
  O2-  O221  1  0.08261361  0.95614201  0.73802943  1
  O2-  O222  1  0.58751338  0.45680055  0.06934635  1
  O2-  O223  1  0.58535611  0.45297161  0.39485727  1
  O2-  O224  1  0.57906998  0.45773404  0.73431083  1
  O2-  O225  1  0.59056315  0.95936557  0.06215510  1
  O2-  O226  1  0.58356847  0.95951706  0.40154818  1
  O2-  O227  1  0.58530192  0.95498172  0.73180416  1
  O2-  O228  1  0.20734214  0.33933972  0.06523069  1
  O2-  O229  1  0.20484777  0.33663798  0.39529855  1
  O2-  O230  1  0.20962898  0.33475548  0.73912014  1
  O2-  O231  1  0.20623746  0.83265619  0.06763832  1
  O2-  O232  1  0.19903305  0.83455251  0.39412613  1
  O2-  O233  1  0.20502052  0.82764486  0.73191963  1
  O2-  O234  1  0.70585370  0.33600630  0.06690376  1
  O2-  O235  1  0.69926976  0.32890032  0.39101529  1
  O2-  O236  1  0.70746652  0.33149771  0.73585825  1
  O2-  O237  1  0.70741559  0.83632153  0.06278119  1
  O2-  O238  1  0.70891984  0.83363469  0.40055284  1
  O2-  O239  1  0.70279894  0.83538002  0.73304751  1
  O2-  O240  1  0.45742527  0.41627509  0.26832801  1
  O2-  O241  1  0.45111399  0.41970947  0.60062980  1
  O2-  O242  1  0.45995543  0.41463324  0.93819885  1
  O2-  O243  1  0.45995388  0.91064265  0.26995985  1
  O2-  O244  1  0.45851828  0.91934770  0.59616893  1
  O2-  O245  1  0.46546505  0.91443097  0.93278506  1
  O2-  O246  1  0.95743921  0.41687762  0.26966064  1
  O2-  O247  1  0.96196838  0.41621119  0.59982545  1
  O2-  O248  1  0.95853449  0.42029137  0.93409649  1
  O2-  O249  1  0.95616310  0.91396460  0.25923376  1
  O2-  O250  1  0.95979632  0.92171059  0.59997812  1
  O2-  O251  1  0.94905126  0.91359228  0.94157868  1
  O2-  O252  1  0.33405367  0.30107491  0.26901068  1
  O2-  O253  1  0.32675056  0.29378107  0.59937736  1
  O2-  O254  1  0.33728212  0.29918491  0.94441368  1
  O2-  O255  1  0.33475862  0.79419026  0.27031151  1
  O2-  O256  1  0.33002821  0.79537283  0.59577049  1
  O2-  O257  1  0.33299710  0.79146474  0.93384716  1
  O2-  O258  1  0.83392581  0.30294787  0.26991519  1
  O2-  O259  1  0.83374852  0.29057712  0.59833953  1
  O2-  O260  1  0.82855698  0.29509374  0.93505404  1
  O2-  O261  1  0.83114844  0.78437207  0.26408875  1
  O2-  O262  1  0.82895022  0.80019154  0.60304841  1
  O2-  O263  1  0.83586596  0.78897636  0.93791391  1
  O2-  O264  1  0.41735793  0.03395794  0.06971040  1
  O2-  O265  1  0.41446078  0.03820798  0.40031111  1
  O2-  O266  1  0.42278915  0.04343733  0.73280506  1
  O2-  O267  1  0.41414301  0.54513030  0.06128376  1
  O2-  O268  1  0.41855418  0.54358159  0.40019892  1
  O2-  O269  1  0.41656985  0.55011604  0.72846023  1
  O2-  O270  1  0.91635640  0.04644266  0.06042840  1
  O2-  O271  1  0.91760923  0.04684569  0.38818107  1
  O2-  O272  1  0.91580184  0.04116351  0.73689220  1
  O2-  O273  1  0.91246962  0.54350462  0.06557373  1
  O2-  O274  1  0.91953572  0.54559592  0.39839691  1
  O2-  O275  1  0.91945860  0.54340441  0.73573443  1
  O2-  O276  1  0.29479048  0.16810379  0.07028537  1
  O2-  O277  1  0.29211679  0.16979997  0.39736462  1
  O2-  O278  1  0.29336686  0.16797408  0.73627739  1
  O2-  O279  1  0.29189196  0.66319011  0.06099297  1
  O2-  O280  1  0.29246014  0.66934173  0.40049250  1
  O2-  O281  1  0.29461859  0.66595710  0.72823550  1
  O2-  O282  1  0.79283312  0.16270615  0.06482566  1
  O2-  O283  1  0.79951325  0.16802631  0.38722118  1
  O2-  O284  1  0.78794652  0.16619323  0.73497239  1
  O2-  O285  1  0.79048262  0.66198366  0.06640195  1
  O2-  O286  1  0.78562271  0.66358014  0.40005475  1
  O2-  O287  1  0.79219283  0.67144424  0.73644426  1
