# generated using pymatgen
data_Ca2Al2SiO7
_symmetry_space_group_name_H-M   'P 1'
_cell_length_a   15.45564218
_cell_length_b   15.45637122
_cell_length_c   15.28194429
_cell_angle_alpha   89.98861489
_cell_angle_beta   89.99745337
_cell_angle_gamma   90.00113844
_symmetry_Int_Tables_number   1
_chemical_formula_structural   Ca2Al2SiO7
_chemical_formula_sum   'Ca48 Al48 Si24 O168'
_cell_volume   3650.67521733
_cell_formula_units_Z   24
loop_
 _symmetry_equiv_pos_site_id
 _symmetry_equiv_pos_as_xyz
  1  'x, y, z'
loop_
 _atom_type_symbol
 _atom_type_oxidation_number
  Ca2+  2.0
  Al0+  0.0
  Si0+  0.0
  O2-  -2.0
loop_
 _atom_site_type_symbol
 _atom_site_label
 _atom_site_symmetry_multiplicity
 _atom_site_fract_x
 _atom_site_fract_y
 _atom_site_fract_z
 _atom_site_occupancy
  Ca2+  Ca0  1  0.16727818  0.08946957  0.16735211  1
  Ca2+  Ca1  1  0.17190334  0.08599806  0.50733394  1
  Ca2+  Ca2  1  0.17912418  0.08768059  0.83892191  1
  Ca2+  Ca3  1  0.17635763  0.58528213  0.17457501  1
  Ca2+  Ca4  1  0.17195743  0.58150310  0.50281695  1
  Ca2+  Ca5  1  0.17263622  0.57491018  0.83803952  1
  Ca2+  Ca6  1  0.66156015  0.07869644  0.17203480  1
  Ca2+  Ca7  1  0.66629573  0.07714298  0.50760772  1
  Ca2+  Ca8  1  0.66771708  0.09087113  0.83510268  1
  Ca2+  Ca9  1  0.67705842  0.58145167  0.17455880  1
  Ca2+  Ca10  1  0.66893032  0.57379680  0.50696234  1
  Ca2+  Ca11  1  0.66921925  0.58276422  0.83643218  1
  Ca2+  Ca12  1  0.07722891  0.32504665  0.16066768  1
  Ca2+  Ca13  1  0.08522443  0.33005617  0.49475509  1
  Ca2+  Ca14  1  0.08031108  0.33519075  0.83261709  1
  Ca2+  Ca15  1  0.08266167  0.82526328  0.16718402  1
  Ca2+  Ca16  1  0.07473253  0.82762053  0.49453600  1
  Ca2+  Ca17  1  0.07617585  0.82989449  0.82672768  1
  Ca2+  Ca18  1  0.58105431  0.33514240  0.16434909  1
  Ca2+  Ca19  1  0.57826419  0.33741635  0.49834134  1
  Ca2+  Ca20  1  0.57765886  0.32576971  0.82248136  1
  Ca2+  Ca21  1  0.58031464  0.82995781  0.16443971  1
  Ca2+  Ca22  1  0.58108937  0.82844703  0.49576837  1
  Ca2+  Ca23  1  0.58715264  0.81839147  0.82855511  1
  Ca2+  Ca24  1  0.34019704  0.42858429  0.17202086  1
  Ca2+  Ca25  1  0.33168469  0.41393670  0.50405486  1
  Ca2+  Ca26  1  0.33044769  0.41410364  0.83325159  1
  Ca2+  Ca27  1  0.33868421  0.92403303  0.17179476  1
  Ca2+  Ca28  1  0.33525065  0.92171990  0.50385197  1
  Ca2+  Ca29  1  0.33939361  0.92970370  0.83635790  1
  Ca2+  Ca30  1  0.82918469  0.42100388  0.17191972  1
  Ca2+  Ca31  1  0.82218474  0.42462155  0.50624959  1
  Ca2+  Ca32  1  0.82884333  0.42454764  0.83837692  1
  Ca2+  Ca33  1  0.82325122  0.91959276  0.17328410  1
  Ca2+  Ca34  1  0.83071213  0.91995195  0.50595427  1
  Ca2+  Ca35  1  0.83692062  0.92206524  0.83092945  1
  Ca2+  Ca36  1  0.42095450  0.17483594  0.16024619  1
  Ca2+  Ca37  1  0.41604259  0.17816633  0.50010786  1
  Ca2+  Ca38  1  0.42420937  0.16515722  0.82496421  1
  Ca2+  Ca39  1  0.41878708  0.66824731  0.16120982  1
  Ca2+  Ca40  1  0.42242032  0.66709643  0.49189780  1
  Ca2+  Ca41  1  0.42870175  0.65760889  0.83110827  1
  Ca2+  Ca42  1  0.92575079  0.17372209  0.15761191  1
  Ca2+  Ca43  1  0.92122174  0.16530874  0.49515725  1
  Ca2+  Ca44  1  0.91905683  0.17190091  0.82926826  1
  Ca2+  Ca45  1  0.91886121  0.65669865  0.16476931  1
  Ca2+  Ca46  1  0.91685447  0.66205623  0.49808574  1
  Ca2+  Ca47  1  0.90721770  0.67091655  0.82523028  1
  Al0+  Al48  1  0.00070842  -0.00059577  -0.00204486  1
  Al0+  Al49  1  0.00164454  -0.00171306  0.32712306  1
  Al0+  Al50  1  -0.00126244  -0.00186436  0.66606883  1
  Al0+  Al51  1  0.00031529  0.50000194  -0.00015662  1
  Al0+  Al52  1  0.00148106  0.49904950  0.33201056  1
  Al0+  Al53  1  0.00094055  0.49966620  0.67383323  1
  Al0+  Al54  1  0.49877643  0.00047395  0.00136628  1
  Al0+  Al55  1  0.49970092  -0.00024285  0.33550925  1
  Al0+  Al56  1  0.50073884  -0.00151043  0.66788152  1
  Al0+  Al57  1  0.49990616  0.50007575  -0.00042302  1
  Al0+  Al58  1  0.50042908  0.50082596  0.33572630  1
  Al0+  Al59  1  0.49979129  0.49909590  0.66181648  1
  Al0+  Al60  1  0.24920464  0.24939827  0.00268098  1
  Al0+  Al61  1  0.25248116  0.25108150  0.32306013  1
  Al0+  Al62  1  0.25053090  0.24972047  0.67260295  1
  Al0+  Al63  1  0.24871324  0.75203003  0.00083384  1
  Al0+  Al64  1  0.24943159  0.75227886  0.33032636  1
  Al0+  Al65  1  0.24886223  0.74967212  0.66842842  1
  Al0+  Al66  1  0.75039406  0.25086730  -0.00534141  1
  Al0+  Al67  1  0.75078152  0.24949614  0.33652393  1
  Al0+  Al68  1  0.75095546  0.24889634  0.66930563  1
  Al0+  Al69  1  0.74947166  0.74960722  0.00161441  1
  Al0+  Al70  1  0.75042663  0.75251798  0.34095227  1
  Al0+  Al71  1  0.74967232  0.75142850  0.65884116  1
  Al0+  Al72  1  0.82003003  0.57212499  0.01449558  1
  Al0+  Al73  1  0.67816729  0.42735081  0.34865418  1
  Al0+  Al74  1  0.81888269  0.57168471  0.68237648  1
  Al0+  Al75  1  0.82419751  0.57069218  0.34938717  1
  Al0+  Al76  1  0.06948852  0.67824226  0.32028592  1
  Al0+  Al77  1  0.32126108  0.57052215  0.01316793  1
  Al0+  Al78  1  0.42929139  0.82188281  0.31974753  1
  Al0+  Al79  1  0.43097278  0.32271736  0.31759235  1
  Al0+  Al80  1  0.57365755  0.17712319  0.65015125  1
  Al0+  Al81  1  0.07164348  0.17806250  0.32026711  1
  Al0+  Al82  1  0.56997155  0.67864530  0.65088424  1
  Al0+  Al83  1  0.67722403  0.93079338  0.34790369  1
  Al0+  Al84  1  0.17950578  0.42856836  0.67983363  1
  Al0+  Al85  1  0.32014458  0.57374499  0.34694977  1
  Al0+  Al86  1  0.67620083  0.42818167  0.68409502  1
  Al0+  Al87  1  0.57048842  0.67993611  0.98872879  1
  Al0+  Al88  1  0.93003024  0.82082502  0.65174503  1
  Al0+  Al89  1  0.42750136  0.31919015  0.65176827  1
  Al0+  Al90  1  0.07160073  0.17802737  0.98136154  1
  Al0+  Al91  1  0.32049262  0.06896052  0.67891036  1
  Al0+  Al92  1  0.92921838  0.32289429  0.98307356  1
  Al0+  Al93  1  0.56953898  0.17799682  0.98729508  1
  Al0+  Al94  1  0.82202574  0.07067503  0.68020570  1
  Al0+  Al95  1  0.32118424  0.07051081  0.01667832  1
  Si0+  Si96  1  0.07279863  0.67935386  0.98445487  1
  Si0+  Si97  1  0.82426688  0.07042092  0.34719377  1
  Si0+  Si98  1  0.92946903  0.32291980  0.65138006  1
  Si0+  Si99  1  0.92699097  0.32110035  0.31835903  1
  Si0+  Si100  1  0.17560596  0.92834553  0.01894978  1
  Si0+  Si101  1  0.32226448  0.57413546  0.68222688  1
  Si0+  Si102  1  0.17811372  0.92936295  0.34832937  1
  Si0+  Si103  1  0.18066187  0.42715227  0.34724185  1
  Si0+  Si104  1  0.67813401  0.92834762  0.68477139  1
  Si0+  Si105  1  0.31942476  0.07232043  0.34788735  1
  Si0+  Si106  1  0.67836344  0.42666605  0.01607348  1
  Si0+  Si107  1  0.17672761  0.92662304  0.68272328  1
  Si0+  Si108  1  0.07014051  0.18001805  0.65327166  1
  Si0+  Si109  1  0.57273167  0.67913047  0.31684777  1
  Si0+  Si110  1  0.68028779  0.92933790  0.01356129  1
  Si0+  Si111  1  0.07307577  0.67589873  0.65125665  1
  Si0+  Si112  1  0.42658237  0.82226597  0.98300992  1
  Si0+  Si113  1  0.17755701  0.42842145  0.01958045  1
  Si0+  Si114  1  0.42842206  0.32317976  0.98358585  1
  Si0+  Si115  1  0.92677046  0.82190270  0.31463438  1
  Si0+  Si116  1  0.42629198  0.82173212  0.65157022  1
  Si0+  Si117  1  0.82196985  0.07215320  0.01438067  1
  Si0+  Si118  1  0.92815838  0.81939192  0.98608150  1
  Si0+  Si119  1  0.57269827  0.17781767  0.31866068  1
  O2-  O120  1  0.24462450  -0.00312939  0.06323507  1
  O2-  O121  1  0.24681051  0.00260347  0.39029404  1
  O2-  O122  1  0.24791809  -0.00790912  0.72682176  1
  O2-  O123  1  0.24713165  0.49667348  0.06271937  1
  O2-  O124  1  0.24669484  0.49740490  0.39299323  1
  O2-  O125  1  0.25381784  0.50459344  0.72526215  1
  O2-  O126  1  0.74829636  0.00375153  0.05636519  1
  O2-  O127  1  0.75334526  0.00516234  0.39230705  1
  O2-  O128  1  0.74388879  0.00006971  0.72899943  1
  O2-  O129  1  0.74694149  0.49573512  0.06023437  1
  O2-  O130  1  0.74982203  0.50061586  0.39749217  1
  O2-  O131  1  0.74717181  0.50111502  0.73461618  1
  O2-  O132  1  -0.00567151  0.25036446  0.27481196  1
  O2-  O133  1  -0.00035246  0.25028993  0.60902042  1
  O2-  O134  1  0.00045281  0.25034682  0.93145561  1
  O2-  O135  1  -0.00963357  0.74802719  0.27116742  1
  O2-  O136  1  0.00378655  0.74410705  0.60746823  1
  O2-  O137  1  -0.00141701  0.74767876  0.94351764  1
  O2-  O138  1  0.50912911  0.25018483  0.27298561  1
  O2-  O139  1  0.50303052  0.25077832  0.60093647  1
  O2-  O140  1  0.49452846  0.25186681  0.94052060  1
  O2-  O141  1  0.50283131  0.74670694  0.27195369  1
  O2-  O142  1  0.49096137  0.75055833  0.60649796  1
  O2-  O143  1  0.49230559  0.75073290  0.93968991  1
  O2-  O144  1  0.06803224  0.17838595  0.09524537  1
  O2-  O145  1  0.07197944  0.17867793  0.43402361  1
  O2-  O146  1  0.06921032  0.18005151  0.75791348  1
  O2-  O147  1  0.07416615  0.68154876  0.08959260  1
  O2-  O148  1  0.07105186  0.68188927  0.43327883  1
  O2-  O149  1  0.07590448  0.67870974  0.75705359  1
  O2-  O150  1  0.56868110  0.17712479  0.10082028  1
  O2-  O151  1  0.57020727  0.17518621  0.42359539  1
  O2-  O152  1  0.56932182  0.17670969  0.76404109  1
  O2-  O153  1  0.57200466  0.68413765  0.10160956  1
  O2-  O154  1  0.57044622  0.68117401  0.42231344  1
  O2-  O155  1  0.56990658  0.68064799  0.76465248  1
  O2-  O156  1  0.18149215  0.42847140  0.24176318  1
  O2-  O157  1  0.17894666  0.42783294  0.56643893  1
  O2-  O158  1  0.17754843  0.43020075  0.91374989  1
  O2-  O159  1  0.17760663  0.92908919  0.24331072  1
  O2-  O160  1  0.17610358  0.92756145  0.57691734  1
  O2-  O161  1  0.17462945  0.92667737  0.91342115  1
  O2-  O162  1  0.68015506  0.42686027  0.23441872  1
  O2-  O163  1  0.67850923  0.42956097  0.57057825  1
  O2-  O164  1  0.67805680  0.42743327  0.91093023  1
  O2-  O165  1  0.67803327  0.93233853  0.23377737  1
  O2-  O166  1  0.67881544  0.92964679  0.57911717  1
  O2-  O167  1  0.68316818  0.92697116  0.90882902  1
  O2-  O168  1  0.43174953  0.32443683  0.08945544  1
  O2-  O169  1  0.42449647  0.31814947  0.42985573  1
  O2-  O170  1  0.42511844  0.31585045  0.76558427  1
  O2-  O171  1  0.42844474  0.82334560  0.08874071  1
  O2-  O172  1  0.42989491  0.82262853  0.43283084  1
  O2-  O173  1  0.42733678  0.82235694  0.75726720  1
  O2-  O174  1  0.92967514  0.32006193  0.09730825  1
  O2-  O175  1  0.92828571  0.31998386  0.42410782  1
  O2-  O176  1  0.93182877  0.32260775  0.75620837  1
  O2-  O177  1  0.92820086  0.82043342  0.09107932  1
  O2-  O178  1  0.93175720  0.82807344  0.41961250  1
  O2-  O179  1  0.93253819  0.82168499  0.76565726  1
  O2-  O180  1  0.31954249  0.07010948  0.24278786  1
  O2-  O181  1  0.31648526  0.06920050  0.56533258  1
  O2-  O182  1  0.32215773  0.06726621  0.90361132  1
  O2-  O183  1  0.31894280  0.57361651  0.23356712  1
  O2-  O184  1  0.31866386  0.57867175  0.57681597  1
  O2-  O185  1  0.31935177  0.56874377  0.89998668  1
  O2-  O186  1  0.82421955  0.06841911  0.24113691  1
  O2-  O187  1  0.82678372  0.06636796  0.56704549  1
  O2-  O188  1  0.82355102  0.06920572  0.90952608  1
  O2-  O189  1  0.82285970  0.56817727  0.23523337  1
  O2-  O190  1  0.82052383  0.56851559  0.56914397  1
  O2-  O191  1  0.81676293  0.57633989  0.90204540  1
  O2-  O192  1  0.04410516  0.08130522  0.26401749  1
  O2-  O193  1  0.04322885  0.08753402  0.60632536  1
  O2-  O194  1  0.04408786  0.07830761  0.93051757  1
  O2-  O195  1  0.04505433  0.58044502  0.26463891  1
  O2-  O196  1  0.04804014  0.58191917  0.60650032  1
  O2-  O197  1  0.04959276  0.58620028  0.93908896  1
  O2-  O198  1  0.54171681  0.08605138  0.27134768  1
  O2-  O199  1  0.54367724  0.07757096  0.59983413  1
  O2-  O200  1  0.53967920  0.08089409  0.93342531  1
  O2-  O201  1  0.54877819  0.58533181  0.27169698  1
  O2-  O202  1  0.54095505  0.58269836  0.59594403  1
  O2-  O203  1  0.54137495  0.58315110  0.93406406  1
  O2-  O204  1  0.16558797  0.21043938  0.26255925  1
  O2-  O205  1  0.16185687  0.20867383  0.60687821  1
  O2-  O206  1  0.17167753  0.20618089  0.93213107  1
  O2-  O207  1  0.16300289  0.71605867  0.26404385  1
  O2-  O208  1  0.16641652  0.70290150  0.60426963  1
  O2-  O209  1  0.16259222  0.71102566  0.93464314  1
  O2-  O210  1  0.66927969  0.19636759  0.27453104  1
  O2-  O211  1  0.67494393  0.19928961  0.60037713  1
  O2-  O212  1  0.66688530  0.20508868  0.93396209  1
  O2-  O213  1  0.66707429  0.70805932  0.27369367  1
  O2-  O214  1  0.66350322  0.71389356  0.59483102  1
  O2-  O215  1  0.66508702  0.71601857  0.93345652  1
  O2-  O216  1  0.08441102  0.45536587  0.06546755  1
  O2-  O217  1  0.08599017  0.44878477  0.39253551  1
  O2-  O218  1  0.08540695  0.45967644  0.73864430  1
  O2-  O219  1  0.08196001  0.95391155  0.06616853  1
  O2-  O220  1  0.08516873  0.95553473  0.39497875  1
  O2-  O221  1  0.08467024  0.95458086  0.72991264  1
  O2-  O222  1  0.58445427  0.45218893  0.06132100  1
  O2-  O223  1  0.58031634  0.45586851  0.40157026  1
  O2-  O224  1  0.57598750  0.45510718  0.73408025  1
  O2-  O225  1  0.58772272  0.95475142  0.06071408  1
  O2-  O226  1  0.58194322  0.96210409  0.40402316  1
  O2-  O227  1  0.58353927  0.94808249  0.73113469  1
  O2-  O228  1  0.20034644  0.33381138  0.06434409  1
  O2-  O229  1  0.20948861  0.33357209  0.39203200  1
  O2-  O230  1  0.21057617  0.33422096  0.73789556  1
  O2-  O231  1  0.20095370  0.83461264  0.06530247  1
  O2-  O232  1  0.20761509  0.83935198  0.39729322  1
  O2-  O233  1  0.19820778  0.83201365  0.72975066  1
  O2-  O234  1  0.70486562  0.33291903  0.06237707  1
  O2-  O235  1  0.70522946  0.32822426  0.40188164  1
  O2-  O236  1  0.70491224  0.32920950  0.73470604  1
  O2-  O237  1  0.71228780  0.84050852  0.06441729  1
  O2-  O238  1  0.70678461  0.83573091  0.40425803  1
  O2-  O239  1  0.70948793  0.83604582  0.72946796  1
  O2-  O240  1  0.46044942  0.42036523  0.26433070  1
  O2-  O241  1  0.44938360  0.41900985  0.59935419  1
  O2-  O242  1  0.45442828  0.41552524  0.93572495  1
  O2-  O243  1  0.46221428  0.91828699  0.26506837  1
  O2-  O244  1  0.45430772  0.91394002  0.60427513  1
  O2-  O245  1  0.45666118  0.91433995  0.93700003  1
  O2-  O246  1  0.95489488  0.41307994  0.27071962  1
  O2-  O247  1  0.96061314  0.41414648  0.60500132  1
  O2-  O248  1  0.95934029  0.42117785  0.93009831  1
  O2-  O249  1  0.95819687  0.91222930  0.26395358  1
  O2-  O250  1  0.96444267  0.91572467  0.59546098  1
  O2-  O251  1  0.95694148  0.91080375  0.93795960  1
  O2-  O252  1  0.33752675  0.28944645  0.25865992  1
  O2-  O253  1  0.32963030  0.28538467  0.59902622  1
  O2-  O254  1  0.33248454  0.30036751  0.94237495  1
  O2-  O255  1  0.33228601  0.79551885  0.26462204  1
  O2-  O256  1  0.33005646  0.80148843  0.60732626  1
  O2-  O257  1  0.33103996  0.80224753  0.93841558  1
  O2-  O258  1  0.83350983  0.29610948  0.27114057  1
  O2-  O259  1  0.83801756  0.29471683  0.60471173  1
  O2-  O260  1  0.83140845  0.29486755  0.92971872  1
  O2-  O261  1  0.83030693  0.80254033  0.27210828  1
  O2-  O262  1  0.83412984  0.79486710  0.59561369  1
  O2-  O263  1  0.83700305  0.79210145  0.93781396  1
  O2-  O264  1  0.41677861  0.03690620  0.07206078  1
  O2-  O265  1  0.40999345  0.04243480  0.39551138  1
  O2-  O266  1  0.41667703  0.03745095  0.73393490  1
  O2-  O267  1  0.41813310  0.54074682  0.06793023  1
  O2-  O268  1  0.41703265  0.54528169  0.39958244  1
  O2-  O269  1  0.41567988  0.54752990  0.72632914  1
  O2-  O270  1  0.91280008  0.04055402  0.06217991  1
  O2-  O271  1  0.91751674  0.04096750  0.39243380  1
  O2-  O272  1  0.91665127  0.03411437  0.73607287  1
  O2-  O273  1  0.91892682  0.54377015  0.06539352  1
  O2-  O274  1  0.92319734  0.54156342  0.40123532  1
  O2-  O275  1  0.91837298  0.54604882  0.73507106  1
  O2-  O276  1  0.29212006  0.16800116  0.07020247  1
  O2-  O277  1  0.29042522  0.16484555  0.39234417  1
  O2-  O278  1  0.28694135  0.16238860  0.73601539  1
  O2-  O279  1  0.29114177  0.66908582  0.06442886  1
  O2-  O280  1  0.28714539  0.67006026  0.40016679  1
  O2-  O281  1  0.29667205  0.66709046  0.73119539  1
  O2-  O282  1  0.79689605  0.16512253  0.06034154  1
  O2-  O283  1  0.80484997  0.16514017  0.39275964  1
  O2-  O284  1  0.79737306  0.16761547  0.73555581  1
  O2-  O285  1  0.78887129  0.66830311  0.07033025  1
  O2-  O286  1  0.80234103  0.67179497  0.39874734  1
  O2-  O287  1  0.79104058  0.67289912  0.72995260  1
