# generated using pymatgen
data_Ca2Al2SiO7
_symmetry_space_group_name_H-M   'P 1'
_cell_length_a   15.45482387
_cell_length_b   15.45572852
_cell_length_c   15.28149380
_cell_angle_alpha   89.98531332
_cell_angle_beta   89.99744236
_cell_angle_gamma   89.99425310
_symmetry_Int_Tables_number   1
_chemical_formula_structural   Ca2Al2SiO7
_chemical_formula_sum   'Ca48 Al48 Si24 O168'
_cell_volume   3650.22246364
_cell_formula_units_Z   24
loop_
 _symmetry_equiv_pos_site_id
 _symmetry_equiv_pos_as_xyz
  1  'x, y, z'
loop_
 _atom_type_symbol
 _atom_type_oxidation_number
  Ca2+  2.0
  Al0+  0.0
  Si0+  0.0
  O2-  -2.0
loop_
 _atom_site_type_symbol
 _atom_site_label
 _atom_site_symmetry_multiplicity
 _atom_site_fract_x
 _atom_site_fract_y
 _atom_site_fract_z
 _atom_site_occupancy
  Ca2+  Ca0  1  0.17028429  0.08890958  0.16581390  1
  Ca2+  Ca1  1  0.16716437  0.08268849  0.50633253  1
  Ca2+  Ca2  1  0.16767263  0.08492766  0.84036598  1
  Ca2+  Ca3  1  0.17629551  0.58336933  0.17499199  1
  Ca2+  Ca4  1  0.17278262  0.57321579  0.51171116  1
  Ca2+  Ca5  1  0.17363526  0.59066083  0.83671921  1
  Ca2+  Ca6  1  0.67928298  0.08542141  0.17456311  1
  Ca2+  Ca7  1  0.67387671  0.08305139  0.50977858  1
  Ca2+  Ca8  1  0.67437705  0.07939372  0.83468176  1
  Ca2+  Ca9  1  0.65616856  0.57956426  0.16872302  1
  Ca2+  Ca10  1  0.66911498  0.58633414  0.50473697  1
  Ca2+  Ca11  1  0.67152054  0.58269481  0.83957681  1
  Ca2+  Ca12  1  0.08388279  0.33168617  0.16253815  1
  Ca2+  Ca13  1  0.08977379  0.33344153  0.50090437  1
  Ca2+  Ca14  1  0.08935026  0.32221595  0.82696625  1
  Ca2+  Ca15  1  0.07846468  0.82994867  0.16273748  1
  Ca2+  Ca16  1  0.07066734  0.82771319  0.50064560  1
  Ca2+  Ca17  1  0.07875873  0.82251492  0.82532194  1
  Ca2+  Ca18  1  0.57843274  0.33364098  0.16471647  1
  Ca2+  Ca19  1  0.58124896  0.32254835  0.49234661  1
  Ca2+  Ca20  1  0.58512349  0.32867249  0.82910322  1
  Ca2+  Ca21  1  0.58318796  0.81878749  0.16295088  1
  Ca2+  Ca22  1  0.58070642  0.83147080  0.49922757  1
  Ca2+  Ca23  1  0.57774400  0.83403158  0.82642755  1
  Ca2+  Ca24  1  0.32920741  0.42496639  0.17622951  1
  Ca2+  Ca25  1  0.32971032  0.42325567  0.50238112  1
  Ca2+  Ca26  1  0.32857676  0.42803448  0.83481159  1
  Ca2+  Ca27  1  0.33273253  0.92303252  0.16609864  1
  Ca2+  Ca28  1  0.33424715  0.91444957  0.50735078  1
  Ca2+  Ca29  1  0.33531668  0.92155185  0.83672955  1
  Ca2+  Ca30  1  0.82536484  0.41641368  0.16704654  1
  Ca2+  Ca31  1  0.83190328  0.42534637  0.50744853  1
  Ca2+  Ca32  1  0.82780477  0.42076155  0.83388959  1
  Ca2+  Ca33  1  0.83922226  0.92620059  0.17243924  1
  Ca2+  Ca34  1  0.82958769  0.92041863  0.50871428  1
  Ca2+  Ca35  1  0.83570523  0.92261742  0.83091077  1
  Ca2+  Ca36  1  0.41711207  0.17321680  0.16371267  1
  Ca2+  Ca37  1  0.43119588  0.17148697  0.49326108  1
  Ca2+  Ca38  1  0.42160629  0.16673485  0.82403933  1
  Ca2+  Ca39  1  0.42227821  0.65612062  0.16311563  1
  Ca2+  Ca40  1  0.41667595  0.66560224  0.49778087  1
  Ca2+  Ca41  1  0.41847906  0.66611444  0.82842420  1
  Ca2+  Ca42  1  0.91895502  0.16411089  0.16011981  1
  Ca2+  Ca43  1  0.91891841  0.15985817  0.49925666  1
  Ca2+  Ca44  1  0.92265629  0.16111982  0.82777231  1
  Ca2+  Ca45  1  0.92306153  0.67469858  0.15978510  1
  Ca2+  Ca46  1  0.91131731  0.67641357  0.49774073  1
  Ca2+  Ca47  1  0.92675489  0.66649827  0.82158424  1
  Al0+  Al48  1  0.00001863  0.00057436  0.00030214  1
  Al0+  Al49  1  0.00025005  0.00015307  0.33292864  1
  Al0+  Al50  1  0.00097057  -0.00072510  0.66253981  1
  Al0+  Al51  1  -0.00173214  0.49960674  -0.00422440  1
  Al0+  Al52  1  0.00027636  0.49884737  0.33532836  1
  Al0+  Al53  1  0.00045487  0.49543740  0.67171794  1
  Al0+  Al54  1  0.50066473  0.00021269  0.00715874  1
  Al0+  Al55  1  0.50203823  -0.00159563  0.32759948  1
  Al0+  Al56  1  0.50147230  -0.00092519  0.66128126  1
  Al0+  Al57  1  0.49939795  0.49926373  0.00103402  1
  Al0+  Al58  1  0.49915415  0.49868083  0.33267921  1
  Al0+  Al59  1  0.49749651  0.49928925  0.66996390  1
  Al0+  Al60  1  0.25040229  0.25111835  -0.00022464  1
  Al0+  Al61  1  0.25099673  0.24959048  0.33380089  1
  Al0+  Al62  1  0.25058506  0.25103718  0.66465662  1
  Al0+  Al63  1  0.24978990  0.75206650  0.00276981  1
  Al0+  Al64  1  0.25012333  0.75170365  0.33721385  1
  Al0+  Al65  1  0.25047228  0.75022712  0.66217478  1
  Al0+  Al66  1  0.74905177  0.25069068  0.00787748  1
  Al0+  Al67  1  0.75318515  0.24986437  0.33440146  1
  Al0+  Al68  1  0.75234529  0.24923478  0.66644461  1
  Al0+  Al69  1  0.74916900  0.75057683  -0.00436867  1
  Al0+  Al70  1  0.74947223  0.75231968  0.32226740  1
  Al0+  Al71  1  0.74882849  0.75030551  0.67326922  1
  Al0+  Al72  1  0.56892736  0.68034265  0.32103080  1
  Al0+  Al73  1  0.32017777  0.57311899  0.68407600  1
  Al0+  Al74  1  0.31876031  0.57206165  0.01463049  1
  Al0+  Al75  1  0.57468695  0.17780937  0.31570217  1
  Al0+  Al76  1  0.07013638  0.18135198  0.98724221  1
  Al0+  Al77  1  0.42936742  0.31903298  0.31738762  1
  Al0+  Al78  1  0.82135095  0.07069659  0.34909689  1
  Al0+  Al79  1  0.32265528  0.57193810  0.35063529  1
  Al0+  Al80  1  0.92727879  0.81923653  0.65221996  1
  Al0+  Al81  1  0.82283462  0.07097195  0.68248160  1
  Al0+  Al82  1  0.42947046  0.82078512  0.65431635  1
  Al0+  Al83  1  0.67956312  0.43082366  0.01419532  1
  Al0+  Al84  1  0.32221927  0.07329941  0.01288819  1
  Al0+  Al85  1  0.57251092  0.17959648  0.65510311  1
  Al0+  Al86  1  0.82037536  0.06851719  0.01469948  1
  Al0+  Al87  1  0.82008796  0.57183983  0.67893555  1
  Al0+  Al88  1  0.67669157  0.92885663  0.68178402  1
  Al0+  Al89  1  0.07165179  0.67508341  0.65056694  1
  Al0+  Al90  1  0.07171346  0.17885945  0.65207443  1
  Al0+  Al91  1  0.17888720  0.42661874  0.68486200  1
  Al0+  Al92  1  0.56904085  0.67746046  0.98401648  1
  Al0+  Al93  1  0.17745656  0.42779319  0.34905250  1
  Al0+  Al94  1  0.92977987  0.82136935  0.31804757  1
  Al0+  Al95  1  0.07149379  0.67921703  0.98776096  1
  Si0+  Si96  1  0.67965148  0.42952810  0.34857122  1
  Si0+  Si97  1  0.07041451  0.17924277  0.31845991  1
  Si0+  Si98  1  0.67879457  0.92641621  0.34840105  1
  Si0+  Si99  1  0.07140595  0.67736714  0.31831993  1
  Si0+  Si100  1  0.82024999  0.57269852  0.34428448  1
  Si0+  Si101  1  0.92912645  0.32392015  0.31797896  1
  Si0+  Si102  1  0.92837905  0.82304643  0.98202403  1
  Si0+  Si103  1  0.17678496  0.42802609  0.01600673  1
  Si0+  Si104  1  0.42893323  0.82417975  0.98470081  1
  Si0+  Si105  1  0.17905455  0.92954954  0.68020605  1
  Si0+  Si106  1  0.82307923  0.57362887  0.01709682  1
  Si0+  Si107  1  0.57169680  0.17882374  0.98609125  1
  Si0+  Si108  1  0.92436436  0.32149040  0.98291158  1
  Si0+  Si109  1  0.32267848  0.07015499  0.34865009  1
  Si0+  Si110  1  0.42391491  0.82318251  0.31418927  1
  Si0+  Si111  1  0.92735850  0.32074508  0.64922377  1
  Si0+  Si112  1  0.42924379  0.32017563  0.98338828  1
  Si0+  Si113  1  0.17900124  0.93039759  0.34947960  1
  Si0+  Si114  1  0.42862332  0.32255140  0.65000368  1
  Si0+  Si115  1  0.67721061  0.42732754  0.68084083  1
  Si0+  Si116  1  0.67660160  0.92619895  0.01972174  1
  Si0+  Si117  1  0.32120131  0.07017952  0.67786023  1
  Si0+  Si118  1  0.17822604  0.92980399  0.01674650  1
  Si0+  Si119  1  0.57126677  0.67590808  0.65257812  1
  O2-  O120  1  0.24632957  -0.00009788  0.06052479  1
  O2-  O121  1  0.25413015  -0.00253940  0.39175685  1
  O2-  O122  1  0.24946735  0.00138748  0.72238868  1
  O2-  O123  1  0.23984939  0.50116099  0.06067476  1
  O2-  O124  1  0.24734212  0.50210687  0.39813431  1
  O2-  O125  1  0.24516288  0.50408928  0.73432551  1
  O2-  O126  1  0.74732983  -0.00686618  0.06325746  1
  O2-  O127  1  0.74246648  -0.00064318  0.39297586  1
  O2-  O128  1  0.75022385  -0.00054939  0.73193208  1
  O2-  O129  1  0.75222460  0.50767791  0.06245824  1
  O2-  O130  1  0.74927092  0.50265720  0.38892105  1
  O2-  O131  1  0.74265051  0.49904728  0.72487178  1
  O2-  O132  1  0.00117634  0.25266063  0.27753377  1
  O2-  O133  1  -0.00350080  0.25243815  0.60472822  1
  O2-  O134  1  -0.00448835  0.25511188  0.93942177  1
  O2-  O135  1  0.00363093  0.74559441  0.27170753  1
  O2-  O136  1  -0.00503988  0.74302571  0.60134353  1
  O2-  O137  1  -0.00719893  0.74943615  0.94028186  1
  O2-  O138  1  0.50101376  0.24761113  0.26466233  1
  O2-  O139  1  0.50067600  0.25646742  0.60757514  1
  O2-  O140  1  0.49848269  0.24653675  0.94188868  1
  O2-  O141  1  0.49055859  0.75130053  0.27263701  1
  O2-  O142  1  0.50230210  0.74392815  0.60835429  1
  O2-  O143  1  0.49555766  0.75426701  0.93962333  1
  O2-  O144  1  0.06981048  0.18323831  0.10095381  1
  O2-  O145  1  0.06985922  0.17713591  0.42337571  1
  O2-  O146  1  0.07289796  0.17847272  0.76522412  1
  O2-  O147  1  0.07035904  0.68233792  0.10144323  1
  O2-  O148  1  0.06841868  0.67816239  0.42330610  1
  O2-  O149  1  0.07225689  0.68116483  0.76453661  1
  O2-  O150  1  0.57120551  0.18172006  0.09096726  1
  O2-  O151  1  0.57387085  0.17985688  0.42945071  1
  O2-  O152  1  0.56942897  0.18056615  0.76897670  1
  O2-  O153  1  0.56665713  0.67756200  0.09737405  1
  O2-  O154  1  0.57281816  0.68305760  0.43401923  1
  O2-  O155  1  0.56969539  0.67494046  0.75812831  1
  O2-  O156  1  0.17594751  0.42894269  0.23489540  1
  O2-  O157  1  0.18415955  0.42450852  0.57146788  1
  O2-  O158  1  0.18102813  0.42459611  0.91105166  1
  O2-  O159  1  0.17850133  0.93206001  0.24409117  1
  O2-  O160  1  0.18009494  0.93181560  0.57470214  1
  O2-  O161  1  0.17855125  0.92988305  0.91124239  1
  O2-  O162  1  0.68058288  0.42962371  0.24328773  1
  O2-  O163  1  0.67848994  0.42735225  0.57498015  1
  O2-  O164  1  0.68183924  0.42919903  0.90100421  1
  O2-  O165  1  0.68206949  0.92531982  0.24269326  1
  O2-  O166  1  0.67545594  0.93018155  0.56792771  1
  O2-  O167  1  0.67281385  0.92909244  0.91449067  1
  O2-  O168  1  0.42929745  0.31942750  0.08839898  1
  O2-  O169  1  0.43244310  0.31650594  0.43096279  1
  O2-  O170  1  0.42866272  0.32064144  0.75613870  1
  O2-  O171  1  0.43030712  0.82572818  0.09029756  1
  O2-  O172  1  0.42469807  0.82649236  0.41955409  1
  O2-  O173  1  0.43020079  0.82416669  0.76742444  1
  O2-  O174  1  0.92456758  0.32128262  0.08907938  1
  O2-  O175  1  0.92626520  0.32654325  0.42253154  1
  O2-  O176  1  0.92386232  0.31908574  0.75471036  1
  O2-  O177  1  0.93115945  0.82391909  0.08815326  1
  O2-  O178  1  0.92847514  0.82005582  0.43056481  1
  O2-  O179  1  0.93230946  0.82033480  0.76583935  1
  O2-  O180  1  0.31917585  0.07066696  0.24330771  1
  O2-  O181  1  0.32001189  0.06839919  0.57250335  1
  O2-  O182  1  0.32340752  0.07143177  0.89953982  1
  O2-  O183  1  0.32069353  0.57020510  0.23647814  1
  O2-  O184  1  0.32327240  0.57044005  0.57094644  1
  O2-  O185  1  0.31959600  0.57157858  0.90200851  1
  O2-  O186  1  0.82385936  0.06923947  0.23552752  1
  O2-  O187  1  0.82134787  0.06993750  0.56889097  1
  O2-  O188  1  0.82053351  0.06833584  0.90218438  1
  O2-  O189  1  0.82115465  0.56943859  0.23916630  1
  O2-  O190  1  0.81658359  0.57139666  0.56484064  1
  O2-  O191  1  0.82293420  0.57102712  0.91171510  1
  O2-  O192  1  0.04093113  0.08884319  0.26942410  1
  O2-  O193  1  0.04314832  0.08266801  0.59624588  1
  O2-  O194  1  0.04191671  0.08325468  0.93505542  1
  O2-  O195  1  0.04594734  0.58360753  0.27204637  1
  O2-  O196  1  0.04832085  0.57316390  0.60417353  1
  O2-  O197  1  0.04512527  0.58132893  0.93399631  1
  O2-  O198  1  0.54948884  0.07803595  0.26386344  1
  O2-  O199  1  0.53880888  0.08597584  0.59816503  1
  O2-  O200  1  0.54592403  0.08494675  0.94234860  1
  O2-  O201  1  0.54141910  0.58244564  0.26771457  1
  O2-  O202  1  0.54689932  0.58163498  0.60639387  1
  O2-  O203  1  0.53841227  0.58071264  0.93084332  1
  O2-  O204  1  0.16322579  0.20446890  0.27169715  1
  O2-  O205  1  0.16852854  0.20942540  0.59729362  1
  O2-  O206  1  0.16768197  0.21043219  0.93340527  1
  O2-  O207  1  0.16552851  0.70559895  0.27414495  1
  O2-  O208  1  0.16754481  0.70877149  0.59674381  1
  O2-  O209  1  0.16707121  0.71472835  0.93459028  1
  O2-  O210  1  0.67332485  0.20972117  0.26493898  1
  O2-  O211  1  0.66920025  0.20895056  0.60082457  1
  O2-  O212  1  0.66290241  0.21050483  0.94020852  1
  O2-  O213  1  0.66278345  0.71196138  0.26086304  1
  O2-  O214  1  0.66500213  0.70191981  0.60795384  1
  O2-  O215  1  0.66760004  0.70517117  0.93199609  1
  O2-  O216  1  0.07942232  0.44654788  0.05779584  1
  O2-  O217  1  0.07756716  0.45248089  0.40205515  1
  O2-  O218  1  0.07753222  0.44255613  0.73575653  1
  O2-  O219  1  0.08552186  0.95603506  0.06449376  1
  O2-  O220  1  0.08964503  0.96375715  0.39754611  1
  O2-  O221  1  0.08828619  0.95748265  0.72840777  1
  O2-  O222  1  0.58319119  0.46068598  0.06899984  1
  O2-  O223  1  0.58803418  0.45531875  0.39598871  1
  O2-  O224  1  0.58276791  0.44765770  0.72719900  1
  O2-  O225  1  0.58442827  0.95192237  0.06871335  1
  O2-  O226  1  0.58187173  0.94559473  0.39077012  1
  O2-  O227  1  0.57906929  0.96134651  0.73531657  1
  O2-  O228  1  0.20720041  0.33647691  0.06405237  1
  O2-  O229  1  0.20681448  0.32861773  0.40050202  1
  O2-  O230  1  0.21424208  0.32925850  0.73780781  1
  O2-  O231  1  0.20570337  0.83854197  0.06687530  1
  O2-  O232  1  0.20230361  0.83803510  0.39753653  1
  O2-  O233  1  0.20809015  0.83853243  0.72738658  1
  O2-  O234  1  0.71165326  0.33657663  0.07270561  1
  O2-  O235  1  0.71116340  0.33915426  0.39616791  1
  O2-  O236  1  0.70726850  0.33576649  0.72867372  1
  O2-  O237  1  0.70154203  0.83085350  0.06312494  1
  O2-  O238  1  0.70926620  0.83388209  0.39378445  1
  O2-  O239  1  0.70097075  0.83084748  0.73709383  1
  O2-  O240  1  0.45858907  0.41705195  0.26445930  1
  O2-  O241  1  0.45208141  0.41682882  0.60467912  1
  O2-  O242  1  0.46082299  0.41015366  0.93551620  1
  O2-  O243  1  0.45140290  0.91553049  0.26585921  1
  O2-  O244  1  0.46115588  0.91505954  0.59543968  1
  O2-  O245  1  0.45661806  0.91815258  0.93917168  1
  O2-  O246  1  0.95582554  0.41503835  0.26737107  1
  O2-  O247  1  0.95246678  0.41424337  0.60281964  1
  O2-  O248  1  0.94518567  0.41620907  0.93724364  1
  O2-  O249  1  0.96634661  0.91651553  0.26359459  1
  O2-  O250  1  0.96105831  0.91522007  0.59760530  1
  O2-  O251  1  0.95949022  0.91459316  0.93585391  1
  O2-  O252  1  0.33094335  0.28902336  0.26386034  1
  O2-  O253  1  0.33761059  0.29273797  0.60239677  1
  O2-  O254  1  0.33760202  0.29314847  0.93585532  1
  O2-  O255  1  0.32859650  0.80220906  0.26899209  1
  O2-  O256  1  0.33348144  0.79417701  0.59736193  1
  O2-  O257  1  0.33345281  0.80285778  0.94141051  1
  O2-  O258  1  0.83852761  0.29468327  0.26882168  1
  O2-  O259  1  0.83456459  0.29614735  0.60029871  1
  O2-  O260  1  0.83117196  0.29288601  0.93818393  1
  O2-  O261  1  0.83543710  0.79213425  0.25925782  1
  O2-  O262  1  0.82660069  0.79367748  0.60198639  1
  O2-  O263  1  0.83258962  0.80406435  0.93868280  1
  O2-  O264  1  0.41685729  0.04220077  0.07115057  1
  O2-  O265  1  0.41656186  0.04377631  0.39264918  1
  O2-  O266  1  0.41215930  0.04052240  0.72512453  1
  O2-  O267  1  0.41396379  0.53550774  0.06714485  1
  O2-  O268  1  0.42062504  0.54050252  0.40286354  1
  O2-  O269  1  0.41819949  0.54143445  0.73793646  1
  O2-  O270  1  0.91780769  0.03865484  0.06901966  1
  O2-  O271  1  0.91806824  0.03743267  0.40101500  1
  O2-  O272  1  0.92204785  0.04068023  0.73326440  1
  O2-  O273  1  0.91608741  0.54539508  0.06401530  1
  O2-  O274  1  0.91116809  0.54477692  0.39282593  1
  O2-  O275  1  0.91462941  0.53775359  0.73448013  1
  O2-  O276  1  0.28961853  0.16887160  0.06847040  1
  O2-  O277  1  0.29311574  0.16066913  0.39652867  1
  O2-  O278  1  0.29597582  0.16243638  0.72489685  1
  O2-  O279  1  0.29301908  0.67030750  0.06866593  1
  O2-  O280  1  0.29974068  0.67342162  0.39983402  1
  O2-  O281  1  0.29442073  0.67367254  0.73420828  1
  O2-  O282  1  0.78960408  0.16472232  0.06986272  1
  O2-  O283  1  0.79626001  0.16956428  0.40144827  1
  O2-  O284  1  0.79572087  0.17019106  0.73462916  1
  O2-  O285  1  0.80061341  0.66950466  0.05995336  1
  O2-  O286  1  0.79088072  0.66538727  0.38833297  1
  O2-  O287  1  0.79252270  0.66648520  0.73728394  1
