# generated using pymatgen
data_Ca2Al2SiO7
_symmetry_space_group_name_H-M   'P 1'
_cell_length_a   15.47040493
_cell_length_b   15.47316597
_cell_length_c   15.29444846
_cell_angle_alpha   90.00061366
_cell_angle_beta   90.00169135
_cell_angle_gamma   90.01846559
_symmetry_Int_Tables_number   1
_chemical_formula_structural   Ca2Al2SiO7
_chemical_formula_sum   'Ca48 Al48 Si24 O168'
_cell_volume   3661.12589127
_cell_formula_units_Z   24
loop_
 _symmetry_equiv_pos_site_id
 _symmetry_equiv_pos_as_xyz
  1  'x, y, z'
loop_
 _atom_type_symbol
 _atom_type_oxidation_number
  Ca2+  2.0
  Al0+  0.0
  Si0+  0.0
  O2-  -2.0
loop_
 _atom_site_type_symbol
 _atom_site_label
 _atom_site_symmetry_multiplicity
 _atom_site_fract_x
 _atom_site_fract_y
 _atom_site_fract_z
 _atom_site_occupancy
  Ca2+  Ca0  1  0.17294739  0.08968274  0.16883506  1
  Ca2+  Ca1  1  0.17016932  0.08506756  0.49755818  1
  Ca2+  Ca2  1  0.17436362  0.07554882  0.84557476  1
  Ca2+  Ca3  1  0.16714553  0.58418941  0.16004866  1
  Ca2+  Ca4  1  0.16757432  0.57516095  0.50759972  1
  Ca2+  Ca5  1  0.16744359  0.57584674  0.84875728  1
  Ca2+  Ca6  1  0.67456771  0.07616061  0.16715224  1
  Ca2+  Ca7  1  0.67711116  0.06838411  0.50540071  1
  Ca2+  Ca8  1  0.66994981  0.07490260  0.84364532  1
  Ca2+  Ca9  1  0.66929640  0.58620831  0.16941542  1
  Ca2+  Ca10  1  0.66122536  0.59021796  0.50259989  1
  Ca2+  Ca11  1  0.67060393  0.58662228  0.83952395  1
  Ca2+  Ca12  1  0.08034224  0.32180182  0.15590014  1
  Ca2+  Ca13  1  0.08252334  0.32729978  0.49447787  1
  Ca2+  Ca14  1  0.08370243  0.33313606  0.83686224  1
  Ca2+  Ca15  1  0.07801345  0.83412449  0.15767740  1
  Ca2+  Ca16  1  0.07332846  0.83643084  0.49211073  1
  Ca2+  Ca17  1  0.09128985  0.82692234  0.83571272  1
  Ca2+  Ca18  1  0.58013306  0.32305788  0.15731015  1
  Ca2+  Ca19  1  0.58101999  0.32993790  0.49547619  1
  Ca2+  Ca20  1  0.58579346  0.32420601  0.83536496  1
  Ca2+  Ca21  1  0.57473866  0.84555656  0.16372768  1
  Ca2+  Ca22  1  0.58265263  0.83216647  0.49474919  1
  Ca2+  Ca23  1  0.57495156  0.83750937  0.82929627  1
  Ca2+  Ca24  1  0.32960862  0.42128652  0.16583615  1
  Ca2+  Ca25  1  0.32547605  0.41905924  0.50825793  1
  Ca2+  Ca26  1  0.32221472  0.42599402  0.84326221  1
  Ca2+  Ca27  1  0.33057376  0.91972097  0.16465947  1
  Ca2+  Ca28  1  0.34357118  0.91875196  0.49719092  1
  Ca2+  Ca29  1  0.33316592  0.91460482  0.84576378  1
  Ca2+  Ca30  1  0.84226044  0.42046891  0.16051651  1
  Ca2+  Ca31  1  0.83114515  0.42101532  0.50271356  1
  Ca2+  Ca32  1  0.83559371  0.42145824  0.84434828  1
  Ca2+  Ca33  1  0.82457926  0.92053969  0.17488174  1
  Ca2+  Ca34  1  0.82750849  0.91943879  0.50305035  1
  Ca2+  Ca35  1  0.81914087  0.92460386  0.84047381  1
  Ca2+  Ca36  1  0.42100122  0.15499515  0.15823976  1
  Ca2+  Ca37  1  0.41580299  0.16650141  0.49277061  1
  Ca2+  Ca38  1  0.42281128  0.15702256  0.83718199  1
  Ca2+  Ca39  1  0.42020735  0.67722039  0.15996870  1
  Ca2+  Ca40  1  0.42787382  0.68078709  0.49316385  1
  Ca2+  Ca41  1  0.41563925  0.67878600  0.82936720  1
  Ca2+  Ca42  1  0.92221302  0.16543769  0.15595772  1
  Ca2+  Ca43  1  0.92093008  0.15785909  0.49252816  1
  Ca2+  Ca44  1  0.91709491  0.16170521  0.83569900  1
  Ca2+  Ca45  1  0.91819276  0.67382694  0.15960943  1
  Ca2+  Ca46  1  0.91789728  0.67587078  0.49268456  1
  Ca2+  Ca47  1  0.92013836  0.66339339  0.83755056  1
  Al0+  Al48  1  -0.00161748  -0.00026923  -0.00264788  1
  Al0+  Al49  1  0.00240173  0.00014040  0.32698983  1
  Al0+  Al50  1  0.00318399  0.00077156  0.66967536  1
  Al0+  Al51  1  -0.00104677  0.50017973  0.00179131  1
  Al0+  Al52  1  -0.00065719  0.49824231  0.33607946  1
  Al0+  Al53  1  -0.00106015  0.49687078  0.66796189  1
  Al0+  Al54  1  0.49956650  -0.00076998  -0.00274245  1
  Al0+  Al55  1  0.50021766  0.00078227  0.33882756  1
  Al0+  Al56  1  0.50159371  0.00178723  0.66356486  1
  Al0+  Al57  1  0.49993011  0.49995780  0.00276023  1
  Al0+  Al58  1  0.49921777  0.50066597  0.33180740  1
  Al0+  Al59  1  0.49914448  0.49892191  0.66466004  1
  Al0+  Al60  1  0.24966698  0.25135314  0.00179905  1
  Al0+  Al61  1  0.24872109  0.25081969  0.33487340  1
  Al0+  Al62  1  0.24798516  0.24951629  0.67085591  1
  Al0+  Al63  1  0.24976115  0.74966812  0.00055133  1
  Al0+  Al64  1  0.25151295  0.74827946  0.33328714  1
  Al0+  Al65  1  0.25161083  0.74962466  0.65800402  1
  Al0+  Al66  1  0.74861155  0.25013790  -0.00547275  1
  Al0+  Al67  1  0.75012084  0.25294704  0.33739281  1
  Al0+  Al68  1  0.75283502  0.25314315  0.66707444  1
  Al0+  Al69  1  0.74822642  0.74888793  0.00792449  1
  Al0+  Al70  1  0.75164535  0.74806227  0.33071424  1
  Al0+  Al71  1  0.75143187  0.75072074  0.66813354  1
  Al0+  Al72  1  0.82393454  0.07253477  0.34711305  1
  Al0+  Al73  1  0.17812681  0.42918997  0.68195020  1
  Al0+  Al74  1  0.93088951  0.82056892  0.31989675  1
  Al0+  Al75  1  0.17780017  0.42920620  0.01772160  1
  Al0+  Al76  1  0.67877295  0.92860518  0.68345462  1
  Al0+  Al77  1  0.68005432  0.92780898  0.34978969  1
  Al0+  Al78  1  0.31944149  0.07113809  0.34751956  1
  Al0+  Al79  1  0.07027900  0.18065573  0.32004760  1
  Al0+  Al80  1  0.31994017  0.07039681  0.01254619  1
  Al0+  Al81  1  0.07322182  0.17604980  0.98195980  1
  Al0+  Al82  1  0.32245612  0.57271937  0.01543059  1
  Al0+  Al83  1  0.57133229  0.67806251  0.31547083  1
  Al0+  Al84  1  0.67801496  0.92868480  0.01607013  1
  Al0+  Al85  1  0.82031867  0.07316180  0.01430311  1
  Al0+  Al86  1  0.57260894  0.67872336  0.65340418  1
  Al0+  Al87  1  0.56833399  0.17946165  0.98708988  1
  Al0+  Al88  1  0.82393315  0.07223541  0.68285333  1
  Al0+  Al89  1  0.06831361  0.68221183  0.98778183  1
  Al0+  Al90  1  0.42829312  0.82416423  0.64907175  1
  Al0+  Al91  1  0.81996196  0.57044554  0.01429003  1
  Al0+  Al92  1  0.17730932  0.92719259  0.01303908  1
  Al0+  Al93  1  0.42976963  0.82375592  0.31426400  1
  Al0+  Al94  1  0.43084644  0.81875485  0.98701469  1
  Al0+  Al95  1  0.92998884  0.31940827  0.98389500  1
  Si0+  Si96  1  0.67739249  0.42703833  0.01639195  1
  Si0+  Si97  1  0.92324726  0.82261210  0.98215720  1
  Si0+  Si98  1  0.07062165  0.67538592  0.65211697  1
  Si0+  Si99  1  0.57355298  0.18092133  0.64987383  1
  Si0+  Si100  1  0.67612270  0.42986052  0.34930345  1
  Si0+  Si101  1  0.07090427  0.17984087  0.65055217  1
  Si0+  Si102  1  0.57322459  0.67514183  0.98403362  1
  Si0+  Si103  1  0.32287066  0.57115475  0.35140924  1
  Si0+  Si104  1  0.82137738  0.56917859  0.34952494  1
  Si0+  Si105  1  0.42704417  0.32571584  0.98277642  1
  Si0+  Si106  1  0.42781841  0.31828322  0.65274931  1
  Si0+  Si107  1  0.82040031  0.57062117  0.68042729  1
  Si0+  Si108  1  0.07218141  0.67441228  0.31866053  1
  Si0+  Si109  1  0.57100417  0.18128583  0.32106664  1
  Si0+  Si110  1  0.67709231  0.42873800  0.68126910  1
  Si0+  Si111  1  0.32096076  0.57154920  0.68176346  1
  Si0+  Si112  1  0.17990175  0.92735877  0.67843329  1
  Si0+  Si113  1  0.32057806  0.07079558  0.67954938  1
  Si0+  Si114  1  0.92885471  0.32303650  0.64877563  1
  Si0+  Si115  1  0.93272831  0.82046283  0.65417857  1
  Si0+  Si116  1  0.18013814  0.43035925  0.34993272  1
  Si0+  Si117  1  0.17839749  0.92576095  0.34947944  1
  Si0+  Si118  1  0.42787583  0.32101420  0.31970885  1
  Si0+  Si119  1  0.92639187  0.32370516  0.31738460  1
  O2-  O120  1  0.24221837  0.00544598  0.06319794  1
  O2-  O121  1  0.24809294  -0.00673032  0.39517803  1
  O2-  O122  1  0.25810082  -0.00870022  0.71827377  1
  O2-  O123  1  0.25214871  0.49934197  0.06680214  1
  O2-  O124  1  0.24874856  0.50276544  0.39405215  1
  O2-  O125  1  0.24862906  0.50787032  0.72698228  1
  O2-  O126  1  0.75477259  -0.00377415  0.06467401  1
  O2-  O127  1  0.75448304  -0.00111052  0.39838058  1
  O2-  O128  1  0.74762623  0.00467135  0.73135858  1
  O2-  O129  1  0.74425694  0.49672096  0.06118091  1
  O2-  O130  1  0.74689320  0.50144487  0.39171442  1
  O2-  O131  1  0.74452437  0.50385366  0.72087992  1
  O2-  O132  1  -0.01081549  0.24939718  0.27621987  1
  O2-  O133  1  -0.00345212  0.24813524  0.60813424  1
  O2-  O134  1  -0.00005929  0.24709760  0.93113545  1
  O2-  O135  1  0.00816776  0.74713656  0.27587237  1
  O2-  O136  1  0.00307916  0.74896138  0.60959562  1
  O2-  O137  1  -0.00407321  0.75747425  0.93745394  1
  O2-  O138  1  0.49755427  0.24950130  0.27803981  1
  O2-  O139  1  0.49954065  0.24956436  0.60743589  1
  O2-  O140  1  0.49280242  0.25391257  0.93899022  1
  O2-  O141  1  0.50386449  0.75331337  0.26517738  1
  O2-  O142  1  0.50323883  0.75272013  0.60274049  1
  O2-  O143  1  0.50485755  0.74333156  0.94010311  1
  O2-  O144  1  0.07396982  0.18049521  0.09552326  1
  O2-  O145  1  0.07264295  0.18472496  0.43428102  1
  O2-  O146  1  0.07354078  0.18029581  0.75452420  1
  O2-  O147  1  0.06602329  0.68254651  0.10088182  1
  O2-  O148  1  0.06833380  0.67121372  0.42522208  1
  O2-  O149  1  0.07012678  0.67402373  0.75665117  1
  O2-  O150  1  0.56759465  0.18218643  0.10055124  1
  O2-  O151  1  0.56972573  0.18661216  0.42668228  1
  O2-  O152  1  0.57261322  0.18240861  0.75462971  1
  O2-  O153  1  0.57165355  0.67243563  0.08908239  1
  O2-  O154  1  0.56759667  0.67462775  0.42926823  1
  O2-  O155  1  0.57087716  0.67479653  0.76634156  1
  O2-  O156  1  0.18064468  0.43051305  0.24594486  1
  O2-  O157  1  0.18012294  0.42940094  0.56786162  1
  O2-  O158  1  0.17872459  0.43253417  0.90372597  1
  O2-  O159  1  0.17787379  0.92527590  0.24485644  1
  O2-  O160  1  0.17317996  0.93084798  0.57351778  1
  O2-  O161  1  0.18394575  0.92462264  0.89844164  1
  O2-  O162  1  0.67418970  0.42718663  0.24506237  1
  O2-  O163  1  0.67862487  0.42580036  0.57588054  1
  O2-  O164  1  0.67697863  0.42840208  0.91033645  1
  O2-  O165  1  0.67910781  0.93214168  0.23704419  1
  O2-  O166  1  0.68232720  0.92752403  0.56988491  1
  O2-  O167  1  0.67697689  0.92955966  0.90226749  1
  O2-  O168  1  0.43115352  0.32901600  0.08853475  1
  O2-  O169  1  0.42856985  0.32102189  0.42568318  1
  O2-  O170  1  0.42856187  0.31785138  0.75704984  1
  O2-  O171  1  0.43111748  0.82039815  0.09942028  1
  O2-  O172  1  0.43053545  0.82074538  0.42813260  1
  O2-  O173  1  0.42332156  0.82150136  0.76213177  1
  O2-  O174  1  0.93075168  0.31950161  0.09780382  1
  O2-  O175  1  0.92941187  0.32981832  0.42335379  1
  O2-  O176  1  0.92869997  0.32951783  0.75257514  1
  O2-  O177  1  0.92299695  0.81838912  0.08767975  1
  O2-  O178  1  0.93214118  0.81746366  0.43436511  1
  O2-  O179  1  0.93474817  0.81827447  0.75858587  1
  O2-  O180  1  0.31788330  0.07637421  0.23591608  1
  O2-  O181  1  0.31693953  0.07629657  0.57438454  1
  O2-  O182  1  0.32232769  0.06607476  0.89815430  1
  O2-  O183  1  0.32405731  0.56865817  0.24709960  1
  O2-  O184  1  0.31920700  0.56693611  0.57576708  1
  O2-  O185  1  0.32055219  0.57135185  0.90115799  1
  O2-  O186  1  0.82049383  0.07522535  0.23458118  1
  O2-  O187  1  0.82532983  0.06879645  0.56904046  1
  O2-  O188  1  0.81503015  0.07267667  0.90061230  1
  O2-  O189  1  0.82576355  0.56503095  0.24535984  1
  O2-  O190  1  0.82373024  0.56783405  0.57502845  1
  O2-  O191  1  0.81854219  0.56918923  0.90037623  1
  O2-  O192  1  0.05040925  0.08268351  0.26646763  1
  O2-  O193  1  0.04588067  0.08683505  0.60313226  1
  O2-  O194  1  0.04767844  0.07656769  0.92831146  1
  O2-  O195  1  0.04131964  0.58246947  0.27282941  1
  O2-  O196  1  0.03851909  0.58487555  0.60344552  1
  O2-  O197  1  0.03460959  0.58644604  0.93356147  1
  O2-  O198  1  0.54459926  0.08911633  0.27657146  1
  O2-  O199  1  0.54758397  0.08949954  0.60170379  1
  O2-  O200  1  0.53514850  0.08575018  0.92922541  1
  O2-  O201  1  0.54040164  0.57921265  0.26396334  1
  O2-  O202  1  0.54402615  0.57890374  0.59981198  1
  O2-  O203  1  0.55036447  0.58032764  0.93831004  1
  O2-  O204  1  0.16459035  0.21924186  0.26734040  1
  O2-  O205  1  0.16166253  0.21251905  0.60233264  1
  O2-  O206  1  0.17253752  0.20668977  0.93040731  1
  O2-  O207  1  0.16826386  0.69298752  0.27697594  1
  O2-  O208  1  0.16303844  0.69813565  0.60317937  1
  O2-  O209  1  0.16476840  0.71039755  0.93180482  1
  O2-  O210  1  0.66162478  0.21374516  0.27478255  1
  O2-  O211  1  0.66395244  0.21432193  0.60286801  1
  O2-  O212  1  0.66156362  0.21387690  0.92894772  1
  O2-  O213  1  0.67385830  0.69529324  0.26871315  1
  O2-  O214  1  0.67354160  0.70282278  0.60139606  1
  O2-  O215  1  0.66798699  0.70008126  0.94034284  1
  O2-  O216  1  0.08134003  0.46140801  0.07065663  1
  O2-  O217  1  0.08749012  0.45679015  0.39834145  1
  O2-  O218  1  0.08040057  0.45719325  0.73363376  1
  O2-  O219  1  0.07483384  0.94500238  0.05982630  1
  O2-  O220  1  0.08576458  0.95486331  0.39631082  1
  O2-  O221  1  0.09227245  0.95982133  0.72991137  1
  O2-  O222  1  0.58365448  0.44928305  0.06320871  1
  O2-  O223  1  0.58420915  0.45640064  0.39856947  1
  O2-  O224  1  0.58348134  0.45036942  0.72755010  1
  O2-  O225  1  0.58232563  0.96537666  0.06734194  1
  O2-  O226  1  0.58332784  0.95973679  0.40430022  1
  O2-  O227  1  0.57850240  0.95740898  0.73231568  1
  O2-  O228  1  0.20585239  0.33116606  0.07004534  1
  O2-  O229  1  0.21093809  0.34055455  0.39992283  1
  O2-  O230  1  0.21199209  0.33408111  0.73541804  1
  O2-  O231  1  0.20930591  0.83186121  0.06827553  1
  O2-  O232  1  0.19964486  0.83059865  0.39628322  1
  O2-  O233  1  0.20102498  0.83159498  0.72097883  1
  O2-  O234  1  0.70466312  0.33459316  0.06252864  1
  O2-  O235  1  0.70515757  0.34006207  0.40112898  1
  O2-  O236  1  0.70911746  0.33947375  0.73039769  1
  O2-  O237  1  0.69983049  0.82945940  0.06886805  1
  O2-  O238  1  0.70900876  0.82754549  0.39968043  1
  O2-  O239  1  0.70991392  0.83070046  0.73565890  1
  O2-  O240  1  0.45705484  0.41161492  0.27218190  1
  O2-  O241  1  0.45397146  0.41021722  0.60358480  1
  O2-  O242  1  0.45693210  0.41728987  0.93398480  1
  O2-  O243  1  0.45570550  0.92509009  0.26676086  1
  O2-  O244  1  0.45476272  0.92392562  0.59701018  1
  O2-  O245  1  0.46245495  0.91379681  0.93070741  1
  O2-  O246  1  0.95856017  0.41500656  0.27043881  1
  O2-  O247  1  0.96056771  0.41281593  0.59767083  1
  O2-  O248  1  0.95963553  0.41844455  0.93191593  1
  O2-  O249  1  0.95963408  0.91578146  0.26428236  1
  O2-  O250  1  0.96394742  0.91135687  0.60630100  1
  O2-  O251  1  0.94260616  0.91708529  0.93662157  1
  O2-  O252  1  0.33561157  0.29592705  0.27391493  1
  O2-  O253  1  0.33614206  0.28828290  0.60475056  1
  O2-  O254  1  0.33233170  0.30447865  0.93874368  1
  O2-  O255  1  0.32965829  0.79291355  0.26653972  1
  O2-  O256  1  0.33050947  0.79511992  0.59223531  1
  O2-  O257  1  0.33460357  0.78698996  0.93268834  1
  O2-  O258  1  0.82974587  0.30703409  0.27498832  1
  O2-  O259  1  0.83542119  0.30092997  0.60068666  1
  O2-  O260  1  0.83015471  0.29684582  0.93049682  1
  O2-  O261  1  0.83667563  0.78619183  0.26560882  1
  O2-  O262  1  0.84152445  0.79177167  0.60621855  1
  O2-  O263  1  0.83137694  0.78913697  0.93689020  1
  O2-  O264  1  0.41605583  0.03665147  0.06530503  1
  O2-  O265  1  0.41634187  0.04512956  0.40412681  1
  O2-  O266  1  0.41612411  0.05289124  0.72234255  1
  O2-  O267  1  0.42059977  0.54410403  0.06891630  1
  O2-  O268  1  0.41259752  0.53775415  0.39988276  1
  O2-  O269  1  0.41305192  0.54126173  0.72712806  1
  O2-  O270  1  0.92223943  0.05302186  0.06097831  1
  O2-  O271  1  0.92431093  0.04450676  0.39711353  1
  O2-  O272  1  0.92197544  0.04144114  0.73474171  1
  O2-  O273  1  0.91426293  0.53751713  0.07006655  1
  O2-  O274  1  0.91127482  0.53744017  0.40073724  1
  O2-  O275  1  0.91000092  0.53710740  0.72829346  1
  O2-  O276  1  0.30273387  0.17208062  0.06263688  1
  O2-  O277  1  0.28603499  0.16768556  0.40372884  1
  O2-  O278  1  0.28598437  0.15871621  0.72940630  1
  O2-  O279  1  0.28939233  0.66782277  0.06994341  1
  O2-  O280  1  0.29665422  0.66308350  0.39954203  1
  O2-  O281  1  0.29902435  0.66777989  0.72254883  1
  O2-  O282  1  0.78706157  0.17080074  0.06528499  1
  O2-  O283  1  0.79585947  0.17221260  0.40086120  1
  O2-  O284  1  0.80131536  0.17469915  0.72926363  1
  O2-  O285  1  0.79120785  0.66504011  0.07179336  1
  O2-  O286  1  0.79769123  0.66133061  0.39759222  1
  O2-  O287  1  0.79901891  0.66296431  0.72832164  1
