# generated using pymatgen
data_Ca2Al2SiO7
_symmetry_space_group_name_H-M   'P 1'
_cell_length_a   15.45776160
_cell_length_b   15.45724647
_cell_length_c   15.28317215
_cell_angle_alpha   89.99934867
_cell_angle_beta   90.00140062
_cell_angle_gamma   89.99232761
_symmetry_Int_Tables_number   1
_chemical_formula_structural   Ca2Al2SiO7
_chemical_formula_sum   'Ca48 Al48 Si24 O168'
_cell_volume   3651.67600611
_cell_formula_units_Z   24
loop_
 _symmetry_equiv_pos_site_id
 _symmetry_equiv_pos_as_xyz
  1  'x, y, z'
loop_
 _atom_type_symbol
 _atom_type_oxidation_number
  Ca2+  2.0
  Al0+  0.0
  Si0+  0.0
  O2-  -2.0
loop_
 _atom_site_type_symbol
 _atom_site_label
 _atom_site_symmetry_multiplicity
 _atom_site_fract_x
 _atom_site_fract_y
 _atom_site_fract_z
 _atom_site_occupancy
  Ca2+  Ca0  1  0.16518840  0.08326279  0.16725918  1
  Ca2+  Ca1  1  0.17696537  0.07574793  0.51436866  1
  Ca2+  Ca2  1  0.17094908  0.07943134  0.83350447  1
  Ca2+  Ca3  1  0.16265589  0.58777840  0.17268062  1
  Ca2+  Ca4  1  0.16654997  0.57879146  0.50571596  1
  Ca2+  Ca5  1  0.16550357  0.58043947  0.83498906  1
  Ca2+  Ca6  1  0.66681479  0.08834252  0.16685801  1
  Ca2+  Ca7  1  0.66898542  0.08013091  0.50843241  1
  Ca2+  Ca8  1  0.67595622  0.08021057  0.83823372  1
  Ca2+  Ca9  1  0.66997556  0.58021613  0.16961874  1
  Ca2+  Ca10  1  0.67656027  0.58076531  0.51139578  1
  Ca2+  Ca11  1  0.65967863  0.57788405  0.83682797  1
  Ca2+  Ca12  1  0.07252904  0.32883587  0.16296951  1
  Ca2+  Ca13  1  0.07754468  0.33588109  0.49618918  1
  Ca2+  Ca14  1  0.08547006  0.32750277  0.82835383  1
  Ca2+  Ca15  1  0.07726948  0.82056347  0.15833453  1
  Ca2+  Ca16  1  0.07866393  0.83161857  0.49996817  1
  Ca2+  Ca17  1  0.07197371  0.83559608  0.82894776  1
  Ca2+  Ca18  1  0.58654460  0.32569914  0.16170994  1
  Ca2+  Ca19  1  0.57679312  0.33057819  0.49722458  1
  Ca2+  Ca20  1  0.58570432  0.33211893  0.82674368  1
  Ca2+  Ca21  1  0.57798747  0.82793475  0.16232620  1
  Ca2+  Ca22  1  0.57803009  0.83644532  0.50284101  1
  Ca2+  Ca23  1  0.58693124  0.82267773  0.82209645  1
  Ca2+  Ca24  1  0.33178833  0.41685828  0.17061888  1
  Ca2+  Ca25  1  0.32902140  0.40946705  0.50950828  1
  Ca2+  Ca26  1  0.33066693  0.41245349  0.83237573  1
  Ca2+  Ca27  1  0.33376932  0.91530448  0.17365366  1
  Ca2+  Ca28  1  0.33282261  0.91797110  0.51112329  1
  Ca2+  Ca29  1  0.33327462  0.91527608  0.83068556  1
  Ca2+  Ca30  1  0.82880867  0.41936482  0.17279056  1
  Ca2+  Ca31  1  0.83160335  0.42610785  0.50710559  1
  Ca2+  Ca32  1  0.81951644  0.42344594  0.83446531  1
  Ca2+  Ca33  1  0.83778646  0.91999542  0.16403125  1
  Ca2+  Ca34  1  0.82687453  0.92274601  0.51423840  1
  Ca2+  Ca35  1  0.83558142  0.92008267  0.83381537  1
  Ca2+  Ca36  1  0.43049260  0.17130500  0.16555864  1
  Ca2+  Ca37  1  0.41847965  0.17432330  0.49636624  1
  Ca2+  Ca38  1  0.42170076  0.17031948  0.82593116  1
  Ca2+  Ca39  1  0.42018386  0.67308420  0.16151777  1
  Ca2+  Ca40  1  0.42247392  0.67670777  0.50044370  1
  Ca2+  Ca41  1  0.43004806  0.66941318  0.82464785  1
  Ca2+  Ca42  1  0.91585444  0.17187111  0.15804978  1
  Ca2+  Ca43  1  0.91289489  0.17321045  0.49770271  1
  Ca2+  Ca44  1  0.91936342  0.15713844  0.83075375  1
  Ca2+  Ca45  1  0.92395792  0.66620577  0.16130029  1
  Ca2+  Ca46  1  0.91605986  0.66577717  0.49776919  1
  Ca2+  Ca47  1  0.91414757  0.67677757  0.82669445  1
  Al0+  Al48  1  0.00113611  0.00085884  -0.00024076  1
  Al0+  Al49  1  0.00016890  -0.00135536  0.33568947  1
  Al0+  Al50  1  0.00287113  -0.00105070  0.66617785  1
  Al0+  Al51  1  -0.00007764  0.49869324  -0.00284944  1
  Al0+  Al52  1  -0.00024080  0.49912923  0.32874269  1
  Al0+  Al53  1  0.00011364  0.49871804  0.67667119  1
  Al0+  Al54  1  0.50001172  0.00314788  -0.00187289  1
  Al0+  Al55  1  0.49949908  0.00015374  0.32521348  1
  Al0+  Al56  1  0.50149009  0.00005379  0.67221474  1
  Al0+  Al57  1  0.49705127  0.50082069  0.00417581  1
  Al0+  Al58  1  0.49846387  0.50089376  0.33194603  1
  Al0+  Al59  1  0.49928541  0.49878693  0.65927815  1
  Al0+  Al60  1  0.24825631  0.24987448  0.00074976  1
  Al0+  Al61  1  0.25099072  0.24913746  0.32988967  1
  Al0+  Al62  1  0.25056062  0.24854127  0.67094310  1
  Al0+  Al63  1  0.24860970  0.74978829  -0.00228057  1
  Al0+  Al64  1  0.24929488  0.74932202  0.32721159  1
  Al0+  Al65  1  0.24980370  0.74854162  0.66872376  1
  Al0+  Al66  1  0.74875102  0.25057364  0.00387407  1
  Al0+  Al67  1  0.75053412  0.25012109  0.32731338  1
  Al0+  Al68  1  0.75248052  0.25195312  0.67259781  1
  Al0+  Al69  1  0.74868517  0.75046625  -0.00442039  1
  Al0+  Al70  1  0.75015978  0.75167330  0.33771995  1
  Al0+  Al71  1  0.75300430  0.75129391  0.66285832  1
  Al0+  Al72  1  0.42623203  0.32354020  0.31696356  1
  Al0+  Al73  1  0.17982230  0.92592388  0.68240372  1
  Al0+  Al74  1  0.82186331  0.57254395  0.68293158  1
  Al0+  Al75  1  0.07038188  0.18052326  0.98571703  1
  Al0+  Al76  1  0.56859008  0.67898080  0.98844618  1
  Al0+  Al77  1  0.93077490  0.82199993  0.65024768  1
  Al0+  Al78  1  0.82210214  0.07273574  0.68050506  1
  Al0+  Al79  1  0.42973971  0.81944576  0.31958191  1
  Al0+  Al80  1  0.42859955  0.31903387  0.65431821  1
  Al0+  Al81  1  0.07249456  0.67613384  0.98203314  1
  Al0+  Al82  1  0.06823924  0.68029266  0.32195385  1
  Al0+  Al83  1  0.67652519  0.43055901  0.67958864  1
  Al0+  Al84  1  0.82120834  0.06863620  0.01555444  1
  Al0+  Al85  1  0.57215173  0.18064897  0.98307059  1
  Al0+  Al86  1  0.92952569  0.82050492  0.98499411  1
  Al0+  Al87  1  0.82136588  0.57004043  0.34579791  1
  Al0+  Al88  1  0.57348052  0.67754643  0.64925430  1
  Al0+  Al89  1  0.67851286  0.92894744  0.68140601  1
  Al0+  Al90  1  0.42866893  0.82218336  0.65353395  1
  Al0+  Al91  1  0.32284158  0.07117423  0.68221438  1
  Al0+  Al92  1  0.17935380  0.42837109  0.67985669  1
  Al0+  Al93  1  0.57085534  0.17974556  0.31887052  1
  Al0+  Al94  1  0.93038130  0.32012934  0.32081983  1
  Al0+  Al95  1  0.67711353  0.43066667  0.01609483  1
  Si0+  Si96  1  0.32214496  0.57150185  0.68202378  1
  Si0+  Si97  1  0.07219734  0.17553310  0.31902223  1
  Si0+  Si98  1  0.67708693  0.42664715  0.34981438  1
  Si0+  Si99  1  0.07084114  0.67502427  0.65064212  1
  Si0+  Si100  1  0.32166110  0.07245940  0.01839783  1
  Si0+  Si101  1  0.67629585  0.92692345  0.01822912  1
  Si0+  Si102  1  0.92998118  0.32153552  0.65387458  1
  Si0+  Si103  1  0.67768763  0.93049032  0.34677520  1
  Si0+  Si104  1  0.17951847  0.92716964  0.34719287  1
  Si0+  Si105  1  0.57537394  0.17913080  0.65263864  1
  Si0+  Si106  1  0.32076412  0.06948760  0.34636509  1
  Si0+  Si107  1  0.82209008  0.07188943  0.34743285  1
  Si0+  Si108  1  0.57448343  0.67837901  0.31728844  1
  Si0+  Si109  1  0.42734874  0.82389215  0.98344536  1
  Si0+  Si110  1  0.92599203  0.82469280  0.31726186  1
  Si0+  Si111  1  0.82166296  0.57330448  0.01684263  1
  Si0+  Si112  1  0.31833284  0.57128382  0.01616120  1
  Si0+  Si113  1  0.18052629  0.92951004  0.01728109  1
  Si0+  Si114  1  0.17784064  0.42747878  0.01776786  1
  Si0+  Si115  1  0.18074123  0.42911376  0.34620524  1
  Si0+  Si116  1  0.92631451  0.32178048  0.98096646  1
  Si0+  Si117  1  0.32107052  0.57339068  0.34803167  1
  Si0+  Si118  1  0.42764813  0.32173993  0.98375349  1
  Si0+  Si119  1  0.07160213  0.17932462  0.65132543  1
  O2-  O120  1  0.25403913  -0.00218168  0.06139921  1
  O2-  O121  1  0.24795863  0.00069660  0.38880351  1
  O2-  O122  1  0.25455071  -0.00464972  0.73216070  1
  O2-  O123  1  0.24458152  0.50280032  0.05966555  1
  O2-  O124  1  0.25511505  0.49650442  0.38896635  1
  O2-  O125  1  0.25404417  0.50249117  0.72709444  1
  O2-  O126  1  0.74565389  -0.00514583  0.06375111  1
  O2-  O127  1  0.75105349  0.00040840  0.38784323  1
  O2-  O128  1  0.75015592  0.00142770  0.73079832  1
  O2-  O129  1  0.75323454  0.50478231  0.06229044  1
  O2-  O130  1  0.74333790  0.49828102  0.39257494  1
  O2-  O131  1  0.74300816  0.50699197  0.73101927  1
  O2-  O132  1  0.00146840  0.24145121  0.27444428  1
  O2-  O133  1  -0.00034942  0.24954271  0.60971600  1
  O2-  O134  1  -0.00487207  0.25305834  0.93698084  1
  O2-  O135  1  -0.00734791  0.75357498  0.27457475  1
  O2-  O136  1  0.00390894  0.74435221  0.60494819  1
  O2-  O137  1  -0.00185032  0.74563687  0.93401724  1
  O2-  O138  1  0.50301244  0.25632865  0.26846095  1
  O2-  O139  1  0.50477144  0.24573389  0.60783359  1
  O2-  O140  1  0.49778851  0.25612532  0.93842105  1
  O2-  O141  1  0.50383681  0.74482066  0.27228065  1
  O2-  O142  1  0.50212235  0.75252896  0.60193495  1
  O2-  O143  1  0.49852932  0.75767528  0.94149665  1
  O2-  O144  1  0.07068541  0.18308453  0.09959143  1
  O2-  O145  1  0.07362141  0.17605913  0.42445131  1
  O2-  O146  1  0.07237982  0.18065705  0.75635957  1
  O2-  O147  1  0.07286621  0.67855401  0.09630125  1
  O2-  O148  1  0.07040627  0.68019531  0.43462168  1
  O2-  O149  1  0.06916964  0.67441166  0.75583282  1
  O2-  O150  1  0.56940229  0.18052102  0.09638175  1
  O2-  O151  1  0.56923880  0.17723593  0.43240810  1
  O2-  O152  1  0.57557151  0.18230073  0.75807737  1
  O2-  O153  1  0.56562349  0.68017474  0.10223508  1
  O2-  O154  1  0.57385043  0.68008296  0.42215972  1
  O2-  O155  1  0.56893401  0.67598418  0.76310706  1
  O2-  O156  1  0.18048370  0.43027043  0.24092113  1
  O2-  O157  1  0.17808620  0.42890819  0.56598024  1
  O2-  O158  1  0.18128426  0.42408742  0.91309474  1
  O2-  O159  1  0.17979494  0.92807772  0.24176167  1
  O2-  O160  1  0.17931758  0.92953227  0.56772119  1
  O2-  O161  1  0.18182257  0.93056825  0.91292071  1
  O2-  O162  1  0.67911227  0.42737382  0.24394261  1
  O2-  O163  1  0.68072664  0.42702217  0.56565054  1
  O2-  O164  1  0.67542758  0.43229313  0.90348977  1
  O2-  O165  1  0.67795432  0.92904934  0.24158947  1
  O2-  O166  1  0.67856374  0.93351855  0.56661271  1
  O2-  O167  1  0.67503549  0.92755714  0.91344897  1
  O2-  O168  1  0.42664712  0.31972171  0.08953582  1
  O2-  O169  1  0.42138108  0.31820042  0.43002534  1
  O2-  O170  1  0.42701390  0.31755135  0.76733368  1
  O2-  O171  1  0.42628026  0.82160080  0.08986567  1
  O2-  O172  1  0.42853644  0.82093796  0.43179827  1
  O2-  O173  1  0.42804571  0.81712315  0.76699620  1
  O2-  O174  1  0.92978557  0.32142664  0.08733737  1
  O2-  O175  1  0.93272187  0.31990629  0.43419328  1
  O2-  O176  1  0.93179880  0.32098964  0.75858309  1
  O2-  O177  1  0.93270923  0.81998337  0.09959829  1
  O2-  O178  1  0.92868394  0.82862459  0.42227208  1
  O2-  O179  1  0.93327246  0.82400517  0.76284586  1
  O2-  O180  1  0.31895749  0.06834808  0.24089989  1
  O2-  O181  1  0.31902467  0.07347433  0.56769265  1
  O2-  O182  1  0.32027282  0.07392867  0.91401177  1
  O2-  O183  1  0.31782614  0.57547153  0.24262313  1
  O2-  O184  1  0.31892636  0.57221150  0.57604831  1
  O2-  O185  1  0.31976560  0.56911848  0.91153918  1
  O2-  O186  1  0.82519250  0.07046171  0.24247635  1
  O2-  O187  1  0.82011330  0.07458265  0.56584476  1
  O2-  O188  1  0.82164481  0.06676944  0.90330238  1
  O2-  O189  1  0.82113965  0.56848253  0.23242145  1
  O2-  O190  1  0.82559281  0.56628659  0.56877802  1
  O2-  O191  1  0.82085459  0.57204001  0.91187944  1
  O2-  O192  1  0.04908571  0.08084103  0.27318001  1
  O2-  O193  1  0.04602183  0.08802746  0.60239651  1
  O2-  O194  1  0.04268948  0.08356363  0.93297847  1
  O2-  O195  1  0.03971460  0.58446695  0.26499807  1
  O2-  O196  1  0.04387487  0.58048802  0.60615645  1
  O2-  O197  1  0.05109883  0.57478534  0.93309574  1
  O2-  O198  1  0.53773467  0.08471031  0.26080937  1
  O2-  O199  1  0.55192342  0.08425092  0.60924469  1
  O2-  O200  1  0.54098802  0.08368854  0.93082446  1
  O2-  O201  1  0.55081251  0.58383387  0.27241317  1
  O2-  O202  1  0.54229381  0.58110205  0.59360162  1
  O2-  O203  1  0.53148472  0.58414033  0.93545367  1
  O2-  O204  1  0.16436240  0.20256829  0.27081352  1
  O2-  O205  1  0.16238538  0.20979419  0.60369724  1
  O2-  O206  1  0.16649631  0.21322628  0.93207922  1
  O2-  O207  1  0.16298343  0.71204010  0.26398386  1
  O2-  O208  1  0.16587054  0.69796765  0.60631372  1
  O2-  O209  1  0.17098536  0.70527891  0.93052704  1
  O2-  O210  1  0.66961950  0.20404389  0.26417576  1
  O2-  O211  1  0.66851888  0.20716350  0.60609111  1
  O2-  O212  1  0.66949531  0.21079116  0.93226423  1
  O2-  O213  1  0.66731026  0.70700576  0.27079585  1
  O2-  O214  1  0.67191237  0.70483100  0.59707826  1
  O2-  O215  1  0.66582260  0.70363820  0.93455315  1
  O2-  O216  1  0.08381103  0.45123945  0.06354977  1
  O2-  O217  1  0.08984248  0.45979181  0.39320750  1
  O2-  O218  1  0.08546705  0.45705656  0.73904050  1
  O2-  O219  1  0.09071697  0.96113869  0.06626049  1
  O2-  O220  1  0.08664103  0.95196493  0.39475844  1
  O2-  O221  1  0.08441361  0.96126070  0.73564702  1
  O2-  O222  1  0.58035439  0.46146880  0.07132043  1
  O2-  O223  1  0.58070196  0.44807244  0.39239351  1
  O2-  O224  1  0.57557917  0.45284301  0.72981968  1
  O2-  O225  1  0.58220938  0.95498348  0.06418452  1
  O2-  O226  1  0.58583306  0.96131138  0.39226097  1
  O2-  O227  1  0.58078712  0.95193311  0.73688733  1
  O2-  O228  1  0.20929160  0.33738403  0.06760970  1
  O2-  O229  1  0.20460347  0.33522181  0.39240369  1
  O2-  O230  1  0.21105303  0.33347517  0.73596622  1
  O2-  O231  1  0.20669347  0.83609931  0.06418415  1
  O2-  O232  1  0.20994944  0.83605765  0.39338700  1
  O2-  O233  1  0.20294307  0.82671918  0.73566993  1
  O2-  O234  1  0.70954639  0.33477585  0.07086113  1
  O2-  O235  1  0.70519744  0.33280941  0.39371899  1
  O2-  O236  1  0.71090123  0.33557644  0.73564427  1
  O2-  O237  1  0.70136362  0.83270228  0.06461721  1
  O2-  O238  1  0.70246210  0.83899987  0.39606438  1
  O2-  O239  1  0.70822209  0.83047841  0.73126532  1
  O2-  O240  1  0.44649630  0.42515323  0.26669622  1
  O2-  O241  1  0.45326275  0.41514307  0.59669671  1
  O2-  O242  1  0.44850583  0.41733213  0.94129717  1
  O2-  O243  1  0.45980816  0.91434837  0.26168130  1
  O2-  O244  1  0.45476059  0.92260344  0.60219202  1
  O2-  O245  1  0.44792134  0.91930139  0.94086266  1
  O2-  O246  1  0.96588545  0.41258943  0.26216804  1
  O2-  O247  1  0.96176666  0.41255258  0.60685988  1
  O2-  O248  1  0.95242338  0.41498671  0.93580447  1
  O2-  O249  1  0.95490311  0.91731393  0.26971046  1
  O2-  O250  1  0.96551665  0.91758279  0.59469558  1
  O2-  O251  1  0.96381321  0.91731071  0.93378612  1
  O2-  O252  1  0.32953456  0.29117595  0.26122525  1
  O2-  O253  1  0.33197402  0.28557356  0.60024231  1
  O2-  O254  1  0.33425168  0.29328642  0.93930449  1
  O2-  O255  1  0.33452623  0.78770110  0.26234694  1
  O2-  O256  1  0.32969924  0.79205187  0.60063420  1
  O2-  O257  1  0.33423836  0.79641549  0.93899207  1
  O2-  O258  1  0.83481662  0.29235031  0.26410582  1
  O2-  O259  1  0.83850857  0.29437849  0.60515442  1
  O2-  O260  1  0.83233670  0.29666618  0.93833357  1
  O2-  O261  1  0.83110339  0.80225891  0.27292221  1
  O2-  O262  1  0.83463571  0.79506160  0.59415621  1
  O2-  O263  1  0.82946505  0.79863601  0.93386175  1
  O2-  O264  1  0.41464567  0.04689885  0.06544974  1
  O2-  O265  1  0.41251146  0.03984440  0.39166406  1
  O2-  O266  1  0.42144991  0.04908666  0.73600871  1
  O2-  O267  1  0.40752346  0.54158301  0.06811032  1
  O2-  O268  1  0.41526360  0.55293810  0.39384450  1
  O2-  O269  1  0.41543943  0.54413668  0.72638510  1
  O2-  O270  1  0.91859948  0.03869400  0.07072766  1
  O2-  O271  1  0.91458096  0.04604022  0.39579553  1
  O2-  O272  1  0.92124076  0.04386220  0.73005384  1
  O2-  O273  1  0.91655390  0.54582403  0.06123498  1
  O2-  O274  1  0.91744882  0.53497444  0.39868941  1
  O2-  O275  1  0.91606744  0.53813658  0.73985517  1
  O2-  O276  1  0.28828204  0.16265072  0.06663084  1
  O2-  O277  1  0.29411080  0.16230948  0.39275112  1
  O2-  O278  1  0.28757938  0.16567788  0.73851900  1
  O2-  O279  1  0.29261635  0.66451979  0.06362725  1
  O2-  O280  1  0.28677018  0.66295960  0.39570499  1
  O2-  O281  1  0.29690170  0.66337186  0.73109649  1
  O2-  O282  1  0.79076793  0.16598501  0.06919886  1
  O2-  O283  1  0.79465461  0.16461308  0.39317656  1
  O2-  O284  1  0.79815394  0.17064247  0.73574382  1
  O2-  O285  1  0.79654136  0.66753473  0.06250262  1
  O2-  O286  1  0.79578123  0.66866924  0.39924289  1
  O2-  O287  1  0.80166561  0.67387346  0.73000868  1
