# generated using pymatgen
data_Ca2Al2SiO7
_symmetry_space_group_name_H-M   'P 1'
_cell_length_a   15.45809213
_cell_length_b   15.45672791
_cell_length_c   15.28355980
_cell_angle_alpha   89.99624620
_cell_angle_beta   89.99790615
_cell_angle_gamma   89.99128339
_symmetry_Int_Tables_number   1
_chemical_formula_structural   Ca2Al2SiO7
_chemical_formula_sum   'Ca48 Al48 Si24 O168'
_cell_volume   3651.72418357
_cell_formula_units_Z   24
loop_
 _symmetry_equiv_pos_site_id
 _symmetry_equiv_pos_as_xyz
  1  'x, y, z'
loop_
 _atom_type_symbol
 _atom_type_oxidation_number
  Ca2+  2.0
  Al0+  0.0
  Si0+  0.0
  O2-  -2.0
loop_
 _atom_site_type_symbol
 _atom_site_label
 _atom_site_symmetry_multiplicity
 _atom_site_fract_x
 _atom_site_fract_y
 _atom_site_fract_z
 _atom_site_occupancy
  Ca2+  Ca0  1  0.17491162  0.09087300  0.17217097  1
  Ca2+  Ca1  1  0.16781447  0.07664547  0.50208708  1
  Ca2+  Ca2  1  0.16893989  0.07542974  0.83943903  1
  Ca2+  Ca3  1  0.15196991  0.57060390  0.16719871  1
  Ca2+  Ca4  1  0.16052670  0.58047229  0.50492036  1
  Ca2+  Ca5  1  0.15892116  0.58176480  0.84101078  1
  Ca2+  Ca6  1  0.67150889  0.07833343  0.16857804  1
  Ca2+  Ca7  1  0.68063561  0.08026181  0.50468024  1
  Ca2+  Ca8  1  0.67246143  0.07625748  0.84157847  1
  Ca2+  Ca9  1  0.67696634  0.59038113  0.16502280  1
  Ca2+  Ca10  1  0.67157084  0.58835489  0.50215137  1
  Ca2+  Ca11  1  0.66942077  0.58362776  0.84636831  1
  Ca2+  Ca12  1  0.09118358  0.32560197  0.16192149  1
  Ca2+  Ca13  1  0.07859749  0.32812312  0.49384583  1
  Ca2+  Ca14  1  0.08033841  0.32877655  0.83284757  1
  Ca2+  Ca15  1  0.06683933  0.82928470  0.15779868  1
  Ca2+  Ca16  1  0.07863314  0.83422108  0.49926163  1
  Ca2+  Ca17  1  0.07616417  0.82604205  0.82586825  1
  Ca2+  Ca18  1  0.58462153  0.32628710  0.15684519  1
  Ca2+  Ca19  1  0.58063293  0.33070045  0.49681410  1
  Ca2+  Ca20  1  0.59288329  0.32675540  0.83386183  1
  Ca2+  Ca21  1  0.58029930  0.83415442  0.15910718  1
  Ca2+  Ca22  1  0.57416093  0.83402135  0.49908162  1
  Ca2+  Ca23  1  0.58356585  0.82513845  0.83190532  1
  Ca2+  Ca24  1  0.32140241  0.41759419  0.16901065  1
  Ca2+  Ca25  1  0.32457650  0.41761325  0.50102651  1
  Ca2+  Ca26  1  0.32497475  0.42088198  0.84237361  1
  Ca2+  Ca27  1  0.33578679  0.92779952  0.17231586  1
  Ca2+  Ca28  1  0.33196562  0.91512628  0.50588984  1
  Ca2+  Ca29  1  0.32814850  0.91403559  0.83589400  1
  Ca2+  Ca30  1  0.83215906  0.43103834  0.16798443  1
  Ca2+  Ca31  1  0.83847275  0.42358000  0.50469731  1
  Ca2+  Ca32  1  0.83137534  0.42395023  0.84200408  1
  Ca2+  Ca33  1  0.82935327  0.91229807  0.17080952  1
  Ca2+  Ca34  1  0.84920500  0.92685348  0.50319771  1
  Ca2+  Ca35  1  0.83422142  0.91514835  0.83745583  1
  Ca2+  Ca36  1  0.41778202  0.16356343  0.15732508  1
  Ca2+  Ca37  1  0.41646864  0.16399529  0.49274361  1
  Ca2+  Ca38  1  0.42072649  0.16085165  0.83915952  1
  Ca2+  Ca39  1  0.42215493  0.67360612  0.16145530  1
  Ca2+  Ca40  1  0.41914910  0.67934830  0.49823288  1
  Ca2+  Ca41  1  0.42965034  0.66851065  0.82427911  1
  Ca2+  Ca42  1  0.92932009  0.16203012  0.16314303  1
  Ca2+  Ca43  1  0.91707704  0.16854813  0.49321540  1
  Ca2+  Ca44  1  0.91796382  0.17167635  0.82743825  1
  Ca2+  Ca45  1  0.91186006  0.67254305  0.15915567  1
  Ca2+  Ca46  1  0.91833975  0.67777522  0.49560089  1
  Ca2+  Ca47  1  0.91992529  0.67504094  0.83180339  1
  Al0+  Al48  1  0.00100069  0.00106982  -0.00842774  1
  Al0+  Al49  1  0.00110975  -0.00023580  0.32716946  1
  Al0+  Al50  1  0.00421622  0.00121551  0.67469428  1
  Al0+  Al51  1  -0.00115812  0.49957058  0.00587001  1
  Al0+  Al52  1  -0.00276850  0.49867399  0.34393593  1
  Al0+  Al53  1  -0.00161597  0.49792467  0.66197433  1
  Al0+  Al54  1  0.50088225  0.00189691  0.00228367  1
  Al0+  Al55  1  0.50026388  0.00012879  0.33462243  1
  Al0+  Al56  1  0.50254278  0.00139009  0.66386652  1
  Al0+  Al57  1  0.49748985  0.49904241  0.00147789  1
  Al0+  Al58  1  0.49857491  0.49942460  0.33284432  1
  Al0+  Al59  1  0.49988955  0.49755027  0.66168903  1
  Al0+  Al60  1  0.25040841  0.25027201  0.00044393  1
  Al0+  Al61  1  0.25035461  0.25066684  0.34020283  1
  Al0+  Al62  1  0.25143840  0.25034727  0.66833096  1
  Al0+  Al63  1  0.24803356  0.75109784  -0.00008998  1
  Al0+  Al64  1  0.25091310  0.74858780  0.32560657  1
  Al0+  Al65  1  0.25146164  0.74867052  0.66456046  1
  Al0+  Al66  1  0.74980877  0.24959388  0.00008079  1
  Al0+  Al67  1  0.74952542  0.25014777  0.33583079  1
  Al0+  Al68  1  0.75126441  0.25043810  0.66526375  1
  Al0+  Al69  1  0.74716186  0.75240834  -0.00001220  1
  Al0+  Al70  1  0.74858222  0.74895101  0.33685472  1
  Al0+  Al71  1  0.75104491  0.75155120  0.65870472  1
  Al0+  Al72  1  0.57221936  0.17911934  0.98689881  1
  Al0+  Al73  1  0.67619076  0.42645627  0.01440354  1
  Al0+  Al74  1  0.32141670  0.06970202  0.34796833  1
  Al0+  Al75  1  0.18180209  0.92769487  0.68057706  1
  Al0+  Al76  1  0.81882047  0.57149877  0.35099337  1
  Al0+  Al77  1  0.17914174  0.43081579  0.01236135  1
  Al0+  Al78  1  0.92884514  0.31877500  0.65305135  1
  Al0+  Al79  1  0.31807667  0.06774062  0.01259257  1
  Al0+  Al80  1  0.68036598  0.93072051  0.01263938  1
  Al0+  Al81  1  0.07019256  0.67701987  0.98709050  1
  Al0+  Al82  1  0.07105497  0.67755474  0.65123038  1
  Al0+  Al83  1  0.07068280  0.18115454  0.32082188  1
  Al0+  Al84  1  0.42866446  0.82234563  0.31703475  1
  Al0+  Al85  1  0.57303431  0.67601883  0.65011277  1
  Al0+  Al86  1  0.93064553  0.82397353  0.65067127  1
  Al0+  Al87  1  0.42965889  0.82184994  0.65318461  1
  Al0+  Al88  1  0.17969792  0.43012890  0.34984461  1
  Al0+  Al89  1  0.82209581  0.07154889  0.68137508  1
  Al0+  Al90  1  0.81903586  0.57181705  0.01313446  1
  Al0+  Al91  1  0.56800191  0.67894322  0.98867088  1
  Al0+  Al92  1  0.92629383  0.82151357  0.98404248  1
  Al0+  Al93  1  0.92980272  0.82068135  0.31892105  1
  Al0+  Al94  1  0.07386121  0.18005006  0.98496595  1
  Al0+  Al95  1  0.82248921  0.06943220  0.34487839  1
  Si0+  Si96  1  0.32502406  0.07373237  0.68440355  1
  Si0+  Si97  1  0.67748371  0.42943517  0.68063192  1
  Si0+  Si98  1  0.67606436  0.42694934  0.35125158  1
  Si0+  Si99  1  0.42774871  0.82431805  0.98454591  1
  Si0+  Si100  1  0.67724102  0.92868436  0.68291356  1
  Si0+  Si101  1  0.57166859  0.18001053  0.31880088  1
  Si0+  Si102  1  0.32392854  0.57286560  0.35081048  1
  Si0+  Si103  1  0.57168797  0.18012679  0.65058558  1
  Si0+  Si104  1  0.42751976  0.32111275  0.98347639  1
  Si0+  Si105  1  0.32270386  0.57494708  0.01623080  1
  Si0+  Si106  1  0.07463944  0.17902877  0.65035929  1
  Si0+  Si107  1  0.92809974  0.32118574  0.98598822  1
  Si0+  Si108  1  0.42754435  0.32036308  0.65060112  1
  Si0+  Si109  1  0.81981498  0.57158801  0.68088550  1
  Si0+  Si110  1  0.92609617  0.32323162  0.31581015  1
  Si0+  Si111  1  0.17512196  0.92624824  0.01806124  1
  Si0+  Si112  1  0.57067536  0.67740595  0.31534314  1
  Si0+  Si113  1  0.17824317  0.42903014  0.68289381  1
  Si0+  Si114  1  0.67781091  0.92809969  0.35183619  1
  Si0+  Si115  1  0.82464123  0.07319715  0.01591325  1
  Si0+  Si116  1  0.42853431  0.32053154  0.31832803  1
  Si0+  Si117  1  0.32185266  0.56894172  0.68047098  1
  Si0+  Si118  1  0.17885019  0.92632693  0.34662508  1
  Si0+  Si119  1  0.07101594  0.67473229  0.31715990  1
  O2-  O120  1  0.24380280  -0.00516431  0.06253060  1
  O2-  O121  1  0.24981975  -0.00798897  0.39320071  1
  O2-  O122  1  0.25861920  0.00226868  0.72616079  1
  O2-  O123  1  0.24938593  0.51019325  0.05933181  1
  O2-  O124  1  0.25120129  0.50862102  0.39610941  1
  O2-  O125  1  0.24733924  0.50213024  0.72434138  1
  O2-  O126  1  0.75820443  0.00226365  0.05956635  1
  O2-  O127  1  0.75066257  -0.00677827  0.39478091  1
  O2-  O128  1  0.74977338  -0.00614019  0.72644946  1
  O2-  O129  1  0.74557282  0.50055744  0.06398890  1
  O2-  O130  1  0.74385257  0.49542827  0.39668236  1
  O2-  O131  1  0.74391229  0.50463751  0.72218421  1
  O2-  O132  1  -0.00462069  0.25507855  0.27225595  1
  O2-  O133  1  0.00299605  0.24396653  0.60564694  1
  O2-  O134  1  -0.00470195  0.25166783  0.94027228  1
  O2-  O135  1  0.00334597  0.74415026  0.27327981  1
  O2-  O136  1  0.00140088  0.75082952  0.60015072  1
  O2-  O137  1  0.00122629  0.75093625  0.93646782  1
  O2-  O138  1  0.50044830  0.25080926  0.27652778  1
  O2-  O139  1  0.49684725  0.24755952  0.60853162  1
  O2-  O140  1  0.50137888  0.25767217  0.93908330  1
  O2-  O141  1  0.50317546  0.74716964  0.27139014  1
  O2-  O142  1  0.50241581  0.75070622  0.60234077  1
  O2-  O143  1  0.49014767  0.74971506  0.94099555  1
  O2-  O144  1  0.07552339  0.18268095  0.09826376  1
  O2-  O145  1  0.06976523  0.18178667  0.43411473  1
  O2-  O146  1  0.07715188  0.18389927  0.75584423  1
  O2-  O147  1  0.06755581  0.67683897  0.10082278  1
  O2-  O148  1  0.07113140  0.67611708  0.42277810  1
  O2-  O149  1  0.06834899  0.67491134  0.76444752  1
  O2-  O150  1  0.56936834  0.17894830  0.10018760  1
  O2-  O151  1  0.57106504  0.18236746  0.42446767  1
  O2-  O152  1  0.57231890  0.18136193  0.75546254  1
  O2-  O153  1  0.56699842  0.68198297  0.10178718  1
  O2-  O154  1  0.56828031  0.67638976  0.42093448  1
  O2-  O155  1  0.57082042  0.67239699  0.76367359  1
  O2-  O156  1  0.18248716  0.42905126  0.23679795  1
  O2-  O157  1  0.18158109  0.42686567  0.57784601  1
  O2-  O158  1  0.18140883  0.42996953  0.89883073  1
  O2-  O159  1  0.17975362  0.92927047  0.24124943  1
  O2-  O160  1  0.18209444  0.93090634  0.56698149  1
  O2-  O161  1  0.17843468  0.92612144  0.91239764  1
  O2-  O162  1  0.67533200  0.42522900  0.24630623  1
  O2-  O163  1  0.67732273  0.42739605  0.57537030  1
  O2-  O164  1  0.68000271  0.42655826  0.90015317  1
  O2-  O165  1  0.67592591  0.93020565  0.24613415  1
  O2-  O166  1  0.67186764  0.93397120  0.57746616  1
  O2-  O167  1  0.67856120  0.93193384  0.89945847  1
  O2-  O168  1  0.42500610  0.31784265  0.08921806  1
  O2-  O169  1  0.43009822  0.31996794  0.42404422  1
  O2-  O170  1  0.42597319  0.32303500  0.75511548  1
  O2-  O171  1  0.43105188  0.82535546  0.09035276  1
  O2-  O172  1  0.43006092  0.82203539  0.43007413  1
  O2-  O173  1  0.43078552  0.81962529  0.76677407  1
  O2-  O174  1  0.92861015  0.32048211  0.09154399  1
  O2-  O175  1  0.92678132  0.32115596  0.42179508  1
  O2-  O176  1  0.92957308  0.32011243  0.76619909  1
  O2-  O177  1  0.92588132  0.82026132  0.09807220  1
  O2-  O178  1  0.93433583  0.82278753  0.43168543  1
  O2-  O179  1  0.92937803  0.82062629  0.76370141  1
  O2-  O180  1  0.32196793  0.07214710  0.23509181  1
  O2-  O181  1  0.32395588  0.07699151  0.57878925  1
  O2-  O182  1  0.31884233  0.06592664  0.89931866  1
  O2-  O183  1  0.32875092  0.56873906  0.24558386  1
  O2-  O184  1  0.32261875  0.56449812  0.57537394  1
  O2-  O185  1  0.32585932  0.57128145  0.91039593  1
  O2-  O186  1  0.81925377  0.07053337  0.23215653  1
  O2-  O187  1  0.81976039  0.07310721  0.56780210  1
  O2-  O188  1  0.82115543  0.07549680  0.91017699  1
  O2-  O189  1  0.81804667  0.57181319  0.23815280  1
  O2-  O190  1  0.81938927  0.56784236  0.57571693  1
  O2-  O191  1  0.81902028  0.57006629  0.89912149  1
  O2-  O192  1  0.04266240  0.08547080  0.26417341  1
  O2-  O193  1  0.05306970  0.08366307  0.60842162  1
  O2-  O194  1  0.04737336  0.08372453  0.92934904  1
  O2-  O195  1  0.04184058  0.57999541  0.27564491  1
  O2-  O196  1  0.04167835  0.57951817  0.59773561  1
  O2-  O197  1  0.04188944  0.57766571  0.93571719  1
  O2-  O198  1  0.54452735  0.08791469  0.27305166  1
  O2-  O199  1  0.54753051  0.08843283  0.60158273  1
  O2-  O200  1  0.53619703  0.08511261  0.93091381  1
  O2-  O201  1  0.54438543  0.58328303  0.27032449  1
  O2-  O202  1  0.54221686  0.57819452  0.59589492  1
  O2-  O203  1  0.54099484  0.58042725  0.93553164  1
  O2-  O204  1  0.16814134  0.21539346  0.26980177  1
  O2-  O205  1  0.16764731  0.20795612  0.60376354  1
  O2-  O206  1  0.16808689  0.21549101  0.92948719  1
  O2-  O207  1  0.16612181  0.69347274  0.27139682  1
  O2-  O208  1  0.17126756  0.70094542  0.59977505  1
  O2-  O209  1  0.17115339  0.70045545  0.93552038  1
  O2-  O210  1  0.66313884  0.20832316  0.27120370  1
  O2-  O211  1  0.66079029  0.21334226  0.60115605  1
  O2-  O212  1  0.66883656  0.20746301  0.93090291  1
  O2-  O213  1  0.66486784  0.70300190  0.27182767  1
  O2-  O214  1  0.67023652  0.70374244  0.59558005  1
  O2-  O215  1  0.66228534  0.71273718  0.93334284  1
  O2-  O216  1  0.08294234  0.45555051  0.06998297  1
  O2-  O217  1  0.08269451  0.45552473  0.40539511  1
  O2-  O218  1  0.08499489  0.45423689  0.72792228  1
  O2-  O219  1  0.08064701  0.95350044  0.06073114  1
  O2-  O220  1  0.08682759  0.95647604  0.39300063  1
  O2-  O221  1  0.08858798  0.96041084  0.73957655  1
  O2-  O222  1  0.57530256  0.44809274  0.06536126  1
  O2-  O223  1  0.58118027  0.45158491  0.39689175  1
  O2-  O224  1  0.58308013  0.45026801  0.72633038  1
  O2-  O225  1  0.58608012  0.96568369  0.06902140  1
  O2-  O226  1  0.58681124  0.96032114  0.39955425  1
  O2-  O227  1  0.58545427  0.95883802  0.73096108  1
  O2-  O228  1  0.21700719  0.33693695  0.06710220  1
  O2-  O229  1  0.21632318  0.33695664  0.40715862  1
  O2-  O230  1  0.21000883  0.33805464  0.73031245  1
  O2-  O231  1  0.19793165  0.83216951  0.06459072  1
  O2-  O232  1  0.20158684  0.83054777  0.38983580  1
  O2-  O233  1  0.21240578  0.83047399  0.73445103  1
  O2-  O234  1  0.70528644  0.32828853  0.06791330  1
  O2-  O235  1  0.70080056  0.33346735  0.39907401  1
  O2-  O236  1  0.70928412  0.33870882  0.72776418  1
  O2-  O237  1  0.70690935  0.83483658  0.06943550  1
  O2-  O238  1  0.69651428  0.83290112  0.39624072  1
  O2-  O239  1  0.69949780  0.83229081  0.72429649  1
  O2-  O240  1  0.45346844  0.41305540  0.27101311  1
  O2-  O241  1  0.45717670  0.40950742  0.59882873  1
  O2-  O242  1  0.44587640  0.41655228  0.93857247  1
  O2-  O243  1  0.46153595  0.91943218  0.26478384  1
  O2-  O244  1  0.45671473  0.92130386  0.59978979  1
  O2-  O245  1  0.45928816  0.91511554  0.93757185  1
  O2-  O246  1  0.95211736  0.41817052  0.27386852  1
  O2-  O247  1  0.96072718  0.41330064  0.59621371  1
  O2-  O248  1  0.95531397  0.41427329  0.94018047  1
  O2-  O249  1  0.96014889  0.91566633  0.26200751  1
  O2-  O250  1  0.96398731  0.92337595  0.60197852  1
  O2-  O251  1  0.95229779  0.92022464  0.93112076  1
  O2-  O252  1  0.33710212  0.29118526  0.27256762  1
  O2-  O253  1  0.33564981  0.29321100  0.60196384  1
  O2-  O254  1  0.33771416  0.28902406  0.93358815  1
  O2-  O255  1  0.33268936  0.79309533  0.26054651  1
  O2-  O256  1  0.33342247  0.79088962  0.59774073  1
  O2-  O257  1  0.33131008  0.80511272  0.94241517  1
  O2-  O258  1  0.83137197  0.29902118  0.27204534  1
  O2-  O259  1  0.83238218  0.29015091  0.59679380  1
  O2-  O260  1  0.83464659  0.29712777  0.93858338  1
  O2-  O261  1  0.83015219  0.79109723  0.27038046  1
  O2-  O262  1  0.83167378  0.80044872  0.59673447  1
  O2-  O263  1  0.82862187  0.79232802  0.93116424  1
  O2-  O264  1  0.41479188  0.03891908  0.06746973  1
  O2-  O265  1  0.41914647  0.04227119  0.40227905  1
  O2-  O266  1  0.42081776  0.05163328  0.72764251  1
  O2-  O267  1  0.41306304  0.54448121  0.06620904  1
  O2-  O268  1  0.41529030  0.54208974  0.39964587  1
  O2-  O269  1  0.41238698  0.53496639  0.72780369  1
  O2-  O270  1  0.92047203  0.05054001  0.05813985  1
  O2-  O271  1  0.92023351  0.04030639  0.39805611  1
  O2-  O272  1  0.91980732  0.04781722  0.73554968  1
  O2-  O273  1  0.91497615  0.54130034  0.06993089  1
  O2-  O274  1  0.91343419  0.54000994  0.40835728  1
  O2-  O275  1  0.91012698  0.53723670  0.72697611  1
  O2-  O276  1  0.28934415  0.16544566  0.06561986  1
  O2-  O277  1  0.29071047  0.16525453  0.40412363  1
  O2-  O278  1  0.29796196  0.16708480  0.73123227  1
  O2-  O279  1  0.30314751  0.67042333  0.06089418  1
  O2-  O280  1  0.30155937  0.66886294  0.39313248  1
  O2-  O281  1  0.30089706  0.66207221  0.72681370  1
  O2-  O282  1  0.79700991  0.16547253  0.06291820  1
  O2-  O283  1  0.78977798  0.16600523  0.39980154  1
  O2-  O284  1  0.78614666  0.16752365  0.73432136  1
  O2-  O285  1  0.78741757  0.66880493  0.06680155  1
  O2-  O286  1  0.78642374  0.66708339  0.40658527  1
  O2-  O287  1  0.79695323  0.66614429  0.72419349  1
