# generated using pymatgen
data_Ca2Al2SiO7
_symmetry_space_group_name_H-M   'P 1'
_cell_length_a   15.45616223
_cell_length_b   15.45611497
_cell_length_c   15.28207850
_cell_angle_alpha   89.99517292
_cell_angle_beta   89.98857102
_cell_angle_gamma   90.00975200
_symmetry_Int_Tables_number   1
_chemical_formula_structural   Ca2Al2SiO7
_chemical_formula_sum   'Ca48 Al48 Si24 O168'
_cell_volume   3650.76952746
_cell_formula_units_Z   24
loop_
 _symmetry_equiv_pos_site_id
 _symmetry_equiv_pos_as_xyz
  1  'x, y, z'
loop_
 _atom_type_symbol
 _atom_type_oxidation_number
  Ca2+  2.0
  Al0+  0.0
  Si0+  0.0
  O2-  -2.0
loop_
 _atom_site_type_symbol
 _atom_site_label
 _atom_site_symmetry_multiplicity
 _atom_site_fract_x
 _atom_site_fract_y
 _atom_site_fract_z
 _atom_site_occupancy
  Ca2+  Ca0  1  0.17299898  0.08178288  0.17068612  1
  Ca2+  Ca1  1  0.16885702  0.09049501  0.49729494  1
  Ca2+  Ca2  1  0.17392714  0.07782570  0.84199454  1
  Ca2+  Ca3  1  0.17991867  0.58504001  0.17104985  1
  Ca2+  Ca4  1  0.17914069  0.57757711  0.50930996  1
  Ca2+  Ca5  1  0.17511418  0.57809665  0.83551820  1
  Ca2+  Ca6  1  0.67111864  0.08313767  0.17151248  1
  Ca2+  Ca7  1  0.67733937  0.08598061  0.50715385  1
  Ca2+  Ca8  1  0.67008970  0.09169189  0.83582557  1
  Ca2+  Ca9  1  0.66249525  0.58308101  0.16594458  1
  Ca2+  Ca10  1  0.66886969  0.57800988  0.50782208  1
  Ca2+  Ca11  1  0.67232161  0.57156496  0.83904870  1
  Ca2+  Ca12  1  0.08448298  0.32585341  0.16644201  1
  Ca2+  Ca13  1  0.07888317  0.33455889  0.49780522  1
  Ca2+  Ca14  1  0.07881456  0.33624807  0.82457880  1
  Ca2+  Ca15  1  0.07352778  0.84001132  0.16126834  1
  Ca2+  Ca16  1  0.07270750  0.83252865  0.49696762  1
  Ca2+  Ca17  1  0.07614730  0.83390348  0.83059253  1
  Ca2+  Ca18  1  0.57865901  0.32894889  0.16045683  1
  Ca2+  Ca19  1  0.57613072  0.33520078  0.50198766  1
  Ca2+  Ca20  1  0.58538064  0.32843278  0.82688900  1
  Ca2+  Ca21  1  0.58450908  0.81934054  0.16090841  1
  Ca2+  Ca22  1  0.58244298  0.82326942  0.49473925  1
  Ca2+  Ca23  1  0.58365583  0.82453609  0.83274828  1
  Ca2+  Ca24  1  0.34115251  0.42444418  0.17102674  1
  Ca2+  Ca25  1  0.33532552  0.42042558  0.50653638  1
  Ca2+  Ca26  1  0.33556215  0.42055809  0.83092623  1
  Ca2+  Ca27  1  0.33162112  0.92853006  0.16959048  1
  Ca2+  Ca28  1  0.33424857  0.92488705  0.50318624  1
  Ca2+  Ca29  1  0.32588037  0.92248229  0.84516820  1
  Ca2+  Ca30  1  0.82432030  0.42096917  0.16636659  1
  Ca2+  Ca31  1  0.82667754  0.42107099  0.51588197  1
  Ca2+  Ca32  1  0.82560889  0.42023836  0.83804041  1
  Ca2+  Ca33  1  0.83587112  0.91701495  0.17247429  1
  Ca2+  Ca34  1  0.84173798  0.92476898  0.50276962  1
  Ca2+  Ca35  1  0.83852692  0.91935218  0.83340687  1
  Ca2+  Ca36  1  0.41500294  0.16993062  0.15968703  1
  Ca2+  Ca37  1  0.41601809  0.18042465  0.49403589  1
  Ca2+  Ca38  1  0.42851301  0.16819894  0.82501909  1
  Ca2+  Ca39  1  0.42451653  0.65772335  0.16183340  1
  Ca2+  Ca40  1  0.42129356  0.65758950  0.49276017  1
  Ca2+  Ca41  1  0.41837826  0.65584658  0.83263292  1
  Ca2+  Ca42  1  0.92240674  0.15990881  0.16656837  1
  Ca2+  Ca43  1  0.91703505  0.16951588  0.49668292  1
  Ca2+  Ca44  1  0.91715140  0.17382012  0.82265239  1
  Ca2+  Ca45  1  0.91348089  0.67852020  0.15653052  1
  Ca2+  Ca46  1  0.90923299  0.67647067  0.49663967  1
  Ca2+  Ca47  1  0.90605909  0.67429842  0.82809852  1
  Al0+  Al48  1  0.00054822  0.00013612  -0.00269895  1
  Al0+  Al49  1  -0.00057781  0.00087689  0.32994400  1
  Al0+  Al50  1  -0.00017318  -0.00099271  0.66658148  1
  Al0+  Al51  1  -0.00041427  0.50147650  0.00541772  1
  Al0+  Al52  1  -0.00078343  0.50144444  0.33109709  1
  Al0+  Al53  1  0.00268980  0.50240657  0.66848827  1
  Al0+  Al54  1  0.50189220  0.00000257  0.00005466  1
  Al0+  Al55  1  0.50021156  -0.00087613  0.33966396  1
  Al0+  Al56  1  0.50274076  -0.00240914  0.66217937  1
  Al0+  Al57  1  0.50014085  0.49761398  0.00162032  1
  Al0+  Al58  1  0.50061272  0.49806920  0.32939364  1
  Al0+  Al59  1  0.50176054  0.49838257  0.67031271  1
  Al0+  Al60  1  0.24944909  0.25070636  0.00068440  1
  Al0+  Al61  1  0.24823523  0.25034438  0.32754150  1
  Al0+  Al62  1  0.25164838  0.24985751  0.66810723  1
  Al0+  Al63  1  0.24680767  0.75010150  0.00941055  1
  Al0+  Al64  1  0.25009101  0.75104804  0.33880792  1
  Al0+  Al65  1  0.24994856  0.75150184  0.66928250  1
  Al0+  Al66  1  0.74973936  0.25106477  0.00268785  1
  Al0+  Al67  1  0.74898066  0.25058982  0.33752390  1
  Al0+  Al68  1  0.75240782  0.24861658  0.66574188  1
  Al0+  Al69  1  0.74918560  0.75129513  -0.00695203  1
  Al0+  Al70  1  0.74834845  0.74949119  0.32494404  1
  Al0+  Al71  1  0.74860340  0.75302321  0.66366281  1
  Al0+  Al72  1  0.32333056  0.07159080  0.01358772  1
  Al0+  Al73  1  0.92951352  0.81971044  0.65126749  1
  Al0+  Al74  1  0.31960984  0.56856614  0.01509817  1
  Al0+  Al75  1  0.32161174  0.56918954  0.34722603  1
  Al0+  Al76  1  0.42972404  0.32033661  0.65175586  1
  Al0+  Al77  1  0.92993689  0.82103372  0.98300260  1
  Al0+  Al78  1  0.56780017  0.67951596  0.31937784  1
  Al0+  Al79  1  0.56857281  0.67750374  0.98322517  1
  Al0+  Al80  1  0.06816095  0.18143191  0.31917379  1
  Al0+  Al81  1  0.57376009  0.17644274  0.64900585  1
  Al0+  Al82  1  0.93116529  0.81886185  0.31824455  1
  Al0+  Al83  1  0.32131310  0.07290404  0.34862878  1
  Al0+  Al84  1  0.17687390  0.92984030  0.01633965  1
  Al0+  Al85  1  0.82008870  0.57396196  0.01605509  1
  Al0+  Al86  1  0.32242549  0.57186312  0.68200286  1
  Al0+  Al87  1  0.93079974  0.32340101  0.65521081  1
  Al0+  Al88  1  0.67941921  0.42771370  0.01758390  1
  Al0+  Al89  1  0.82052120  0.06958368  0.34665030  1
  Al0+  Al90  1  0.68052707  0.42790451  0.68168030  1
  Al0+  Al91  1  0.42986689  0.31885057  0.31792271  1
  Al0+  Al92  1  0.82107595  0.06893215  0.68073843  1
  Al0+  Al93  1  0.17879677  0.42663412  0.68074372  1
  Al0+  Al94  1  0.82182778  0.57515707  0.67922088  1
  Al0+  Al95  1  0.57146083  0.17811562  0.98752716  1
  Si0+  Si96  1  0.32321802  0.07039445  0.68018561  1
  Si0+  Si97  1  0.17486579  0.42659564  0.01930867  1
  Si0+  Si98  1  0.57311633  0.17642939  0.31796153  1
  Si0+  Si99  1  0.07572559  0.67902186  0.64973989  1
  Si0+  Si100  1  0.67631701  0.92762839  0.68448921  1
  Si0+  Si101  1  0.07441130  0.67688483  0.31672978  1
  Si0+  Si102  1  0.17592437  0.42796493  0.34868221  1
  Si0+  Si103  1  0.07243512  0.17709929  0.65161567  1
  Si0+  Si104  1  0.67854679  0.92482434  0.34965195  1
  Si0+  Si105  1  0.92399338  0.32487604  0.31589346  1
  Si0+  Si106  1  0.42586524  0.82190963  0.65201788  1
  Si0+  Si107  1  0.07092650  0.17994437  0.98382781  1
  Si0+  Si108  1  0.17723962  0.92997985  0.35233637  1
  Si0+  Si109  1  0.42689720  0.32109795  0.98198391  1
  Si0+  Si110  1  0.56834159  0.68014956  0.65290413  1
  Si0+  Si111  1  0.92969481  0.32144291  0.98707391  1
  Si0+  Si112  1  0.67932492  0.92839326  0.01403492  1
  Si0+  Si113  1  0.42559132  0.82484854  0.31734860  1
  Si0+  Si114  1  0.67998478  0.42968018  0.34953685  1
  Si0+  Si115  1  0.82065790  0.57267010  0.34651669  1
  Si0+  Si116  1  0.17948638  0.93017019  0.68101117  1
  Si0+  Si117  1  0.07335161  0.67663025  0.98355383  1
  Si0+  Si118  1  0.82071890  0.07133727  0.01393467  1
  Si0+  Si119  1  0.42658569  0.82138567  0.98595802  1
  O2-  O120  1  0.25111349  0.00028296  0.06479108  1
  O2-  O121  1  0.24868939  -0.00391066  0.39677080  1
  O2-  O122  1  0.25190941  -0.00003641  0.72275115  1
  O2-  O123  1  0.24492762  0.49402226  0.06267920  1
  O2-  O124  1  0.24330433  0.49794820  0.39257823  1
  O2-  O125  1  0.25056651  0.49899298  0.73058219  1
  O2-  O126  1  0.75026975  -0.00016527  0.05584254  1
  O2-  O127  1  0.74448032  -0.00384309  0.39356445  1
  O2-  O128  1  0.74293997  -0.00156045  0.72844006  1
  O2-  O129  1  0.74779097  0.50339888  0.06811600  1
  O2-  O130  1  0.75507064  0.49765031  0.38990013  1
  O2-  O131  1  0.75551162  0.49835934  0.72952048  1
  O2-  O132  1  -0.00736506  0.25582855  0.27173875  1
  O2-  O133  1  0.00679900  0.24937210  0.60858370  1
  O2-  O134  1  0.00258780  0.25329859  0.94291294  1
  O2-  O135  1  0.00503313  0.74388497  0.27106969  1
  O2-  O136  1  0.00114250  0.74168558  0.60509541  1
  O2-  O137  1  0.00250254  0.74286715  0.93840611  1
  O2-  O138  1  0.50074959  0.23963830  0.27220492  1
  O2-  O139  1  0.50004892  0.24721247  0.60017877  1
  O2-  O140  1  0.49367500  0.24919949  0.94061845  1
  O2-  O141  1  0.49186768  0.75409109  0.27330028  1
  O2-  O142  1  0.49334332  0.74721579  0.61043895  1
  O2-  O143  1  0.48979781  0.74960598  0.93797584  1
  O2-  O144  1  0.06954339  0.17895544  0.08901230  1
  O2-  O145  1  0.06717636  0.18279786  0.43236093  1
  O2-  O146  1  0.07058306  0.17446429  0.75750406  1
  O2-  O147  1  0.07287478  0.67779406  0.08931179  1
  O2-  O148  1  0.07321270  0.67702259  0.42230310  1
  O2-  O149  1  0.08172850  0.68443627  0.75486605  1
  O2-  O150  1  0.57293608  0.17889554  0.10091539  1
  O2-  O151  1  0.57481270  0.17975728  0.42304815  1
  O2-  O152  1  0.57047785  0.17516760  0.76288640  1
  O2-  O153  1  0.56812829  0.68035559  0.09650274  1
  O2-  O154  1  0.56889922  0.67987009  0.43301960  1
  O2-  O155  1  0.56843735  0.68298250  0.75772952  1
  O2-  O156  1  0.17521715  0.42944913  0.24300968  1
  O2-  O157  1  0.17917264  0.42748788  0.56693286  1
  O2-  O158  1  0.17268203  0.42599489  0.91403016  1
  O2-  O159  1  0.17672945  0.93173334  0.24700506  1
  O2-  O160  1  0.18003736  0.92993130  0.57589526  1
  O2-  O161  1  0.17704347  0.93280577  0.90199984  1
  O2-  O162  1  0.68030744  0.42885720  0.24454910  1
  O2-  O163  1  0.67869451  0.43278325  0.56730577  1
  O2-  O164  1  0.68313534  0.42491846  0.90458030  1
  O2-  O165  1  0.67951724  0.92418896  0.24376806  1
  O2-  O166  1  0.67633551  0.92452381  0.57888324  1
  O2-  O167  1  0.67867780  0.92832072  0.90910785  1
  O2-  O168  1  0.42728620  0.32040263  0.08797943  1
  O2-  O169  1  0.43129900  0.32122439  0.43066995  1
  O2-  O170  1  0.42870415  0.31732079  0.76517173  1
  O2-  O171  1  0.43159216  0.82309573  0.09142161  1
  O2-  O172  1  0.42762951  0.82529103  0.42337480  1
  O2-  O173  1  0.42576792  0.82597329  0.75683512  1
  O2-  O174  1  0.93027336  0.31778514  0.09242702  1
  O2-  O175  1  0.92462940  0.32637448  0.42135099  1
  O2-  O176  1  0.93144351  0.31974693  0.76881144  1
  O2-  O177  1  0.93095125  0.82331653  0.09634058  1
  O2-  O178  1  0.93165204  0.81820598  0.43139120  1
  O2-  O179  1  0.93275870  0.82175468  0.76411564  1
  O2-  O180  1  0.32026455  0.07125685  0.23582650  1
  O2-  O181  1  0.32089657  0.06923977  0.57492740  1
  O2-  O182  1  0.32136276  0.06926383  0.89938511  1
  O2-  O183  1  0.32170878  0.56724852  0.23419901  1
  O2-  O184  1  0.32192203  0.57241273  0.56819174  1
  O2-  O185  1  0.31807111  0.56747125  0.90233419  1
  O2-  O186  1  0.81937491  0.06794284  0.23283114  1
  O2-  O187  1  0.82371803  0.06613064  0.56760790  1
  O2-  O188  1  0.82124773  0.07221524  0.90894778  1
  O2-  O189  1  0.81903552  0.57272770  0.24168626  1
  O2-  O190  1  0.81597015  0.57604200  0.56465331  1
  O2-  O191  1  0.81958619  0.57140625  0.90282413  1
  O2-  O192  1  0.03635363  0.08599990  0.26319772  1
  O2-  O193  1  0.04349573  0.08534388  0.60374955  1
  O2-  O194  1  0.04096174  0.08969111  0.93513441  1
  O2-  O195  1  0.05171363  0.58270778  0.27000110  1
  O2-  O196  1  0.05798106  0.58340006  0.60569867  1
  O2-  O197  1  0.05128432  0.58096277  0.93986581  1
  O2-  O198  1  0.55377900  0.07913725  0.27667813  1
  O2-  O199  1  0.54906542  0.07613636  0.59704778  1
  O2-  O200  1  0.54576939  0.08015485  0.93277149  1
  O2-  O201  1  0.53734833  0.58397139  0.26407420  1
  O2-  O202  1  0.54433155  0.58730868  0.60624758  1
  O2-  O203  1  0.53957221  0.57954282  0.93171594  1
  O2-  O204  1  0.16285740  0.21192285  0.26121772  1
  O2-  O205  1  0.16745873  0.19895882  0.60717114  1
  O2-  O206  1  0.16381168  0.20504651  0.93682061  1
  O2-  O207  1  0.16865809  0.70408682  0.27239448  1
  O2-  O208  1  0.16635699  0.71228684  0.60017626  1
  O2-  O209  1  0.16654706  0.70545219  0.93794020  1
  O2-  O210  1  0.66586099  0.20611558  0.27136266  1
  O2-  O211  1  0.67223209  0.20495207  0.59744338  1
  O2-  O212  1  0.66832277  0.21126280  0.93451567  1
  O2-  O213  1  0.66229248  0.71171083  0.26178892  1
  O2-  O214  1  0.65743984  0.71319547  0.60285781  1
  O2-  O215  1  0.66258499  0.71378140  0.92855405  1
  O2-  O216  1  0.08228128  0.45121806  0.06811056  1
  O2-  O217  1  0.08067705  0.45149650  0.39392933  1
  O2-  O218  1  0.08151226  0.45562439  0.73595106  1
  O2-  O219  1  0.07993834  0.96437357  0.06915673  1
  O2-  O220  1  0.08504597  0.96041674  0.39819091  1
  O2-  O221  1  0.08898926  0.95971804  0.72930055  1
  O2-  O222  1  0.58022787  0.45341071  0.06923957  1
  O2-  O223  1  0.58974529  0.46265129  0.39579516  1
  O2-  O224  1  0.58405448  0.45783023  0.73635898  1
  O2-  O225  1  0.58832940  0.95478174  0.06368613  1
  O2-  O226  1  0.58407919  0.94490137  0.39665442  1
  O2-  O227  1  0.58136014  0.94866661  0.73048990  1
  O2-  O228  1  0.19971661  0.33215101  0.06423873  1
  O2-  O229  1  0.20133011  0.33414066  0.39262478  1
  O2-  O230  1  0.20538413  0.32792067  0.73567831  1
  O2-  O231  1  0.19904129  0.83162082  0.07151753  1
  O2-  O232  1  0.19932613  0.83560666  0.39897729  1
  O2-  O233  1  0.20625216  0.83920743  0.73016548  1
  O2-  O234  1  0.71342408  0.33164811  0.07372037  1
  O2-  O235  1  0.70400388  0.33751034  0.39785533  1
  O2-  O236  1  0.70775334  0.32894063  0.73247429  1
  O2-  O237  1  0.70869497  0.83745945  0.06168892  1
  O2-  O238  1  0.70726350  0.83167759  0.39538951  1
  O2-  O239  1  0.70551386  0.83580448  0.73173866  1
  O2-  O240  1  0.46641342  0.41247570  0.26220917  1
  O2-  O241  1  0.46005433  0.41933606  0.59976006  1
  O2-  O242  1  0.45551499  0.41325609  0.93624092  1
  O2-  O243  1  0.45315930  0.91841318  0.27178388  1
  O2-  O244  1  0.45748742  0.91074682  0.60034149  1
  O2-  O245  1  0.45634680  0.91318206  0.93781483  1
  O2-  O246  1  0.94925828  0.41856992  0.26883935  1
  O2-  O247  1  0.95868871  0.42093078  0.60026602  1
  O2-  O248  1  0.95487897  0.41502839  0.94228787  1
  O2-  O249  1  0.96237226  0.91520530  0.26438737  1
  O2-  O250  1  0.96613185  0.91500316  0.59732343  1
  O2-  O251  1  0.96345381  0.91749662  0.92903571  1
  O2-  O252  1  0.33246785  0.29282756  0.26353342  1
  O2-  O253  1  0.33059972  0.29191705  0.59868908  1
  O2-  O254  1  0.33129404  0.29967396  0.93763831  1
  O2-  O255  1  0.32987559  0.80341259  0.27440766  1
  O2-  O256  1  0.33304839  0.79916642  0.60399216  1
  O2-  O257  1  0.32953050  0.80085035  0.94497480  1
  O2-  O258  1  0.83033944  0.29793517  0.27076152  1
  O2-  O259  1  0.83624260  0.29060008  0.59915038  1
  O2-  O260  1  0.83917288  0.29025754  0.94014207  1
  O2-  O261  1  0.83457723  0.78969860  0.26340735  1
  O2-  O262  1  0.83138249  0.79401102  0.59678595  1
  O2-  O263  1  0.83275962  0.79442193  0.92844936  1
  O2-  O264  1  0.42142331  0.04281498  0.06728011  1
  O2-  O265  1  0.41819706  0.04416447  0.40400463  1
  O2-  O266  1  0.41537516  0.04005162  0.72485115  1
  O2-  O267  1  0.41588583  0.53637222  0.06842963  1
  O2-  O268  1  0.41788166  0.53457199  0.39942013  1
  O2-  O269  1  0.41992677  0.54291471  0.73497258  1
  O2-  O270  1  0.91278824  0.04272956  0.06004375  1
  O2-  O271  1  0.91679272  0.03714314  0.39989473  1
  O2-  O272  1  0.91688574  0.03527281  0.73560162  1
  O2-  O273  1  0.91900730  0.54709172  0.06975758  1
  O2-  O274  1  0.91534661  0.55187426  0.39173455  1
  O2-  O275  1  0.92376108  0.55768026  0.72763076  1
  O2-  O276  1  0.29350913  0.17015989  0.06531004  1
  O2-  O277  1  0.28489965  0.16886133  0.40032321  1
  O2-  O278  1  0.29713767  0.16143921  0.72853328  1
  O2-  O279  1  0.29123605  0.66530422  0.07057504  1
  O2-  O280  1  0.29672847  0.66824967  0.40036323  1
  O2-  O281  1  0.29454926  0.67121090  0.73417306  1
  O2-  O282  1  0.79342648  0.16180974  0.06354161  1
  O2-  O283  1  0.79279070  0.16749257  0.40035898  1
  O2-  O284  1  0.79434254  0.16617477  0.73451583  1
  O2-  O285  1  0.79060981  0.67387471  0.06543540  1
  O2-  O286  1  0.78785362  0.66362048  0.39244611  1
  O2-  O287  1  0.78765904  0.67213539  0.73120883  1
