# generated using pymatgen
data_Ca2Al2SiO7
_symmetry_space_group_name_H-M   'P 1'
_cell_length_a   15.46323409
_cell_length_b   15.46472398
_cell_length_c   15.28874370
_cell_angle_alpha   89.99877421
_cell_angle_beta   89.98622874
_cell_angle_gamma   89.99192985
_symmetry_Int_Tables_number   1
_chemical_formula_structural   Ca2Al2SiO7
_chemical_formula_sum   'Ca48 Al48 Si24 O168'
_cell_volume   3656.06818549
_cell_formula_units_Z   24
loop_
 _symmetry_equiv_pos_site_id
 _symmetry_equiv_pos_as_xyz
  1  'x, y, z'
loop_
 _atom_type_symbol
 _atom_type_oxidation_number
  Ca2+  2.0
  Al0+  0.0
  Si0+  0.0
  O2-  -2.0
loop_
 _atom_site_type_symbol
 _atom_site_label
 _atom_site_symmetry_multiplicity
 _atom_site_fract_x
 _atom_site_fract_y
 _atom_site_fract_z
 _atom_site_occupancy
  Ca2+  Ca0  1  0.16557105  0.07837230  0.16237480  1
  Ca2+  Ca1  1  0.17252158  0.08368658  0.50978547  1
  Ca2+  Ca2  1  0.16644097  0.08127978  0.83724232  1
  Ca2+  Ca3  1  0.17384801  0.59381251  0.16360125  1
  Ca2+  Ca4  1  0.16905705  0.58124685  0.50560662  1
  Ca2+  Ca5  1  0.17284744  0.58485369  0.84509465  1
  Ca2+  Ca6  1  0.67736441  0.07804057  0.17354882  1
  Ca2+  Ca7  1  0.67634816  0.06962699  0.50709928  1
  Ca2+  Ca8  1  0.67639400  0.07875719  0.83583733  1
  Ca2+  Ca9  1  0.66236246  0.58246836  0.15918918  1
  Ca2+  Ca10  1  0.66992831  0.58474826  0.50940345  1
  Ca2+  Ca11  1  0.67232924  0.58577772  0.83938309  1
  Ca2+  Ca12  1  0.07904995  0.32327190  0.15737653  1
  Ca2+  Ca13  1  0.07532666  0.32681010  0.50552630  1
  Ca2+  Ca14  1  0.07782961  0.32015817  0.82547587  1
  Ca2+  Ca15  1  0.07721752  0.83366690  0.15820708  1
  Ca2+  Ca16  1  0.06696019  0.83882140  0.49960656  1
  Ca2+  Ca17  1  0.07947381  0.83106103  0.83397867  1
  Ca2+  Ca18  1  0.58126539  0.33448662  0.15576511  1
  Ca2+  Ca19  1  0.57895352  0.33215545  0.50113798  1
  Ca2+  Ca20  1  0.57508037  0.34058191  0.83188718  1
  Ca2+  Ca21  1  0.57372368  0.83505427  0.16034727  1
  Ca2+  Ca22  1  0.58131391  0.83995533  0.49865245  1
  Ca2+  Ca23  1  0.58142874  0.82513673  0.82461160  1
  Ca2+  Ca24  1  0.33844431  0.42428493  0.16283782  1
  Ca2+  Ca25  1  0.33144281  0.41535792  0.50855096  1
  Ca2+  Ca26  1  0.33748595  0.42034739  0.84133440  1
  Ca2+  Ca27  1  0.32760440  0.90392437  0.16692123  1
  Ca2+  Ca28  1  0.33515044  0.91809934  0.50906057  1
  Ca2+  Ca29  1  0.33066573  0.91462475  0.83787203  1
  Ca2+  Ca30  1  0.82993079  0.42342400  0.16376627  1
  Ca2+  Ca31  1  0.83485157  0.42413536  0.51142278  1
  Ca2+  Ca32  1  0.83211832  0.42614222  0.83994109  1
  Ca2+  Ca33  1  0.83100219  0.92534887  0.17501174  1
  Ca2+  Ca34  1  0.82722428  0.91670634  0.51013809  1
  Ca2+  Ca35  1  0.83350294  0.92131527  0.83307246  1
  Ca2+  Ca36  1  0.42116320  0.17504942  0.15787721  1
  Ca2+  Ca37  1  0.41567234  0.16605100  0.50281965  1
  Ca2+  Ca38  1  0.41159873  0.17716864  0.82577070  1
  Ca2+  Ca39  1  0.42250798  0.67531072  0.15377245  1
  Ca2+  Ca40  1  0.42526360  0.67990944  0.49957272  1
  Ca2+  Ca41  1  0.42582732  0.67376723  0.83149130  1
  Ca2+  Ca42  1  0.91811928  0.15948664  0.15747361  1
  Ca2+  Ca43  1  0.91518972  0.15931040  0.50092188  1
  Ca2+  Ca44  1  0.92282417  0.16265473  0.82652218  1
  Ca2+  Ca45  1  0.91882788  0.67429025  0.15897167  1
  Ca2+  Ca46  1  0.90591598  0.68049488  0.50188829  1
  Ca2+  Ca47  1  0.91784198  0.66411900  0.82624217  1
  Al0+  Al48  1  0.00242010  -0.00042044  0.00356692  1
  Al0+  Al49  1  0.00319723  0.00040046  0.33160279  1
  Al0+  Al50  1  0.00216588  -0.00248696  0.66219301  1
  Al0+  Al51  1  0.00010256  0.49991931  0.00274731  1
  Al0+  Al52  1  0.00186492  0.49690154  0.33352818  1
  Al0+  Al53  1  0.00167570  0.49630015  0.66665321  1
  Al0+  Al54  1  0.49905703  0.00387402  -0.00345490  1
  Al0+  Al55  1  0.50015725  0.00204330  0.33039580  1
  Al0+  Al56  1  0.49871232  0.00163631  0.67335562  1
  Al0+  Al57  1  0.49972911  0.50159401  0.00128576  1
  Al0+  Al58  1  0.49898421  0.50136366  0.33529424  1
  Al0+  Al59  1  0.49881640  0.50085714  0.65670457  1
  Al0+  Al60  1  0.24906883  0.24945621  -0.00548945  1
  Al0+  Al61  1  0.24850727  0.25153140  0.33219668  1
  Al0+  Al62  1  0.24879254  0.24952003  0.66208732  1
  Al0+  Al63  1  0.24714989  0.75055079  0.00106400  1
  Al0+  Al64  1  0.25157504  0.74916635  0.33536293  1
  Al0+  Al65  1  0.25186601  0.74857146  0.66307015  1
  Al0+  Al66  1  0.75015298  0.25068742  0.00784232  1
  Al0+  Al67  1  0.75006467  0.25187886  0.33696895  1
  Al0+  Al68  1  0.74824045  0.25067633  0.66663566  1
  Al0+  Al69  1  0.74884959  0.75240125  0.00231321  1
  Al0+  Al70  1  0.74943752  0.74837525  0.32934522  1
  Al0+  Al71  1  0.75065403  0.74722276  0.66843493  1
  Al0+  Al72  1  0.67830423  0.92776497  0.34720190  1
  Al0+  Al73  1  0.43006477  0.82242720  0.31884208  1
  Al0+  Al74  1  0.06902460  0.17725382  0.65029027  1
  Al0+  Al75  1  0.57189215  0.68096976  0.98450783  1
  Al0+  Al76  1  0.06902733  0.17802269  0.98616804  1
  Al0+  Al77  1  0.42950738  0.32021577  0.65194762  1
  Al0+  Al78  1  0.42892942  0.82359602  0.65176661  1
  Al0+  Al79  1  0.82083260  0.06850835  0.01291172  1
  Al0+  Al80  1  0.82138231  0.56874137  0.67914062  1
  Al0+  Al81  1  0.31984977  0.07164700  0.68039604  1
  Al0+  Al82  1  0.82310438  0.07121503  0.68237999  1
  Al0+  Al83  1  0.92630204  0.32095430  0.65320621  1
  Al0+  Al84  1  0.43061779  0.32043175  0.98736818  1
  Al0+  Al85  1  0.82353366  0.07125177  0.34958641  1
  Al0+  Al86  1  0.06851270  0.67839128  0.98796515  1
  Al0+  Al87  1  0.31943744  0.57049671  0.01246850  1
  Al0+  Al88  1  0.93063484  0.81807919  0.65616868  1
  Al0+  Al89  1  0.42670753  0.82351338  0.98428158  1
  Al0+  Al90  1  0.82401638  0.57464032  0.01653501  1
  Al0+  Al91  1  0.67909116  0.43093869  0.01396974  1
  Al0+  Al92  1  0.18204206  0.93016341  0.01333608  1
  Al0+  Al93  1  0.57199175  0.68004567  0.65047208  1
  Al0+  Al94  1  0.92909586  0.82097198  0.31886573  1
  Al0+  Al95  1  0.67847933  0.92721742  0.68366066  1
  Si0+  Si96  1  0.57151045  0.67543893  0.31452778  1
  Si0+  Si97  1  0.67459032  0.42815877  0.68137616  1
  Si0+  Si98  1  0.17897212  0.92520548  0.68249999  1
  Si0+  Si99  1  0.92796180  0.82260758  0.98492613  1
  Si0+  Si100  1  0.32082184  0.57024037  0.68100175  1
  Si0+  Si101  1  0.42811949  0.32192214  0.31758755  1
  Si0+  Si102  1  0.82278978  0.56858524  0.34805299  1
  Si0+  Si103  1  0.57506527  0.17898783  0.98314475  1
  Si0+  Si104  1  0.17806945  0.42551852  0.01666679  1
  Si0+  Si105  1  0.57112936  0.18177816  0.31866495  1
  Si0+  Si106  1  0.18026469  0.42872444  0.68255958  1
  Si0+  Si107  1  0.07215384  0.67617283  0.31823730  1
  Si0+  Si108  1  0.92839345  0.32191897  0.31694720  1
  Si0+  Si109  1  0.18110979  0.92797455  0.34938351  1
  Si0+  Si110  1  0.57285988  0.17686525  0.64982141  1
  Si0+  Si111  1  0.07176650  0.18023698  0.31641366  1
  Si0+  Si112  1  0.92633425  0.32201392  0.98537067  1
  Si0+  Si113  1  0.07404964  0.67472257  0.65057894  1
  Si0+  Si114  1  0.67442982  0.92881274  0.01691374  1
  Si0+  Si115  1  0.17984750  0.42704052  0.35010896  1
  Si0+  Si116  1  0.31976495  0.07383088  0.34631857  1
  Si0+  Si117  1  0.32240284  0.07537712  0.01675069  1
  Si0+  Si118  1  0.32072847  0.57066267  0.35097948  1
  Si0+  Si119  1  0.67708623  0.42993572  0.35021344  1
  O2-  O120  1  0.26015410  0.00136054  0.06207103  1
  O2-  O121  1  0.25318126  -0.00100831  0.38934309  1
  O2-  O122  1  0.24842556  -0.00644191  0.72550140  1
  O2-  O123  1  0.24417620  0.49635641  0.06208273  1
  O2-  O124  1  0.24946859  0.49933900  0.39282239  1
  O2-  O125  1  0.24889765  0.50126766  0.72467494  1
  O2-  O126  1  0.74491596  -0.00399567  0.06086531  1
  O2-  O127  1  0.75544747  -0.00537890  0.39741363  1
  O2-  O128  1  0.75088575  -0.00016256  0.73242637  1
  O2-  O129  1  0.75069098  0.50289456  0.06591749  1
  O2-  O130  1  0.74894675  0.50037823  0.39097395  1
  O2-  O131  1  0.74720844  0.49285083  0.72398323  1
  O2-  O132  1  -0.00567986  0.24541090  0.27564722  1
  O2-  O133  1  -0.00854454  0.24377148  0.60013772  1
  O2-  O134  1  -0.00580524  0.25287987  0.94159790  1
  O2-  O135  1  0.00384721  0.74479752  0.27422202  1
  O2-  O136  1  0.00476924  0.74272564  0.60712387  1
  O2-  O137  1  -0.01190641  0.74589121  0.94133111  1
  O2-  O138  1  0.50080481  0.25363433  0.27523953  1
  O2-  O139  1  0.50379030  0.24581803  0.60433979  1
  O2-  O140  1  0.50448420  0.24609397  0.93962967  1
  O2-  O141  1  0.50632976  0.74883328  0.27327601  1
  O2-  O142  1  0.50481446  0.75666809  0.60023258  1
  O2-  O143  1  0.50336515  0.75650921  0.93545918  1
  O2-  O144  1  0.06912725  0.17992344  0.10025786  1
  O2-  O145  1  0.07709218  0.18316220  0.42081726  1
  O2-  O146  1  0.07115583  0.18001712  0.76352803  1
  O2-  O147  1  0.07032922  0.68278012  0.10153319  1
  O2-  O148  1  0.07304800  0.67469413  0.42382762  1
  O2-  O149  1  0.07580660  0.67413434  0.75590576  1
  O2-  O150  1  0.57286708  0.18031087  0.08956662  1
  O2-  O151  1  0.56846397  0.18337903  0.42343152  1
  O2-  O152  1  0.57300424  0.17939749  0.75507749  1
  O2-  O153  1  0.56816330  0.68062424  0.09874098  1
  O2-  O154  1  0.56872838  0.66927321  0.41959066  1
  O2-  O155  1  0.56868676  0.67620623  0.76330425  1
  O2-  O156  1  0.18065806  0.42367138  0.24551009  1
  O2-  O157  1  0.18130935  0.43016759  0.57658635  1
  O2-  O158  1  0.17975442  0.42493228  0.91129680  1
  O2-  O159  1  0.18043446  0.92771894  0.24438249  1
  O2-  O160  1  0.17953169  0.92531260  0.57621455  1
  O2-  O161  1  0.17970039  0.93160759  0.90068293  1
  O2-  O162  1  0.67484378  0.42897037  0.24561248  1
  O2-  O163  1  0.67379191  0.43072650  0.57492210  1
  O2-  O164  1  0.67922095  0.42984454  0.90083736  1
  O2-  O165  1  0.67667206  0.93329495  0.23361424  1
  O2-  O166  1  0.67978127  0.92891249  0.56968968  1
  O2-  O167  1  0.67478999  0.92981792  0.91180972  1
  O2-  O168  1  0.43070084  0.31866448  0.10148213  1
  O2-  O169  1  0.42697646  0.32098259  0.42246769  1
  O2-  O170  1  0.42963785  0.32231635  0.76456080  1
  O2-  O171  1  0.42787724  0.81966275  0.09862572  1
  O2-  O172  1  0.42765616  0.82122908  0.43146294  1
  O2-  O173  1  0.42412906  0.81770952  0.76430134  1
  O2-  O174  1  0.92873177  0.32093646  0.09190782  1
  O2-  O175  1  0.93133254  0.32678559  0.42139718  1
  O2-  O176  1  0.93273262  0.32536783  0.76609186  1
  O2-  O177  1  0.93255363  0.82380150  0.09098065  1
  O2-  O178  1  0.93025494  0.81950059  0.43199252  1
  O2-  O179  1  0.93371217  0.81779468  0.76891190  1
  O2-  O180  1  0.31636966  0.07943304  0.24163366  1
  O2-  O181  1  0.31695150  0.07246858  0.56613710  1
  O2-  O182  1  0.31811890  0.07949174  0.91186303  1
  O2-  O183  1  0.32049164  0.56987277  0.24605458  1
  O2-  O184  1  0.31745812  0.56813070  0.57523963  1
  O2-  O185  1  0.31782704  0.56806150  0.89948317  1
  O2-  O186  1  0.82112086  0.07213224  0.23572230  1
  O2-  O187  1  0.82128102  0.06788473  0.56873541  1
  O2-  O188  1  0.82182058  0.06779169  0.90038458  1
  O2-  O189  1  0.82538306  0.56515082  0.24345862  1
  O2-  O190  1  0.82061268  0.56785113  0.56506483  1
  O2-  O191  1  0.82660255  0.57003261  0.90345192  1
  O2-  O192  1  0.05131533  0.08653928  0.26974649  1
  O2-  O193  1  0.04910189  0.07777153  0.59610752  1
  O2-  O194  1  0.03896085  0.08149801  0.93343449  1
  O2-  O195  1  0.04873008  0.58146176  0.27282426  1
  O2-  O196  1  0.05055751  0.58073647  0.60436160  1
  O2-  O197  1  0.04725682  0.57851451  0.93589033  1
  O2-  O198  1  0.54231378  0.09185710  0.26867783  1
  O2-  O199  1  0.54409980  0.08445089  0.60384791  1
  O2-  O200  1  0.55214162  0.08571084  0.93662590  1
  O2-  O201  1  0.53904355  0.58339407  0.26747646  1
  O2-  O202  1  0.53788680  0.58500969  0.59255048  1
  O2-  O203  1  0.53995921  0.58326518  0.93377254  1
  O2-  O204  1  0.16083581  0.21577761  0.26712773  1
  O2-  O205  1  0.16393442  0.21463013  0.59461386  1
  O2-  O206  1  0.16459023  0.20899970  0.93168488  1
  O2-  O207  1  0.16654857  0.70255188  0.27417371  1
  O2-  O208  1  0.16672556  0.70052604  0.60221625  1
  O2-  O209  1  0.16270201  0.71308581  0.93285027  1
  O2-  O210  1  0.66320863  0.21075031  0.27193863  1
  O2-  O211  1  0.66507429  0.20281197  0.60088866  1
  O2-  O212  1  0.66849057  0.20661978  0.93920462  1
  O2-  O213  1  0.66696772  0.69355367  0.27018956  1
  O2-  O214  1  0.67181910  0.70272658  0.59856260  1
  O2-  O215  1  0.67270732  0.70438438  0.93427225  1
  O2-  O216  1  0.08404541  0.44745894  0.06346018  1
  O2-  O217  1  0.08788323  0.45418298  0.39818469  1
  O2-  O218  1  0.08847895  0.45333619  0.73019785  1
  O2-  O219  1  0.08835446  0.96525870  0.07158778  1
  O2-  O220  1  0.09012868  0.95830928  0.39662533  1
  O2-  O221  1  0.08601857  0.95137775  0.72799915  1
  O2-  O222  1  0.58156150  0.45992153  0.07012777  1
  O2-  O223  1  0.58473739  0.45739887  0.39798795  1
  O2-  O224  1  0.58114301  0.45819235  0.72500218  1
  O2-  O225  1  0.58095841  0.95771406  0.06289317  1
  O2-  O226  1  0.58063955  0.96281083  0.39936866  1
  O2-  O227  1  0.58029048  0.95505773  0.73629951  1
  O2-  O228  1  0.20753072  0.33309767  0.06414814  1
  O2-  O229  1  0.21112436  0.33704362  0.39973014  1
  O2-  O230  1  0.21042331  0.33755802  0.72804298  1
  O2-  O231  1  0.20876011  0.83398675  0.07085041  1
  O2-  O232  1  0.20706551  0.83601503  0.39733654  1
  O2-  O233  1  0.20401537  0.83068544  0.72726184  1
  O2-  O234  1  0.70691917  0.33380077  0.07204483  1
  O2-  O235  1  0.70355604  0.33830904  0.39840238  1
  O2-  O236  1  0.69238373  0.33280947  0.72554540  1
  O2-  O237  1  0.69645864  0.83495656  0.06352072  1
  O2-  O238  1  0.69981449  0.82543644  0.39527481  1
  O2-  O239  1  0.70850578  0.82917571  0.73495244  1
  O2-  O240  1  0.45489635  0.41517150  0.27263001  1
  O2-  O241  1  0.45924941  0.41473265  0.59268528  1
  O2-  O242  1  0.46052909  0.41688875  0.93444798  1
  O2-  O243  1  0.45496976  0.92080213  0.26482063  1
  O2-  O244  1  0.45140690  0.92519907  0.60286431  1
  O2-  O245  1  0.44538799  0.92617095  0.93682829  1
  O2-  O246  1  0.96332369  0.41065852  0.26704939  1
  O2-  O247  1  0.96478915  0.41557675  0.59560202  1
  O2-  O248  1  0.95208684  0.41579195  0.94131394  1
  O2-  O249  1  0.96343210  0.91708823  0.26525992  1
  O2-  O250  1  0.96263924  0.91205204  0.59759088  1
  O2-  O251  1  0.96499750  0.91170742  0.93847567  1
  O2-  O252  1  0.33654469  0.29279455  0.27051439  1
  O2-  O253  1  0.33381254  0.28888889  0.59592056  1
  O2-  O254  1  0.33415520  0.29139226  0.93311402  1
  O2-  O255  1  0.33288317  0.78739948  0.26743997  1
  O2-  O256  1  0.33214534  0.78986387  0.59581166  1
  O2-  O257  1  0.32923373  0.79076316  0.93407404  1
  O2-  O258  1  0.83361187  0.30070625  0.27262303  1
  O2-  O259  1  0.82485269  0.30377973  0.60158219  1
  O2-  O260  1  0.83189303  0.29824270  0.94228304  1
  O2-  O261  1  0.83271825  0.79115264  0.26404216  1
  O2-  O262  1  0.83555356  0.78582162  0.60058972  1
  O2-  O263  1  0.83104423  0.80816637  0.94379821  1
  O2-  O264  1  0.41914599  0.05858921  0.06027313  1
  O2-  O265  1  0.41340613  0.05088587  0.39132289  1
  O2-  O266  1  0.41683574  0.05022714  0.73625341  1
  O2-  O267  1  0.41355967  0.53771402  0.06987972  1
  O2-  O268  1  0.41171497  0.54094658  0.39883992  1
  O2-  O269  1  0.41255660  0.53877826  0.72448302  1
  O2-  O270  1  0.91628185  0.03611783  0.06864732  1
  O2-  O271  1  0.92583018  0.04909404  0.39677186  1
  O2-  O272  1  0.92315468  0.04129510  0.73090350  1
  O2-  O273  1  0.92164949  0.54389832  0.07220165  1
  O2-  O274  1  0.91396656  0.53757964  0.39535175  1
  O2-  O275  1  0.91932351  0.53859101  0.73115078  1
  O2-  O276  1  0.28991026  0.16650522  0.06557038  1
  O2-  O277  1  0.28771026  0.16425502  0.39541430  1
  O2-  O278  1  0.28510790  0.16814340  0.73257186  1
  O2-  O279  1  0.28546051  0.66502953  0.06899300  1
  O2-  O280  1  0.29180749  0.66138684  0.40002239  1
  O2-  O281  1  0.29451642  0.66251448  0.72717735  1
  O2-  O282  1  0.79348962  0.16549548  0.06897600  1
  O2-  O283  1  0.79309312  0.17037844  0.40072052  1
  O2-  O284  1  0.79639299  0.17180444  0.73206330  1
  O2-  O285  1  0.79680631  0.67377335  0.06929760  1
  O2-  O286  1  0.79669572  0.66190897  0.39259105  1
  O2-  O287  1  0.79304106  0.66396514  0.73463544  1
