# generated using pymatgen
data_Ca2Al2SiO7
_symmetry_space_group_name_H-M   'P 1'
_cell_length_a   15.45772633
_cell_length_b   15.45749264
_cell_length_c   15.28360054
_cell_angle_alpha   90.00521425
_cell_angle_beta   89.99675728
_cell_angle_gamma   89.99171123
_symmetry_Int_Tables_number   1
_chemical_formula_structural   Ca2Al2SiO7
_chemical_formula_sum   'Ca48 Al48 Si24 O168'
_cell_volume   3651.82816281
_cell_formula_units_Z   24
loop_
 _symmetry_equiv_pos_site_id
 _symmetry_equiv_pos_as_xyz
  1  'x, y, z'
loop_
 _atom_type_symbol
 _atom_type_oxidation_number
  Ca2+  2.0
  Al0+  0.0
  Si0+  0.0
  O2-  -2.0
loop_
 _atom_site_type_symbol
 _atom_site_label
 _atom_site_symmetry_multiplicity
 _atom_site_fract_x
 _atom_site_fract_y
 _atom_site_fract_z
 _atom_site_occupancy
  Ca2+  Ca0  1  0.17092420  0.08351304  0.17046695  1
  Ca2+  Ca1  1  0.16094927  0.08470563  0.50445136  1
  Ca2+  Ca2  1  0.17310267  0.08712159  0.83739686  1
  Ca2+  Ca3  1  0.17695812  0.57997206  0.17292628  1
  Ca2+  Ca4  1  0.17366543  0.57427312  0.50632081  1
  Ca2+  Ca5  1  0.17272401  0.58352098  0.83221519  1
  Ca2+  Ca6  1  0.66274429  0.08596863  0.17151889  1
  Ca2+  Ca7  1  0.66291476  0.07926218  0.50488773  1
  Ca2+  Ca8  1  0.66069937  0.07738351  0.83633228  1
  Ca2+  Ca9  1  0.67267374  0.58004056  0.17436397  1
  Ca2+  Ca10  1  0.66315850  0.57338575  0.50300111  1
  Ca2+  Ca11  1  0.67153098  0.57367314  0.83708279  1
  Ca2+  Ca12  1  0.07640200  0.34133950  0.16685786  1
  Ca2+  Ca13  1  0.07916686  0.33512613  0.49457241  1
  Ca2+  Ca14  1  0.07585947  0.33525998  0.82185954  1
  Ca2+  Ca15  1  0.07583242  0.83073920  0.16055751  1
  Ca2+  Ca16  1  0.08786076  0.82293338  0.49927496  1
  Ca2+  Ca17  1  0.07823890  0.82670712  0.82859636  1
  Ca2+  Ca18  1  0.59188345  0.32295578  0.16589566  1
  Ca2+  Ca19  1  0.58105384  0.33875651  0.49492104  1
  Ca2+  Ca20  1  0.57981472  0.32976506  0.82734714  1
  Ca2+  Ca21  1  0.57321088  0.82407015  0.16487649  1
  Ca2+  Ca22  1  0.57543249  0.82606671  0.49430549  1
  Ca2+  Ca23  1  0.57295868  0.83124527  0.82731799  1
  Ca2+  Ca24  1  0.32930479  0.42907083  0.17767464  1
  Ca2+  Ca25  1  0.32843872  0.42555603  0.51143331  1
  Ca2+  Ca26  1  0.33080695  0.42408071  0.83535873  1
  Ca2+  Ca27  1  0.34418395  0.91945009  0.16593927  1
  Ca2+  Ca28  1  0.34046652  0.91674115  0.50349350  1
  Ca2+  Ca29  1  0.33685831  0.91952704  0.84007231  1
  Ca2+  Ca30  1  0.83343285  0.41558081  0.17019399  1
  Ca2+  Ca31  1  0.82393034  0.40431755  0.50235578  1
  Ca2+  Ca32  1  0.83468410  0.41541290  0.83608038  1
  Ca2+  Ca33  1  0.83375710  0.91821008  0.17181662  1
  Ca2+  Ca34  1  0.82352830  0.92144393  0.51050442  1
  Ca2+  Ca35  1  0.82675999  0.91435248  0.83859884  1
  Ca2+  Ca36  1  0.42732736  0.16474980  0.16035688  1
  Ca2+  Ca37  1  0.42114790  0.17868494  0.49782066  1
  Ca2+  Ca38  1  0.41769739  0.17105405  0.83061570  1
  Ca2+  Ca39  1  0.41372252  0.66920357  0.16436650  1
  Ca2+  Ca40  1  0.41184444  0.67351386  0.49378343  1
  Ca2+  Ca41  1  0.40442219  0.67441314  0.82806373  1
  Ca2+  Ca42  1  0.92185988  0.18059853  0.16443080  1
  Ca2+  Ca43  1  0.92730082  0.17704035  0.49578218  1
  Ca2+  Ca44  1  0.92435297  0.17900078  0.82558979  1
  Ca2+  Ca45  1  0.91579934  0.66848970  0.15656677  1
  Ca2+  Ca46  1  0.92508093  0.66007818  0.50124155  1
  Ca2+  Ca47  1  0.91937073  0.66567228  0.83117973  1
  Al0+  Al48  1  -0.00164140  -0.00025707  -0.00421134  1
  Al0+  Al49  1  0.00107169  0.00224791  0.33188480  1
  Al0+  Al50  1  -0.00109513  0.00075600  0.66606035  1
  Al0+  Al51  1  -0.00157810  0.50036959  -0.00011295  1
  Al0+  Al52  1  0.00092555  0.50183408  0.33171679  1
  Al0+  Al53  1  -0.00071249  0.50087586  0.66066306  1
  Al0+  Al54  1  0.50008805  -0.00213051  -0.00300045  1
  Al0+  Al55  1  0.49984945  -0.00047796  0.32790170  1
  Al0+  Al56  1  0.49963476  -0.00145334  0.66771036  1
  Al0+  Al57  1  0.50069427  0.49775613  0.00636632  1
  Al0+  Al58  1  0.50250321  0.50311538  0.33607102  1
  Al0+  Al59  1  0.50191726  0.50135934  0.67440928  1
  Al0+  Al60  1  0.25123334  0.24855531  0.00778009  1
  Al0+  Al61  1  0.25057814  0.24816326  0.33321105  1
  Al0+  Al62  1  0.25206757  0.25021215  0.66337431  1
  Al0+  Al63  1  0.24847411  0.74965818  0.00155281  1
  Al0+  Al64  1  0.24810035  0.75384871  0.33083218  1
  Al0+  Al65  1  0.24820054  0.75266528  0.66165041  1
  Al0+  Al66  1  0.75105893  0.24621595  -0.00999246  1
  Al0+  Al67  1  0.75221908  0.24979684  0.33033849  1
  Al0+  Al68  1  0.75135106  0.24732421  0.66943952  1
  Al0+  Al69  1  0.74814195  0.74858147  0.00014803  1
  Al0+  Al70  1  0.74827444  0.75077390  0.33256377  1
  Al0+  Al71  1  0.74765467  0.75107876  0.67227792  1
  Al0+  Al72  1  0.68244463  0.42854999  0.34524253  1
  Al0+  Al73  1  0.93051175  0.32181847  0.31643769  1
  Al0+  Al74  1  0.81968597  0.56966567  0.01281419  1
  Al0+  Al75  1  0.67775227  0.92949884  0.68163130  1
  Al0+  Al76  1  0.32165338  0.06958062  0.01404233  1
  Al0+  Al77  1  0.43130789  0.32364240  0.65546704  1
  Al0+  Al78  1  0.06972914  0.68057789  0.65275556  1
  Al0+  Al79  1  0.93128466  0.32128789  0.98421918  1
  Al0+  Al80  1  0.57245154  0.67641868  0.31809548  1
  Al0+  Al81  1  0.56976819  0.18074295  0.32198123  1
  Al0+  Al82  1  0.92801691  0.32224940  0.64962965  1
  Al0+  Al83  1  0.07389475  0.17703232  0.31513986  1
  Al0+  Al84  1  0.42969183  0.81662063  0.98482745  1
  Al0+  Al85  1  0.56981395  0.17877879  0.98427335  1
  Al0+  Al86  1  0.17907360  0.42802322  0.34911342  1
  Al0+  Al87  1  0.32142512  0.57398110  0.34960600  1
  Al0+  Al88  1  0.42779926  0.82016509  0.31601162  1
  Al0+  Al89  1  0.32083068  0.57182561  0.01509705  1
  Al0+  Al90  1  0.67934376  0.42669657  0.68172940  1
  Al0+  Al91  1  0.17844421  0.42767218  0.68162055  1
  Al0+  Al92  1  0.42946575  0.82029039  0.65293582  1
  Al0+  Al93  1  0.92629018  0.82197472  0.98650393  1
  Al0+  Al94  1  0.07348845  0.17886197  0.65258371  1
  Al0+  Al95  1  0.32052611  0.57375722  0.68209706  1
  Si0+  Si96  1  0.42657746  0.32294262  0.98601988  1
  Si0+  Si97  1  0.32373937  0.06918149  0.34891435  1
  Si0+  Si98  1  0.06993028  0.68072312  0.31683385  1
  Si0+  Si99  1  0.82264733  0.57594055  0.35031858  1
  Si0+  Si100  1  0.82183045  0.07013233  0.34791492  1
  Si0+  Si101  1  0.42802390  0.32421396  0.31813405  1
  Si0+  Si102  1  0.17724426  0.42779086  0.01627959  1
  Si0+  Si103  1  0.82202615  0.57266816  0.68261530  1
  Si0+  Si104  1  0.82305001  0.07006978  0.68629590  1
  Si0+  Si105  1  0.57076817  0.17771529  0.65149197  1
  Si0+  Si106  1  0.67870003  0.92963196  0.34748573  1
  Si0+  Si107  1  0.17648222  0.93170332  0.34889407  1
  Si0+  Si108  1  0.07422310  0.17805143  0.98392186  1
  Si0+  Si109  1  0.92517057  0.82228456  0.65063763  1
  Si0+  Si110  1  0.17583056  0.92857175  0.01597933  1
  Si0+  Si111  1  0.57219558  0.67434854  0.98246303  1
  Si0+  Si112  1  0.57407189  0.67815456  0.65214122  1
  Si0+  Si113  1  0.32108964  0.07045255  0.68009403  1
  Si0+  Si114  1  0.07056669  0.67893040  0.98394837  1
  Si0+  Si115  1  0.92820910  0.82183753  0.32142316  1
  Si0+  Si116  1  0.67968484  0.42374811  0.01657957  1
  Si0+  Si117  1  0.67887008  0.92913528  0.01742041  1
  Si0+  Si118  1  0.17713263  0.92931428  0.68098017  1
  Si0+  Si119  1  0.82105051  0.06997645  0.01532628  1
  O2-  O120  1  0.24503790  -0.00368874  0.06098236  1
  O2-  O121  1  0.24877671  0.00174187  0.39069660  1
  O2-  O122  1  0.24602791  0.00278038  0.72160236  1
  O2-  O123  1  0.24892397  0.49370577  0.06000807  1
  O2-  O124  1  0.25467472  0.49667110  0.39865808  1
  O2-  O125  1  0.25059098  0.49934181  0.73229824  1
  O2-  O126  1  0.75159225  -0.00156673  0.06035153  1
  O2-  O127  1  0.74994181  -0.00010515  0.39059230  1
  O2-  O128  1  0.75356551  0.00191550  0.73045550  1
  O2-  O129  1  0.74638267  0.49450768  0.06046579  1
  O2-  O130  1  0.75587017  0.50494861  0.39292145  1
  O2-  O131  1  0.75639716  0.50054569  0.72608529  1
  O2-  O132  1  0.00701866  0.25407877  0.26636583  1
  O2-  O133  1  0.00487644  0.25365383  0.60223756  1
  O2-  O134  1  0.01019997  0.25014793  0.93935490  1
  O2-  O135  1  -0.00510134  0.74861647  0.27639280  1
  O2-  O136  1  -0.00704167  0.75418038  0.60499800  1
  O2-  O137  1  0.00066577  0.74734477  0.94058540  1
  O2-  O138  1  0.49770763  0.25659932  0.27302318  1
  O2-  O139  1  0.50939428  0.25234440  0.60731348  1
  O2-  O140  1  0.49539555  0.25467403  0.94066755  1
  O2-  O141  1  0.49579694  0.74353641  0.26791822  1
  O2-  O142  1  0.50141003  0.74273546  0.60790298  1
  O2-  O143  1  0.49862526  0.73726117  0.93727813  1
  O2-  O144  1  0.07136834  0.17556103  0.08916431  1
  O2-  O145  1  0.06744141  0.16988519  0.42778920  1
  O2-  O146  1  0.07104307  0.17624944  0.76648809  1
  O2-  O147  1  0.06944430  0.68101604  0.08996914  1
  O2-  O148  1  0.07059184  0.68304338  0.42185336  1
  O2-  O149  1  0.06889698  0.68431910  0.76597819  1
  O2-  O150  1  0.57093365  0.17920860  0.09767627  1
  O2-  O151  1  0.56757358  0.17714273  0.43485915  1
  O2-  O152  1  0.56614596  0.17545267  0.75710005  1
  O2-  O153  1  0.57487822  0.67822446  0.08780680  1
  O2-  O154  1  0.57840731  0.68189545  0.43140257  1
  O2-  O155  1  0.57751499  0.68185657  0.75772088  1
  O2-  O156  1  0.17870914  0.43354615  0.23482684  1
  O2-  O157  1  0.18037847  0.42904962  0.56842524  1
  O2-  O158  1  0.17666133  0.42763940  0.91091406  1
  O2-  O159  1  0.17174184  0.93169340  0.24396968  1
  O2-  O160  1  0.17677225  0.92856691  0.57566518  1
  O2-  O161  1  0.17517188  0.92925833  0.91029564  1
  O2-  O162  1  0.68671810  0.42614028  0.23207974  1
  O2-  O163  1  0.67931581  0.42764180  0.56855121  1
  O2-  O164  1  0.67994794  0.42496810  0.91095639  1
  O2-  O165  1  0.68115894  0.92997634  0.24220992  1
  O2-  O166  1  0.67906764  0.93212356  0.56793128  1
  O2-  O167  1  0.67920634  0.93069663  0.91229492  1
  O2-  O168  1  0.42752074  0.32170108  0.09161578  1
  O2-  O169  1  0.42966525  0.32109786  0.42390256  1
  O2-  O170  1  0.43063521  0.31923183  0.76881268  1
  O2-  O171  1  0.43300640  0.81817913  0.09745580  1
  O2-  O172  1  0.43149731  0.82364076  0.42959144  1
  O2-  O173  1  0.42971932  0.82222563  0.76611729  1
  O2-  O174  1  0.93012854  0.32008250  0.09710644  1
  O2-  O175  1  0.92700257  0.31721851  0.42922947  1
  O2-  O176  1  0.92896383  0.31988146  0.76358784  1
  O2-  O177  1  0.92878775  0.82223856  0.10031302  1
  O2-  O178  1  0.92940658  0.82250320  0.42636651  1
  O2-  O179  1  0.92656440  0.82166153  0.75624953  1
  O2-  O180  1  0.32581175  0.06594371  0.24380032  1
  O2-  O181  1  0.32463282  0.06768620  0.57494720  1
  O2-  O182  1  0.32011441  0.06906500  0.90059487  1
  O2-  O183  1  0.31693066  0.57389467  0.23547750  1
  O2-  O184  1  0.31875390  0.57483547  0.56886259  1
  O2-  O185  1  0.31719025  0.57369388  0.90242293  1
  O2-  O186  1  0.82214567  0.06701938  0.24246489  1
  O2-  O187  1  0.82318997  0.06757839  0.58038024  1
  O2-  O188  1  0.82018217  0.06749391  0.91053047  1
  O2-  O189  1  0.82140031  0.57931908  0.24459110  1
  O2-  O190  1  0.81905572  0.57792214  0.57725446  1
  O2-  O191  1  0.81931198  0.56960959  0.89986975  1
  O2-  O192  1  0.03931901  0.08026555  0.26045202  1
  O2-  O193  1  0.04163508  0.08018817  0.59976038  1
  O2-  O194  1  0.04559720  0.08560198  0.93678197  1
  O2-  O195  1  0.04522781  0.58932720  0.26811674  1
  O2-  O196  1  0.03963540  0.58608519  0.59514071  1
  O2-  O197  1  0.04448905  0.58612140  0.93790446  1
  O2-  O198  1  0.53813143  0.08567936  0.26496586  1
  O2-  O199  1  0.53864579  0.08661953  0.60421570  1
  O2-  O200  1  0.53712752  0.08282283  0.93073129  1
  O2-  O201  1  0.55179214  0.57670458  0.26459673  1
  O2-  O202  1  0.55341384  0.58256406  0.60984130  1
  O2-  O203  1  0.55350704  0.57711530  0.94157562  1
  O2-  O204  1  0.17582211  0.19644266  0.26578275  1
  O2-  O205  1  0.17341384  0.19876601  0.60017717  1
  O2-  O206  1  0.17081664  0.19865998  0.94211218  1
  O2-  O207  1  0.15850754  0.71469326  0.26734658  1
  O2-  O208  1  0.16231420  0.71733730  0.59527576  1
  O2-  O209  1  0.16259847  0.70723211  0.93717135  1
  O2-  O210  1  0.66680252  0.20815942  0.26666025  1
  O2-  O211  1  0.66778854  0.19386992  0.61022865  1
  O2-  O212  1  0.66567851  0.20541825  0.92734515  1
  O2-  O213  1  0.66918482  0.71148852  0.26283672  1
  O2-  O214  1  0.66571613  0.70873281  0.60451570  1
  O2-  O215  1  0.66327813  0.70593133  0.93492587  1
  O2-  O216  1  0.08511756  0.45823914  0.06279252  1
  O2-  O217  1  0.08065172  0.46083311  0.39985262  1
  O2-  O218  1  0.07862962  0.45853407  0.73086889  1
  O2-  O219  1  0.08171087  0.95488018  0.06213293  1
  O2-  O220  1  0.08557087  0.95952511  0.39903771  1
  O2-  O221  1  0.08397146  0.95316432  0.72858708  1
  O2-  O222  1  0.58533189  0.44430211  0.06324832  1
  O2-  O223  1  0.58543557  0.45714779  0.39980561  1
  O2-  O224  1  0.58554311  0.45884210  0.74064373  1
  O2-  O225  1  0.58837915  0.96033588  0.06448300  1
  O2-  O226  1  0.58733534  0.96005731  0.39371770  1
  O2-  O227  1  0.58265869  0.96333355  0.73731868  1
  O2-  O228  1  0.19810653  0.33338096  0.06320960  1
  O2-  O229  1  0.20000090  0.32574587  0.39720066  1
  O2-  O230  1  0.20679068  0.32824245  0.73325847  1
  O2-  O231  1  0.19926232  0.83490685  0.06269004  1
  O2-  O232  1  0.20389809  0.83980470  0.39617211  1
  O2-  O233  1  0.20745993  0.83949537  0.72975934  1
  O2-  O234  1  0.70948090  0.32947538  0.05896363  1
  O2-  O235  1  0.71358637  0.33162951  0.39980768  1
  O2-  O236  1  0.70707413  0.32866474  0.73513524  1
  O2-  O237  1  0.70556020  0.83673175  0.06386040  1
  O2-  O238  1  0.70671975  0.83845757  0.39598193  1
  O2-  O239  1  0.70720499  0.83382431  0.73848786  1
  O2-  O240  1  0.45167154  0.41878417  0.27454580  1
  O2-  O241  1  0.46045476  0.42142571  0.60361891  1
  O2-  O242  1  0.45194469  0.41682072  0.94041804  1
  O2-  O243  1  0.46364321  0.91579602  0.26156811  1
  O2-  O244  1  0.46400197  0.91594738  0.59884141  1
  O2-  O245  1  0.46461071  0.91196242  0.93117172  1
  O2-  O246  1  0.95467082  0.42270971  0.26510705  1
  O2-  O247  1  0.94794067  0.42210068  0.59734910  1
  O2-  O248  1  0.95802386  0.41944667  0.93154663  1
  O2-  O249  1  0.95928348  0.91195879  0.27250457  1
  O2-  O250  1  0.95004774  0.91605367  0.60512135  1
  O2-  O251  1  0.95640418  0.91762794  0.93009599  1
  O2-  O252  1  0.33506703  0.29755991  0.27206428  1
  O2-  O253  1  0.33787436  0.28896001  0.59841649  1
  O2-  O254  1  0.33254031  0.29583193  0.94151254  1
  O2-  O255  1  0.32685800  0.80001357  0.26430845  1
  O2-  O256  1  0.33217167  0.79567980  0.59805494  1
  O2-  O257  1  0.32935705  0.79293171  0.93439047  1
  O2-  O258  1  0.83510915  0.28612833  0.26146043  1
  O2-  O259  1  0.83042026  0.28618087  0.59879922  1
  O2-  O260  1  0.83728597  0.28588342  0.92862629  1
  O2-  O261  1  0.83546358  0.79901657  0.27357776  1
  O2-  O262  1  0.83050648  0.79786916  0.60626840  1
  O2-  O263  1  0.82961239  0.79140927  0.93315545  1
  O2-  O264  1  0.41756604  0.03424327  0.06749478  1
  O2-  O265  1  0.41364776  0.03606623  0.39720762  1
  O2-  O266  1  0.41040680  0.03827639  0.72984186  1
  O2-  O267  1  0.41887489  0.54449134  0.06893462  1
  O2-  O268  1  0.42322408  0.55473284  0.39841176  1
  O2-  O269  1  0.41982280  0.55055475  0.73554610  1
  O2-  O270  1  0.91339677  0.04255266  0.06246943  1
  O2-  O271  1  0.91236550  0.03954066  0.39621635  1
  O2-  O272  1  0.91595759  0.04292275  0.73363788  1
  O2-  O273  1  0.91714967  0.54252071  0.06786233  1
  O2-  O274  1  0.91776044  0.55290045  0.39349566  1
  O2-  O275  1  0.91680866  0.55009475  0.72687153  1
  O2-  O276  1  0.29590886  0.16590421  0.07176857  1
  O2-  O277  1  0.30169546  0.16280466  0.39498911  1
  O2-  O278  1  0.29686379  0.16253784  0.72824456  1
  O2-  O279  1  0.28625112  0.66737994  0.06984732  1
  O2-  O280  1  0.28744399  0.67294130  0.39854214  1
  O2-  O281  1  0.28504396  0.67212546  0.73267979  1
  O2-  O282  1  0.79075057  0.16174469  0.06109504  1
  O2-  O283  1  0.79311780  0.16097874  0.39495147  1
  O2-  O284  1  0.79779069  0.16289353  0.73324204  1
  O2-  O285  1  0.78948268  0.66689121  0.06763506  1
  O2-  O286  1  0.79695866  0.66938041  0.39763848  1
  O2-  O287  1  0.79472961  0.66506401  0.73147820  1
