# generated using pymatgen
data_Ca2Al2SiO7
_symmetry_space_group_name_H-M   'P 1'
_cell_length_a   15.46650158
_cell_length_b   15.46700131
_cell_length_c   15.29095653
_cell_angle_alpha   90.00664970
_cell_angle_beta   89.99990138
_cell_angle_gamma   89.98697354
_symmetry_Int_Tables_number   1
_chemical_formula_structural   Ca2Al2SiO7
_chemical_formula_sum   'Ca48 Al48 Si24 O168'
_cell_volume   3657.90862143
_cell_formula_units_Z   24
loop_
 _symmetry_equiv_pos_site_id
 _symmetry_equiv_pos_as_xyz
  1  'x, y, z'
loop_
 _atom_type_symbol
 _atom_type_oxidation_number
  Ca2+  2.0
  Al0+  0.0
  Si0+  0.0
  O2-  -2.0
loop_
 _atom_site_type_symbol
 _atom_site_label
 _atom_site_symmetry_multiplicity
 _atom_site_fract_x
 _atom_site_fract_y
 _atom_site_fract_z
 _atom_site_occupancy
  Ca2+  Ca0  1  0.16190291  0.08265283  0.16870442  1
  Ca2+  Ca1  1  0.16848375  0.08560094  0.50287481  1
  Ca2+  Ca2  1  0.17732873  0.08684513  0.84462255  1
  Ca2+  Ca3  1  0.16579461  0.57299600  0.16718543  1
  Ca2+  Ca4  1  0.17073655  0.57983635  0.50294814  1
  Ca2+  Ca5  1  0.16838782  0.57441914  0.84102775  1
  Ca2+  Ca6  1  0.65851445  0.07693921  0.17058594  1
  Ca2+  Ca7  1  0.65663916  0.08134200  0.50179046  1
  Ca2+  Ca8  1  0.66139096  0.07960727  0.84024292  1
  Ca2+  Ca9  1  0.67939226  0.57226724  0.17325137  1
  Ca2+  Ca10  1  0.66876316  0.57473903  0.49881720  1
  Ca2+  Ca11  1  0.67112845  0.58110675  0.83975533  1
  Ca2+  Ca12  1  0.07806672  0.32553164  0.15942464  1
  Ca2+  Ca13  1  0.07319814  0.32735117  0.49207528  1
  Ca2+  Ca14  1  0.07733862  0.33451101  0.83633203  1
  Ca2+  Ca15  1  0.08134325  0.83541728  0.15864054  1
  Ca2+  Ca16  1  0.07834702  0.83696627  0.49474107  1
  Ca2+  Ca17  1  0.07149404  0.84404592  0.83512220  1
  Ca2+  Ca18  1  0.58005493  0.32564697  0.16160744  1
  Ca2+  Ca19  1  0.57658185  0.32170663  0.48875320  1
  Ca2+  Ca20  1  0.57299709  0.31997880  0.82677209  1
  Ca2+  Ca21  1  0.59143168  0.83480082  0.16100219  1
  Ca2+  Ca22  1  0.58752412  0.82782476  0.49626442  1
  Ca2+  Ca23  1  0.58745635  0.82806083  0.83018605  1
  Ca2+  Ca24  1  0.33122696  0.40319325  0.16509746  1
  Ca2+  Ca25  1  0.33465551  0.40497054  0.50318148  1
  Ca2+  Ca26  1  0.33181559  0.40989196  0.84075786  1
  Ca2+  Ca27  1  0.32327584  0.92814757  0.16974624  1
  Ca2+  Ca28  1  0.32563107  0.92612496  0.50645660  1
  Ca2+  Ca29  1  0.32934297  0.93170124  0.84361094  1
  Ca2+  Ca30  1  0.83865169  0.42288340  0.17458571  1
  Ca2+  Ca31  1  0.83076670  0.41076883  0.50138086  1
  Ca2+  Ca32  1  0.83927790  0.42191211  0.84221701  1
  Ca2+  Ca33  1  0.82540539  0.91780124  0.16864277  1
  Ca2+  Ca34  1  0.83011717  0.91972289  0.50203332  1
  Ca2+  Ca35  1  0.83109031  0.91571547  0.84195833  1
  Ca2+  Ca36  1  0.42475395  0.17114625  0.16096811  1
  Ca2+  Ca37  1  0.42126762  0.17081082  0.49775841  1
  Ca2+  Ca38  1  0.41874569  0.16715123  0.83141135  1
  Ca2+  Ca39  1  0.41861924  0.67149428  0.16313632  1
  Ca2+  Ca40  1  0.42642206  0.66436331  0.49728185  1
  Ca2+  Ca41  1  0.42501814  0.66960850  0.82674032  1
  Ca2+  Ca42  1  0.92422491  0.17608876  0.16127464  1
  Ca2+  Ca43  1  0.91994095  0.17755956  0.49097770  1
  Ca2+  Ca44  1  0.92154479  0.17640225  0.83160067  1
  Ca2+  Ca45  1  0.90826640  0.67022695  0.15992780  1
  Ca2+  Ca46  1  0.91206579  0.67187174  0.49803792  1
  Ca2+  Ca47  1  0.91288586  0.67720515  0.83342022  1
  Al0+  Al48  1  -0.00134711  0.00072137  -0.00453293  1
  Al0+  Al49  1  -0.00192350  -0.00208163  0.33457481  1
  Al0+  Al50  1  -0.00308868  -0.00035743  0.66258584  1
  Al0+  Al51  1  0.00292191  0.50303986  0.00517069  1
  Al0+  Al52  1  0.00383801  0.50404335  0.33729185  1
  Al0+  Al53  1  -0.00011476  0.50172494  0.66369357  1
  Al0+  Al54  1  0.49862621  -0.00201499  0.00540297  1
  Al0+  Al55  1  0.49691181  -0.00146423  0.33690519  1
  Al0+  Al56  1  0.49755583  -0.00203808  0.66944867  1
  Al0+  Al57  1  0.50194421  0.50098420  -0.00275438  1
  Al0+  Al58  1  0.50191599  0.50221664  0.33144594  1
  Al0+  Al59  1  0.50022722  0.50071053  0.66055750  1
  Al0+  Al60  1  0.25094849  0.25127903  0.00324545  1
  Al0+  Al61  1  0.25039366  0.24898860  0.32920198  1
  Al0+  Al62  1  0.24883562  0.24887002  0.66949032  1
  Al0+  Al63  1  0.25101701  0.75002000  0.00101419  1
  Al0+  Al64  1  0.24946226  0.75086081  0.33880660  1
  Al0+  Al65  1  0.24814684  0.74847730  0.66996679  1
  Al0+  Al66  1  0.74906718  0.24991070  -0.00810036  1
  Al0+  Al67  1  0.74961396  0.24992127  0.32829074  1
  Al0+  Al68  1  0.74873043  0.24866589  0.66189214  1
  Al0+  Al69  1  0.75137689  0.74943559  0.00318302  1
  Al0+  Al70  1  0.75008954  0.74979871  0.34106412  1
  Al0+  Al71  1  0.75079367  0.74866632  0.65824466  1
  Al0+  Al72  1  0.06976707  0.17694453  0.31895443  1
  Al0+  Al73  1  0.82065617  0.56932568  0.01134179  1
  Al0+  Al74  1  0.67934418  0.42702111  0.34811814  1
  Al0+  Al75  1  0.32100283  0.07285054  0.01859997  1
  Al0+  Al76  1  0.18133444  0.43034939  0.01404244  1
  Al0+  Al77  1  0.68080043  0.93006609  0.01119677  1
  Al0+  Al78  1  0.82400069  0.57040832  0.35159760  1
  Al0+  Al79  1  0.43046866  0.32207047  0.98418963  1
  Al0+  Al80  1  0.57084042  0.17556031  0.31708661  1
  Al0+  Al81  1  0.67752229  0.93043789  0.34892498  1
  Al0+  Al82  1  0.17732623  0.92884857  0.34867552  1
  Al0+  Al83  1  0.92915408  0.32459021  0.31827234  1
  Al0+  Al84  1  0.42718422  0.31996311  0.65195782  1
  Al0+  Al85  1  0.57076086  0.17467469  0.98409852  1
  Al0+  Al86  1  0.17638956  0.92956548  0.01420971  1
  Al0+  Al87  1  0.31884067  0.06976683  0.68173616  1
  Al0+  Al88  1  0.92920523  0.32300404  0.65297801  1
  Al0+  Al89  1  0.92925815  0.32511335  0.98591795  1
  Al0+  Al90  1  0.57118677  0.67936894  0.65178678  1
  Al0+  Al91  1  0.93009124  0.82119609  0.65094281  1
  Al0+  Al92  1  0.07105082  0.17884410  0.98430839  1
  Al0+  Al93  1  0.57014448  0.17562641  0.65084806  1
  Al0+  Al94  1  0.92898983  0.81982747  0.98892980  1
  Al0+  Al95  1  0.42980978  0.32332923  0.31634886  1
  Si0+  Si96  1  0.82173004  0.07129945  0.34909182  1
  Si0+  Si97  1  0.42600779  0.82052025  0.65107289  1
  Si0+  Si98  1  0.07074457  0.17888416  0.65112359  1
  Si0+  Si99  1  0.68081867  0.92760510  0.68100850  1
  Si0+  Si100  1  0.32134123  0.57312270  0.34842994  1
  Si0+  Si101  1  0.57179627  0.68114263  0.98670403  1
  Si0+  Si102  1  0.42734408  0.82012631  0.98593955  1
  Si0+  Si103  1  0.82119420  0.07186035  0.68153130  1
  Si0+  Si104  1  0.07258740  0.67751842  0.64943646  1
  Si0+  Si105  1  0.17453259  0.92654670  0.68438276  1
  Si0+  Si106  1  0.67796176  0.42817133  0.68144540  1
  Si0+  Si107  1  0.07516431  0.67881882  0.98389690  1
  Si0+  Si108  1  0.42734715  0.81914607  0.31980795  1
  Si0+  Si109  1  0.17910680  0.43085611  0.68059435  1
  Si0+  Si110  1  0.57228397  0.68163035  0.31588850  1
  Si0+  Si111  1  0.67743626  0.42695974  0.01318475  1
  Si0+  Si112  1  0.18197394  0.42848060  0.34957540  1
  Si0+  Si113  1  0.82228702  0.07485318  0.01446712  1
  Si0+  Si114  1  0.82007160  0.57042586  0.68259835  1
  Si0+  Si115  1  0.31987184  0.07223906  0.35239472  1
  Si0+  Si116  1  0.07483676  0.68123130  0.31836948  1
  Si0+  Si117  1  0.32604369  0.57328268  0.01608115  1
  Si0+  Si118  1  0.32315730  0.57207305  0.68175863  1
  Si0+  Si119  1  0.92826101  0.81811772  0.31783386  1
  O2-  O120  1  0.24411879  0.00394012  0.06619113  1
  O2-  O121  1  0.24768004  0.00642422  0.39620911  1
  O2-  O122  1  0.24355980  -0.00555259  0.72744567  1
  O2-  O123  1  0.25942262  0.50310661  0.06015711  1
  O2-  O124  1  0.25680496  0.49641018  0.39152863  1
  O2-  O125  1  0.25389455  0.49905772  0.72251599  1
  O2-  O126  1  0.75022596  0.00902460  0.05825575  1
  O2-  O127  1  0.74777916  0.00882779  0.39575743  1
  O2-  O128  1  0.74863145  0.00125384  0.72317283  1
  O2-  O129  1  0.75314528  0.48820704  0.05702341  1
  O2-  O130  1  0.75628104  0.49369571  0.40064225  1
  O2-  O131  1  0.75154626  0.49712284  0.72495594  1
  O2-  O132  1  -0.00011254  0.25111190  0.26978855  1
  O2-  O133  1  0.00162588  0.24650823  0.60664385  1
  O2-  O134  1  -0.00109630  0.25130659  0.93466251  1
  O2-  O135  1  -0.00010478  0.74768177  0.27631402  1
  O2-  O136  1  0.00853071  0.75006388  0.60478204  1
  O2-  O137  1  0.00816632  0.74980625  0.94109548  1
  O2-  O138  1  0.50306268  0.25199323  0.26835177  1
  O2-  O139  1  0.50033993  0.25001327  0.60189577  1
  O2-  O140  1  0.49945769  0.24753195  0.93458733  1
  O2-  O141  1  0.50249039  0.75398373  0.27421066  1
  O2-  O142  1  0.49424315  0.75237416  0.60513695  1
  O2-  O143  1  0.49918624  0.74983696  0.94343372  1
  O2-  O144  1  0.06729396  0.17886788  0.09760065  1
  O2-  O145  1  0.06931180  0.17978727  0.43340556  1
  O2-  O146  1  0.07023631  0.17965634  0.75628072  1
  O2-  O147  1  0.07657725  0.67829991  0.08948031  1
  O2-  O148  1  0.07827149  0.68344762  0.42365404  1
  O2-  O149  1  0.07152497  0.67341839  0.75457122  1
  O2-  O150  1  0.57005621  0.17416453  0.09720381  1
  O2-  O151  1  0.56527260  0.17350595  0.43070311  1
  O2-  O152  1  0.57014411  0.17485531  0.76395244  1
  O2-  O153  1  0.57085520  0.68253763  0.09170858  1
  O2-  O154  1  0.57005389  0.68156242  0.42117661  1
  O2-  O155  1  0.57187015  0.68144556  0.76543908  1
  O2-  O156  1  0.18032130  0.43189839  0.24499129  1
  O2-  O157  1  0.17909498  0.43358193  0.57526561  1
  O2-  O158  1  0.17986395  0.43520696  0.90030944  1
  O2-  O159  1  0.18025865  0.92425014  0.23645440  1
  O2-  O160  1  0.17600958  0.92588460  0.57855967  1
  O2-  O161  1  0.18047420  0.92785564  0.90041611  1
  O2-  O162  1  0.67660436  0.43294811  0.23467912  1
  O2-  O163  1  0.67883230  0.43051087  0.57666954  1
  O2-  O164  1  0.67440649  0.43337880  0.90736861  1
  O2-  O165  1  0.68158402  0.92617044  0.23612286  1
  O2-  O166  1  0.68202851  0.92722936  0.57592609  1
  O2-  O167  1  0.68332641  0.92466706  0.89775123  1
  O2-  O168  1  0.43568714  0.32533508  0.09712050  1
  O2-  O169  1  0.42883653  0.32094679  0.43012623  1
  O2-  O170  1  0.42792679  0.32084779  0.76490840  1
  O2-  O171  1  0.42616984  0.81675043  0.09112631  1
  O2-  O172  1  0.42721179  0.81413340  0.42501321  1
  O2-  O173  1  0.42757609  0.81783160  0.75677142  1
  O2-  O174  1  0.93185659  0.32614733  0.09889617  1
  O2-  O175  1  0.93276175  0.32249650  0.43249274  1
  O2-  O176  1  0.93254564  0.32595408  0.76560719  1
  O2-  O177  1  0.92578993  0.81581075  0.10177398  1
  O2-  O178  1  0.92952235  0.81734071  0.42326100  1
  O2-  O179  1  0.92751286  0.81900265  0.76391806  1
  O2-  O180  1  0.32198768  0.06903815  0.24746149  1
  O2-  O181  1  0.31646925  0.06799067  0.56848151  1
  O2-  O182  1  0.32191374  0.06863254  0.90460908  1
  O2-  O183  1  0.31700638  0.58011604  0.24390710  1
  O2-  O184  1  0.32094980  0.57644777  0.57675156  1
  O2-  O185  1  0.32575848  0.57576134  0.91025990  1
  O2-  O186  1  0.82555254  0.06495785  0.24398295  1
  O2-  O187  1  0.82371953  0.06948693  0.57657023  1
  O2-  O188  1  0.82300822  0.07147938  0.90841344  1
  O2-  O189  1  0.81997389  0.57420470  0.23808348  1
  O2-  O190  1  0.81969948  0.57093415  0.57793947  1
  O2-  O191  1  0.81676032  0.57329816  0.89767443  1
  O2-  O192  1  0.04017423  0.07807490  0.26800742  1
  O2-  O193  1  0.04642281  0.08491687  0.60525591  1
  O2-  O194  1  0.04421847  0.08099014  0.92937031  1
  O2-  O195  1  0.05240918  0.58763096  0.27294787  1
  O2-  O196  1  0.04321267  0.58694251  0.59930540  1
  O2-  O197  1  0.04604654  0.58724824  0.93644200  1
  O2-  O198  1  0.53846484  0.07635961  0.26701386  1
  O2-  O199  1  0.54006293  0.07618204  0.60052103  1
  O2-  O200  1  0.54151647  0.07470016  0.93372327  1
  O2-  O201  1  0.54295605  0.59150346  0.26734741  1
  O2-  O202  1  0.53934910  0.58496488  0.59462096  1
  O2-  O203  1  0.54616727  0.59003568  0.93709917  1
  O2-  O204  1  0.16855710  0.20307501  0.26769583  1
  O2-  O205  1  0.16333217  0.20626145  0.60483503  1
  O2-  O206  1  0.16978239  0.20916419  0.93442428  1
  O2-  O207  1  0.16491386  0.71245941  0.27011533  1
  O2-  O208  1  0.16838843  0.69850712  0.60468284  1
  O2-  O209  1  0.16967190  0.70010893  0.93673440  1
  O2-  O210  1  0.67143359  0.19629940  0.26639539  1
  O2-  O211  1  0.66930921  0.20056651  0.59828537  1
  O2-  O212  1  0.66948047  0.19963707  0.92960719  1
  O2-  O213  1  0.66466765  0.71114941  0.27159541  1
  O2-  O214  1  0.66484914  0.71172999  0.59439283  1
  O2-  O215  1  0.66155874  0.71261888  0.93791303  1
  O2-  O216  1  0.08841584  0.46678252  0.07154245  1
  O2-  O217  1  0.09313264  0.46168631  0.40008274  1
  O2-  O218  1  0.08901564  0.46465183  0.72806244  1
  O2-  O219  1  0.07548019  0.95249422  0.06421634  1
  O2-  O220  1  0.07920480  0.95508835  0.40241708  1
  O2-  O221  1  0.07949302  0.95241265  0.72684940  1
  O2-  O222  1  0.58785489  0.46181871  0.06180703  1
  O2-  O223  1  0.58280261  0.46477832  0.40160085  1
  O2-  O224  1  0.58684035  0.46111779  0.72734398  1
  O2-  O225  1  0.58302954  0.95183080  0.06647547  1
  O2-  O226  1  0.57853231  0.95325193  0.40301890  1
  O2-  O227  1  0.58692684  0.94922501  0.72706430  1
  O2-  O228  1  0.20885226  0.33501411  0.07033534  1
  O2-  O229  1  0.20702522  0.33572884  0.39661278  1
  O2-  O230  1  0.20251218  0.33849464  0.72778909  1
  O2-  O231  1  0.20723363  0.83041699  0.06569894  1
  O2-  O232  1  0.21294586  0.83438779  0.40580902  1
  O2-  O233  1  0.19675635  0.83126428  0.72898351  1
  O2-  O234  1  0.69462150  0.33022726  0.05436897  1
  O2-  O235  1  0.70154667  0.32603984  0.39914508  1
  O2-  O236  1  0.70245497  0.33460941  0.72643098  1
  O2-  O237  1  0.71567591  0.83574755  0.06781275  1
  O2-  O238  1  0.71227316  0.83578992  0.40492740  1
  O2-  O239  1  0.71239118  0.83545238  0.72596626  1
  O2-  O240  1  0.45238881  0.42481861  0.26680201  1
  O2-  O241  1  0.44993622  0.42046203  0.60068647  1
  O2-  O242  1  0.45796415  0.42188356  0.93095537  1
  O2-  O243  1  0.44915313  0.91246853  0.27482120  1
  O2-  O244  1  0.45172973  0.91323402  0.60490849  1
  O2-  O245  1  0.45621442  0.91082646  0.93878457  1
  O2-  O246  1  0.96059087  0.42463179  0.27086389  1
  O2-  O247  1  0.96131060  0.41884903  0.59829630  1
  O2-  O248  1  0.96254347  0.42364925  0.93434769  1
  O2-  O249  1  0.95413187  0.91023949  0.27199272  1
  O2-  O250  1  0.95673349  0.91799107  0.59480627  1
  O2-  O251  1  0.95441354  0.91603950  0.93166783  1
  O2-  O252  1  0.33117036  0.29411022  0.26554554  1
  O2-  O253  1  0.32790069  0.29068766  0.60044906  1
  O2-  O254  1  0.32983938  0.29804347  0.93550395  1
  O2-  O255  1  0.33795805  0.78437993  0.27229129  1
  O2-  O256  1  0.33125033  0.79524463  0.60679170  1
  O2-  O257  1  0.33729395  0.79123679  0.93554095  1
  O2-  O258  1  0.82999732  0.30092070  0.26658481  1
  O2-  O259  1  0.83260504  0.29282307  0.59991419  1
  O2-  O260  1  0.83018519  0.30138137  0.93193746  1
  O2-  O261  1  0.83604934  0.78815896  0.27299236  1
  O2-  O262  1  0.83643331  0.78638989  0.59438038  1
  O2-  O263  1  0.83488625  0.78251069  0.93269482  1
  O2-  O264  1  0.41576953  0.03561071  0.07291352  1
  O2-  O265  1  0.41045676  0.04036942  0.40106895  1
  O2-  O266  1  0.41450783  0.03605857  0.73669418  1
  O2-  O267  1  0.42076290  0.55164057  0.06183302  1
  O2-  O268  1  0.41590138  0.55249401  0.39302485  1
  O2-  O269  1  0.41663949  0.54828840  0.72770014  1
  O2-  O270  1  0.91375565  0.04469094  0.06122910  1
  O2-  O271  1  0.91147872  0.03834649  0.39979838  1
  O2-  O272  1  0.91244670  0.04174850  0.72928282  1
  O2-  O273  1  0.91890146  0.54918723  0.06597547  1
  O2-  O274  1  0.92596979  0.55329298  0.40303455  1
  O2-  O275  1  0.91383754  0.54600235  0.72806633  1
  O2-  O276  1  0.29850823  0.17216483  0.06981965  1
  O2-  O277  1  0.29555853  0.16678233  0.39731994  1
  O2-  O278  1  0.28779631  0.16600431  0.73637822  1
  O2-  O279  1  0.29876826  0.66586511  0.06364993  1
  O2-  O280  1  0.28718789  0.66047606  0.40134950  1
  O2-  O281  1  0.29411173  0.66270265  0.73230945  1
  O2-  O282  1  0.80095734  0.17025507  0.05812622  1
  O2-  O283  1  0.80358836  0.16772932  0.39138831  1
  O2-  O284  1  0.79570782  0.16446116  0.72824965  1
  O2-  O285  1  0.78258991  0.66192375  0.06823954  1
  O2-  O286  1  0.78814834  0.66608049  0.40642880  1
  O2-  O287  1  0.78837749  0.66260010  0.72756865  1
