# generated using pymatgen
data_Ca2Al2SiO7
_symmetry_space_group_name_H-M   'P 1'
_cell_length_a   15.47725127
_cell_length_b   15.47483473
_cell_length_c   15.29817815
_cell_angle_alpha   90.01464287
_cell_angle_beta   90.01273891
_cell_angle_gamma   89.99418603
_symmetry_Int_Tables_number   1
_chemical_formula_structural   Ca2Al2SiO7
_chemical_formula_sum   'Ca48 Al48 Si24 O168'
_cell_volume   3664.03437620
_cell_formula_units_Z   24
loop_
 _symmetry_equiv_pos_site_id
 _symmetry_equiv_pos_as_xyz
  1  'x, y, z'
loop_
 _atom_type_symbol
 _atom_type_oxidation_number
  Ca2+  2.0
  Al0+  0.0
  Si0+  0.0
  O2-  -2.0
loop_
 _atom_site_type_symbol
 _atom_site_label
 _atom_site_symmetry_multiplicity
 _atom_site_fract_x
 _atom_site_fract_y
 _atom_site_fract_z
 _atom_site_occupancy
  Ca2+  Ca0  1  0.17847818  0.07041321  0.16929602  1
  Ca2+  Ca1  1  0.17279861  0.07563241  0.51112155  1
  Ca2+  Ca2  1  0.17199520  0.07409949  0.83248178  1
  Ca2+  Ca3  1  0.17358880  0.59349290  0.16611394  1
  Ca2+  Ca4  1  0.15889799  0.57904037  0.50804161  1
  Ca2+  Ca5  1  0.16486109  0.58014742  0.83903785  1
  Ca2+  Ca6  1  0.66204692  0.07443267  0.16406248  1
  Ca2+  Ca7  1  0.67658934  0.07815173  0.51252985  1
  Ca2+  Ca8  1  0.67281109  0.07175965  0.83022981  1
  Ca2+  Ca9  1  0.66518202  0.58548668  0.16777567  1
  Ca2+  Ca10  1  0.66542087  0.57794659  0.51462084  1
  Ca2+  Ca11  1  0.65473171  0.58194718  0.83481088  1
  Ca2+  Ca12  1  0.08303541  0.32926281  0.16170378  1
  Ca2+  Ca13  1  0.08589484  0.32689510  0.50737317  1
  Ca2+  Ca14  1  0.08204099  0.32590805  0.81837565  1
  Ca2+  Ca15  1  0.09252069  0.82861599  0.16135452  1
  Ca2+  Ca16  1  0.09137942  0.82874235  0.49885947  1
  Ca2+  Ca17  1  0.08792250  0.82741269  0.82330996  1
  Ca2+  Ca18  1  0.57448514  0.32585978  0.15677141  1
  Ca2+  Ca19  1  0.57891687  0.33359328  0.50506706  1
  Ca2+  Ca20  1  0.57184927  0.33192771  0.82532422  1
  Ca2+  Ca21  1  0.57514031  0.82957715  0.15234043  1
  Ca2+  Ca22  1  0.57776199  0.84087145  0.50577514  1
  Ca2+  Ca23  1  0.57554317  0.83345667  0.82592125  1
  Ca2+  Ca24  1  0.33826791  0.42326291  0.16223989  1
  Ca2+  Ca25  1  0.32772002  0.42045009  0.51269437  1
  Ca2+  Ca26  1  0.33532938  0.42145036  0.83497777  1
  Ca2+  Ca27  1  0.32593179  0.91570094  0.16908775  1
  Ca2+  Ca28  1  0.32524752  0.92458578  0.50907389  1
  Ca2+  Ca29  1  0.32778302  0.91722457  0.83923717  1
  Ca2+  Ca30  1  0.83087465  0.42074622  0.17078961  1
  Ca2+  Ca31  1  0.82808676  0.41748826  0.51395367  1
  Ca2+  Ca32  1  0.82796527  0.41342114  0.83124569  1
  Ca2+  Ca33  1  0.82447156  0.91011195  0.16422320  1
  Ca2+  Ca34  1  0.82889238  0.91745793  0.51517874  1
  Ca2+  Ca35  1  0.82296942  0.90317524  0.83063789  1
  Ca2+  Ca36  1  0.40499644  0.17003438  0.15973876  1
  Ca2+  Ca37  1  0.40303323  0.17037838  0.50168632  1
  Ca2+  Ca38  1  0.40216027  0.17474554  0.82686565  1
  Ca2+  Ca39  1  0.42020646  0.67359240  0.15184173  1
  Ca2+  Ca40  1  0.41826963  0.67525914  0.50692694  1
  Ca2+  Ca41  1  0.41937197  0.67997582  0.83110304  1
  Ca2+  Ca42  1  0.91880665  0.16825146  0.16194227  1
  Ca2+  Ca43  1  0.92163182  0.16233790  0.50678009  1
  Ca2+  Ca44  1  0.92236169  0.16986880  0.81974387  1
  Ca2+  Ca45  1  0.93137487  0.66797710  0.16232911  1
  Ca2+  Ca46  1  0.92749041  0.67343418  0.50500131  1
  Ca2+  Ca47  1  0.92942748  0.67223412  0.82593686  1
  Al0+  Al48  1  -0.00131031  0.00053914  0.00494424  1
  Al0+  Al49  1  -0.00208952  -0.00013023  0.33194408  1
  Al0+  Al50  1  0.00177494  0.00104578  0.66597741  1
  Al0+  Al51  1  -0.00265674  0.49950209  -0.00058122  1
  Al0+  Al52  1  -0.00152753  0.50154432  0.32885788  1
  Al0+  Al53  1  -0.00175923  0.49925928  0.66457737  1
  Al0+  Al54  1  0.50283937  0.00308598  0.00375590  1
  Al0+  Al55  1  0.50111484  0.00216783  0.33538752  1
  Al0+  Al56  1  0.50226817  0.00304979  0.66911991  1
  Al0+  Al57  1  0.49897874  0.49629058  -0.00003005  1
  Al0+  Al58  1  0.49962057  0.49838865  0.33313405  1
  Al0+  Al59  1  0.50003637  0.49790124  0.66264409  1
  Al0+  Al60  1  0.24634446  0.25036491  -0.00021595  1
  Al0+  Al61  1  0.24808722  0.25314483  0.33178081  1
  Al0+  Al62  1  0.24772770  0.25315452  0.66421245  1
  Al0+  Al63  1  0.25182261  0.74687101  -0.00034780  1
  Al0+  Al64  1  0.25286542  0.74901417  0.33361638  1
  Al0+  Al65  1  0.25471249  0.74906783  0.65978343  1
  Al0+  Al66  1  0.74811441  0.25101401  0.00249826  1
  Al0+  Al67  1  0.74719140  0.25064913  0.33054377  1
  Al0+  Al68  1  0.74818267  0.25153320  0.67198293  1
  Al0+  Al69  1  0.75261789  0.74684959  0.00441840  1
  Al0+  Al70  1  0.75206027  0.74835101  0.33453052  1
  Al0+  Al71  1  0.75264469  0.74688166  0.66307451  1
  Al0+  Al72  1  0.42853799  0.31927455  0.65197168  1
  Al0+  Al73  1  0.07178929  0.17841832  0.65147115  1
  Al0+  Al74  1  0.57053808  0.67932645  0.65261009  1
  Al0+  Al75  1  0.42985955  0.82408054  0.98644519  1
  Al0+  Al76  1  0.07090445  0.68039080  0.31783725  1
  Al0+  Al77  1  0.42969194  0.82640675  0.65060129  1
  Al0+  Al78  1  0.67761809  0.43001255  0.68221921  1
  Al0+  Al79  1  0.18073311  0.92546422  0.68079159  1
  Al0+  Al80  1  0.82356484  0.07134210  0.68082989  1
  Al0+  Al81  1  0.42780017  0.31700186  0.98568558  1
  Al0+  Al82  1  0.68042567  0.92581970  0.68119155  1
  Al0+  Al83  1  0.32122113  0.07273781  0.68138677  1
  Al0+  Al84  1  0.17908451  0.92648973  0.01417706  1
  Al0+  Al85  1  0.32099827  0.07324684  0.34906667  1
  Al0+  Al86  1  0.32092060  0.07362238  0.01340825  1
  Al0+  Al87  1  0.32084017  0.56817769  0.01193279  1
  Al0+  Al88  1  0.57360769  0.67800895  0.98723148  1
  Al0+  Al89  1  0.92625948  0.32059801  0.65254084  1
  Al0+  Al90  1  0.07422295  0.67913220  0.65292240  1
  Al0+  Al91  1  0.93054023  0.82216199  0.65361199  1
  Al0+  Al92  1  0.17902364  0.92705784  0.34917937  1
  Al0+  Al93  1  0.07186519  0.67989871  0.98665307  1
  Al0+  Al94  1  0.17770950  0.43275049  0.67933330  1
  Al0+  Al95  1  0.68012112  0.92743308  0.01357217  1
  Si0+  Si96  1  0.32389363  0.57107441  0.68203436  1
  Si0+  Si97  1  0.06764548  0.17946162  0.98626508  1
  Si0+  Si98  1  0.57193609  0.67685766  0.31926460  1
  Si0+  Si99  1  0.82197741  0.57085626  0.68534395  1
  Si0+  Si100  1  0.82145059  0.56954170  0.34983047  1
  Si0+  Si101  1  0.92872868  0.82257339  0.98545726  1
  Si0+  Si102  1  0.92693061  0.32001906  0.31734308  1
  Si0+  Si103  1  0.82310160  0.56933593  0.01819333  1
  Si0+  Si104  1  0.57291460  0.17929120  0.65006938  1
  Si0+  Si105  1  0.67891262  0.42969833  0.34844243  1
  Si0+  Si106  1  0.17691689  0.43114956  0.34691802  1
  Si0+  Si107  1  0.68057431  0.92796723  0.34764084  1
  Si0+  Si108  1  0.67895775  0.42900939  0.01773105  1
  Si0+  Si109  1  0.57231458  0.18054063  0.31705979  1
  Si0+  Si110  1  0.17453451  0.42887926  0.01727379  1
  Si0+  Si111  1  0.92630005  0.32116517  0.98619407  1
  Si0+  Si112  1  0.92565197  0.82335446  0.31464724  1
  Si0+  Si113  1  0.81927139  0.07345587  0.34620522  1
  Si0+  Si114  1  0.07078441  0.17899356  0.31587794  1
  Si0+  Si115  1  0.32312109  0.56960635  0.34870977  1
  Si0+  Si116  1  0.57515147  0.17808394  0.98142611  1
  Si0+  Si117  1  0.82066221  0.07442659  0.01849451  1
  Si0+  Si118  1  0.43304044  0.82110314  0.31848631  1
  Si0+  Si119  1  0.42790261  0.32141398  0.31668689  1
  O2-  O120  1  0.25521009  -0.00434295  0.06344100  1
  O2-  O121  1  0.24813121  0.00229175  0.39772272  1
  O2-  O122  1  0.25500953  -0.00466152  0.73036930  1
  O2-  O123  1  0.24314356  0.49721513  0.06206563  1
  O2-  O124  1  0.24817801  0.50180715  0.38860717  1
  O2-  O125  1  0.24782682  0.51070696  0.72585442  1
  O2-  O126  1  0.75374413  0.00352508  0.06229003  1
  O2-  O127  1  0.75416942  -0.00285541  0.38745619  1
  O2-  O128  1  0.75694873  -0.00588800  0.72996731  1
  O2-  O129  1  0.74831677  0.50133756  0.06085253  1
  O2-  O130  1  0.74689499  0.50232749  0.39148981  1
  O2-  O131  1  0.75009108  0.50580741  0.73026251  1
  O2-  O132  1  -0.00258987  0.24920575  0.27374243  1
  O2-  O133  1  -0.00301727  0.24864251  0.60119352  1
  O2-  O134  1  -0.00484564  0.24934764  0.94525541  1
  O2-  O135  1  0.00003558  0.75987958  0.27178792  1
  O2-  O136  1  0.00812365  0.75668355  0.60238342  1
  O2-  O137  1  0.00315847  0.76042686  0.94238973  1
  O2-  O138  1  0.49533511  0.24614843  0.27576450  1
  O2-  O139  1  0.49929251  0.24172957  0.60362478  1
  O2-  O140  1  0.49824834  0.23821231  0.93976574  1
  O2-  O141  1  0.50452250  0.74993761  0.27623672  1
  O2-  O142  1  0.50378152  0.75490407  0.60079096  1
  O2-  O143  1  0.50638126  0.75467875  0.93939056  1
  O2-  O144  1  0.06534336  0.18272299  0.09229805  1
  O2-  O145  1  0.07099691  0.18080885  0.41999895  1
  O2-  O146  1  0.07233538  0.18237020  0.76522542  1
  O2-  O147  1  0.06851666  0.67827700  0.10028558  1
  O2-  O148  1  0.06630846  0.67499049  0.42979746  1
  O2-  O149  1  0.07062512  0.67590719  0.76624611  1
  O2-  O150  1  0.58158215  0.18393440  0.08770614  1
  O2-  O151  1  0.58093792  0.18452113  0.42084150  1
  O2-  O152  1  0.57635692  0.18322568  0.75515161  1
  O2-  O153  1  0.57174171  0.67900255  0.10231524  1
  O2-  O154  1  0.57127269  0.67337152  0.42338370  1
  O2-  O155  1  0.56568205  0.67749424  0.76565516  1
  O2-  O156  1  0.17696313  0.42868631  0.24167353  1
  O2-  O157  1  0.17983787  0.43273708  0.56524320  1
  O2-  O158  1  0.17152377  0.42911348  0.91252087  1
  O2-  O159  1  0.18239648  0.92681916  0.23540479  1
  O2-  O160  1  0.18119402  0.92759645  0.56704149  1
  O2-  O161  1  0.17538936  0.92823617  0.90169005  1
  O2-  O162  1  0.67981562  0.43002227  0.24300466  1
  O2-  O163  1  0.67859254  0.43119104  0.56813406  1
  O2-  O164  1  0.68052700  0.42679214  0.91358219  1
  O2-  O165  1  0.68028682  0.92781026  0.24234942  1
  O2-  O166  1  0.68159350  0.92977206  0.56662945  1
  O2-  O167  1  0.68331939  0.92553625  0.90183953  1
  O2-  O168  1  0.43182108  0.31858894  0.09994762  1
  O2-  O169  1  0.42935107  0.32502938  0.42102835  1
  O2-  O170  1  0.43008353  0.32052599  0.76478140  1
  O2-  O171  1  0.43063391  0.81987753  0.10133843  1
  O2-  O172  1  0.43529594  0.82095596  0.42294564  1
  O2-  O173  1  0.42882125  0.82516915  0.76372186  1
  O2-  O174  1  0.92628599  0.32079700  0.09239698  1
  O2-  O175  1  0.92362467  0.32028020  0.42118314  1
  O2-  O176  1  0.92788301  0.31984204  0.76651564  1
  O2-  O177  1  0.92604057  0.81869562  0.09160985  1
  O2-  O178  1  0.91875947  0.82094089  0.41901261  1
  O2-  O179  1  0.92843324  0.81563852  0.76710576  1
  O2-  O180  1  0.32023409  0.07270104  0.23555783  1
  O2-  O181  1  0.31715049  0.07276422  0.56747577  1
  O2-  O182  1  0.31368414  0.07845200  0.90133295  1
  O2-  O183  1  0.32640480  0.56752663  0.24355036  1
  O2-  O184  1  0.32541760  0.56640425  0.57558128  1
  O2-  O185  1  0.32151494  0.56557107  0.89990994  1
  O2-  O186  1  0.81607898  0.07691412  0.24097226  1
  O2-  O187  1  0.81758364  0.07308663  0.56616781  1
  O2-  O188  1  0.82014152  0.08058886  0.91444873  1
  O2-  O189  1  0.82091839  0.56691268  0.24430376  1
  O2-  O190  1  0.82112470  0.56762372  0.57908159  1
  O2-  O191  1  0.82790107  0.56650773  0.91443299  1
  O2-  O192  1  0.04267330  0.08731619  0.26781442  1
  O2-  O193  1  0.04518570  0.08128829  0.59570926  1
  O2-  O194  1  0.04039791  0.08714106  0.94138433  1
  O2-  O195  1  0.03452742  0.58527059  0.26202050  1
  O2-  O196  1  0.03657409  0.58363983  0.59872765  1
  O2-  O197  1  0.03463468  0.58377921  0.93572706  1
  O2-  O198  1  0.54962234  0.08652727  0.27099859  1
  O2-  O199  1  0.55571506  0.08431537  0.60439848  1
  O2-  O200  1  0.56230296  0.08089054  0.94150669  1
  O2-  O201  1  0.54316848  0.58477867  0.27126446  1
  O2-  O202  1  0.53765508  0.58274351  0.59694369  1
  O2-  O203  1  0.54357814  0.57910435  0.93864600  1
  O2-  O204  1  0.16033745  0.21254641  0.26683698  1
  O2-  O205  1  0.16538656  0.21543395  0.59421676  1
  O2-  O206  1  0.15734246  0.21016759  0.93915620  1
  O2-  O207  1  0.17092453  0.70597430  0.26693835  1
  O2-  O208  1  0.17395630  0.69725373  0.59862803  1
  O2-  O209  1  0.17031829  0.70029132  0.93485817  1
  O2-  O210  1  0.66006709  0.21469212  0.26392227  1
  O2-  O211  1  0.66302046  0.21349273  0.60166885  1
  O2-  O212  1  0.66495652  0.21426448  0.93482117  1
  O2-  O213  1  0.66623778  0.70086073  0.27397474  1
  O2-  O214  1  0.67099722  0.69907071  0.60024231  1
  O2-  O215  1  0.67577161  0.69687428  0.93982177  1
  O2-  O216  1  0.08041277  0.45284961  0.06468787  1
  O2-  O217  1  0.08447813  0.45931719  0.39215905  1
  O2-  O218  1  0.07965052  0.45769106  0.73269790  1
  O2-  O219  1  0.08082993  0.95747944  0.06927690  1
  O2-  O220  1  0.07597182  0.95000553  0.39458654  1
  O2-  O221  1  0.08196912  0.95380175  0.73142352  1
  O2-  O222  1  0.58753628  0.45462264  0.06697624  1
  O2-  O223  1  0.58596895  0.45479787  0.39455702  1
  O2-  O224  1  0.58067457  0.46050951  0.73483119  1
  O2-  O225  1  0.58552497  0.95932846  0.07215074  1
  O2-  O226  1  0.59007630  0.95857193  0.39472384  1
  O2-  O227  1  0.58436578  0.95868794  0.73448508  1
  O2-  O228  1  0.20170005  0.33617715  0.06470131  1
  O2-  O229  1  0.20451536  0.33954446  0.39383680  1
  O2-  O230  1  0.21068725  0.33751798  0.73273993  1
  O2-  O231  1  0.20703629  0.82763140  0.06691864  1
  O2-  O232  1  0.21050850  0.82873989  0.40010816  1
  O2-  O233  1  0.20781398  0.82489480  0.72957731  1
  O2-  O234  1  0.71002434  0.33881348  0.06846220  1
  O2-  O235  1  0.70901886  0.33808676  0.39387127  1
  O2-  O236  1  0.70896434  0.33585326  0.73887719  1
  O2-  O237  1  0.71350492  0.83181484  0.07099524  1
  O2-  O238  1  0.70565751  0.83485815  0.39335506  1
  O2-  O239  1  0.70797727  0.82615969  0.73138594  1
  O2-  O240  1  0.46155453  0.41141199  0.26766392  1
  O2-  O241  1  0.46437431  0.41260685  0.59455408  1
  O2-  O242  1  0.46370825  0.41161973  0.93319270  1
  O2-  O243  1  0.46087856  0.91364935  0.27226859  1
  O2-  O244  1  0.46043142  0.92430901  0.59704557  1
  O2-  O245  1  0.45487120  0.92465217  0.93836007  1
  O2-  O246  1  0.95566884  0.41126853  0.26836356  1
  O2-  O247  1  0.95467312  0.41787911  0.59779683  1
  O2-  O248  1  0.95238137  0.41270046  0.93982375  1
  O2-  O249  1  0.94241161  0.91956536  0.26940599  1
  O2-  O250  1  0.94772515  0.92309669  0.60265606  1
  O2-  O251  1  0.94376777  0.91989656  0.94493068  1
  O2-  O252  1  0.33460382  0.29916726  0.26899011  1
  O2-  O253  1  0.33216328  0.29266432  0.59584944  1
  O2-  O254  1  0.32823929  0.29380633  0.93493050  1
  O2-  O255  1  0.34174800  0.79109162  0.27186125  1
  O2-  O256  1  0.33537399  0.79309930  0.59203956  1
  O2-  O257  1  0.33398569  0.78966020  0.93426552  1
  O2-  O258  1  0.83533155  0.29191870  0.26737500  1
  O2-  O259  1  0.82692792  0.29364939  0.60067570  1
  O2-  O260  1  0.83328966  0.29559200  0.94139139  1
  O2-  O261  1  0.83423771  0.78971376  0.26577335  1
  O2-  O262  1  0.83548970  0.78721136  0.59614344  1
  O2-  O263  1  0.83801431  0.78832267  0.94010432  1
  O2-  O264  1  0.42411901  0.05945143  0.06273482  1
  O2-  O265  1  0.42208834  0.04957897  0.39893446  1
  O2-  O266  1  0.42360462  0.05712170  0.72938090  1
  O2-  O267  1  0.41550608  0.53260644  0.06990262  1
  O2-  O268  1  0.41307058  0.53674722  0.39689020  1
  O2-  O269  1  0.41283014  0.53434470  0.72825833  1
  O2-  O270  1  0.91367511  0.05009751  0.06713107  1
  O2-  O271  1  0.91362341  0.05295282  0.39035491  1
  O2-  O272  1  0.92417483  0.05341496  0.73103067  1
  O2-  O273  1  0.91155324  0.53506576  0.07019690  1
  O2-  O274  1  0.91162347  0.53686403  0.39601730  1
  O2-  O275  1  0.91329525  0.54029731  0.73215094  1
  O2-  O276  1  0.28357063  0.16946589  0.06963668  1
  O2-  O277  1  0.29287888  0.17439349  0.39674106  1
  O2-  O278  1  0.28613880  0.17023046  0.73108554  1
  O2-  O279  1  0.29245638  0.66371910  0.06972982  1
  O2-  O280  1  0.30013873  0.66241344  0.39464047  1
  O2-  O281  1  0.30865860  0.66796338  0.72235611  1
  O2-  O282  1  0.79195257  0.16708368  0.06788135  1
  O2-  O283  1  0.78583599  0.16357488  0.39328099  1
  O2-  O284  1  0.78876931  0.16698231  0.73535133  1
  O2-  O285  1  0.79871292  0.66036676  0.06923139  1
  O2-  O286  1  0.79750615  0.66263495  0.39566866  1
  O2-  O287  1  0.80095274  0.66511309  0.72980661  1
