# generated using pymatgen
data_Ca2Al2SiO7
_symmetry_space_group_name_H-M   'P 1'
_cell_length_a   15.45816074
_cell_length_b   15.45946172
_cell_length_c   15.28393857
_cell_angle_alpha   90.01562618
_cell_angle_beta   89.99572207
_cell_angle_gamma   89.98751046
_symmetry_Int_Tables_number   1
_chemical_formula_structural   Ca2Al2SiO7
_chemical_formula_sum   'Ca48 Al48 Si24 O168'
_cell_volume   3652.47660546
_cell_formula_units_Z   24
loop_
 _symmetry_equiv_pos_site_id
 _symmetry_equiv_pos_as_xyz
  1  'x, y, z'
loop_
 _atom_type_symbol
 _atom_type_oxidation_number
  Ca2+  2.0
  Al0+  0.0
  Si0+  0.0
  O2-  -2.0
loop_
 _atom_site_type_symbol
 _atom_site_label
 _atom_site_symmetry_multiplicity
 _atom_site_fract_x
 _atom_site_fract_y
 _atom_site_fract_z
 _atom_site_occupancy
  Ca2+  Ca0  1  0.17108105  0.07773251  0.17046780  1
  Ca2+  Ca1  1  0.17044218  0.07969181  0.50851443  1
  Ca2+  Ca2  1  0.17327618  0.08878867  0.83081498  1
  Ca2+  Ca3  1  0.17428258  0.58016581  0.16975477  1
  Ca2+  Ca4  1  0.16459718  0.56925665  0.50544267  1
  Ca2+  Ca5  1  0.17636708  0.57653952  0.83897093  1
  Ca2+  Ca6  1  0.66631663  0.07392640  0.16469048  1
  Ca2+  Ca7  1  0.67137659  0.07944551  0.50678311  1
  Ca2+  Ca8  1  0.67268031  0.08730396  0.84245516  1
  Ca2+  Ca9  1  0.65981115  0.57836968  0.16345077  1
  Ca2+  Ca10  1  0.66673636  0.58498989  0.50474554  1
  Ca2+  Ca11  1  0.65433351  0.57854199  0.84065595  1
  Ca2+  Ca12  1  0.07284076  0.34081907  0.16546209  1
  Ca2+  Ca13  1  0.08627630  0.32805423  0.49533729  1
  Ca2+  Ca14  1  0.07882749  0.32916208  0.82687439  1
  Ca2+  Ca15  1  0.07228613  0.84358883  0.16351839  1
  Ca2+  Ca16  1  0.07751793  0.83698462  0.49063247  1
  Ca2+  Ca17  1  0.07591440  0.83615112  0.83357838  1
  Ca2+  Ca18  1  0.58211626  0.32598494  0.15198636  1
  Ca2+  Ca19  1  0.57902811  0.32492594  0.50196873  1
  Ca2+  Ca20  1  0.57678579  0.32723436  0.83240475  1
  Ca2+  Ca21  1  0.57709271  0.83386817  0.15727490  1
  Ca2+  Ca22  1  0.57298953  0.83816397  0.49620467  1
  Ca2+  Ca23  1  0.57879870  0.82762637  0.83045691  1
  Ca2+  Ca24  1  0.33743327  0.42533211  0.16888737  1
  Ca2+  Ca25  1  0.32272820  0.41029152  0.50952141  1
  Ca2+  Ca26  1  0.33534418  0.41437644  0.84050710  1
  Ca2+  Ca27  1  0.33201424  0.91265018  0.17430583  1
  Ca2+  Ca28  1  0.33202599  0.91663033  0.50436653  1
  Ca2+  Ca29  1  0.34135344  0.91771049  0.83578890  1
  Ca2+  Ca30  1  0.82890281  0.40871326  0.16751120  1
  Ca2+  Ca31  1  0.83572552  0.41672133  0.50271696  1
  Ca2+  Ca32  1  0.82574328  0.41713584  0.84394237  1
  Ca2+  Ca33  1  0.82270373  0.91251441  0.16910056  1
  Ca2+  Ca34  1  0.82727443  0.91807526  0.50525983  1
  Ca2+  Ca35  1  0.82633947  0.92829515  0.84403012  1
  Ca2+  Ca36  1  0.42454329  0.17328060  0.15666647  1
  Ca2+  Ca37  1  0.41562711  0.16440424  0.50523802  1
  Ca2+  Ca38  1  0.42890015  0.16930045  0.82506349  1
  Ca2+  Ca39  1  0.41819016  0.67645152  0.15635486  1
  Ca2+  Ca40  1  0.42109343  0.67604770  0.49911266  1
  Ca2+  Ca41  1  0.42324532  0.67261639  0.83193699  1
  Ca2+  Ca42  1  0.91498235  0.17380922  0.15919579  1
  Ca2+  Ca43  1  0.92042864  0.16766903  0.49927492  1
  Ca2+  Ca44  1  0.91604849  0.16639127  0.82973679  1
  Ca2+  Ca45  1  0.91820850  0.67872111  0.16261226  1
  Ca2+  Ca46  1  0.91962885  0.67324909  0.49240785  1
  Ca2+  Ca47  1  0.91115524  0.67593342  0.83398033  1
  Al0+  Al48  1  0.00064701  0.00154539  -0.00106919  1
  Al0+  Al49  1  0.00129275  0.00182499  0.33235512  1
  Al0+  Al50  1  -0.00149257  0.00165377  0.66683441  1
  Al0+  Al51  1  -0.00003953  0.50052660  -0.00392148  1
  Al0+  Al52  1  0.00059764  0.49967145  0.33319010  1
  Al0+  Al53  1  -0.00092973  0.50154366  0.67341102  1
  Al0+  Al54  1  0.50085457  0.00138725  -0.00239097  1
  Al0+  Al55  1  0.50208550  -0.00003369  0.33360521  1
  Al0+  Al56  1  0.49940729  -0.00121156  0.66288538  1
  Al0+  Al57  1  0.49832096  0.50076970  0.00492456  1
  Al0+  Al58  1  0.50142680  0.49990578  0.33757353  1
  Al0+  Al59  1  0.49885924  0.50118306  0.65663894  1
  Al0+  Al60  1  0.24670539  0.24943067  0.00191223  1
  Al0+  Al61  1  0.25174896  0.25039801  0.33463760  1
  Al0+  Al62  1  0.24687370  0.24686133  0.66852760  1
  Al0+  Al63  1  0.24908664  0.74873185  0.00106515  1
  Al0+  Al64  1  0.25131789  0.74970929  0.33581798  1
  Al0+  Al65  1  0.24732468  0.74707349  0.66370262  1
  Al0+  Al66  1  0.75208958  0.25124970  0.00115632  1
  Al0+  Al67  1  0.75076489  0.24954280  0.33192311  1
  Al0+  Al68  1  0.74936045  0.25182894  0.66596812  1
  Al0+  Al69  1  0.75065025  0.74998395  -0.00438669  1
  Al0+  Al70  1  0.75007792  0.74879541  0.33464109  1
  Al0+  Al71  1  0.75050313  0.74969407  0.66373375  1
  Al0+  Al72  1  0.57161542  0.17904510  0.98597641  1
  Al0+  Al73  1  0.32032021  0.57013796  0.01386120  1
  Al0+  Al74  1  0.42702935  0.82127214  0.65010203  1
  Al0+  Al75  1  0.93050338  0.32040516  0.32030921  1
  Al0+  Al76  1  0.82300287  0.07207491  0.01709600  1
  Al0+  Al77  1  0.67833571  0.92783909  0.01361517  1
  Al0+  Al78  1  0.92997041  0.32157074  0.98543165  1
  Al0+  Al79  1  0.17857903  0.92955689  0.34612328  1
  Al0+  Al80  1  0.32069403  0.06751791  0.68083047  1
  Al0+  Al81  1  0.68001873  0.43116736  0.01282006  1
  Al0+  Al82  1  0.57077250  0.67911629  0.98741443  1
  Al0+  Al83  1  0.42691604  0.32193050  0.98837324  1
  Al0+  Al84  1  0.18007241  0.43081685  0.34701123  1
  Al0+  Al85  1  0.81995536  0.07146299  0.67998088  1
  Al0+  Al86  1  0.42732126  0.31978059  0.65175284  1
  Al0+  Al87  1  0.43020286  0.82042226  0.31852071  1
  Al0+  Al88  1  0.17886917  0.42734201  0.68274720  1
  Al0+  Al89  1  0.57397025  0.17833688  0.65045385  1
  Al0+  Al90  1  0.92914928  0.82247003  0.32026723  1
  Al0+  Al91  1  0.92895734  0.82211267  0.98576031  1
  Al0+  Al92  1  0.42626794  0.82261136  0.98560857  1
  Al0+  Al93  1  0.06896465  0.17946252  0.65272883  1
  Al0+  Al94  1  0.68003457  0.92794094  0.34829168  1
  Al0+  Al95  1  0.57244943  0.67882312  0.64913811  1
  Si0+  Si96  1  0.42861851  0.32159043  0.31879263  1
  Si0+  Si97  1  0.67830318  0.92698752  0.68304285  1
  Si0+  Si98  1  0.07178853  0.67753903  0.31757818  1
  Si0+  Si99  1  0.32159767  0.07191441  0.01419643  1
  Si0+  Si100  1  0.07511313  0.17846161  0.31568409  1
  Si0+  Si101  1  0.07206738  0.67795979  0.98253030  1
  Si0+  Si102  1  0.67896474  0.42624346  0.35013393  1
  Si0+  Si103  1  0.67827161  0.43147412  0.67962242  1
  Si0+  Si104  1  0.57149409  0.18024872  0.31774475  1
  Si0+  Si105  1  0.92809085  0.32449927  0.65082208  1
  Si0+  Si106  1  0.93088156  0.82097068  0.65130438  1
  Si0+  Si107  1  0.07210783  0.17669157  0.98248637  1
  Si0+  Si108  1  0.17978946  0.92871364  0.01369944  1
  Si0+  Si109  1  0.32413828  0.57244686  0.35355338  1
  Si0+  Si110  1  0.17592668  0.42670107  0.01765108  1
  Si0+  Si111  1  0.82041350  0.56948255  0.34756180  1
  Si0+  Si112  1  0.82124579  0.57283470  0.68241861  1
  Si0+  Si113  1  0.57268350  0.67620490  0.31528170  1
  Si0+  Si114  1  0.32161087  0.57128016  0.68268558  1
  Si0+  Si115  1  0.06939096  0.67706249  0.65171403  1
  Si0+  Si116  1  0.17621820  0.92510815  0.68358846  1
  Si0+  Si117  1  0.82500677  0.57316707  0.01742317  1
  Si0+  Si118  1  0.32315889  0.07197080  0.34967891  1
  Si0+  Si119  1  0.82166611  0.07347491  0.35026083  1
  O2-  O120  1  0.25403102  -0.00320277  0.05567594  1
  O2-  O121  1  0.25368051  0.00321018  0.39273497  1
  O2-  O122  1  0.24929782  -0.01128246  0.72788912  1
  O2-  O123  1  0.24740940  0.49286386  0.06089517  1
  O2-  O124  1  0.25624250  0.50228542  0.39674980  1
  O2-  O125  1  0.25755178  0.49846635  0.72779798  1
  O2-  O126  1  0.75183289  -0.00170231  0.06535528  1
  O2-  O127  1  0.75738197  0.00074240  0.39454639  1
  O2-  O128  1  0.74226157  0.00020706  0.72649833  1
  O2-  O129  1  0.75567885  0.50507579  0.06158348  1
  O2-  O130  1  0.74939964  0.49872239  0.39096754  1
  O2-  O131  1  0.74790444  0.50383683  0.72234944  1
  O2-  O132  1  0.00571737  0.24684626  0.27249978  1
  O2-  O133  1  -0.00360209  0.25631235  0.60583206  1
  O2-  O134  1  0.00398317  0.24661624  0.93976140  1
  O2-  O135  1  0.00855948  0.75165199  0.27387141  1
  O2-  O136  1  0.00231322  0.75091611  0.60812770  1
  O2-  O137  1  0.00235126  0.74590097  0.93836449  1
  O2-  O138  1  0.50065956  0.25224221  0.27658713  1
  O2-  O139  1  0.49873428  0.24746376  0.59993603  1
  O2-  O140  1  0.49671268  0.24899712  0.93774617  1
  O2-  O141  1  0.50373310  0.74458310  0.27227167  1
  O2-  O142  1  0.50216613  0.75237403  0.59973779  1
  O2-  O143  1  0.50139590  0.75322762  0.93739219  1
  O2-  O144  1  0.07446028  0.17551715  0.08823020  1
  O2-  O145  1  0.07551869  0.17878807  0.42124940  1
  O2-  O146  1  0.06707213  0.17963731  0.76558815  1
  O2-  O147  1  0.07176613  0.67792008  0.08825666  1
  O2-  O148  1  0.06660606  0.67490085  0.42352017  1
  O2-  O149  1  0.06746507  0.67691359  0.75659290  1
  O2-  O150  1  0.56876376  0.17941747  0.10055299  1
  O2-  O151  1  0.57250461  0.18177959  0.42276481  1
  O2-  O152  1  0.57623606  0.18248496  0.76329189  1
  O2-  O153  1  0.56804796  0.67894850  0.10129741  1
  O2-  O154  1  0.57207032  0.67506372  0.42077312  1
  O2-  O155  1  0.57252670  0.67759616  0.76210546  1
  O2-  O156  1  0.17990208  0.43449289  0.23416170  1
  O2-  O157  1  0.17606757  0.43064935  0.56915044  1
  O2-  O158  1  0.17474898  0.42802853  0.91217073  1
  O2-  O159  1  0.17848384  0.93238518  0.23270078  1
  O2-  O160  1  0.17341113  0.92699993  0.57790072  1
  O2-  O161  1  0.17748833  0.92911661  0.90865581  1
  O2-  O162  1  0.67779798  0.42523418  0.24535801  1
  O2-  O163  1  0.68268356  0.43142817  0.57388401  1
  O2-  O164  1  0.68021385  0.43244525  0.89947694  1
  O2-  O165  1  0.67888298  0.92845165  0.23570901  1
  O2-  O166  1  0.68334452  0.92554776  0.57690330  1
  O2-  O167  1  0.68037155  0.92783829  0.90010915  1
  O2-  O168  1  0.42910638  0.31974238  0.10300239  1
  O2-  O169  1  0.42787638  0.32020159  0.42363914  1
  O2-  O170  1  0.43060288  0.32090214  0.76488498  1
  O2-  O171  1  0.42375332  0.82038807  0.09951228  1
  O2-  O172  1  0.43032042  0.82013995  0.43127735  1
  O2-  O173  1  0.42635199  0.81844337  0.76323710  1
  O2-  O174  1  0.93240439  0.32208759  0.09895336  1
  O2-  O175  1  0.93040719  0.32019453  0.43347665  1
  O2-  O176  1  0.92839367  0.32537498  0.75613985  1
  O2-  O177  1  0.93168379  0.82103046  0.09902573  1
  O2-  O178  1  0.92987283  0.81878230  0.43390601  1
  O2-  O179  1  0.93143888  0.81923474  0.75628634  1
  O2-  O180  1  0.32234466  0.07357737  0.24373112  1
  O2-  O181  1  0.31629596  0.06730064  0.56736071  1
  O2-  O182  1  0.31895777  0.07409898  0.90951267  1
  O2-  O183  1  0.32442155  0.57139516  0.24789043  1
  O2-  O184  1  0.31647992  0.57207811  0.57695567  1
  O2-  O185  1  0.31755001  0.57076686  0.90087966  1
  O2-  O186  1  0.81886562  0.07644811  0.24529510  1
  O2-  O187  1  0.82191681  0.06732243  0.56638927  1
  O2-  O188  1  0.82321986  0.07075269  0.90324560  1
  O2-  O189  1  0.82074934  0.56995756  0.24296546  1
  O2-  O190  1  0.82499970  0.57204179  0.57691942  1
  O2-  O191  1  0.82717532  0.57070896  0.91163665  1
  O2-  O192  1  0.05016635  0.08517006  0.26908459  1
  O2-  O193  1  0.03663597  0.08336087  0.59727136  1
  O2-  O194  1  0.04739361  0.08432729  0.93423449  1
  O2-  O195  1  0.04010827  0.58723104  0.26884079  1
  O2-  O196  1  0.03589166  0.58686487  0.60368727  1
  O2-  O197  1  0.04788902  0.58488905  0.93491763  1
  O2-  O198  1  0.54288252  0.08887710  0.27096569  1
  O2-  O199  1  0.54825612  0.07914207  0.59835546  1
  O2-  O200  1  0.54528824  0.08170063  0.93168474  1
  O2-  O201  1  0.54788140  0.58056164  0.27179625  1
  O2-  O202  1  0.54419224  0.58219403  0.59168832  1
  O2-  O203  1  0.53774226  0.58190594  0.93561270  1
  O2-  O204  1  0.16898756  0.20405262  0.26951279  1
  O2-  O205  1  0.16476124  0.20812166  0.59725652  1
  O2-  O206  1  0.16535021  0.20303596  0.93615478  1
  O2-  O207  1  0.16793791  0.69688053  0.27545617  1
  O2-  O208  1  0.16143461  0.69857047  0.60254624  1
  O2-  O209  1  0.16384005  0.70618203  0.93505764  1
  O2-  O210  1  0.66268815  0.20914220  0.27046586  1
  O2-  O211  1  0.67024645  0.21233830  0.59447761  1
  O2-  O212  1  0.66921448  0.21045565  0.93550399  1
  O2-  O213  1  0.66744185  0.69923702  0.27168952  1
  O2-  O214  1  0.67294086  0.70408269  0.59668445  1
  O2-  O215  1  0.67070307  0.69913614  0.93409819  1
  O2-  O216  1  0.08345454  0.45839943  0.06343419  1
  O2-  O217  1  0.08367077  0.46297021  0.40181093  1
  O2-  O218  1  0.08372901  0.46343756  0.73737922  1
  O2-  O219  1  0.08986707  0.96137621  0.06233187  1
  O2-  O220  1  0.08195959  0.96039660  0.40139688  1
  O2-  O221  1  0.08450155  0.95661648  0.73038369  1
  O2-  O222  1  0.58494368  0.46139369  0.07078055  1
  O2-  O223  1  0.58738309  0.45329765  0.39901958  1
  O2-  O224  1  0.58504913  0.45914973  0.72324377  1
  O2-  O225  1  0.57990622  0.95814417  0.06724367  1
  O2-  O226  1  0.58473526  0.96293191  0.40270554  1
  O2-  O227  1  0.58188819  0.94513647  0.72373114  1
  O2-  O228  1  0.19494010  0.33177727  0.06396137  1
  O2-  O229  1  0.20927212  0.33265446  0.39962412  1
  O2-  O230  1  0.20364904  0.32961189  0.73548798  1
  O2-  O231  1  0.20197170  0.83618193  0.06196247  1
  O2-  O232  1  0.20463135  0.83130263  0.40000945  1
  O2-  O233  1  0.19457778  0.82849686  0.72669211  1
  O2-  O234  1  0.71280448  0.33616568  0.06898829  1
  O2-  O235  1  0.70949225  0.33565154  0.39846215  1
  O2-  O236  1  0.70704318  0.34067284  0.72739950  1
  O2-  O237  1  0.70769050  0.82861779  0.06565277  1
  O2-  O238  1  0.70966241  0.83066041  0.40241388  1
  O2-  O239  1  0.71004502  0.83458842  0.72817021  1
  O2-  O240  1  0.45578648  0.41539226  0.27499567  1
  O2-  O241  1  0.45414789  0.41718931  0.59542039  1
  O2-  O242  1  0.45531996  0.41993403  0.93744341  1
  O2-  O243  1  0.45986798  0.91846577  0.26664187  1
  O2-  O244  1  0.45267636  0.91961216  0.59583095  1
  O2-  O245  1  0.45142303  0.92175227  0.93456548  1
  O2-  O246  1  0.96084207  0.41723375  0.26618477  1
  O2-  O247  1  0.95337536  0.41954587  0.60685509  1
  O2-  O248  1  0.95883492  0.41841517  0.93051937  1
  O2-  O249  1  0.95749999  0.91988411  0.26700508  1
  O2-  O250  1  0.95835477  0.91226460  0.60382991  1
  O2-  O251  1  0.96394304  0.91710310  0.93143157  1
  O2-  O252  1  0.33716939  0.29434208  0.27050755  1
  O2-  O253  1  0.32879221  0.28888160  0.60044902  1
  O2-  O254  1  0.32598061  0.29766763  0.93978534  1
  O2-  O255  1  0.33152559  0.79101548  0.26701264  1
  O2-  O256  1  0.32758708  0.79082914  0.59818857  1
  O2-  O257  1  0.32802215  0.79233819  0.93341993  1
  O2-  O258  1  0.83329539  0.29040002  0.26671252  1
  O2-  O259  1  0.83488408  0.29971081  0.60394896  1
  O2-  O260  1  0.83358784  0.29283029  0.93169263  1
  O2-  O261  1  0.83434322  0.78533372  0.26728577  1
  O2-  O262  1  0.84004102  0.79121769  0.60327933  1
  O2-  O263  1  0.83469305  0.79095130  0.92866320  1
  O2-  O264  1  0.41421906  0.04931052  0.06169760  1
  O2-  O265  1  0.41632422  0.04615530  0.39565336  1
  O2-  O266  1  0.41948819  0.04144668  0.73306215  1
  O2-  O267  1  0.41437869  0.54060207  0.07327523  1
  O2-  O268  1  0.41826233  0.54764876  0.39934341  1
  O2-  O269  1  0.41817908  0.55028027  0.72335611  1
  O2-  O270  1  0.92314298  0.04557709  0.06823248  1
  O2-  O271  1  0.91790690  0.05306042  0.39297904  1
  O2-  O272  1  0.91551467  0.03797211  0.73453868  1
  O2-  O273  1  0.91900144  0.54770834  0.06330875  1
  O2-  O274  1  0.91158985  0.54097025  0.39675479  1
  O2-  O275  1  0.91097508  0.54503624  0.73369921  1
  O2-  O276  1  0.28896924  0.16129052  0.06536636  1
  O2-  O277  1  0.29757735  0.16545837  0.39631525  1
  O2-  O278  1  0.28494948  0.16179351  0.73554445  1
  O2-  O279  1  0.28471668  0.66510373  0.07018153  1
  O2-  O280  1  0.29749963  0.66536183  0.39974309  1
  O2-  O281  1  0.28953283  0.66283192  0.72969439  1
  O2-  O282  1  0.79473824  0.17041887  0.06951622  1
  O2-  O283  1  0.79141577  0.16535138  0.39862835  1
  O2-  O284  1  0.79402436  0.17079133  0.73111224  1
  O2-  O285  1  0.80098270  0.66748239  0.06184538  1
  O2-  O286  1  0.79327123  0.66020909  0.39821887  1
  O2-  O287  1  0.79611644  0.66587979  0.72886779  1
