# generated using pymatgen
data_Ca2Al2SiO7
_symmetry_space_group_name_H-M   'P 1'
_cell_length_a   15.46202200
_cell_length_b   15.46196935
_cell_length_c   15.28706661
_cell_angle_alpha   90.01658229
_cell_angle_beta   89.99700063
_cell_angle_gamma   90.01220673
_symmetry_Int_Tables_number   1
_chemical_formula_structural   Ca2Al2SiO7
_chemical_formula_sum   'Ca48 Al48 Si24 O168'
_cell_volume   3654.72937620
_cell_formula_units_Z   24
loop_
 _symmetry_equiv_pos_site_id
 _symmetry_equiv_pos_as_xyz
  1  'x, y, z'
loop_
 _atom_type_symbol
 _atom_type_oxidation_number
  Ca2+  2.0
  Al0+  0.0
  Si0+  0.0
  O2-  -2.0
loop_
 _atom_site_type_symbol
 _atom_site_label
 _atom_site_symmetry_multiplicity
 _atom_site_fract_x
 _atom_site_fract_y
 _atom_site_fract_z
 _atom_site_occupancy
  Ca2+  Ca0  1  0.17078294  0.07115687  0.17276936  1
  Ca2+  Ca1  1  0.17056268  0.07048507  0.50063011  1
  Ca2+  Ca2  1  0.16535895  0.06882132  0.83597606  1
  Ca2+  Ca3  1  0.16685003  0.58518337  0.16285607  1
  Ca2+  Ca4  1  0.16970524  0.58192361  0.51204767  1
  Ca2+  Ca5  1  0.17245248  0.58666477  0.83879560  1
  Ca2+  Ca6  1  0.67779714  0.08238225  0.17022527  1
  Ca2+  Ca7  1  0.67823920  0.07464744  0.50659509  1
  Ca2+  Ca8  1  0.67668626  0.07364838  0.83179261  1
  Ca2+  Ca9  1  0.66778768  0.57533289  0.17246856  1
  Ca2+  Ca10  1  0.66145630  0.57323096  0.50741373  1
  Ca2+  Ca11  1  0.66180224  0.58326953  0.83182088  1
  Ca2+  Ca12  1  0.08052990  0.33195787  0.16105374  1
  Ca2+  Ca13  1  0.07791195  0.33219229  0.49435287  1
  Ca2+  Ca14  1  0.09126204  0.33203358  0.82748121  1
  Ca2+  Ca15  1  0.07849234  0.83737318  0.16070516  1
  Ca2+  Ca16  1  0.08064015  0.83581006  0.50014873  1
  Ca2+  Ca17  1  0.08284839  0.82819830  0.82695357  1
  Ca2+  Ca18  1  0.57881703  0.33206979  0.16132389  1
  Ca2+  Ca19  1  0.58793950  0.33389115  0.49529674  1
  Ca2+  Ca20  1  0.57779902  0.33570323  0.82881830  1
  Ca2+  Ca21  1  0.57346203  0.83745285  0.16487940  1
  Ca2+  Ca22  1  0.57447134  0.83804958  0.49870646  1
  Ca2+  Ca23  1  0.57539843  0.82775803  0.81788785  1
  Ca2+  Ca24  1  0.33099688  0.41935266  0.16388038  1
  Ca2+  Ca25  1  0.32548785  0.42622028  0.51156316  1
  Ca2+  Ca26  1  0.32394656  0.42808348  0.83886026  1
  Ca2+  Ca27  1  0.32113008  0.91460942  0.17637268  1
  Ca2+  Ca28  1  0.32745388  0.90995170  0.50361066  1
  Ca2+  Ca29  1  0.32000503  0.90184071  0.83343108  1
  Ca2+  Ca30  1  0.82966514  0.41759481  0.17689525  1
  Ca2+  Ca31  1  0.82443947  0.41367371  0.50430164  1
  Ca2+  Ca32  1  0.82798382  0.42032861  0.83290054  1
  Ca2+  Ca33  1  0.84326760  0.92488050  0.17194947  1
  Ca2+  Ca34  1  0.83891849  0.92219119  0.50843338  1
  Ca2+  Ca35  1  0.84314692  0.92194100  0.83572594  1
  Ca2+  Ca36  1  0.41455247  0.17058955  0.16021709  1
  Ca2+  Ca37  1  0.41733071  0.16585043  0.49229192  1
  Ca2+  Ca38  1  0.41047199  0.17743293  0.82958439  1
  Ca2+  Ca39  1  0.41473424  0.66817547  0.16517241  1
  Ca2+  Ca40  1  0.41634898  0.67526213  0.50573916  1
  Ca2+  Ca41  1  0.41700898  0.66469810  0.82391516  1
  Ca2+  Ca42  1  0.90935779  0.16963072  0.16560012  1
  Ca2+  Ca43  1  0.91182937  0.16733769  0.49484583  1
  Ca2+  Ca44  1  0.91270008  0.16407835  0.82988618  1
  Ca2+  Ca45  1  0.92489010  0.68060852  0.15735813  1
  Ca2+  Ca46  1  0.92214551  0.67800438  0.49673386  1
  Ca2+  Ca47  1  0.92922372  0.67768184  0.82589256  1
  Al0+  Al48  1  -0.00008706  0.00452003  0.00641588  1
  Al0+  Al49  1  0.00281408  0.00096687  0.33761730  1
  Al0+  Al50  1  0.00344417  0.00293740  0.67026134  1
  Al0+  Al51  1  -0.00142545  0.50086799  0.00040609  1
  Al0+  Al52  1  -0.00110110  0.50001714  0.32858392  1
  Al0+  Al53  1  -0.00284019  0.49767402  0.66548535  1
  Al0+  Al54  1  0.50289246  0.00086228  -0.00285033  1
  Al0+  Al55  1  0.50113451  0.00125681  0.32843307  1
  Al0+  Al56  1  0.50235292  0.00393438  0.66670680  1
  Al0+  Al57  1  0.49796960  0.49898135  0.00050893  1
  Al0+  Al58  1  0.49944737  0.49866260  0.33661939  1
  Al0+  Al59  1  0.49791743  0.49920283  0.66960768  1
  Al0+  Al60  1  0.24909895  0.25159764  -0.00228099  1
  Al0+  Al61  1  0.24982986  0.25001967  0.33520946  1
  Al0+  Al62  1  0.24928952  0.24996437  0.66538723  1
  Al0+  Al63  1  0.25023112  0.74889967  0.00760783  1
  Al0+  Al64  1  0.25149112  0.74774773  0.33340344  1
  Al0+  Al65  1  0.25102809  0.74905828  0.66590928  1
  Al0+  Al66  1  0.74893818  0.24838631  0.00128595  1
  Al0+  Al67  1  0.74913228  0.24947916  0.33570783  1
  Al0+  Al68  1  0.74873769  0.24986536  0.67498956  1
  Al0+  Al69  1  0.74805844  0.75083790  -0.00211387  1
  Al0+  Al70  1  0.75042765  0.74874889  0.32744999  1
  Al0+  Al71  1  0.74927278  0.74820403  0.66111830  1
  Al0+  Al72  1  0.31816212  0.57060371  0.68166153  1
  Al0+  Al73  1  0.82039416  0.06907965  0.34738533  1
  Al0+  Al74  1  0.17508715  0.42723457  0.67961457  1
  Al0+  Al75  1  0.32346863  0.07242322  0.34652449  1
  Al0+  Al76  1  0.07153434  0.67718255  0.65154666  1
  Al0+  Al77  1  0.07180477  0.67969086  0.98480754  1
  Al0+  Al78  1  0.18079221  0.92972068  0.01421232  1
  Al0+  Al79  1  0.92804784  0.31938372  0.32036717  1
  Al0+  Al80  1  0.42874190  0.32004922  0.98519508  1
  Al0+  Al81  1  0.17630511  0.42772245  0.01663904  1
  Al0+  Al82  1  0.93034258  0.82360019  0.65177916  1
  Al0+  Al83  1  0.43026088  0.82064518  0.31835962  1
  Al0+  Al84  1  0.57195369  0.67605212  0.65140336  1
  Al0+  Al85  1  0.68019763  0.43058359  0.34633199  1
  Al0+  Al86  1  0.32170533  0.57049594  0.01836738  1
  Al0+  Al87  1  0.67773739  0.92563803  0.67973248  1
  Al0+  Al88  1  0.93016941  0.82285446  0.31938008  1
  Al0+  Al89  1  0.82176893  0.06868263  0.68250511  1
  Al0+  Al90  1  0.92897092  0.82502512  0.98524208  1
  Al0+  Al91  1  0.67889675  0.42999271  0.68193402  1
  Al0+  Al92  1  0.18072027  0.92691553  0.35054004  1
  Al0+  Al93  1  0.42969575  0.82360250  0.65272190  1
  Al0+  Al94  1  0.81960089  0.06965710  0.01604703  1
  Al0+  Al95  1  0.18237870  0.92994039  0.68045776  1
  Si0+  Si96  1  0.42793699  0.32142637  0.31890157  1
  Si0+  Si97  1  0.57097950  0.17996516  0.31745818  1
  Si0+  Si98  1  0.82052283  0.57285583  0.01470769  1
  Si0+  Si99  1  0.07242329  0.18015620  0.65065649  1
  Si0+  Si100  1  0.67755699  0.92589702  0.34722151  1
  Si0+  Si101  1  0.32432144  0.07394382  0.68276490  1
  Si0+  Si102  1  0.07022261  0.18194970  0.98498481  1
  Si0+  Si103  1  0.82255877  0.57285226  0.68298532  1
  Si0+  Si104  1  0.32127493  0.56883234  0.35047422  1
  Si0+  Si105  1  0.42873934  0.31955692  0.64970681  1
  Si0+  Si106  1  0.57077085  0.67498176  0.31571992  1
  Si0+  Si107  1  0.07325148  0.17982249  0.31576396  1
  Si0+  Si108  1  0.67625506  0.92581799  0.01770807  1
  Si0+  Si109  1  0.42979314  0.82131622  0.98685661  1
  Si0+  Si110  1  0.92589800  0.32180651  0.98452882  1
  Si0+  Si111  1  0.17699139  0.42876222  0.34758680  1
  Si0+  Si112  1  0.57239291  0.18179302  0.65041494  1
  Si0+  Si113  1  0.57368903  0.17845213  0.98037288  1
  Si0+  Si114  1  0.57015040  0.67773746  0.98623507  1
  Si0+  Si115  1  0.67984539  0.43025075  0.01504502  1
  Si0+  Si116  1  0.07274903  0.67657625  0.31562154  1
  Si0+  Si117  1  0.92600334  0.31911389  0.65311625  1
  Si0+  Si118  1  0.32358375  0.07314713  0.01350851  1
  Si0+  Si119  1  0.82329701  0.57322418  0.34914550  1
  O2-  O120  1  0.26008359  0.00125555  0.05890701  1
  O2-  O121  1  0.25677447  -0.00290928  0.39778129  1
  O2-  O122  1  0.26187485  0.00034320  0.72738010  1
  O2-  O123  1  0.24754543  0.49976541  0.06805192  1
  O2-  O124  1  0.24655690  0.50037109  0.39027789  1
  O2-  O125  1  0.24140995  0.50302717  0.73037178  1
  O2-  O126  1  0.74821182  -0.00878448  0.06180638  1
  O2-  O127  1  0.75186095  -0.01199778  0.39167580  1
  O2-  O128  1  0.75595012  -0.00977787  0.73139231  1
  O2-  O129  1  0.75108859  0.49997656  0.05823048  1
  O2-  O130  1  0.75379725  0.50545401  0.39379423  1
  O2-  O131  1  0.74998777  0.50777803  0.72853399  1
  O2-  O132  1  0.00334599  0.24715221  0.27065584  1
  O2-  O133  1  0.00048213  0.25185924  0.61102246  1
  O2-  O134  1  0.00082902  0.25519118  0.94259039  1
  O2-  O135  1  0.00534581  0.74776449  0.27350031  1
  O2-  O136  1  0.00072585  0.75010197  0.60105414  1
  O2-  O137  1  0.00146026  0.75367389  0.93585013  1
  O2-  O138  1  0.49607843  0.24785960  0.27597579  1
  O2-  O139  1  0.49924214  0.24933849  0.60569574  1
  O2-  O140  1  0.50096674  0.24331920  0.93698105  1
  O2-  O141  1  0.50642394  0.74712812  0.27040192  1
  O2-  O142  1  0.50575659  0.75457177  0.60323003  1
  O2-  O143  1  0.50168150  0.75129670  0.94528013  1
  O2-  O144  1  0.07047862  0.18262220  0.08998877  1
  O2-  O145  1  0.07492492  0.18341503  0.42138472  1
  O2-  O146  1  0.07434013  0.18085413  0.75605151  1
  O2-  O147  1  0.06854238  0.67967719  0.09881063  1
  O2-  O148  1  0.07119136  0.67198090  0.42087268  1
  O2-  O149  1  0.07089451  0.67773386  0.76485097  1
  O2-  O150  1  0.57517540  0.18071139  0.08632204  1
  O2-  O151  1  0.57221436  0.18240234  0.42246991  1
  O2-  O152  1  0.57202600  0.18462530  0.75547575  1
  O2-  O153  1  0.57038754  0.67622246  0.09160775  1
  O2-  O154  1  0.56853999  0.67110763  0.42046573  1
  O2-  O155  1  0.56671124  0.67412686  0.76561752  1
  O2-  O156  1  0.17831306  0.42735011  0.24283221  1
  O2-  O157  1  0.17925851  0.42465219  0.56534415  1
  O2-  O158  1  0.17898399  0.42534413  0.90383293  1
  O2-  O159  1  0.18074058  0.92970070  0.23660800  1
  O2-  O160  1  0.18159981  0.93288773  0.56788433  1
  O2-  O161  1  0.18143598  0.93068625  0.90111334  1
  O2-  O162  1  0.67936823  0.43110805  0.23260624  1
  O2-  O163  1  0.68153387  0.42694588  0.56878119  1
  O2-  O164  1  0.68023074  0.43060725  0.91015898  1
  O2-  O165  1  0.67498955  0.93021716  0.24136951  1
  O2-  O166  1  0.67426330  0.93333215  0.56620749  1
  O2-  O167  1  0.67153373  0.92686222  0.91287345  1
  O2-  O168  1  0.43241588  0.31855836  0.09904372  1
  O2-  O169  1  0.42923314  0.32175446  0.42399732  1
  O2-  O170  1  0.42917643  0.31702984  0.75478604  1
  O2-  O171  1  0.43260124  0.82170516  0.09221347  1
  O2-  O172  1  0.43148662  0.82022493  0.43071141  1
  O2-  O173  1  0.42926727  0.82147608  0.76683181  1
  O2-  O174  1  0.92282455  0.31912444  0.08971206  1
  O2-  O175  1  0.92872830  0.31828897  0.43351177  1
  O2-  O176  1  0.92362993  0.31713749  0.75846937  1
  O2-  O177  1  0.93033496  0.82284112  0.09927764  1
  O2-  O178  1  0.93018321  0.82136189  0.43196665  1
  O2-  O179  1  0.93413372  0.82373731  0.76526870  1
  O2-  O180  1  0.32095045  0.07470698  0.23266930  1
  O2-  O181  1  0.32115813  0.07829061  0.57747104  1
  O2-  O182  1  0.32118805  0.07500314  0.90801621  1
  O2-  O183  1  0.32429975  0.56656200  0.24555436  1
  O2-  O184  1  0.31957247  0.56707452  0.56737310  1
  O2-  O185  1  0.32509953  0.56957940  0.90570905  1
  O2-  O186  1  0.81624541  0.07176567  0.23425912  1
  O2-  O187  1  0.81879311  0.07322034  0.56899030  1
  O2-  O188  1  0.81725975  0.07299842  0.90360060  1
  O2-  O189  1  0.82114795  0.57026912  0.24306516  1
  O2-  O190  1  0.82493576  0.56703516  0.57750090  1
  O2-  O191  1  0.81808166  0.57097903  0.90994476  1
  O2-  O192  1  0.04871702  0.08565687  0.27162896  1
  O2-  O193  1  0.04385443  0.08974908  0.60235394  1
  O2-  O194  1  0.03896998  0.09136006  0.93777218  1
  O2-  O195  1  0.04515394  0.58431005  0.26673404  1
  O2-  O196  1  0.04217240  0.57763495  0.59919581  1
  O2-  O197  1  0.04206554  0.58046541  0.93389116  1
  O2-  O198  1  0.54808668  0.08871460  0.26647647  1
  O2-  O199  1  0.54847302  0.08993136  0.60189859  1
  O2-  O200  1  0.55324856  0.08323488  0.93536298  1
  O2-  O201  1  0.53913177  0.58273578  0.26804488  1
  O2-  O202  1  0.53652272  0.57886119  0.59832451  1
  O2-  O203  1  0.54114924  0.58641422  0.93889128  1
  O2-  O204  1  0.16610656  0.20787538  0.26832187  1
  O2-  O205  1  0.16298918  0.20861452  0.60056490  1
  O2-  O206  1  0.16171790  0.20695991  0.93535578  1
  O2-  O207  1  0.16775787  0.69882420  0.27142606  1
  O2-  O208  1  0.16996498  0.70447092  0.59897207  1
  O2-  O209  1  0.17264528  0.70665776  0.93682788  1
  O2-  O210  1  0.66008094  0.21385611  0.26828540  1
  O2-  O211  1  0.66304468  0.21507982  0.60386954  1
  O2-  O212  1  0.66464058  0.21076546  0.93314767  1
  O2-  O213  1  0.66605062  0.69411460  0.26959613  1
  O2-  O214  1  0.67274375  0.69166044  0.59871595  1
  O2-  O215  1  0.66251907  0.70148868  0.93829151  1
  O2-  O216  1  0.07595216  0.45295413  0.06837814  1
  O2-  O217  1  0.08360755  0.45456265  0.39279783  1
  O2-  O218  1  0.07314164  0.44376725  0.72893985  1
  O2-  O219  1  0.08708206  0.96692454  0.06929010  1
  O2-  O220  1  0.08510832  0.96112442  0.40460093  1
  O2-  O221  1  0.08936439  0.96747248  0.73625543  1
  O2-  O222  1  0.58864239  0.45895791  0.06280832  1
  O2-  O223  1  0.58320225  0.45905482  0.40101330  1
  O2-  O224  1  0.58160284  0.45708466  0.73547195  1
  O2-  O225  1  0.58411342  0.95742713  0.06591662  1
  O2-  O226  1  0.58639748  0.95874489  0.39312381  1
  O2-  O227  1  0.58257649  0.96312299  0.73566509  1
  O2-  O228  1  0.20742803  0.32914082  0.06939675  1
  O2-  O229  1  0.20509423  0.33743646  0.39541766  1
  O2-  O230  1  0.20971068  0.33033433  0.73248687  1
  O2-  O231  1  0.20950432  0.83446029  0.07073415  1
  O2-  O232  1  0.20755161  0.82706361  0.40055128  1
  O2-  O233  1  0.21082616  0.83285200  0.73356601  1
  O2-  O234  1  0.70685738  0.33783729  0.06152627  1
  O2-  O235  1  0.71142619  0.33490355  0.40090815  1
  O2-  O236  1  0.71303409  0.33655738  0.73957559  1
  O2-  O237  1  0.69556673  0.83048219  0.06323246  1
  O2-  O238  1  0.69426654  0.82854743  0.38786637  1
  O2-  O239  1  0.69416194  0.82273022  0.72707039  1
  O2-  O240  1  0.46017564  0.41163645  0.27079249  1
  O2-  O241  1  0.45706568  0.41103360  0.60334464  1
  O2-  O242  1  0.46394881  0.41517166  0.93174085  1
  O2-  O243  1  0.46005909  0.91746666  0.26247978  1
  O2-  O244  1  0.45422457  0.92462434  0.60180997  1
  O2-  O245  1  0.45494801  0.91401921  0.93995964  1
  O2-  O246  1  0.95563300  0.41660629  0.26496206  1
  O2-  O247  1  0.94744431  0.41139928  0.60428254  1
  O2-  O248  1  0.94685562  0.41569776  0.93917172  1
  O2-  O249  1  0.96245152  0.92039073  0.26745369  1
  O2-  O250  1  0.96183216  0.92293615  0.60151704  1
  O2-  O251  1  0.95626222  0.92585711  0.93796082  1
  O2-  O252  1  0.33514881  0.29660544  0.27170653  1
  O2-  O253  1  0.33712492  0.29121608  0.60162076  1
  O2-  O254  1  0.33231673  0.29056429  0.93014121  1
  O2-  O255  1  0.33434579  0.78635413  0.26462277  1
  O2-  O256  1  0.33391148  0.78988999  0.59817300  1
  O2-  O257  1  0.33762139  0.79204756  0.94288584  1
  O2-  O258  1  0.83156461  0.28727072  0.26569797  1
  O2-  O259  1  0.83511361  0.28657467  0.60611311  1
  O2-  O260  1  0.83552250  0.28919766  0.93647958  1
  O2-  O261  1  0.83232430  0.79493728  0.26423467  1
  O2-  O262  1  0.83054648  0.79870920  0.59996866  1
  O2-  O263  1  0.82867726  0.79734134  0.93535275  1
  O2-  O264  1  0.42045824  0.05373983  0.05606438  1
  O2-  O265  1  0.42517504  0.05106686  0.39538905  1
  O2-  O266  1  0.42052836  0.05953785  0.72663813  1
  O2-  O267  1  0.41932926  0.53727333  0.07265640  1
  O2-  O268  1  0.41082561  0.53632054  0.39886420  1
  O2-  O269  1  0.41397148  0.53601387  0.73534724  1
  O2-  O270  1  0.91668351  0.04664750  0.07238490  1
  O2-  O271  1  0.91925909  0.04728267  0.39956464  1
  O2-  O272  1  0.92198381  0.04870285  0.73503625  1
  O2-  O273  1  0.91134429  0.54561563  0.06361775  1
  O2-  O274  1  0.91673523  0.54615867  0.39404101  1
  O2-  O275  1  0.91274090  0.54044659  0.73216973  1
  O2-  O276  1  0.29477553  0.16556559  0.05990505  1
  O2-  O277  1  0.29350873  0.17036885  0.40130009  1
  O2-  O278  1  0.29096723  0.16493472  0.73020949  1
  O2-  O279  1  0.29496368  0.66792152  0.07415820  1
  O2-  O280  1  0.29632747  0.66129510  0.39636893  1
  O2-  O281  1  0.29574762  0.66968743  0.73428778  1
  O2-  O282  1  0.78355499  0.16586086  0.07013127  1
  O2-  O283  1  0.78385178  0.16365055  0.40139415  1
  O2-  O284  1  0.78554337  0.16390065  0.73772154  1
  O2-  O285  1  0.79039549  0.66391197  0.06290887  1
  O2-  O286  1  0.79910168  0.66763406  0.39325235  1
  O2-  O287  1  0.80109039  0.66731811  0.72778805  1
