# generated using pymatgen
data_Ca2Al2SiO7
_symmetry_space_group_name_H-M   'P 1'
_cell_length_a   15.46414351
_cell_length_b   15.46136697
_cell_length_c   15.28792549
_cell_angle_alpha   89.99345804
_cell_angle_beta   90.00022937
_cell_angle_gamma   89.99681784
_symmetry_Int_Tables_number   1
_chemical_formula_structural   Ca2Al2SiO7
_chemical_formula_sum   'Ca48 Al48 Si24 O168'
_cell_volume   3655.29399796
_cell_formula_units_Z   24
loop_
 _symmetry_equiv_pos_site_id
 _symmetry_equiv_pos_as_xyz
  1  'x, y, z'
loop_
 _atom_type_symbol
 _atom_type_oxidation_number
  Ca2+  2.0
  Al0+  0.0
  Si0+  0.0
  O2-  -2.0
loop_
 _atom_site_type_symbol
 _atom_site_label
 _atom_site_symmetry_multiplicity
 _atom_site_fract_x
 _atom_site_fract_y
 _atom_site_fract_z
 _atom_site_occupancy
  Ca2+  Ca0  1  0.15982603  0.07494037  0.17072615  1
  Ca2+  Ca1  1  0.15157907  0.07514514  0.49715505  1
  Ca2+  Ca2  1  0.16919572  0.07575023  0.84891933  1
  Ca2+  Ca3  1  0.16635733  0.58274264  0.17167831  1
  Ca2+  Ca4  1  0.16893000  0.59450195  0.50028926  1
  Ca2+  Ca5  1  0.15774969  0.57893268  0.84017097  1
  Ca2+  Ca6  1  0.67093644  0.08278661  0.17616508  1
  Ca2+  Ca7  1  0.67869407  0.08723310  0.50137696  1
  Ca2+  Ca8  1  0.67630831  0.08488867  0.83340515  1
  Ca2+  Ca9  1  0.67477025  0.57573779  0.17857646  1
  Ca2+  Ca10  1  0.67932821  0.57518294  0.50674169  1
  Ca2+  Ca11  1  0.67165154  0.58651363  0.82954019  1
  Ca2+  Ca12  1  0.08376398  0.32545702  0.16130577  1
  Ca2+  Ca13  1  0.06662849  0.32706881  0.49194967  1
  Ca2+  Ca14  1  0.08209819  0.32853120  0.83079553  1
  Ca2+  Ca15  1  0.08762186  0.82609456  0.16724301  1
  Ca2+  Ca16  1  0.07296593  0.82590021  0.49436849  1
  Ca2+  Ca17  1  0.08543618  0.82326370  0.82911511  1
  Ca2+  Ca18  1  0.58112892  0.33080536  0.16679727  1
  Ca2+  Ca19  1  0.59181093  0.33313293  0.49282286  1
  Ca2+  Ca20  1  0.57787486  0.33846201  0.83014016  1
  Ca2+  Ca21  1  0.57526004  0.83178026  0.15964361  1
  Ca2+  Ca22  1  0.58646191  0.82508422  0.49874993  1
  Ca2+  Ca23  1  0.57516247  0.83021262  0.82937411  1
  Ca2+  Ca24  1  0.32823010  0.41786897  0.16831873  1
  Ca2+  Ca25  1  0.33063158  0.42272863  0.49922458  1
  Ca2+  Ca26  1  0.32593545  0.41832402  0.84373493  1
  Ca2+  Ca27  1  0.32184557  0.91502876  0.16861732  1
  Ca2+  Ca28  1  0.32421198  0.91756031  0.50030428  1
  Ca2+  Ca29  1  0.32822977  0.92250624  0.84639818  1
  Ca2+  Ca30  1  0.82968799  0.42023915  0.17837308  1
  Ca2+  Ca31  1  0.83237353  0.42036763  0.50575460  1
  Ca2+  Ca32  1  0.83492977  0.41990842  0.82931281  1
  Ca2+  Ca33  1  0.83763830  0.92187400  0.17598079  1
  Ca2+  Ca34  1  0.84919136  0.92698091  0.50259290  1
  Ca2+  Ca35  1  0.84080395  0.91974915  0.83136842  1
  Ca2+  Ca36  1  0.42146502  0.16716787  0.15910650  1
  Ca2+  Ca37  1  0.42813628  0.16952563  0.49232489  1
  Ca2+  Ca38  1  0.40850315  0.17361275  0.83511082  1
  Ca2+  Ca39  1  0.41185918  0.67042222  0.16397712  1
  Ca2+  Ca40  1  0.42338189  0.65979786  0.49558850  1
  Ca2+  Ca41  1  0.41989553  0.67358939  0.82894403  1
  Ca2+  Ca42  1  0.92417245  0.16829607  0.17092986  1
  Ca2+  Ca43  1  0.90947405  0.17465784  0.49073386  1
  Ca2+  Ca44  1  0.92226563  0.16977035  0.82692330  1
  Ca2+  Ca45  1  0.92356631  0.66738816  0.16564665  1
  Ca2+  Ca46  1  0.91929031  0.66968546  0.49109926  1
  Ca2+  Ca47  1  0.92747571  0.67045007  0.82142048  1
  Al0+  Al48  1  -0.00028491  0.00084356  0.00113749  1
  Al0+  Al49  1  -0.00098049  -0.00109723  0.33482903  1
  Al0+  Al50  1  0.00260275  -0.00268090  0.67260598  1
  Al0+  Al51  1  -0.00074889  0.50019874  0.00118881  1
  Al0+  Al52  1  0.00044590  0.49948026  0.32963605  1
  Al0+  Al53  1  0.00193738  0.49745562  0.66282755  1
  Al0+  Al54  1  0.50308897  -0.00008125  -0.00266261  1
  Al0+  Al55  1  0.49878407  -0.00004338  0.33059868  1
  Al0+  Al56  1  0.49908469  0.00268450  0.66745464  1
  Al0+  Al57  1  0.50192191  0.49842819  -0.00359228  1
  Al0+  Al58  1  0.49827476  0.49958536  0.33925877  1
  Al0+  Al59  1  0.49831214  0.50143382  0.66711150  1
  Al0+  Al60  1  0.25127305  0.25083315  -0.00010299  1
  Al0+  Al61  1  0.25174002  0.24962438  0.33264756  1
  Al0+  Al62  1  0.25152992  0.25074929  0.66333690  1
  Al0+  Al63  1  0.25101647  0.75074658  -0.00627918  1
  Al0+  Al64  1  0.25003458  0.75079390  0.34052094  1
  Al0+  Al65  1  0.25067141  0.75221837  0.66502212  1
  Al0+  Al66  1  0.74975867  0.25139980  0.00002140  1
  Al0+  Al67  1  0.74812873  0.24739491  0.32904795  1
  Al0+  Al68  1  0.74927167  0.24924506  0.67481611  1
  Al0+  Al69  1  0.75112825  0.75061328  0.00035642  1
  Al0+  Al70  1  0.74863056  0.74897386  0.33091213  1
  Al0+  Al71  1  0.74768550  0.75247404  0.66375445  1
  Al0+  Al72  1  0.31786340  0.57030323  0.34652952  1
  Al0+  Al73  1  0.82152532  0.06923640  0.68164177  1
  Al0+  Al74  1  0.56942645  0.67931698  0.65177507  1
  Al0+  Al75  1  0.57009727  0.17856806  0.32004155  1
  Al0+  Al76  1  0.17807190  0.42990192  0.01301845  1
  Al0+  Al77  1  0.67968296  0.42838845  0.34685545  1
  Al0+  Al78  1  0.82363184  0.57183862  0.34749757  1
  Al0+  Al79  1  0.92873268  0.82212174  0.65269626  1
  Al0+  Al80  1  0.92828971  0.31781225  0.65444788  1
  Al0+  Al81  1  0.07329378  0.67931212  0.31743959  1
  Al0+  Al82  1  0.06991232  0.67916718  0.98654952  1
  Al0+  Al83  1  0.32307505  0.07209638  0.01562122  1
  Al0+  Al84  1  0.92717749  0.82015247  0.31727563  1
  Al0+  Al85  1  0.17857908  0.92761927  0.01652525  1
  Al0+  Al86  1  0.81873635  0.06720536  0.34531869  1
  Al0+  Al87  1  0.42978044  0.82087169  0.98702076  1
  Al0+  Al88  1  0.82348973  0.57308749  0.68174117  1
  Al0+  Al89  1  0.06988820  0.17938749  0.98662176  1
  Al0+  Al90  1  0.92706588  0.32149913  0.31756044  1
  Al0+  Al91  1  0.17943618  0.93051440  0.34929672  1
  Al0+  Al92  1  0.07188228  0.17843203  0.31917661  1
  Al0+  Al93  1  0.67821906  0.42915651  0.68446607  1
  Al0+  Al94  1  0.07172937  0.67718154  0.65068654  1
  Al0+  Al95  1  0.43027836  0.32021133  0.98666958  1
  Si0+  Si96  1  0.32410972  0.57160186  0.01332863  1
  Si0+  Si97  1  0.82054316  0.57175587  0.01450685  1
  Si0+  Si98  1  0.92644490  0.32231367  0.98205426  1
  Si0+  Si99  1  0.17710951  0.42427602  0.35056531  1
  Si0+  Si100  1  0.32291415  0.07253876  0.68179473  1
  Si0+  Si101  1  0.18170422  0.93026154  0.68417859  1
  Si0+  Si102  1  0.56988280  0.18058900  0.65334266  1
  Si0+  Si103  1  0.18080345  0.42733792  0.68078736  1
  Si0+  Si104  1  0.67352207  0.92627998  0.34903589  1
  Si0+  Si105  1  0.82053656  0.07208866  0.01611835  1
  Si0+  Si106  1  0.42816879  0.32385192  0.31680180  1
  Si0+  Si107  1  0.42849589  0.82469150  0.64820524  1
  Si0+  Si108  1  0.42902625  0.82041293  0.31957741  1
  Si0+  Si109  1  0.57418725  0.67765616  0.98398709  1
  Si0+  Si110  1  0.57448393  0.17789787  0.98048620  1
  Si0+  Si111  1  0.42760412  0.32228253  0.65014845  1
  Si0+  Si112  1  0.56935653  0.67736586  0.31832092  1
  Si0+  Si113  1  0.67330820  0.92905799  0.68416243  1
  Si0+  Si114  1  0.31997322  0.57207475  0.68308982  1
  Si0+  Si115  1  0.92600243  0.82240089  0.98306075  1
  Si0+  Si116  1  0.67801369  0.42958714  0.01591330  1
  Si0+  Si117  1  0.68037229  0.92812458  0.01429259  1
  Si0+  Si118  1  0.32426366  0.07306871  0.35098047  1
  Si0+  Si119  1  0.07365842  0.17752436  0.65207290  1
  O2-  O120  1  0.24984103  0.00160767  0.06584361  1
  O2-  O121  1  0.25078779  0.01004704  0.39612777  1
  O2-  O122  1  0.25148232  0.00315610  0.72469961  1
  O2-  O123  1  0.25341849  0.50547984  0.05754085  1
  O2-  O124  1  0.24165371  0.49754402  0.39473243  1
  O2-  O125  1  0.24676976  0.50329443  0.72413569  1
  O2-  O126  1  0.75063213  -0.00090987  0.05689324  1
  O2-  O127  1  0.74559187  -0.00910140  0.39312557  1
  O2-  O128  1  0.74781457  -0.00779375  0.72790815  1
  O2-  O129  1  0.74923316  0.50055188  0.05608205  1
  O2-  O130  1  0.75445922  0.49672458  0.39680485  1
  O2-  O131  1  0.75056555  0.50175994  0.73395705  1
  O2-  O132  1  0.00441689  0.25425179  0.26852286  1
  O2-  O133  1  0.00105487  0.24120817  0.60815642  1
  O2-  O134  1  -0.00451184  0.25357161  0.93842790  1
  O2-  O135  1  -0.00209172  0.74739089  0.26669263  1
  O2-  O136  1  -0.00700705  0.74310536  0.60313637  1
  O2-  O137  1  -0.00345326  0.75535321  0.94027983  1
  O2-  O138  1  0.49452873  0.25246067  0.27385777  1
  O2-  O139  1  0.50265755  0.25483295  0.60998176  1
  O2-  O140  1  0.50270118  0.24394027  0.93726018  1
  O2-  O141  1  0.50082137  0.75065623  0.27600395  1
  O2-  O142  1  0.49599696  0.75544432  0.60369870  1
  O2-  O143  1  0.50389689  0.74522659  0.94062132  1
  O2-  O144  1  0.06688601  0.17871452  0.09903036  1
  O2-  O145  1  0.06838335  0.17937661  0.43331683  1
  O2-  O146  1  0.07649530  0.18064684  0.75786286  1
  O2-  O147  1  0.06919398  0.67793114  0.09894801  1
  O2-  O148  1  0.07519641  0.68440493  0.43061210  1
  O2-  O149  1  0.07455052  0.68017530  0.76471805  1
  O2-  O150  1  0.57696303  0.17902155  0.08584626  1
  O2-  O151  1  0.56868756  0.17747164  0.43364235  1
  O2-  O152  1  0.56652487  0.17865565  0.75840857  1
  O2-  O153  1  0.57533701  0.67869253  0.08967131  1
  O2-  O154  1  0.56720268  0.67781630  0.42322865  1
  O2-  O155  1  0.56483834  0.68086841  0.76538331  1
  O2-  O156  1  0.18201745  0.42197445  0.24501767  1
  O2-  O157  1  0.18646223  0.42165459  0.57635404  1
  O2-  O158  1  0.17889148  0.43117198  0.89916600  1
  O2-  O159  1  0.18318575  0.92795320  0.23669002  1
  O2-  O160  1  0.18234657  0.93110778  0.57914768  1
  O2-  O161  1  0.18107420  0.92842629  0.90233204  1
  O2-  O162  1  0.67681134  0.43254969  0.23252144  1
  O2-  O163  1  0.67803423  0.42802690  0.57151261  1
  O2-  O164  1  0.67653458  0.42931911  0.91113923  1
  O2-  O165  1  0.67002490  0.92899993  0.24301604  1
  O2-  O166  1  0.66357210  0.93464638  0.57951369  1
  O2-  O167  1  0.68082956  0.92706970  0.90929529  1
  O2-  O168  1  0.43542292  0.32363658  0.09922774  1
  O2-  O169  1  0.42828868  0.32348985  0.42286466  1
  O2-  O170  1  0.42392137  0.32011796  0.75514479  1
  O2-  O171  1  0.43159373  0.81866525  0.10030123  1
  O2-  O172  1  0.43122861  0.82087666  0.42479550  1
  O2-  O173  1  0.42919036  0.82438534  0.75391607  1
  O2-  O174  1  0.92359324  0.32141790  0.08709872  1
  O2-  O175  1  0.92518747  0.31792135  0.43137585  1
  O2-  O176  1  0.93214186  0.31680092  0.76797307  1
  O2-  O177  1  0.92015837  0.81998021  0.08799000  1
  O2-  O178  1  0.92904700  0.82139378  0.43055883  1
  O2-  O179  1  0.93595957  0.82438359  0.76673724  1
  O2-  O180  1  0.32926501  0.06948483  0.24612856  1
  O2-  O181  1  0.32653109  0.07151473  0.57700245  1
  O2-  O182  1  0.32057061  0.07001955  0.90103895  1
  O2-  O183  1  0.32040008  0.57001422  0.23328885  1
  O2-  O184  1  0.32130377  0.57035953  0.57805519  1
  O2-  O185  1  0.32606177  0.56919521  0.90746669  1
  O2-  O186  1  0.81615250  0.06671140  0.23180909  1
  O2-  O187  1  0.81907262  0.07086904  0.56905765  1
  O2-  O188  1  0.81911078  0.07226537  0.91074977  1
  O2-  O189  1  0.81753466  0.57297662  0.23301319  1
  O2-  O190  1  0.82236278  0.57082891  0.56897710  1
  O2-  O191  1  0.81960585  0.57330312  0.90958885  1
  O2-  O192  1  0.03924320  0.08142837  0.26716112  1
  O2-  O193  1  0.05143137  0.08151833  0.61165721  1
  O2-  O194  1  0.03867175  0.08262319  0.93174452  1
  O2-  O195  1  0.05269940  0.57834919  0.26713681  1
  O2-  O196  1  0.05561762  0.57556577  0.60104246  1
  O2-  O197  1  0.03674483  0.58276621  0.93251140  1
  O2-  O198  1  0.53939679  0.08209705  0.26435056  1
  O2-  O199  1  0.53802568  0.09060885  0.60461503  1
  O2-  O200  1  0.55459793  0.08295186  0.93510083  1
  O2-  O201  1  0.53726230  0.58659910  0.27160204  1
  O2-  O202  1  0.53419851  0.58398394  0.59801181  1
  O2-  O203  1  0.55019154  0.58434192  0.93738415  1
  O2-  O204  1  0.17343005  0.20028438  0.26935268  1
  O2-  O205  1  0.16589454  0.20520473  0.60406206  1
  O2-  O206  1  0.16710544  0.20907319  0.93345274  1
  O2-  O207  1  0.17211781  0.71267415  0.26697512  1
  O2-  O208  1  0.16940112  0.71247394  0.59954443  1
  O2-  O209  1  0.16713640  0.70595102  0.93130857  1
  O2-  O210  1  0.66371931  0.20823711  0.26113377  1
  O2-  O211  1  0.66310493  0.20523280  0.60868265  1
  O2-  O212  1  0.66644877  0.20890333  0.93326865  1
  O2-  O213  1  0.66040584  0.70287859  0.26889230  1
  O2-  O214  1  0.66521173  0.70905149  0.59656685  1
  O2-  O215  1  0.66637115  0.70705917  0.93667846  1
  O2-  O216  1  0.08144253  0.45869630  0.06750488  1
  O2-  O217  1  0.08157131  0.44494925  0.39301575  1
  O2-  O218  1  0.08783778  0.44928675  0.72771457  1
  O2-  O219  1  0.07893576  0.95492580  0.06739389  1
  O2-  O220  1  0.08317785  0.96045851  0.40411144  1
  O2-  O221  1  0.09115671  0.95553824  0.73449744  1
  O2-  O222  1  0.58650554  0.45755223  0.06373139  1
  O2-  O223  1  0.58214428  0.45765616  0.40096821  1
  O2-  O224  1  0.57808424  0.45913536  0.73534582  1
  O2-  O225  1  0.58880729  0.95552309  0.06223329  1
  O2-  O226  1  0.58122659  0.95435056  0.39662083  1
  O2-  O227  1  0.58282443  0.96221755  0.73479706  1
  O2-  O228  1  0.21157168  0.33487352  0.06697698  1
  O2-  O229  1  0.20785561  0.33298821  0.39963117  1
  O2-  O230  1  0.21460209  0.33712766  0.72977514  1
  O2-  O231  1  0.21184117  0.82905344  0.06646080  1
  O2-  O232  1  0.21680453  0.83807459  0.40652253  1
  O2-  O233  1  0.21287841  0.83890299  0.73107471  1
  O2-  O234  1  0.70530309  0.33697841  0.06236768  1
  O2-  O235  1  0.70299274  0.32762542  0.39555561  1
  O2-  O236  1  0.70414259  0.33106119  0.73991345  1
  O2-  O237  1  0.70545317  0.83584432  0.06304561  1
  O2-  O238  1  0.69402223  0.83056594  0.39169644  1
  O2-  O239  1  0.69160130  0.83338749  0.72814323  1
  O2-  O240  1  0.45637844  0.41657307  0.27056846  1
  O2-  O241  1  0.45063451  0.41562587  0.60476964  1
  O2-  O242  1  0.46261527  0.41582141  0.92942193  1
  O2-  O243  1  0.45509877  0.91165696  0.27063858  1
  O2-  O244  1  0.45391143  0.91895457  0.60345471  1
  O2-  O245  1  0.46371022  0.91611501  0.93097878  1
  O2-  O246  1  0.95003692  0.42098558  0.26501798  1
  O2-  O247  1  0.96067132  0.41257867  0.59928365  1
  O2-  O248  1  0.95273676  0.41592133  0.93698645  1
  O2-  O249  1  0.95774832  0.91819555  0.26549530  1
  O2-  O250  1  0.96688317  0.91847927  0.60049736  1
  O2-  O251  1  0.94922239  0.91753626  0.93975545  1
  O2-  O252  1  0.33419781  0.30092468  0.27124863  1
  O2-  O253  1  0.33884281  0.28997207  0.59906140  1
  O2-  O254  1  0.33411951  0.29194828  0.92992193  1
  O2-  O255  1  0.33846876  0.78903363  0.27342105  1
  O2-  O256  1  0.33513022  0.79909395  0.60269345  1
  O2-  O257  1  0.33573396  0.79136110  0.92794117  1
  O2-  O258  1  0.83138558  0.28769191  0.26248563  1
  O2-  O259  1  0.82986705  0.28764152  0.60468173  1
  O2-  O260  1  0.83289664  0.29557401  0.93554676  1
  O2-  O261  1  0.82653299  0.79674277  0.26430301  1
  O2-  O262  1  0.82504168  0.81136096  0.60602708  1
  O2-  O263  1  0.83286488  0.79604445  0.93498650  1
  O2-  O264  1  0.42411735  0.04456637  0.06392896  1
  O2-  O265  1  0.41536781  0.04034719  0.39981383  1
  O2-  O266  1  0.41369833  0.04523748  0.73179068  1
  O2-  O267  1  0.41765560  0.54456985  0.05960270  1
  O2-  O268  1  0.41236284  0.53651410  0.40426508  1
  O2-  O269  1  0.41018413  0.54221141  0.73182307  1
  O2-  O270  1  0.91215344  0.04564111  0.06313189  1
  O2-  O271  1  0.91485354  0.04005840  0.40125858  1
  O2-  O272  1  0.91824463  0.03893744  0.73742074  1
  O2-  O273  1  0.91111721  0.54306862  0.06251751  1
  O2-  O274  1  0.92417366  0.54882258  0.39731922  1
  O2-  O275  1  0.92267878  0.54139260  0.73335790  1
  O2-  O276  1  0.30079619  0.17228489  0.06571512  1
  O2-  O277  1  0.30666929  0.16932725  0.39518213  1
  O2-  O278  1  0.29585223  0.16590633  0.72703758  1
  O2-  O279  1  0.30121961  0.66657092  0.05635580  1
  O2-  O280  1  0.29239919  0.66613071  0.40489014  1
  O2-  O281  1  0.29670608  0.66651732  0.72800233  1
  O2-  O282  1  0.79003117  0.16367112  0.06204709  1
  O2-  O283  1  0.78339001  0.16261195  0.39825118  1
  O2-  O284  1  0.78717593  0.16254456  0.74009433  1
  O2-  O285  1  0.79237879  0.66354461  0.06220437  1
  O2-  O286  1  0.79029456  0.66967315  0.39899108  1
  O2-  O287  1  0.79313841  0.67295161  0.73288438  1
