# generated using pymatgen
data_Ca2Al2SiO7
_symmetry_space_group_name_H-M   'P 1'
_cell_length_a   15.45630176
_cell_length_b   15.45564812
_cell_length_c   15.28150954
_cell_angle_alpha   90.00387505
_cell_angle_beta   90.01883001
_cell_angle_gamma   89.99014824
_symmetry_Int_Tables_number   1
_chemical_formula_structural   Ca2Al2SiO7
_chemical_formula_sum   'Ca48 Al48 Si24 O168'
_cell_volume   3650.55617313
_cell_formula_units_Z   24
loop_
 _symmetry_equiv_pos_site_id
 _symmetry_equiv_pos_as_xyz
  1  'x, y, z'
loop_
 _atom_type_symbol
 _atom_type_oxidation_number
  Ca2+  2.0
  Al0+  0.0
  Si0+  0.0
  O2-  -2.0
loop_
 _atom_site_type_symbol
 _atom_site_label
 _atom_site_symmetry_multiplicity
 _atom_site_fract_x
 _atom_site_fract_y
 _atom_site_fract_z
 _atom_site_occupancy
  Ca2+  Ca0  1  0.16463804  0.08007354  0.16942789  1
  Ca2+  Ca1  1  0.16908611  0.08422791  0.50497188  1
  Ca2+  Ca2  1  0.15881723  0.07443305  0.83760184  1
  Ca2+  Ca3  1  0.16567717  0.58166161  0.17178699  1
  Ca2+  Ca4  1  0.17446034  0.58376530  0.50426065  1
  Ca2+  Ca5  1  0.16045836  0.57292048  0.84319699  1
  Ca2+  Ca6  1  0.66993774  0.07355455  0.17577025  1
  Ca2+  Ca7  1  0.66398841  0.06889456  0.50493941  1
  Ca2+  Ca8  1  0.66625904  0.07491624  0.83615417  1
  Ca2+  Ca9  1  0.67138992  0.58816420  0.17182865  1
  Ca2+  Ca10  1  0.65641887  0.57659022  0.50276499  1
  Ca2+  Ca11  1  0.66762331  0.58621632  0.83705896  1
  Ca2+  Ca12  1  0.08371373  0.32343963  0.15633247  1
  Ca2+  Ca13  1  0.09277990  0.32344131  0.49675028  1
  Ca2+  Ca14  1  0.08638717  0.32815455  0.82918016  1
  Ca2+  Ca15  1  0.08263572  0.82251725  0.15613655  1
  Ca2+  Ca16  1  0.08427371  0.83113635  0.49539439  1
  Ca2+  Ca17  1  0.08399785  0.83443525  0.83257613  1
  Ca2+  Ca18  1  0.57660177  0.34204931  0.16873377  1
  Ca2+  Ca19  1  0.57978629  0.33908579  0.49109173  1
  Ca2+  Ca20  1  0.58411782  0.33389227  0.82685614  1
  Ca2+  Ca21  1  0.57921472  0.82467689  0.15853897  1
  Ca2+  Ca22  1  0.58472902  0.82608760  0.49581980  1
  Ca2+  Ca23  1  0.57505695  0.82514469  0.82533459  1
  Ca2+  Ca24  1  0.32898727  0.42260923  0.17341505  1
  Ca2+  Ca25  1  0.33423970  0.42394361  0.50081444  1
  Ca2+  Ca26  1  0.32084280  0.41822702  0.83704092  1
  Ca2+  Ca27  1  0.33065649  0.91890161  0.16900610  1
  Ca2+  Ca28  1  0.33020708  0.92183596  0.50642665  1
  Ca2+  Ca29  1  0.32653685  0.90974225  0.83774120  1
  Ca2+  Ca30  1  0.83190968  0.42060365  0.16665803  1
  Ca2+  Ca31  1  0.82168401  0.41809588  0.50471065  1
  Ca2+  Ca32  1  0.83043208  0.42208345  0.84217048  1
  Ca2+  Ca33  1  0.83039112  0.91118311  0.16938056  1
  Ca2+  Ca34  1  0.82096266  0.91203072  0.50300032  1
  Ca2+  Ca35  1  0.82981494  0.91053594  0.83813460  1
  Ca2+  Ca36  1  0.41211238  0.17014904  0.16955408  1
  Ca2+  Ca37  1  0.41222924  0.17479693  0.49145472  1
  Ca2+  Ca38  1  0.41606827  0.16877817  0.83173250  1
  Ca2+  Ca39  1  0.42673799  0.66433535  0.16210572  1
  Ca2+  Ca40  1  0.42336076  0.66979126  0.49504463  1
  Ca2+  Ca41  1  0.42331404  0.67637049  0.82952222  1
  Ca2+  Ca42  1  0.92671864  0.17275062  0.15877626  1
  Ca2+  Ca43  1  0.92911464  0.16625211  0.49559513  1
  Ca2+  Ca44  1  0.92796713  0.17082579  0.83220585  1
  Ca2+  Ca45  1  0.92452796  0.66818676  0.15764521  1
  Ca2+  Ca46  1  0.92580355  0.66642258  0.49536501  1
  Ca2+  Ca47  1  0.91841213  0.66552842  0.84050622  1
  Al0+  Al48  1  -0.00051785  0.00004069  -0.00095749  1
  Al0+  Al49  1  -0.00114428  0.00036376  0.32943934  1
  Al0+  Al50  1  0.00093253  0.00131317  0.66360551  1
  Al0+  Al51  1  -0.00347626  0.49864078  0.00346184  1
  Al0+  Al52  1  -0.00106841  0.49841532  0.33208399  1
  Al0+  Al53  1  -0.00146574  0.49939415  0.66792876  1
  Al0+  Al54  1  0.49890908  0.00079172  -0.00196499  1
  Al0+  Al55  1  0.49845785  0.00120468  0.34220196  1
  Al0+  Al56  1  0.49985661  0.00109326  0.66869100  1
  Al0+  Al57  1  0.49875641  0.49787564  -0.00593053  1
  Al0+  Al58  1  0.49823363  0.50148658  0.33170903  1
  Al0+  Al59  1  0.50011209  0.50063049  0.67014453  1
  Al0+  Al60  1  0.25131457  0.24896221  -0.00005942  1
  Al0+  Al61  1  0.25059975  0.24902529  0.32743089  1
  Al0+  Al62  1  0.25106628  0.25094939  0.66668905  1
  Al0+  Al63  1  0.25128243  0.74891648  -0.00197385  1
  Al0+  Al64  1  0.25033209  0.74970790  0.33421562  1
  Al0+  Al65  1  0.25152715  0.75218665  0.66626899  1
  Al0+  Al66  1  0.74972226  0.24869664  -0.00163144  1
  Al0+  Al67  1  0.75059625  0.24892506  0.33779887  1
  Al0+  Al68  1  0.75137827  0.25061455  0.66987382  1
  Al0+  Al69  1  0.75066356  0.74734914  -0.00189966  1
  Al0+  Al70  1  0.75078354  0.74904680  0.33569925  1
  Al0+  Al71  1  0.75046173  0.74938114  0.66654792  1
  Al0+  Al72  1  0.56978307  0.68025545  0.31900544  1
  Al0+  Al73  1  0.42894686  0.82353824  0.98564155  1
  Al0+  Al74  1  0.81827187  0.57049144  0.01522479  1
  Al0+  Al75  1  0.67964009  0.92785762  0.34624020  1
  Al0+  Al76  1  0.07051149  0.18061169  0.65102347  1
  Al0+  Al77  1  0.31862089  0.07171010  0.34718554  1
  Al0+  Al78  1  0.17897134  0.92978377  0.67952688  1
  Al0+  Al79  1  0.17866521  0.92832514  0.01410100  1
  Al0+  Al80  1  0.92956059  0.82128077  0.98537139  1
  Al0+  Al81  1  0.07281981  0.67838730  0.32142270  1
  Al0+  Al82  1  0.42744753  0.82319413  0.64842475  1
  Al0+  Al83  1  0.07102798  0.17966805  0.31790757  1
  Al0+  Al84  1  0.07291845  0.17966100  0.98329318  1
  Al0+  Al85  1  0.07220895  0.67763070  0.98538219  1
  Al0+  Al86  1  0.57123488  0.67940487  0.64920493  1
  Al0+  Al87  1  0.67846470  0.42955778  0.68115730  1
  Al0+  Al88  1  0.92724163  0.32123079  0.98465923  1
  Al0+  Al89  1  0.67902726  0.92844291  0.68284556  1
  Al0+  Al90  1  0.32020853  0.57192005  0.34624240  1
  Al0+  Al91  1  0.57156793  0.67736828  0.98435183  1
  Al0+  Al92  1  0.17992325  0.42993452  0.67867889  1
  Al0+  Al93  1  0.43081435  0.32128642  0.31976569  1
  Al0+  Al94  1  0.17846970  0.42848518  0.01463189  1
  Al0+  Al95  1  0.67948342  0.43082505  0.34506152  1
  Si0+  Si96  1  0.92445589  0.32126675  0.31699169  1
  Si0+  Si97  1  0.92714598  0.32371594  0.64791014  1
  Si0+  Si98  1  0.57293288  0.17630510  0.31914840  1
  Si0+  Si99  1  0.82334088  0.07205622  0.35081370  1
  Si0+  Si100  1  0.42926877  0.32023816  0.98348627  1
  Si0+  Si101  1  0.82028626  0.07162080  0.01533479  1
  Si0+  Si102  1  0.32167872  0.07373409  0.68427285  1
  Si0+  Si103  1  0.32404848  0.07196587  0.01784819  1
  Si0+  Si104  1  0.67879832  0.92959295  0.01398834  1
  Si0+  Si105  1  0.57155034  0.17822336  0.98592275  1
  Si0+  Si106  1  0.43057988  0.31980862  0.65228715  1
  Si0+  Si107  1  0.17668632  0.92829161  0.34882056  1
  Si0+  Si108  1  0.67593463  0.42533093  0.01707947  1
  Si0+  Si109  1  0.57383597  0.17949554  0.65200588  1
  Si0+  Si110  1  0.82386734  0.57208125  0.35188326  1
  Si0+  Si111  1  0.07113549  0.67689687  0.65292088  1
  Si0+  Si112  1  0.17735769  0.42779939  0.34827282  1
  Si0+  Si113  1  0.93008125  0.82168959  0.65093011  1
  Si0+  Si114  1  0.32277157  0.57055109  0.01577439  1
  Si0+  Si115  1  0.92828105  0.82067868  0.31811503  1
  Si0+  Si116  1  0.82356392  0.57227710  0.68424144  1
  Si0+  Si117  1  0.82252102  0.07109686  0.68418276  1
  Si0+  Si118  1  0.42794213  0.82529936  0.31748938  1
  Si0+  Si119  1  0.32177019  0.57309077  0.68480358  1
  O2-  O120  1  0.25443870  0.00304224  0.05980554  1
  O2-  O121  1  0.24380485  -0.00221157  0.39421569  1
  O2-  O122  1  0.25515048  0.00284040  0.72702781  1
  O2-  O123  1  0.25042581  0.50596030  0.06094389  1
  O2-  O124  1  0.24178574  0.50028316  0.39287972  1
  O2-  O125  1  0.24889584  0.50829894  0.72809557  1
  O2-  O126  1  0.75107854  -0.00137445  0.05760418  1
  O2-  O127  1  0.75387290  0.00352554  0.39395084  1
  O2-  O128  1  0.75365834  0.00328173  0.73009943  1
  O2-  O129  1  0.74175116  0.49637329  0.06083309  1
  O2-  O130  1  0.75392814  0.50408223  0.39498908  1
  O2-  O131  1  0.75291741  0.50418501  0.72642612  1
  O2-  O132  1  -0.00387417  0.25524167  0.27380765  1
  O2-  O133  1  -0.00230047  0.25711407  0.60322979  1
  O2-  O134  1  0.00360851  0.25456767  0.93357457  1
  O2-  O135  1  -0.00119362  0.75374934  0.27547085  1
  O2-  O136  1  0.00203046  0.75031280  0.61050967  1
  O2-  O137  1  0.00439114  0.75306772  0.93385517  1
  O2-  O138  1  0.50765050  0.24739657  0.27347312  1
  O2-  O139  1  0.50442399  0.25176887  0.60963535  1
  O2-  O140  1  0.50245854  0.25063305  0.94297153  1
  O2-  O141  1  0.49726273  0.75743437  0.27313809  1
  O2-  O142  1  0.50073202  0.75256408  0.59827546  1
  O2-  O143  1  0.50071777  0.75112989  0.93634961  1
  O2-  O144  1  0.07068041  0.18003666  0.09707995  1
  O2-  O145  1  0.07063720  0.18046901  0.43149375  1
  O2-  O146  1  0.06930398  0.18057285  0.76341234  1
  O2-  O147  1  0.07016510  0.67849139  0.09920077  1
  O2-  O148  1  0.07117146  0.68008316  0.43551142  1
  O2-  O149  1  0.06912817  0.67449528  0.75741751  1
  O2-  O150  1  0.57210187  0.17584122  0.09089944  1
  O2-  O151  1  0.57150198  0.17659410  0.42488343  1
  O2-  O152  1  0.57245364  0.18026841  0.75759918  1
  O2-  O153  1  0.57090108  0.67841455  0.09849550  1
  O2-  O154  1  0.56826323  0.67968425  0.43181165  1
  O2-  O155  1  0.56989693  0.67987441  0.76248345  1
  O2-  O156  1  0.17908550  0.42804287  0.24274146  1
  O2-  O157  1  0.18386002  0.42971398  0.56538472  1
  O2-  O158  1  0.18236472  0.42746808  0.90106033  1
  O2-  O159  1  0.17735892  0.92857413  0.24341247  1
  O2-  O160  1  0.17744626  0.93193001  0.56610497  1
  O2-  O161  1  0.17883760  0.93148685  0.90090723  1
  O2-  O162  1  0.68082394  0.43140069  0.23217891  1
  O2-  O163  1  0.67859058  0.42869762  0.56785590  1
  O2-  O164  1  0.67705448  0.42301738  0.91142249  1
  O2-  O165  1  0.68121916  0.92951658  0.23267431  1
  O2-  O166  1  0.68145715  0.92967334  0.56951395  1
  O2-  O167  1  0.67890639  0.93350478  0.90886918  1
  O2-  O168  1  0.42974102  0.32119427  0.08856581  1
  O2-  O169  1  0.43139445  0.32039233  0.43329570  1
  O2-  O170  1  0.43029463  0.31683651  0.75766023  1
  O2-  O171  1  0.43336499  0.82758134  0.09951459  1
  O2-  O172  1  0.42857837  0.82494013  0.42303508  1
  O2-  O173  1  0.42790203  0.82106038  0.76177169  1
  O2-  O174  1  0.92438897  0.31589253  0.09844322  1
  O2-  O175  1  0.92231753  0.31996264  0.42270501  1
  O2-  O176  1  0.92628554  0.32280710  0.75309632  1
  O2-  O177  1  0.92839741  0.81945848  0.09923642  1
  O2-  O178  1  0.92828999  0.82062198  0.42430550  1
  O2-  O179  1  0.92963055  0.82305866  0.75550551  1
  O2-  O180  1  0.31941939  0.07051712  0.23428241  1
  O2-  O181  1  0.31965891  0.07713019  0.57858796  1
  O2-  O182  1  0.32768646  0.07376320  0.91242374  1
  O2-  O183  1  0.32148900  0.56901734  0.23332026  1
  O2-  O184  1  0.32211548  0.57060761  0.57879226  1
  O2-  O185  1  0.32433837  0.56582762  0.91015671  1
  O2-  O186  1  0.82231324  0.07235824  0.24511730  1
  O2-  O187  1  0.82094616  0.06972206  0.57836284  1
  O2-  O188  1  0.81657589  0.07331297  0.91023109  1
  O2-  O189  1  0.82423866  0.57294548  0.24661142  1
  O2-  O190  1  0.82807818  0.57051921  0.57853645  1
  O2-  O191  1  0.81637979  0.56983579  0.90199974  1
  O2-  O192  1  0.03967326  0.08283950  0.26440810  1
  O2-  O193  1  0.03768629  0.08501273  0.59532744  1
  O2-  O194  1  0.03865115  0.08289563  0.93162542  1
  O2-  O195  1  0.04293525  0.58077188  0.26908002  1
  O2-  O196  1  0.04088047  0.58643632  0.60321303  1
  O2-  O197  1  0.03769728  0.58039488  0.93426584  1
  O2-  O198  1  0.54329004  0.08383281  0.27277958  1
  O2-  O199  1  0.54532935  0.08789431  0.60523158  1
  O2-  O200  1  0.54158805  0.08857077  0.93524751  1
  O2-  O201  1  0.53667052  0.58543480  0.26415104  1
  O2-  O202  1  0.53987697  0.57947591  0.59967768  1
  O2-  O203  1  0.54345360  0.57879095  0.93118688  1
  O2-  O204  1  0.16629048  0.20960452  0.26235093  1
  O2-  O205  1  0.16831331  0.21233047  0.59877070  1
  O2-  O206  1  0.17309151  0.20396718  0.93212657  1
  O2-  O207  1  0.16935684  0.70748501  0.26687192  1
  O2-  O208  1  0.16378628  0.70337210  0.60685068  1
  O2-  O209  1  0.17203790  0.69902170  0.93344077  1
  O2-  O210  1  0.66852031  0.19723335  0.27504383  1
  O2-  O211  1  0.66679581  0.20419598  0.60567249  1
  O2-  O212  1  0.66261924  0.20392154  0.93629573  1
  O2-  O213  1  0.66891472  0.70873741  0.26872380  1
  O2-  O214  1  0.67176831  0.70501660  0.59825221  1
  O2-  O215  1  0.66926111  0.70546403  0.93194059  1
  O2-  O216  1  0.08060492  0.45351414  0.06766659  1
  O2-  O217  1  0.08160762  0.44659906  0.39317853  1
  O2-  O218  1  0.08107937  0.45515392  0.73069901  1
  O2-  O219  1  0.08163766  0.95957503  0.06799052  1
  O2-  O220  1  0.08149979  0.95237132  0.39307263  1
  O2-  O221  1  0.08221979  0.96233681  0.73232119  1
  O2-  O222  1  0.57991838  0.44844193  0.05915127  1
  O2-  O223  1  0.58303791  0.46230391  0.39873343  1
  O2-  O224  1  0.58148859  0.45698718  0.73648287  1
  O2-  O225  1  0.58801441  0.96133076  0.06113373  1
  O2-  O226  1  0.58486626  0.95960463  0.40292677  1
  O2-  O227  1  0.58315883  0.96243769  0.73643415  1
  O2-  O228  1  0.21421287  0.33253366  0.06747190  1
  O2-  O229  1  0.20943211  0.33567125  0.39305979  1
  O2-  O230  1  0.21593646  0.33536345  0.73371733  1
  O2-  O231  1  0.20851768  0.83048889  0.06696403  1
  O2-  O232  1  0.20259656  0.83527746  0.39578590  1
  O2-  O233  1  0.20636655  0.83197823  0.73306121  1
  O2-  O234  1  0.70249907  0.33167152  0.06322916  1
  O2-  O235  1  0.70617937  0.33246410  0.39973542  1
  O2-  O236  1  0.70758101  0.33190860  0.73507273  1
  O2-  O237  1  0.70579960  0.83720365  0.05941221  1
  O2-  O238  1  0.71331339  0.83309263  0.40272292  1
  O2-  O239  1  0.71156664  0.83199650  0.73504419  1
  O2-  O240  1  0.46222415  0.41593855  0.26316476  1
  O2-  O241  1  0.45586925  0.41302544  0.60717702  1
  O2-  O242  1  0.45464415  0.41044291  0.93215604  1
  O2-  O243  1  0.45310515  0.92010516  0.27396082  1
  O2-  O244  1  0.45349513  0.92457495  0.60002720  1
  O2-  O245  1  0.45661872  0.92188397  0.93124200  1
  O2-  O246  1  0.94636440  0.41619905  0.27248463  1
  O2-  O247  1  0.94978830  0.41818001  0.60204042  1
  O2-  O248  1  0.94918972  0.42117672  0.93435669  1
  O2-  O249  1  0.94871849  0.91532773  0.27209798  1
  O2-  O250  1  0.95743139  0.91256211  0.60129954  1
  O2-  O251  1  0.95158902  0.92099828  0.93283907  1
  O2-  O252  1  0.33659593  0.28821677  0.26319319  1
  O2-  O253  1  0.34057826  0.28957840  0.60308546  1
  O2-  O254  1  0.33962527  0.28862944  0.93440708  1
  O2-  O255  1  0.33397513  0.79973491  0.27297542  1
  O2-  O256  1  0.32849275  0.79518363  0.59511575  1
  O2-  O257  1  0.33141554  0.79464477  0.93252203  1
  O2-  O258  1  0.83208777  0.29250142  0.26975208  1
  O2-  O259  1  0.83371929  0.29447844  0.60221211  1
  O2-  O260  1  0.82991690  0.28846489  0.93047722  1
  O2-  O261  1  0.83556628  0.79344537  0.27172562  1
  O2-  O262  1  0.83906531  0.79210173  0.60263250  1
  O2-  O263  1  0.83261522  0.78944616  0.93137605  1
  O2-  O264  1  0.41779467  0.04683436  0.06547945  1
  O2-  O265  1  0.41489544  0.04574309  0.40489152  1
  O2-  O266  1  0.41665424  0.05275836  0.72965863  1
  O2-  O267  1  0.41508097  0.53788337  0.06181804  1
  O2-  O268  1  0.41396311  0.53589627  0.40224346  1
  O2-  O269  1  0.41263731  0.54188135  0.73247741  1
  O2-  O270  1  0.91187406  0.04546507  0.06325530  1
  O2-  O271  1  0.91663263  0.04458090  0.39726257  1
  O2-  O272  1  0.91578672  0.04408897  0.72893949  1
  O2-  O273  1  0.91314899  0.53891082  0.07212260  1
  O2-  O274  1  0.91672412  0.54390839  0.39967095  1
  O2-  O275  1  0.91564199  0.54488332  0.73256111  1
  O2-  O276  1  0.29885043  0.16561877  0.06393870  1
  O2-  O277  1  0.28763572  0.16907638  0.40062969  1
  O2-  O278  1  0.29490947  0.16646654  0.73171572  1
  O2-  O279  1  0.30440310  0.66598101  0.05997468  1
  O2-  O280  1  0.29193156  0.66847989  0.40253447  1
  O2-  O281  1  0.30003436  0.66809630  0.72804913  1
  O2-  O282  1  0.78860191  0.16164432  0.06469305  1
  O2-  O283  1  0.79971267  0.16493648  0.39925357  1
  O2-  O284  1  0.79761141  0.16479150  0.73038294  1
  O2-  O285  1  0.78866504  0.66735219  0.07080576  1
  O2-  O286  1  0.80070867  0.66582065  0.39848064  1
  O2-  O287  1  0.79907791  0.66614412  0.72934435  1
