# generated using pymatgen
data_Ca2Al2SiO7
_symmetry_space_group_name_H-M   'P 1'
_cell_length_a   15.45621026
_cell_length_b   15.45587492
_cell_length_c   15.28224686
_cell_angle_alpha   89.99551780
_cell_angle_beta   89.99440917
_cell_angle_gamma   90.01476558
_symmetry_Int_Tables_number   1
_chemical_formula_structural   Ca2Al2SiO7
_chemical_formula_sum   'Ca48 Al48 Si24 O168'
_cell_volume   3650.76437878
_cell_formula_units_Z   24
loop_
 _symmetry_equiv_pos_site_id
 _symmetry_equiv_pos_as_xyz
  1  'x, y, z'
loop_
 _atom_type_symbol
 _atom_type_oxidation_number
  Ca2+  2.0
  Al0+  0.0
  Si0+  0.0
  O2-  -2.0
loop_
 _atom_site_type_symbol
 _atom_site_label
 _atom_site_symmetry_multiplicity
 _atom_site_fract_x
 _atom_site_fract_y
 _atom_site_fract_z
 _atom_site_occupancy
  Ca2+  Ca0  1  0.16100586  0.07636974  0.17008021  1
  Ca2+  Ca1  1  0.16325815  0.08698442  0.50503632  1
  Ca2+  Ca2  1  0.16365762  0.07676651  0.83595814  1
  Ca2+  Ca3  1  0.17254942  0.57405173  0.17068825  1
  Ca2+  Ca4  1  0.17757172  0.58024026  0.51102186  1
  Ca2+  Ca5  1  0.16341338  0.57665707  0.83203888  1
  Ca2+  Ca6  1  0.67814280  0.07766494  0.17261035  1
  Ca2+  Ca7  1  0.67612994  0.08409260  0.50714902  1
  Ca2+  Ca8  1  0.67901238  0.08866324  0.83551860  1
  Ca2+  Ca9  1  0.67533080  0.58519234  0.17292927  1
  Ca2+  Ca10  1  0.67168805  0.58150194  0.50532260  1
  Ca2+  Ca11  1  0.67656576  0.57439687  0.83683080  1
  Ca2+  Ca12  1  0.07691105  0.32845232  0.15910214  1
  Ca2+  Ca13  1  0.08989626  0.32301707  0.49678701  1
  Ca2+  Ca14  1  0.07876780  0.33505365  0.82800058  1
  Ca2+  Ca15  1  0.08413050  0.83033124  0.16105449  1
  Ca2+  Ca16  1  0.07491911  0.82619238  0.50458766  1
  Ca2+  Ca17  1  0.08001125  0.82615175  0.82276469  1
  Ca2+  Ca18  1  0.57892693  0.34029316  0.16341355  1
  Ca2+  Ca19  1  0.58369296  0.33441640  0.49866868  1
  Ca2+  Ca20  1  0.59268547  0.33100048  0.82744922  1
  Ca2+  Ca21  1  0.58588205  0.82779338  0.16416663  1
  Ca2+  Ca22  1  0.58125751  0.82855262  0.49349506  1
  Ca2+  Ca23  1  0.56964063  0.83481262  0.82614963  1
  Ca2+  Ca24  1  0.32931123  0.41659601  0.17480130  1
  Ca2+  Ca25  1  0.33439123  0.42578317  0.50669546  1
  Ca2+  Ca26  1  0.31952759  0.41951077  0.83368489  1
  Ca2+  Ca27  1  0.32922120  0.91134074  0.16393896  1
  Ca2+  Ca28  1  0.33324622  0.91622868  0.50586878  1
  Ca2+  Ca29  1  0.32956071  0.91196830  0.83989025  1
  Ca2+  Ca30  1  0.83257867  0.42395722  0.16489228  1
  Ca2+  Ca31  1  0.82911754  0.42875999  0.50939611  1
  Ca2+  Ca32  1  0.82803748  0.42225033  0.84074835  1
  Ca2+  Ca33  1  0.83115333  0.92893880  0.17617232  1
  Ca2+  Ca34  1  0.83000719  0.92324813  0.50314959  1
  Ca2+  Ca35  1  0.84594610  0.92927337  0.83409670  1
  Ca2+  Ca36  1  0.41858435  0.17372946  0.16550756  1
  Ca2+  Ca37  1  0.42584302  0.17563562  0.49607202  1
  Ca2+  Ca38  1  0.42815834  0.16872041  0.82360554  1
  Ca2+  Ca39  1  0.42350105  0.66612939  0.16460347  1
  Ca2+  Ca40  1  0.41927712  0.66406297  0.49436420  1
  Ca2+  Ca41  1  0.40954929  0.67677312  0.82682123  1
  Ca2+  Ca42  1  0.91414580  0.16911879  0.16225120  1
  Ca2+  Ca43  1  0.92379126  0.16156493  0.49805261  1
  Ca2+  Ca44  1  0.91582067  0.17176571  0.82636930  1
  Ca2+  Ca45  1  0.91266608  0.66377828  0.16146348  1
  Ca2+  Ca46  1  0.91314836  0.66388907  0.49804028  1
  Ca2+  Ca47  1  0.91918478  0.66783477  0.82304978  1
  Al0+  Al48  1  0.00252271  -0.00100101  0.01001947  1
  Al0+  Al49  1  0.00068326  -0.00144852  0.33282008  1
  Al0+  Al50  1  -0.00003297  -0.00064430  0.66217291  1
  Al0+  Al51  1  0.00120948  0.49804017  0.00408073  1
  Al0+  Al52  1  0.00041013  0.49805387  0.33672445  1
  Al0+  Al53  1  0.00127544  0.49989297  0.66713130  1
  Al0+  Al54  1  0.49999471  0.00071489  -0.00354956  1
  Al0+  Al55  1  0.49691543  0.00006257  0.33448094  1
  Al0+  Al56  1  0.50053479  0.00161510  0.65633077  1
  Al0+  Al57  1  0.49986898  0.50022168  -0.00169415  1
  Al0+  Al58  1  0.49893207  0.50197871  0.32701110  1
  Al0+  Al59  1  0.49846648  0.50208239  0.67829272  1
  Al0+  Al60  1  0.25117735  0.24868015  0.00254708  1
  Al0+  Al61  1  0.24921219  0.24640216  0.32249209  1
  Al0+  Al62  1  0.25152401  0.24949960  0.66769521  1
  Al0+  Al63  1  0.24998227  0.75004343  0.00134078  1
  Al0+  Al64  1  0.24856048  0.74910597  0.33639012  1
  Al0+  Al65  1  0.24815847  0.75146003  0.66024451  1
  Al0+  Al66  1  0.75092969  0.25139905  0.00587800  1
  Al0+  Al67  1  0.75133052  0.24993436  0.33621650  1
  Al0+  Al68  1  0.75159751  0.24839533  0.66699127  1
  Al0+  Al69  1  0.75003867  0.75123328  -0.00151144  1
  Al0+  Al70  1  0.74909606  0.75126602  0.33556902  1
  Al0+  Al71  1  0.74626011  0.75290690  0.66793132  1
  Al0+  Al72  1  0.82124230  0.57292527  0.01489839  1
  Al0+  Al73  1  0.17944973  0.42556962  0.68001325  1
  Al0+  Al74  1  0.07134968  0.18020125  0.65562540  1
  Al0+  Al75  1  0.32042257  0.56942222  0.34553043  1
  Al0+  Al76  1  0.82169995  0.57471311  0.68155527  1
  Al0+  Al77  1  0.32025763  0.57446943  0.68319085  1
  Al0+  Al78  1  0.92600386  0.82125287  0.65175406  1
  Al0+  Al79  1  0.57076411  0.68153121  0.31969647  1
  Al0+  Al80  1  0.17974134  0.42721249  0.01558411  1
  Al0+  Al81  1  0.06912396  0.67613916  0.65076495  1
  Al0+  Al82  1  0.42804008  0.82086439  0.65067195  1
  Al0+  Al83  1  0.67784044  0.42892766  0.01735548  1
  Al0+  Al84  1  0.57377690  0.18103547  0.65267579  1
  Al0+  Al85  1  0.67672813  0.92929163  0.34831305  1
  Al0+  Al86  1  0.82185789  0.06735617  0.68091727  1
  Al0+  Al87  1  0.93008029  0.31961161  0.98624203  1
  Al0+  Al88  1  0.82199343  0.07228705  0.35099743  1
  Al0+  Al89  1  0.43015089  0.81896424  0.98695290  1
  Al0+  Al90  1  0.82148768  0.07011316  0.01395975  1
  Al0+  Al91  1  0.67950763  0.42844510  0.68076324  1
  Al0+  Al92  1  0.82159012  0.57023094  0.34756742  1
  Al0+  Al93  1  0.43174603  0.32037063  0.32021054  1
  Al0+  Al94  1  0.18115525  0.92889108  0.01266287  1
  Al0+  Al95  1  0.06903898  0.17794366  0.31674590  1
  Si0+  Si96  1  0.32038789  0.57253880  0.01708269  1
  Si0+  Si97  1  0.92718683  0.32399283  0.31648402  1
  Si0+  Si98  1  0.17937026  0.92793358  0.35082768  1
  Si0+  Si99  1  0.92788738  0.32226398  0.64979496  1
  Si0+  Si100  1  0.56985212  0.67702565  0.65156083  1
  Si0+  Si101  1  0.42454424  0.82359669  0.31511027  1
  Si0+  Si102  1  0.67399245  0.92970407  0.68418951  1
  Si0+  Si103  1  0.57009984  0.18110172  0.98640097  1
  Si0+  Si104  1  0.67495691  0.92947007  0.01410129  1
  Si0+  Si105  1  0.07015405  0.67908896  0.98755902  1
  Si0+  Si106  1  0.17929507  0.42482254  0.34871628  1
  Si0+  Si107  1  0.32342537  0.07108052  0.67967696  1
  Si0+  Si108  1  0.57440670  0.67701524  0.98033062  1
  Si0+  Si109  1  0.67595473  0.42934701  0.34854195  1
  Si0+  Si110  1  0.18023677  0.93154249  0.67906626  1
  Si0+  Si111  1  0.31915053  0.07222912  0.34828494  1
  Si0+  Si112  1  0.42870617  0.32285522  0.65330867  1
  Si0+  Si113  1  0.93031462  0.81846712  0.31716219  1
  Si0+  Si114  1  0.42643168  0.32240972  0.98295270  1
  Si0+  Si115  1  0.92946596  0.82292490  0.98825700  1
  Si0+  Si116  1  0.07193361  0.67745720  0.31750785  1
  Si0+  Si117  1  0.07250534  0.17569622  0.98330772  1
  Si0+  Si118  1  0.32522018  0.07181893  0.01666608  1
  Si0+  Si119  1  0.57375377  0.17632067  0.31575549  1
  O2-  O120  1  0.25458118  0.00457924  0.06031627  1
  O2-  O121  1  0.25086529  -0.00088075  0.39161032  1
  O2-  O122  1  0.25307710  0.00000251  0.72262946  1
  O2-  O123  1  0.25759924  0.49881537  0.06217853  1
  O2-  O124  1  0.24680990  0.49419030  0.39262572  1
  O2-  O125  1  0.24699139  0.50212725  0.73046128  1
  O2-  O126  1  0.74838732  -0.00723490  0.05843818  1
  O2-  O127  1  0.74498207  0.00447728  0.39891803  1
  O2-  O128  1  0.74698489  -0.00665771  0.72944004  1
  O2-  O129  1  0.74626188  0.50472618  0.06627261  1
  O2-  O130  1  0.74809411  0.49395990  0.39271626  1
  O2-  O131  1  0.75273936  0.49940163  0.73052271  1
  O2-  O132  1  -0.00683654  0.25198919  0.27230384  1
  O2-  O133  1  0.00056686  0.25695742  0.60637246  1
  O2-  O134  1  0.00489992  0.24451923  0.93886476  1
  O2-  O135  1  -0.00163135  0.74489565  0.27332677  1
  O2-  O136  1  -0.00996907  0.74158579  0.60136190  1
  O2-  O137  1  -0.00448460  0.74725851  0.94662116  1
  O2-  O138  1  0.50871450  0.24833257  0.27088263  1
  O2-  O139  1  0.50207892  0.25979137  0.60811551  1
  O2-  O140  1  0.50065505  0.25366775  0.94283334  1
  O2-  O141  1  0.49663196  0.75786843  0.27262809  1
  O2-  O142  1  0.50078102  0.74447018  0.60531917  1
  O2-  O143  1  0.50422710  0.74546934  0.93768614  1
  O2-  O144  1  0.07084175  0.17573562  0.08902240  1
  O2-  O145  1  0.07218754  0.17941262  0.42988198  1
  O2-  O146  1  0.07005845  0.17711086  0.76857354  1
  O2-  O147  1  0.07220138  0.68162230  0.09322884  1
  O2-  O148  1  0.07346651  0.68004590  0.42191391  1
  O2-  O149  1  0.07245361  0.68147213  0.76499330  1
  O2-  O150  1  0.56650905  0.17902948  0.09153941  1
  O2-  O151  1  0.57061695  0.17666515  0.42112717  1
  O2-  O152  1  0.57107562  0.17865521  0.76636210  1
  O2-  O153  1  0.57461819  0.67875923  0.08621211  1
  O2-  O154  1  0.56845028  0.68018351  0.43264919  1
  O2-  O155  1  0.56901790  0.68034849  0.75712682  1
  O2-  O156  1  0.18010468  0.42714227  0.24273047  1
  O2-  O157  1  0.18637404  0.42129239  0.56638243  1
  O2-  O158  1  0.17967794  0.42835520  0.90294908  1
  O2-  O159  1  0.18050601  0.92661556  0.24545067  1
  O2-  O160  1  0.18089021  0.93402692  0.57373921  1
  O2-  O161  1  0.18096854  0.92880329  0.89949030  1
  O2-  O162  1  0.67547520  0.43178718  0.24309366  1
  O2-  O163  1  0.67876082  0.42989080  0.56665734  1
  O2-  O164  1  0.68096478  0.42740684  0.90421113  1
  O2-  O165  1  0.68049881  0.92984105  0.23386591  1
  O2-  O166  1  0.67235494  0.93315234  0.57880237  1
  O2-  O167  1  0.67063980  0.93334237  0.90887563  1
  O2-  O168  1  0.42534732  0.32031698  0.08828835  1
  O2-  O169  1  0.43153356  0.31894643  0.43330770  1
  O2-  O170  1  0.42607851  0.31650734  0.75893039  1
  O2-  O171  1  0.43031978  0.81773094  0.09998259  1
  O2-  O172  1  0.42239414  0.82261945  0.42042299  1
  O2-  O173  1  0.42797959  0.82287811  0.76418270  1
  O2-  O174  1  0.93160543  0.31841209  0.09956154  1
  O2-  O175  1  0.92973055  0.32674122  0.42178482  1
  O2-  O176  1  0.92682824  0.31909028  0.75559422  1
  O2-  O177  1  0.93203495  0.82353886  0.09361368  1
  O2-  O178  1  0.93288177  0.81908638  0.42183877  1
  O2-  O179  1  0.93465794  0.82588475  0.76584244  1
  O2-  O180  1  0.31899834  0.07189070  0.24308662  1
  O2-  O181  1  0.32188030  0.07181955  0.57437783  1
  O2-  O182  1  0.32701655  0.07153364  0.91099151  1
  O2-  O183  1  0.31770027  0.56927902  0.23210322  1
  O2-  O184  1  0.32215477  0.57163934  0.56930093  1
  O2-  O185  1  0.31590159  0.57531093  0.91192517  1
  O2-  O186  1  0.82196226  0.06945174  0.23689210  1
  O2-  O187  1  0.82216620  0.06660188  0.56837594  1
  O2-  O188  1  0.82255937  0.06972040  0.90079982  1
  O2-  O189  1  0.82180919  0.57028456  0.23460462  1
  O2-  O190  1  0.81743047  0.57225909  0.56764864  1
  O2-  O191  1  0.82207799  0.57304114  0.90192552  1
  O2-  O192  1  0.04036713  0.07962614  0.26379533  1
  O2-  O193  1  0.03932277  0.08545439  0.59870749  1
  O2-  O194  1  0.04712269  0.08023041  0.94102530  1
  O2-  O195  1  0.04801418  0.58326316  0.27256494  1
  O2-  O196  1  0.05168180  0.57529173  0.59818697  1
  O2-  O197  1  0.04556527  0.58643804  0.94161335  1
  O2-  O198  1  0.54229896  0.08418406  0.26917567  1
  O2-  O199  1  0.53814400  0.08858751  0.59417914  1
  O2-  O200  1  0.54095968  0.09069054  0.93665218  1
  O2-  O201  1  0.53812451  0.58745570  0.26157989  1
  O2-  O202  1  0.54421113  0.58223350  0.60792135  1
  O2-  O203  1  0.54928849  0.58282314  0.93564479  1
  O2-  O204  1  0.16463493  0.20586509  0.25865304  1
  O2-  O205  1  0.16968606  0.20719403  0.60102454  1
  O2-  O206  1  0.16867608  0.19782077  0.94075660  1
  O2-  O207  1  0.16209767  0.71034083  0.26874661  1
  O2-  O208  1  0.16332453  0.71414861  0.59454981  1
  O2-  O209  1  0.16018648  0.71123903  0.93980173  1
  O2-  O210  1  0.66961381  0.19745080  0.27248968  1
  O2-  O211  1  0.67003980  0.20889516  0.59718490  1
  O2-  O212  1  0.66269604  0.20861001  0.94108179  1
  O2-  O213  1  0.66702161  0.71382848  0.26430477  1
  O2-  O214  1  0.66302086  0.70309148  0.60493206  1
  O2-  O215  1  0.66766271  0.70342103  0.93373438  1
  O2-  O216  1  0.08575807  0.46066160  0.07218729  1
  O2-  O217  1  0.08558470  0.44785480  0.39440019  1
  O2-  O218  1  0.07992728  0.44999097  0.73190324  1
  O2-  O219  1  0.08748150  0.95807387  0.07361281  1
  O2-  O220  1  0.08803781  0.95689888  0.39713749  1
  O2-  O221  1  0.08997881  0.96177735  0.72724680  1
  O2-  O222  1  0.57602805  0.45308796  0.06616575  1
  O2-  O223  1  0.58349963  0.45864043  0.39380063  1
  O2-  O224  1  0.58166497  0.45361643  0.73687265  1
  O2-  O225  1  0.58386309  0.95948071  0.06322437  1
  O2-  O226  1  0.57487705  0.95054259  0.39771384  1
  O2-  O227  1  0.58117855  0.96145146  0.72899106  1
  O2-  O228  1  0.20868150  0.32944142  0.06905010  1
  O2-  O229  1  0.20655889  0.32973056  0.38947882  1
  O2-  O230  1  0.21224839  0.32956087  0.73698904  1
  O2-  O231  1  0.21360915  0.83382981  0.06996779  1
  O2-  O232  1  0.20660926  0.83669944  0.39911064  1
  O2-  O233  1  0.20637866  0.83935691  0.72526525  1
  O2-  O234  1  0.70738123  0.33225262  0.07287946  1
  O2-  O235  1  0.69594433  0.33333499  0.39188945  1
  O2-  O236  1  0.70809081  0.32958684  0.73264731  1
  O2-  O237  1  0.69638802  0.83382033  0.05708632  1
  O2-  O238  1  0.70851284  0.83317761  0.40278365  1
  O2-  O239  1  0.69136840  0.83436180  0.72912645  1
  O2-  O240  1  0.45892279  0.41604739  0.26237248  1
  O2-  O241  1  0.44958990  0.41949610  0.61244036  1
  O2-  O242  1  0.44893481  0.41595480  0.93700226  1
  O2-  O243  1  0.44451497  0.91939202  0.27046258  1
  O2-  O244  1  0.45869897  0.91648226  0.59432081  1
  O2-  O245  1  0.45776050  0.91708342  0.93275874  1
  O2-  O246  1  0.95665031  0.41620265  0.26835953  1
  O2-  O247  1  0.94904875  0.41714177  0.60532597  1
  O2-  O248  1  0.96280874  0.41640704  0.93360728  1
  O2-  O249  1  0.96295481  0.90876168  0.26902303  1
  O2-  O250  1  0.96561651  0.91432787  0.59496511  1
  O2-  O251  1  0.96411544  0.91324431  0.94193676  1
  O2-  O252  1  0.33772139  0.28495379  0.26235190  1
  O2-  O253  1  0.33871808  0.29084410  0.60411382  1
  O2-  O254  1  0.33580752  0.29053570  0.93530704  1
  O2-  O255  1  0.33136066  0.79361647  0.26950020  1
  O2-  O256  1  0.33126799  0.79463602  0.59547803  1
  O2-  O257  1  0.33272019  0.78808432  0.93327597  1
  O2-  O258  1  0.83202033  0.30082308  0.27170520  1
  O2-  O259  1  0.83682999  0.29206118  0.60194667  1
  O2-  O260  1  0.83249409  0.28843373  0.93444564  1
  O2-  O261  1  0.83748993  0.79438920  0.27061207  1
  O2-  O262  1  0.82351670  0.80458105  0.60281988  1
  O2-  O263  1  0.83553059  0.80407267  0.94117577  1
  O2-  O264  1  0.41717679  0.04355091  0.06484252  1
  O2-  O265  1  0.41161385  0.04832759  0.39634184  1
  O2-  O266  1  0.41559403  0.04274248  0.72561092  1
  O2-  O267  1  0.41685044  0.55180943  0.05858689  1
  O2-  O268  1  0.41741398  0.53899825  0.39793037  1
  O2-  O269  1  0.41650796  0.54866004  0.74089387  1
  O2-  O270  1  0.91668924  0.03977381  0.07079362  1
  O2-  O271  1  0.91986956  0.03742834  0.40089130  1
  O2-  O272  1  0.91858396  0.03501568  0.73448075  1
  O2-  O273  1  0.91866615  0.54214708  0.06870874  1
  O2-  O274  1  0.91905585  0.54142794  0.40157849  1
  O2-  O275  1  0.92252249  0.55084944  0.73050909  1
  O2-  O276  1  0.30138241  0.16525772  0.06365861  1
  O2-  O277  1  0.28789310  0.16321762  0.39475765  1
  O2-  O278  1  0.29633896  0.16141666  0.72972211  1
  O2-  O279  1  0.29002514  0.66341075  0.06583407  1
  O2-  O280  1  0.28943442  0.66581190  0.39968725  1
  O2-  O281  1  0.28876362  0.67384439  0.73260324  1
  O2-  O282  1  0.78778894  0.16420670  0.06965388  1
  O2-  O283  1  0.80001548  0.17286068  0.40235312  1
  O2-  O284  1  0.79063842  0.16401376  0.73393349  1
  O2-  O285  1  0.79604244  0.67396944  0.06640571  1
  O2-  O286  1  0.79075694  0.66698052  0.39942006  1
  O2-  O287  1  0.79335493  0.67382481  0.73369300  1
