# generated using pymatgen
data_Ca2Al2SiO7
_symmetry_space_group_name_H-M   'P 1'
_cell_length_a   15.46213414
_cell_length_b   15.46355198
_cell_length_c   15.28669221
_cell_angle_alpha   89.99093475
_cell_angle_beta   89.99147154
_cell_angle_gamma   90.00839738
_symmetry_Int_Tables_number   1
_chemical_formula_structural   Ca2Al2SiO7
_chemical_formula_sum   'Ca48 Al48 Si24 O168'
_cell_volume   3655.04056903
_cell_formula_units_Z   24
loop_
 _symmetry_equiv_pos_site_id
 _symmetry_equiv_pos_as_xyz
  1  'x, y, z'
loop_
 _atom_type_symbol
 _atom_type_oxidation_number
  Ca2+  2.0
  Al0+  0.0
  Si0+  0.0
  O2-  -2.0
loop_
 _atom_site_type_symbol
 _atom_site_label
 _atom_site_symmetry_multiplicity
 _atom_site_fract_x
 _atom_site_fract_y
 _atom_site_fract_z
 _atom_site_occupancy
  Ca2+  Ca0  1  0.16775392  0.07632048  0.16597650  1
  Ca2+  Ca1  1  0.16037582  0.07807189  0.50554819  1
  Ca2+  Ca2  1  0.16739218  0.07463621  0.83928196  1
  Ca2+  Ca3  1  0.17677267  0.58614791  0.17137863  1
  Ca2+  Ca4  1  0.17838812  0.58640685  0.50518415  1
  Ca2+  Ca5  1  0.17524444  0.57331043  0.84110292  1
  Ca2+  Ca6  1  0.66260013  0.07533141  0.17324442  1
  Ca2+  Ca7  1  0.67276679  0.07365687  0.50403321  1
  Ca2+  Ca8  1  0.67214314  0.08635659  0.84020402  1
  Ca2+  Ca9  1  0.67439806  0.60226193  0.17026103  1
  Ca2+  Ca10  1  0.67758936  0.59304554  0.49915488  1
  Ca2+  Ca11  1  0.67573181  0.59090059  0.83865408  1
  Ca2+  Ca12  1  0.09045026  0.32906508  0.16353495  1
  Ca2+  Ca13  1  0.09442011  0.32176740  0.49750166  1
  Ca2+  Ca14  1  0.09233178  0.33015942  0.82661407  1
  Ca2+  Ca15  1  0.07381446  0.82811913  0.16356440  1
  Ca2+  Ca16  1  0.07808320  0.82748873  0.49150463  1
  Ca2+  Ca17  1  0.08120909  0.84101284  0.83193611  1
  Ca2+  Ca18  1  0.57651403  0.33018919  0.16199292  1
  Ca2+  Ca19  1  0.57608268  0.33291432  0.49327050  1
  Ca2+  Ca20  1  0.58392432  0.32797731  0.83279206  1
  Ca2+  Ca21  1  0.57442025  0.82707184  0.16494779  1
  Ca2+  Ca22  1  0.57655479  0.82829075  0.48847157  1
  Ca2+  Ca23  1  0.57359529  0.82816652  0.83786763  1
  Ca2+  Ca24  1  0.33417560  0.42596567  0.16960671  1
  Ca2+  Ca25  1  0.33238053  0.42718021  0.50289335  1
  Ca2+  Ca26  1  0.32368388  0.42388253  0.83812721  1
  Ca2+  Ca27  1  0.34078234  0.91836074  0.16850425  1
  Ca2+  Ca28  1  0.32538120  0.91320588  0.50431255  1
  Ca2+  Ca29  1  0.32050315  0.91776349  0.84476047  1
  Ca2+  Ca30  1  0.82961779  0.43052039  0.17026318  1
  Ca2+  Ca31  1  0.83572217  0.43005316  0.50240390  1
  Ca2+  Ca32  1  0.83624381  0.43127616  0.83880677  1
  Ca2+  Ca33  1  0.82809174  0.90771917  0.17401807  1
  Ca2+  Ca34  1  0.82986036  0.91452895  0.49968306  1
  Ca2+  Ca35  1  0.83605092  0.92256880  0.83831998  1
  Ca2+  Ca36  1  0.41744327  0.17159224  0.15862408  1
  Ca2+  Ca37  1  0.41352435  0.17808720  0.49110877  1
  Ca2+  Ca38  1  0.41859742  0.16011812  0.83560423  1
  Ca2+  Ca39  1  0.42215004  0.66956862  0.15880900  1
  Ca2+  Ca40  1  0.41914256  0.66823960  0.48608703  1
  Ca2+  Ca41  1  0.41098607  0.66381836  0.83301446  1
  Ca2+  Ca42  1  0.92395911  0.16755067  0.16459557  1
  Ca2+  Ca43  1  0.92700450  0.16274815  0.49734646  1
  Ca2+  Ca44  1  0.92291893  0.16997749  0.82237528  1
  Ca2+  Ca45  1  0.91366472  0.67303702  0.16208146  1
  Ca2+  Ca46  1  0.92332968  0.66640569  0.48852897  1
  Ca2+  Ca47  1  0.91326965  0.67003184  0.83279600  1
  Al0+  Al48  1  0.00023793  0.00159566  0.00027270  1
  Al0+  Al49  1  0.00057085  0.00097520  0.32518084  1
  Al0+  Al50  1  -0.00221228  0.00105473  0.66880532  1
  Al0+  Al51  1  -0.00241778  0.49996598  0.00849568  1
  Al0+  Al52  1  0.00125753  0.49611414  0.33474172  1
  Al0+  Al53  1  -0.00055932  0.50053732  0.67310135  1
  Al0+  Al54  1  0.50100160  -0.00040291  -0.00603330  1
  Al0+  Al55  1  0.50062822  0.00047270  0.33944582  1
  Al0+  Al56  1  0.50077589  -0.00217329  0.66444111  1
  Al0+  Al57  1  0.50113699  0.49705311  -0.00407629  1
  Al0+  Al58  1  0.50109929  0.49880742  0.32876251  1
  Al0+  Al59  1  0.50288173  0.49962972  0.66841901  1
  Al0+  Al60  1  0.25067231  0.24803992  0.00441847  1
  Al0+  Al61  1  0.25147648  0.24898606  0.32359726  1
  Al0+  Al62  1  0.25239974  0.24926456  0.66382839  1
  Al0+  Al63  1  0.24636330  0.74877330  0.00373779  1
  Al0+  Al64  1  0.24829742  0.75210195  0.33090763  1
  Al0+  Al65  1  0.24843556  0.75182092  0.67430354  1
  Al0+  Al66  1  0.75163789  0.25198058  -0.00350348  1
  Al0+  Al67  1  0.75232714  0.24981863  0.33574966  1
  Al0+  Al68  1  0.75089882  0.24993421  0.66638394  1
  Al0+  Al69  1  0.74998357  0.75342138  -0.00677016  1
  Al0+  Al70  1  0.74898162  0.75218511  0.33930491  1
  Al0+  Al71  1  0.74735055  0.75179453  0.67076039  1
  Al0+  Al72  1  0.57184148  0.17917106  0.98689486  1
  Al0+  Al73  1  0.32265283  0.06744045  0.01547416  1
  Al0+  Al74  1  0.32057212  0.57172849  0.34561909  1
  Al0+  Al75  1  0.82039215  0.57219122  0.68100819  1
  Al0+  Al76  1  0.43037215  0.32129264  0.31853218  1
  Al0+  Al77  1  0.32288188  0.57061747  0.01668401  1
  Al0+  Al78  1  0.82069081  0.57081941  0.34659369  1
  Al0+  Al79  1  0.42680080  0.82328574  0.32071911  1
  Al0+  Al80  1  0.81664645  0.57341793  0.01498255  1
  Al0+  Al81  1  0.17820813  0.93086400  0.67855282  1
  Al0+  Al82  1  0.57061024  0.67907061  0.32075465  1
  Al0+  Al83  1  0.07065771  0.17977215  0.65397588  1
  Al0+  Al84  1  0.42541282  0.81986883  0.98393152  1
  Al0+  Al85  1  0.32322041  0.57213490  0.68060197  1
  Al0+  Al86  1  0.17544476  0.92789824  0.01854090  1
  Al0+  Al87  1  0.17802036  0.42788303  0.01701960  1
  Al0+  Al88  1  0.92914704  0.81891123  0.32065330  1
  Al0+  Al89  1  0.18031290  0.42691871  0.67884013  1
  Al0+  Al90  1  0.07068102  0.17954584  0.31697982  1
  Al0+  Al91  1  0.57029573  0.67775580  0.98296747  1
  Al0+  Al92  1  0.07261110  0.67484023  0.31973045  1
  Al0+  Al93  1  0.67861006  0.93003807  0.34741538  1
  Al0+  Al94  1  0.93037745  0.82148327  0.98406396  1
  Al0+  Al95  1  0.81898942  0.06990177  0.67976115  1
  Si0+  Si96  1  0.92578137  0.32219642  0.31558696  1
  Si0+  Si97  1  0.57104682  0.67939764  0.65078591  1
  Si0+  Si98  1  0.32065715  0.07194792  0.34875053  1
  Si0+  Si99  1  0.43166230  0.32022282  0.65149870  1
  Si0+  Si100  1  0.67815040  0.42448228  0.34984072  1
  Si0+  Si101  1  0.67580128  0.92860309  0.68760953  1
  Si0+  Si102  1  0.82155422  0.07449592  0.01539014  1
  Si0+  Si103  1  0.42683007  0.81976821  0.65179810  1
  Si0+  Si104  1  0.67917108  0.42570048  0.01576998  1
  Si0+  Si105  1  0.82422460  0.07310533  0.34935348  1
  Si0+  Si106  1  0.42671462  0.32023912  0.97979034  1
  Si0+  Si107  1  0.17996342  0.42456644  0.34989989  1
  Si0+  Si108  1  0.67830590  0.42678588  0.68347382  1
  Si0+  Si109  1  0.57339107  0.17805973  0.32043236  1
  Si0+  Si110  1  0.07036479  0.67868501  0.65474395  1
  Si0+  Si111  1  0.07078245  0.18101432  0.98325727  1
  Si0+  Si112  1  0.06981556  0.67523198  0.98274982  1
  Si0+  Si113  1  0.92730231  0.32448918  0.64941525  1
  Si0+  Si114  1  0.17721445  0.93116193  0.34816505  1
  Si0+  Si115  1  0.92928519  0.32207183  0.98445195  1
  Si0+  Si116  1  0.32426655  0.07220796  0.68037181  1
  Si0+  Si117  1  0.92783443  0.82109212  0.65227056  1
  Si0+  Si118  1  0.68114232  0.93232422  0.01381651  1
  Si0+  Si119  1  0.57357902  0.17713573  0.64969130  1
  O2-  O120  1  0.25413064  -0.00651687  0.06785489  1
  O2-  O121  1  0.25056118  0.00021789  0.39118154  1
  O2-  O122  1  0.25458562  0.00473967  0.72335955  1
  O2-  O123  1  0.24908703  0.50032845  0.06673575  1
  O2-  O124  1  0.24332355  0.49877875  0.39328847  1
  O2-  O125  1  0.24981281  0.50070858  0.72861770  1
  O2-  O126  1  0.75125973  0.00375578  0.05754664  1
  O2-  O127  1  0.75463989  0.00493193  0.39260531  1
  O2-  O128  1  0.74319980  -0.00095328  0.73076222  1
  O2-  O129  1  0.73826387  0.50190742  0.06079028  1
  O2-  O130  1  0.74566607  0.49517911  0.39294906  1
  O2-  O131  1  0.74708280  0.49547618  0.72684830  1
  O2-  O132  1  -0.00344342  0.25552690  0.27152259  1
  O2-  O133  1  -0.00168981  0.25720008  0.60613813  1
  O2-  O134  1  0.00291050  0.25464808  0.94083569  1
  O2-  O135  1  -0.00388234  0.74274461  0.27037148  1
  O2-  O136  1  -0.00279951  0.74792961  0.61150778  1
  O2-  O137  1  0.00595243  0.74810091  0.93632932  1
  O2-  O138  1  0.50748164  0.24743732  0.27455529  1
  O2-  O139  1  0.50153580  0.24730442  0.60845324  1
  O2-  O140  1  0.49649406  0.25140857  0.93648834  1
  O2-  O141  1  0.49377895  0.74631349  0.27198185  1
  O2-  O142  1  0.49514743  0.74589537  0.60970402  1
  O2-  O143  1  0.49127412  0.74222630  0.93218507  1
  O2-  O144  1  0.06771922  0.18052164  0.08834911  1
  O2-  O145  1  0.07008411  0.17838355  0.43059219  1
  O2-  O146  1  0.06877082  0.17985694  0.76694925  1
  O2-  O147  1  0.06475884  0.67408077  0.08810267  1
  O2-  O148  1  0.07298339  0.67898873  0.43466765  1
  O2-  O149  1  0.06966106  0.67951477  0.75950995  1
  O2-  O150  1  0.57338465  0.18184128  0.09995940  1
  O2-  O151  1  0.57090738  0.17939169  0.42652821  1
  O2-  O152  1  0.57427025  0.17769336  0.75465092  1
  O2-  O153  1  0.57371257  0.68459456  0.09587596  1
  O2-  O154  1  0.57057305  0.68138669  0.43535246  1
  O2-  O155  1  0.57339931  0.68154081  0.75539154  1
  O2-  O156  1  0.18343295  0.42208566  0.24478352  1
  O2-  O157  1  0.18400768  0.42519481  0.56536342  1
  O2-  O158  1  0.17948713  0.42690578  0.90301191  1
  O2-  O159  1  0.17471546  0.93448374  0.24389813  1
  O2-  O160  1  0.17871770  0.93015691  0.56497934  1
  O2-  O161  1  0.17288256  0.93570505  0.90448829  1
  O2-  O162  1  0.68133761  0.41611689  0.24505807  1
  O2-  O163  1  0.67665798  0.42594877  0.57788661  1
  O2-  O164  1  0.68585568  0.42062022  0.91016110  1
  O2-  O165  1  0.67789826  0.93299165  0.23425296  1
  O2-  O166  1  0.67533594  0.92875329  0.58199057  1
  O2-  O167  1  0.68327107  0.93497896  0.90839575  1
  O2-  O168  1  0.42855448  0.31926695  0.08531956  1
  O2-  O169  1  0.43027600  0.31911673  0.43259616  1
  O2-  O170  1  0.43309692  0.31881279  0.75615694  1
  O2-  O171  1  0.43314400  0.82453635  0.09680558  1
  O2-  O172  1  0.42810354  0.82324215  0.43531550  1
  O2-  O173  1  0.42843744  0.82239943  0.75627054  1
  O2-  O174  1  0.92591156  0.31759767  0.08930346  1
  O2-  O175  1  0.92295183  0.32102730  0.42117396  1
  O2-  O176  1  0.92501058  0.32206484  0.75507476  1
  O2-  O177  1  0.92695399  0.82019181  0.09665673  1
  O2-  O178  1  0.93191686  0.82067033  0.43509556  1
  O2-  O179  1  0.92872292  0.82203912  0.75733764  1
  O2-  O180  1  0.32257735  0.07200190  0.24431573  1
  O2-  O181  1  0.32550584  0.07219172  0.57446148  1
  O2-  O182  1  0.31921673  0.06902357  0.90116938  1
  O2-  O183  1  0.32181018  0.56954478  0.23347319  1
  O2-  O184  1  0.32389877  0.57235780  0.56662356  1
  O2-  O185  1  0.32075889  0.56632060  0.90272915  1
  O2-  O186  1  0.82262372  0.07576330  0.24380787  1
  O2-  O187  1  0.81851511  0.06686484  0.56672078  1
  O2-  O188  1  0.82077270  0.07462461  0.90998337  1
  O2-  O189  1  0.81747212  0.57112534  0.23388916  1
  O2-  O190  1  0.81976190  0.57268483  0.56791366  1
  O2-  O191  1  0.81761869  0.57097956  0.90150723  1
  O2-  O192  1  0.03741391  0.08599108  0.25956595  1
  O2-  O193  1  0.03455033  0.08443175  0.59935237  1
  O2-  O194  1  0.03895770  0.09062314  0.93598445  1
  O2-  O195  1  0.05225151  0.57333723  0.27110964  1
  O2-  O196  1  0.04431283  0.58598736  0.60802154  1
  O2-  O197  1  0.03816259  0.58247362  0.93752207  1
  O2-  O198  1  0.54579488  0.08514338  0.27569905  1
  O2-  O199  1  0.54754499  0.08408011  0.60325504  1
  O2-  O200  1  0.54413612  0.08399219  0.92854727  1
  O2-  O201  1  0.55387748  0.57858922  0.26898644  1
  O2-  O202  1  0.55119274  0.58450132  0.60591846  1
  O2-  O203  1  0.55431731  0.57499765  0.93282016  1
  O2-  O204  1  0.16612542  0.20863948  0.26109189  1
  O2-  O205  1  0.16890948  0.20589618  0.59903513  1
  O2-  O206  1  0.16429723  0.20543541  0.93797142  1
  O2-  O207  1  0.16722760  0.70929615  0.26474951  1
  O2-  O208  1  0.16216966  0.70945899  0.60817910  1
  O2-  O209  1  0.16551230  0.69453637  0.93920573  1
  O2-  O210  1  0.66887748  0.19892901  0.27655713  1
  O2-  O211  1  0.66479051  0.20587847  0.60144561  1
  O2-  O212  1  0.66784528  0.21287254  0.93066232  1
  O2-  O213  1  0.66685591  0.71550419  0.27021046  1
  O2-  O214  1  0.66153152  0.71340546  0.60330795  1
  O2-  O215  1  0.66474119  0.71672363  0.92708472  1
  O2-  O216  1  0.07845551  0.45103224  0.06966825  1
  O2-  O217  1  0.08322020  0.43911255  0.39352221  1
  O2-  O218  1  0.08088062  0.44999733  0.73172100  1
  O2-  O219  1  0.07987357  0.96609629  0.07176655  1
  O2-  O220  1  0.08616030  0.96352092  0.39535539  1
  O2-  O221  1  0.08293116  0.96314629  0.73319031  1
  O2-  O222  1  0.58158147  0.43941602  0.05565354  1
  O2-  O223  1  0.58390064  0.44854086  0.39479536  1
  O2-  O224  1  0.58573171  0.45147861  0.73160121  1
  O2-  O225  1  0.58958752  0.96077462  0.05972049  1
  O2-  O226  1  0.58453489  0.96317422  0.40715704  1
  O2-  O227  1  0.58157547  0.95402672  0.73229386  1
  O2-  O228  1  0.20687263  0.32923099  0.06869177  1
  O2-  O229  1  0.21310270  0.33193077  0.39486702  1
  O2-  O230  1  0.21191433  0.32902486  0.73215129  1
  O2-  O231  1  0.19054557  0.82562753  0.06570165  1
  O2-  O232  1  0.20196951  0.83900439  0.39637449  1
  O2-  O233  1  0.20650347  0.83625712  0.73662084  1
  O2-  O234  1  0.71352419  0.33587544  0.06492324  1
  O2-  O235  1  0.70504765  0.33210840  0.40037192  1
  O2-  O236  1  0.70276771  0.33271819  0.72919114  1
  O2-  O237  1  0.71158485  0.84134044  0.05933513  1
  O2-  O238  1  0.71029962  0.83675546  0.40730096  1
  O2-  O239  1  0.70328601  0.83646772  0.73429108  1
  O2-  O240  1  0.46142862  0.41536102  0.26163460  1
  O2-  O241  1  0.46216885  0.41155165  0.60369591  1
  O2-  O242  1  0.45294272  0.41243654  0.93168036  1
  O2-  O243  1  0.46114145  0.92121263  0.27042188  1
  O2-  O244  1  0.45668045  0.91129770  0.60327344  1
  O2-  O245  1  0.46103736  0.91567562  0.92808910  1
  O2-  O246  1  0.94902508  0.41589557  0.26961049  1
  O2-  O247  1  0.95074937  0.41952308  0.60526903  1
  O2-  O248  1  0.95337537  0.41588505  0.93962512  1
  O2-  O249  1  0.95731027  0.91616541  0.26581175  1
  O2-  O250  1  0.95672610  0.91226483  0.60494240  1
  O2-  O251  1  0.96027061  0.92007832  0.93135262  1
  O2-  O252  1  0.33763347  0.28688443  0.26128678  1
  O2-  O253  1  0.34105633  0.29250506  0.60163526  1
  O2-  O254  1  0.33357389  0.29095940  0.93492545  1
  O2-  O255  1  0.32668641  0.80528458  0.26992566  1
  O2-  O256  1  0.33274908  0.79607980  0.60660121  1
  O2-  O257  1  0.32317582  0.79844311  0.93501456  1
  O2-  O258  1  0.83341211  0.29354161  0.26792074  1
  O2-  O259  1  0.83411835  0.29725519  0.60253378  1
  O2-  O260  1  0.83993041  0.29161945  0.93344185  1
  O2-  O261  1  0.82915066  0.79434455  0.27089560  1
  O2-  O262  1  0.83365038  0.79584386  0.60790477  1
  O2-  O263  1  0.83507623  0.79183875  0.92678965  1
  O2-  O264  1  0.42397536  0.04415074  0.06525635  1
  O2-  O265  1  0.41236944  0.04807922  0.39884985  1
  O2-  O266  1  0.41820580  0.04621131  0.72581805  1
  O2-  O267  1  0.42308015  0.54022243  0.06511787  1
  O2-  O268  1  0.41811048  0.53817886  0.39795710  1
  O2-  O269  1  0.42178815  0.54280652  0.73222172  1
  O2-  O270  1  0.91329781  0.04770911  0.06182632  1
  O2-  O271  1  0.91771147  0.04460739  0.39403849  1
  O2-  O272  1  0.91365999  0.03841945  0.73627539  1
  O2-  O273  1  0.91078054  0.53933034  0.07019896  1
  O2-  O274  1  0.91765092  0.53836220  0.40098920  1
  O2-  O275  1  0.91603227  0.54338236  0.73745783  1
  O2-  O276  1  0.29306316  0.16520191  0.06840055  1
  O2-  O277  1  0.28988870  0.16386778  0.39488042  1
  O2-  O278  1  0.30159991  0.16603673  0.72597587  1
  O2-  O279  1  0.29764545  0.67020253  0.06728861  1
  O2-  O280  1  0.29069410  0.66973469  0.39926348  1
  O2-  O281  1  0.29473701  0.66940710  0.73446797  1
  O2-  O282  1  0.79399738  0.16653882  0.06189508  1
  O2-  O283  1  0.80038938  0.16623428  0.39805876  1
  O2-  O284  1  0.79154422  0.16808734  0.73296689  1
  O2-  O285  1  0.78670830  0.67207652  0.06465141  1
  O2-  O286  1  0.78961183  0.66589811  0.40358524  1
  O2-  O287  1  0.78677508  0.66799403  0.73503639  1
