# generated using pymatgen
data_Ca2Al2SiO7
_symmetry_space_group_name_H-M   'P 1'
_cell_length_a   15.45965172
_cell_length_b   15.45901549
_cell_length_c   15.28349423
_cell_angle_alpha   89.98933407
_cell_angle_beta   90.01961448
_cell_angle_gamma   89.98512928
_symmetry_Int_Tables_number   1
_chemical_formula_structural   Ca2Al2SiO7
_chemical_formula_sum   'Ca48 Al48 Si24 O168'
_cell_volume   3652.61710049
_cell_formula_units_Z   24
loop_
 _symmetry_equiv_pos_site_id
 _symmetry_equiv_pos_as_xyz
  1  'x, y, z'
loop_
 _atom_type_symbol
 _atom_type_oxidation_number
  Ca2+  2.0
  Al0+  0.0
  Si0+  0.0
  O2-  -2.0
loop_
 _atom_site_type_symbol
 _atom_site_label
 _atom_site_symmetry_multiplicity
 _atom_site_fract_x
 _atom_site_fract_y
 _atom_site_fract_z
 _atom_site_occupancy
  Ca2+  Ca0  1  0.16585245  0.08164410  0.17072792  1
  Ca2+  Ca1  1  0.15516489  0.08006602  0.49987333  1
  Ca2+  Ca2  1  0.16986110  0.08474767  0.84312321  1
  Ca2+  Ca3  1  0.17588895  0.58975710  0.17180635  1
  Ca2+  Ca4  1  0.17005114  0.58392398  0.50573504  1
  Ca2+  Ca5  1  0.16390203  0.57457873  0.84439154  1
  Ca2+  Ca6  1  0.67008631  0.07978317  0.16966105  1
  Ca2+  Ca7  1  0.66746885  0.07391964  0.50155130  1
  Ca2+  Ca8  1  0.67466660  0.08568403  0.84780345  1
  Ca2+  Ca9  1  0.65917548  0.58208407  0.17086655  1
  Ca2+  Ca10  1  0.66692490  0.58243123  0.50672671  1
  Ca2+  Ca11  1  0.65838415  0.57592411  0.83795982  1
  Ca2+  Ca12  1  0.08321465  0.32548540  0.16078470  1
  Ca2+  Ca13  1  0.08578270  0.32540583  0.49303100  1
  Ca2+  Ca14  1  0.09496680  0.32517109  0.82999370  1
  Ca2+  Ca15  1  0.09069938  0.82539070  0.16670797  1
  Ca2+  Ca16  1  0.07971006  0.82537686  0.48974694  1
  Ca2+  Ca17  1  0.08731414  0.81825162  0.83188234  1
  Ca2+  Ca18  1  0.57598000  0.33285518  0.15944614  1
  Ca2+  Ca19  1  0.57698529  0.33855477  0.49307117  1
  Ca2+  Ca20  1  0.58758377  0.33354600  0.83375639  1
  Ca2+  Ca21  1  0.58081545  0.82434902  0.15945197  1
  Ca2+  Ca22  1  0.58530099  0.82188942  0.49147638  1
  Ca2+  Ca23  1  0.57486951  0.82395910  0.83211528  1
  Ca2+  Ca24  1  0.33049152  0.42634653  0.16899247  1
  Ca2+  Ca25  1  0.32980098  0.42087014  0.50026238  1
  Ca2+  Ca26  1  0.32077506  0.42374732  0.84173776  1
  Ca2+  Ca27  1  0.33320445  0.92037902  0.17000368  1
  Ca2+  Ca28  1  0.32506521  0.91814865  0.49828022  1
  Ca2+  Ca29  1  0.33435771  0.92119846  0.84305867  1
  Ca2+  Ca30  1  0.82820685  0.41347525  0.16789428  1
  Ca2+  Ca31  1  0.82979539  0.41478311  0.50328472  1
  Ca2+  Ca32  1  0.82063436  0.41491477  0.83921717  1
  Ca2+  Ca33  1  0.83232918  0.91946016  0.17518144  1
  Ca2+  Ca34  1  0.83202204  0.90897605  0.49635440  1
  Ca2+  Ca35  1  0.83262877  0.92449942  0.84095575  1
  Ca2+  Ca36  1  0.41762688  0.17146094  0.15867911  1
  Ca2+  Ca37  1  0.41792633  0.17819117  0.49268192  1
  Ca2+  Ca38  1  0.42111099  0.16361318  0.83540229  1
  Ca2+  Ca39  1  0.42063432  0.66653653  0.15896208  1
  Ca2+  Ca40  1  0.42736323  0.65827505  0.49374105  1
  Ca2+  Ca41  1  0.42071776  0.66201096  0.83821609  1
  Ca2+  Ca42  1  0.92428938  0.16750683  0.16323143  1
  Ca2+  Ca43  1  0.92608674  0.17603496  0.49207279  1
  Ca2+  Ca44  1  0.92654956  0.16525508  0.83296711  1
  Ca2+  Ca45  1  0.92716054  0.67324685  0.16524761  1
  Ca2+  Ca46  1  0.93040864  0.66694395  0.49158939  1
  Ca2+  Ca47  1  0.92825528  0.66043573  0.83300295  1
  Al0+  Al48  1  -0.00069190  0.00204053  0.00029665  1
  Al0+  Al49  1  -0.00056579  0.00093539  0.33361506  1
  Al0+  Al50  1  -0.00017976  -0.00006796  0.66488483  1
  Al0+  Al51  1  -0.00480028  0.49806924  0.00064577  1
  Al0+  Al52  1  -0.00061707  0.49856373  0.32610418  1
  Al0+  Al53  1  -0.00093269  0.49862677  0.66685833  1
  Al0+  Al54  1  0.50017091  0.00043943  -0.00344490  1
  Al0+  Al55  1  0.50126309  -0.00035546  0.34237963  1
  Al0+  Al56  1  0.49975593  -0.00036588  0.66518062  1
  Al0+  Al57  1  0.49750722  0.49893362  0.00273562  1
  Al0+  Al58  1  0.49819773  0.49897088  0.32987501  1
  Al0+  Al59  1  0.49938622  0.49985680  0.66773998  1
  Al0+  Al60  1  0.24993694  0.24954916  0.00355839  1
  Al0+  Al61  1  0.25223548  0.25211661  0.32543207  1
  Al0+  Al62  1  0.25202847  0.24972613  0.66495081  1
  Al0+  Al63  1  0.24962298  0.75013128  -0.00624102  1
  Al0+  Al64  1  0.25373550  0.75195434  0.34222504  1
  Al0+  Al65  1  0.25159120  0.75252930  0.66426361  1
  Al0+  Al66  1  0.74987422  0.24984354  0.00609978  1
  Al0+  Al67  1  0.75057737  0.24889878  0.33341031  1
  Al0+  Al68  1  0.75045848  0.24828115  0.66940178  1
  Al0+  Al69  1  0.75000161  0.74906375  -0.00623306  1
  Al0+  Al70  1  0.75139010  0.74791880  0.33079266  1
  Al0+  Al71  1  0.74910085  0.75054731  0.66710939  1
  Al0+  Al72  1  0.32109054  0.57096458  0.34866784  1
  Al0+  Al73  1  0.07242903  0.18003981  0.65300470  1
  Al0+  Al74  1  0.82194688  0.07021114  0.01539084  1
  Al0+  Al75  1  0.07595592  0.67938135  0.31927049  1
  Al0+  Al76  1  0.17894646  0.42896985  0.67803949  1
  Al0+  Al77  1  0.92621971  0.32222371  0.31692633  1
  Al0+  Al78  1  0.57126965  0.18082347  0.98822267  1
  Al0+  Al79  1  0.92892301  0.82011846  0.31917513  1
  Al0+  Al80  1  0.56812621  0.67941722  0.65208164  1
  Al0+  Al81  1  0.42815451  0.82204082  0.98598585  1
  Al0+  Al82  1  0.67898923  0.43108476  0.01549200  1
  Al0+  Al83  1  0.43048457  0.32121987  0.31808982  1
  Al0+  Al84  1  0.17511713  0.42759730  0.01664832  1
  Al0+  Al85  1  0.32268613  0.07009495  0.01308118  1
  Al0+  Al86  1  0.57151369  0.67621219  0.98397938  1
  Al0+  Al87  1  0.31756210  0.57215043  0.01497948  1
  Al0+  Al88  1  0.07136759  0.17939993  0.31682669  1
  Al0+  Al89  1  0.07127873  0.67688751  0.65319140  1
  Al0+  Al90  1  0.67996631  0.92700077  0.34694092  1
  Al0+  Al91  1  0.06984309  0.67853753  0.98712263  1
  Al0+  Al92  1  0.17910135  0.93131457  0.34727818  1
  Al0+  Al93  1  0.07100766  0.18066736  0.98521103  1
  Al0+  Al94  1  0.67856903  0.42933530  0.67936549  1
  Al0+  Al95  1  0.57033265  0.67936608  0.32022382  1
  Si0+  Si96  1  0.42849915  0.82625591  0.64564948  1
  Si0+  Si97  1  0.17788761  0.92839700  0.01441096  1
  Si0+  Si98  1  0.82236823  0.57028928  0.34762147  1
  Si0+  Si99  1  0.42757692  0.32150191  0.98098915  1
  Si0+  Si100  1  0.92581031  0.32101255  0.98149985  1
  Si0+  Si101  1  0.92535142  0.32029669  0.65181945  1
  Si0+  Si102  1  0.82174874  0.57455043  0.01821738  1
  Si0+  Si103  1  0.57385736  0.17731746  0.65146840  1
  Si0+  Si104  1  0.67756020  0.92790149  0.68371501  1
  Si0+  Si105  1  0.82176269  0.07248141  0.35331512  1
  Si0+  Si106  1  0.32277656  0.07527130  0.35122892  1
  Si0+  Si107  1  0.67912365  0.42923923  0.34740417  1
  Si0+  Si108  1  0.32172412  0.07114587  0.68119626  1
  Si0+  Si109  1  0.57169926  0.17578011  0.31911229  1
  Si0+  Si110  1  0.17707627  0.42813553  0.34863235  1
  Si0+  Si111  1  0.92750704  0.82356491  0.98283491  1
  Si0+  Si112  1  0.17826328  0.93010957  0.68258355  1
  Si0+  Si113  1  0.43116996  0.31906305  0.65279859  1
  Si0+  Si114  1  0.82198397  0.57340695  0.68307077  1
  Si0+  Si115  1  0.81988935  0.06926853  0.68203763  1
  Si0+  Si116  1  0.67866217  0.92706114  0.01456016  1
  Si0+  Si117  1  0.32160111  0.57317677  0.68341668  1
  Si0+  Si118  1  0.42951709  0.82458021  0.31952082  1
  Si0+  Si119  1  0.92876522  0.82247433  0.65103080  1
  O2-  O120  1  0.24757033  -0.00408090  0.05860229  1
  O2-  O121  1  0.25070839  0.00988027  0.39558002  1
  O2-  O122  1  0.25048712  0.00044407  0.72369454  1
  O2-  O123  1  0.24270711  0.50386247  0.06597241  1
  O2-  O124  1  0.24155486  0.50025882  0.39460404  1
  O2-  O125  1  0.24632508  0.51050169  0.72530535  1
  O2-  O126  1  0.74908992  -0.00713677  0.06009539  1
  O2-  O127  1  0.75399291  0.00186902  0.39691264  1
  O2-  O128  1  0.74783240  -0.00035801  0.72540592  1
  O2-  O129  1  0.74909202  0.50982080  0.06237814  1
  O2-  O130  1  0.75211597  0.49767287  0.39027036  1
  O2-  O131  1  0.75234516  0.50481293  0.72634955  1
  O2-  O132  1  -0.00003397  0.25211455  0.26763203  1
  O2-  O133  1  -0.00030708  0.25742114  0.60811607  1
  O2-  O134  1  -0.00042973  0.25785631  0.93648305  1
  O2-  O135  1  0.00556315  0.75345417  0.26965559  1
  O2-  O136  1  -0.00454759  0.75128296  0.60810267  1
  O2-  O137  1  -0.00519334  0.75315137  0.93895936  1
  O2-  O138  1  0.50317617  0.24339056  0.27445227  1
  O2-  O139  1  0.50503482  0.25037251  0.60970167  1
  O2-  O140  1  0.49748100  0.25377135  0.93637524  1
  O2-  O141  1  0.49816583  0.75663468  0.27536524  1
  O2-  O142  1  0.49464233  0.75419252  0.60324369  1
  O2-  O143  1  0.49893382  0.74869705  0.93542713  1
  O2-  O144  1  0.06892910  0.17840174  0.09745494  1
  O2-  O145  1  0.06957934  0.18164589  0.43133828  1
  O2-  O146  1  0.07188156  0.17826209  0.76590180  1
  O2-  O147  1  0.07119022  0.68245292  0.09953372  1
  O2-  O148  1  0.07297131  0.67918456  0.43344978  1
  O2-  O149  1  0.06962527  0.67806675  0.76635367  1
  O2-  O150  1  0.56959908  0.18143399  0.10115260  1
  O2-  O151  1  0.57083658  0.17755390  0.42573538  1
  O2-  O152  1  0.57390595  0.17539058  0.75627842  1
  O2-  O153  1  0.57157942  0.67899275  0.09738145  1
  O2-  O154  1  0.57038275  0.67803539  0.43399800  1
  O2-  O155  1  0.56590040  0.67971412  0.76445932  1
  O2-  O156  1  0.17991448  0.42725353  0.24371989  1
  O2-  O157  1  0.18331921  0.42641349  0.56497452  1
  O2-  O158  1  0.17923175  0.42763760  0.90207158  1
  O2-  O159  1  0.18339198  0.93019028  0.23442591  1
  O2-  O160  1  0.17760616  0.93120797  0.57756839  1
  O2-  O161  1  0.17748507  0.93013586  0.90808287  1
  O2-  O162  1  0.67883171  0.42995417  0.24276186  1
  O2-  O163  1  0.67931673  0.42906982  0.56587213  1
  O2-  O164  1  0.68136881  0.42990862  0.90180051  1
  O2-  O165  1  0.67917260  0.92985120  0.23421528  1
  O2-  O166  1  0.67826273  0.92814094  0.57855107  1
  O2-  O167  1  0.68076920  0.93013374  0.90826150  1
  O2-  O168  1  0.42993717  0.32036955  0.08646523  1
  O2-  O169  1  0.43290096  0.32128883  0.43247136  1
  O2-  O170  1  0.43072465  0.31643869  0.75741968  1
  O2-  O171  1  0.43026605  0.82409672  0.09956624  1
  O2-  O172  1  0.43192718  0.82491049  0.42554578  1
  O2-  O173  1  0.43035919  0.83210102  0.75072394  1
  O2-  O174  1  0.92405557  0.31756231  0.08673143  1
  O2-  O175  1  0.92361207  0.32041043  0.43133963  1
  O2-  O176  1  0.91952839  0.31583500  0.75680325  1
  O2-  O177  1  0.92673977  0.82354505  0.08793458  1
  O2-  O178  1  0.92884373  0.81478045  0.43340579  1
  O2-  O179  1  0.93053481  0.82615652  0.75656852  1
  O2-  O180  1  0.32707148  0.07226876  0.24612802  1
  O2-  O181  1  0.32368665  0.07097277  0.57620450  1
  O2-  O182  1  0.32104908  0.06925498  0.89902187  1
  O2-  O183  1  0.32309682  0.57040460  0.23631511  1
  O2-  O184  1  0.32457772  0.56918151  0.57769810  1
  O2-  O185  1  0.31705379  0.56922703  0.90070219  1
  O2-  O186  1  0.81938234  0.07369208  0.24809305  1
  O2-  O187  1  0.81791613  0.06950276  0.57719473  1
  O2-  O188  1  0.82123057  0.06887892  0.90114049  1
  O2-  O189  1  0.82024071  0.57202153  0.24308672  1
  O2-  O190  1  0.82141558  0.57337012  0.57723245  1
  O2-  O191  1  0.82381308  0.57179822  0.91221313  1
  O2-  O192  1  0.04280947  0.08080799  0.26632777  1
  O2-  O193  1  0.03780552  0.08403901  0.59974933  1
  O2-  O194  1  0.03784355  0.08418850  0.93075201  1
  O2-  O195  1  0.04748374  0.58166139  0.26722566  1
  O2-  O196  1  0.04125927  0.57991132  0.59909030  1
  O2-  O197  1  0.03596463  0.58170952  0.93405515  1
  O2-  O198  1  0.54719637  0.08114933  0.27609419  1
  O2-  O199  1  0.54349156  0.08636454  0.60308391  1
  O2-  O200  1  0.54241836  0.08497648  0.93127915  1
  O2-  O201  1  0.53771327  0.58417642  0.26684949  1
  O2-  O202  1  0.53795024  0.58180338  0.59857959  1
  O2-  O203  1  0.53966806  0.57790451  0.93212443  1
  O2-  O204  1  0.17066427  0.20387708  0.26546866  1
  O2-  O205  1  0.16976841  0.20785921  0.59872714  1
  O2-  O206  1  0.16930563  0.20905018  0.93236850  1
  O2-  O207  1  0.17530322  0.71089099  0.27095162  1
  O2-  O208  1  0.16883626  0.70839553  0.60164500  1
  O2-  O209  1  0.16419241  0.70942571  0.92898817  1
  O2-  O210  1  0.66558475  0.19986165  0.27496893  1
  O2-  O211  1  0.66627388  0.20228930  0.60421248  1
  O2-  O212  1  0.66790801  0.21288456  0.93413917  1
  O2-  O213  1  0.66708572  0.70680588  0.26700775  1
  O2-  O214  1  0.66686099  0.70936875  0.60086046  1
  O2-  O215  1  0.67018745  0.70230183  0.92921164  1
  O2-  O216  1  0.07293430  0.44716256  0.06383007  1
  O2-  O217  1  0.08058730  0.44718818  0.39190672  1
  O2-  O218  1  0.07936014  0.45050339  0.73074087  1
  O2-  O219  1  0.08509244  0.95497000  0.06036865  1
  O2-  O220  1  0.08154751  0.95952709  0.40278556  1
  O2-  O221  1  0.08642470  0.95791705  0.72966038  1
  O2-  O222  1  0.58086664  0.45642581  0.06805643  1
  O2-  O223  1  0.58806609  0.45939396  0.39497809  1
  O2-  O224  1  0.58186562  0.45858497  0.73396834  1
  O2-  O225  1  0.58613134  0.95534512  0.05965307  1
  O2-  O226  1  0.58527366  0.95803314  0.40694065  1
  O2-  O227  1  0.58490679  0.95630036  0.72880612  1
  O2-  O228  1  0.20816990  0.33115176  0.06936386  1
  O2-  O229  1  0.20919787  0.33530455  0.39427969  1
  O2-  O230  1  0.21703541  0.33409084  0.73215447  1
  O2-  O231  1  0.20307867  0.83448209  0.05837604  1
  O2-  O232  1  0.21318308  0.83799848  0.40710456  1
  O2-  O233  1  0.20672514  0.83790395  0.72955574  1
  O2-  O234  1  0.71257637  0.33629018  0.07064455  1
  O2-  O235  1  0.70351475  0.33590633  0.39492333  1
  O2-  O236  1  0.70885509  0.33174886  0.73315876  1
  O2-  O237  1  0.70140499  0.83155620  0.05730350  1
  O2-  O238  1  0.71332860  0.83071735  0.40188470  1
  O2-  O239  1  0.70526874  0.83658967  0.73189081  1
  O2-  O240  1  0.46547989  0.41417936  0.26189498  1
  O2-  O241  1  0.45760380  0.41112480  0.60522069  1
  O2-  O242  1  0.45310705  0.41474569  0.93503701  1
  O2-  O243  1  0.45409585  0.91945943  0.27602729  1
  O2-  O244  1  0.45683288  0.91854047  0.59727303  1
  O2-  O245  1  0.45933854  0.91847178  0.92909854  1
  O2-  O246  1  0.94804012  0.42081873  0.26282304  1
  O2-  O247  1  0.94378239  0.41616671  0.60825773  1
  O2-  O248  1  0.94212064  0.41694868  0.93688732  1
  O2-  O249  1  0.94885305  0.92158775  0.27130912  1
  O2-  O250  1  0.95619624  0.91443604  0.60233920  1
  O2-  O251  1  0.95478305  0.91643826  0.93582370  1
  O2-  O252  1  0.33538570  0.29408398  0.26155503  1
  O2-  O253  1  0.34229121  0.28722704  0.60195905  1
  O2-  O254  1  0.33470484  0.29307926  0.93564279  1
  O2-  O255  1  0.33563292  0.80009620  0.27614708  1
  O2-  O256  1  0.33319186  0.80415802  0.60208529  1
  O2-  O257  1  0.33063168  0.79668555  0.92885272  1
  O2-  O258  1  0.82782411  0.29156591  0.26460319  1
  O2-  O259  1  0.83447943  0.28814132  0.60219433  1
  O2-  O260  1  0.83430569  0.28826133  0.93525836  1
  O2-  O261  1  0.83334329  0.78824982  0.26375639  1
  O2-  O262  1  0.83336521  0.80008278  0.60728449  1
  O2-  O263  1  0.83412508  0.80051126  0.93425622  1
  O2-  O264  1  0.41957962  0.04056490  0.06698151  1
  O2-  O265  1  0.41443205  0.04767327  0.40200270  1
  O2-  O266  1  0.41441276  0.04324655  0.72819192  1
  O2-  O267  1  0.41516944  0.54135563  0.06750736  1
  O2-  O268  1  0.41600311  0.53161060  0.40310713  1
  O2-  O269  1  0.41207780  0.53992491  0.73094764  1
  O2-  O270  1  0.91815463  0.04038501  0.06978193  1
  O2-  O271  1  0.91523376  0.04834032  0.40005272  1
  O2-  O272  1  0.91164685  0.03933415  0.72911063  1
  O2-  O273  1  0.91278772  0.54528770  0.06669297  1
  O2-  O274  1  0.91463733  0.54242849  0.39544302  1
  O2-  O275  1  0.91482981  0.54660890  0.73015681  1
  O2-  O276  1  0.29365143  0.16608491  0.06732908  1
  O2-  O277  1  0.29996745  0.17096643  0.39469090  1
  O2-  O278  1  0.29525141  0.16280101  0.72870307  1
  O2-  O279  1  0.29305789  0.67292956  0.06471359  1
  O2-  O280  1  0.29838807  0.66799244  0.40608444  1
  O2-  O281  1  0.30469120  0.67060483  0.72459681  1
  O2-  O282  1  0.78825021  0.16426887  0.07070996  1
  O2-  O283  1  0.79281542  0.16506025  0.40144261  1
  O2-  O284  1  0.79295790  0.16051028  0.73081454  1
  O2-  O285  1  0.80077598  0.67069549  0.06056936  1
  O2-  O286  1  0.79312827  0.66042629  0.39762353  1
  O2-  O287  1  0.79809334  0.66742068  0.72935336  1
