# generated using pymatgen
data_Ca2Al2SiO7
_symmetry_space_group_name_H-M   'P 1'
_cell_length_a   15.45348962
_cell_length_b   15.45352726
_cell_length_c   15.28013073
_cell_angle_alpha   90.00172649
_cell_angle_beta   89.99484126
_cell_angle_gamma   89.98956285
_symmetry_Int_Tables_number   1
_chemical_formula_structural   Ca2Al2SiO7
_chemical_formula_sum   'Ca48 Al48 Si24 O168'
_cell_volume   3649.06204565
_cell_formula_units_Z   24
loop_
 _symmetry_equiv_pos_site_id
 _symmetry_equiv_pos_as_xyz
  1  'x, y, z'
loop_
 _atom_type_symbol
 _atom_type_oxidation_number
  Ca2+  2.0
  Al0+  0.0
  Si0+  0.0
  O2-  -2.0
loop_
 _atom_site_type_symbol
 _atom_site_label
 _atom_site_symmetry_multiplicity
 _atom_site_fract_x
 _atom_site_fract_y
 _atom_site_fract_z
 _atom_site_occupancy
  Ca2+  Ca0  1  0.16192200  0.07208952  0.17306729  1
  Ca2+  Ca1  1  0.15825938  0.07671524  0.50219564  1
  Ca2+  Ca2  1  0.16679018  0.07857211  0.83700373  1
  Ca2+  Ca3  1  0.16846701  0.57863759  0.17303543  1
  Ca2+  Ca4  1  0.16604487  0.58262491  0.50466643  1
  Ca2+  Ca5  1  0.17923244  0.59112911  0.83585480  1
  Ca2+  Ca6  1  0.67193770  0.08499773  0.17248745  1
  Ca2+  Ca7  1  0.68057043  0.07603373  0.50948740  1
  Ca2+  Ca8  1  0.66709427  0.08138444  0.83377168  1
  Ca2+  Ca9  1  0.67546452  0.58196152  0.17213417  1
  Ca2+  Ca10  1  0.67135227  0.58565832  0.50770056  1
  Ca2+  Ca11  1  0.65590926  0.57778263  0.83202108  1
  Ca2+  Ca12  1  0.08182335  0.33022289  0.16602150  1
  Ca2+  Ca13  1  0.08929392  0.32070797  0.49329580  1
  Ca2+  Ca14  1  0.07711277  0.32844234  0.82707628  1
  Ca2+  Ca15  1  0.07599079  0.83735607  0.16662042  1
  Ca2+  Ca16  1  0.08235332  0.82099706  0.49066099  1
  Ca2+  Ca17  1  0.08103173  0.83291091  0.83095069  1
  Ca2+  Ca18  1  0.57956964  0.32545780  0.15638576  1
  Ca2+  Ca19  1  0.57864115  0.34283426  0.50332912  1
  Ca2+  Ca20  1  0.57660126  0.33228055  0.82895445  1
  Ca2+  Ca21  1  0.56898803  0.83544876  0.16136063  1
  Ca2+  Ca22  1  0.57566595  0.83815626  0.49978182  1
  Ca2+  Ca23  1  0.57137218  0.82931099  0.82238889  1
  Ca2+  Ca24  1  0.33157306  0.42164693  0.17031376  1
  Ca2+  Ca25  1  0.32840298  0.42227086  0.50851969  1
  Ca2+  Ca26  1  0.34382758  0.42793333  0.83662390  1
  Ca2+  Ca27  1  0.32310666  0.90957190  0.17083401  1
  Ca2+  Ca28  1  0.33012601  0.90853393  0.50136484  1
  Ca2+  Ca29  1  0.32762233  0.90876029  0.84169518  1
  Ca2+  Ca30  1  0.83760708  0.42152355  0.17276265  1
  Ca2+  Ca31  1  0.82791391  0.42467395  0.50478962  1
  Ca2+  Ca32  1  0.82955500  0.41413012  0.83619210  1
  Ca2+  Ca33  1  0.83659357  0.91829262  0.17550386  1
  Ca2+  Ca34  1  0.83735373  0.92433391  0.50525353  1
  Ca2+  Ca35  1  0.83005262  0.91835254  0.83517151  1
  Ca2+  Ca36  1  0.42408609  0.17326306  0.15642117  1
  Ca2+  Ca37  1  0.41611018  0.17370172  0.49781194  1
  Ca2+  Ca38  1  0.41908967  0.17773574  0.82955576  1
  Ca2+  Ca39  1  0.40874212  0.67544021  0.16424551  1
  Ca2+  Ca40  1  0.41899551  0.67346553  0.50257856  1
  Ca2+  Ca41  1  0.41352040  0.67271798  0.82427688  1
  Ca2+  Ca42  1  0.92032854  0.16781491  0.16534493  1
  Ca2+  Ca43  1  0.92297432  0.15900149  0.49661602  1
  Ca2+  Ca44  1  0.92027604  0.16858371  0.82847370  1
  Ca2+  Ca45  1  0.92003153  0.67352801  0.16537625  1
  Ca2+  Ca46  1  0.92467001  0.66889967  0.48978341  1
  Ca2+  Ca47  1  0.92505320  0.67365487  0.82740761  1
  Al0+  Al48  1  -0.00098671  -0.00109444  -0.00010665  1
  Al0+  Al49  1  0.00150510  -0.00027919  0.33445663  1
  Al0+  Al50  1  0.00043242  0.00126082  0.66978619  1
  Al0+  Al51  1  0.00097520  0.49924543  -0.00504929  1
  Al0+  Al52  1  0.00047751  0.49850651  0.33939797  1
  Al0+  Al53  1  -0.00048342  0.49853140  0.66452129  1
  Al0+  Al54  1  0.50035175  -0.00073040  -0.00730489  1
  Al0+  Al55  1  0.49955312  0.00138794  0.32850654  1
  Al0+  Al56  1  0.49918428  0.00252241  0.66607128  1
  Al0+  Al57  1  0.50109094  0.49993292  0.00759820  1
  Al0+  Al58  1  0.49929649  0.50078425  0.33155482  1
  Al0+  Al59  1  0.49980749  0.50188946  0.66555464  1
  Al0+  Al60  1  0.25080672  0.25022209  -0.00336096  1
  Al0+  Al61  1  0.25033684  0.25002049  0.33019722  1
  Al0+  Al62  1  0.24855292  0.24905759  0.65971876  1
  Al0+  Al63  1  0.24935941  0.74889225  0.00763194  1
  Al0+  Al64  1  0.25056625  0.74876067  0.33050471  1
  Al0+  Al65  1  0.24813524  0.74942065  0.66273615  1
  Al0+  Al66  1  0.75151804  0.24904679  -0.00607655  1
  Al0+  Al67  1  0.74938867  0.24931855  0.33943196  1
  Al0+  Al68  1  0.75027990  0.25142506  0.67446110  1
  Al0+  Al69  1  0.75092527  0.75065997  -0.00279738  1
  Al0+  Al70  1  0.74850860  0.74923389  0.33482172  1
  Al0+  Al71  1  0.74981599  0.75162582  0.66897612  1
  Al0+  Al72  1  0.17895151  0.93064006  0.01461690  1
  Al0+  Al73  1  0.42731978  0.81772602  0.98672329  1
  Al0+  Al74  1  0.43037670  0.32164872  0.65172487  1
  Al0+  Al75  1  0.07134851  0.67522377  0.31671295  1
  Al0+  Al76  1  0.93068341  0.32233179  0.98712513  1
  Al0+  Al77  1  0.82057092  0.57175901  0.34626118  1
  Al0+  Al78  1  0.06913141  0.17957355  0.65260409  1
  Al0+  Al79  1  0.18095015  0.92922781  0.34832404  1
  Al0+  Al80  1  0.57182747  0.67940391  0.65220942  1
  Al0+  Al81  1  0.92830268  0.82195659  0.98517728  1
  Al0+  Al82  1  0.57247381  0.17791413  0.98323707  1
  Al0+  Al83  1  0.67937471  0.43244273  0.68174724  1
  Al0+  Al84  1  0.43060025  0.82097175  0.31793750  1
  Al0+  Al85  1  0.92859233  0.82071060  0.32016487  1
  Al0+  Al86  1  0.67677774  0.92810192  0.68328175  1
  Al0+  Al87  1  0.17993435  0.42766958  0.34732368  1
  Al0+  Al88  1  0.82090446  0.07001288  0.34614687  1
  Al0+  Al89  1  0.07012760  0.67911665  0.65368342  1
  Al0+  Al90  1  0.07119342  0.17850500  0.31835309  1
  Al0+  Al91  1  0.42736262  0.82374108  0.65154421  1
  Al0+  Al92  1  0.42845525  0.32317035  0.98544243  1
  Al0+  Al93  1  0.31729104  0.56978625  0.67868874  1
  Al0+  Al94  1  0.32147130  0.56964283  0.01562513  1
  Al0+  Al95  1  0.82296044  0.07005039  0.68569900  1
  Si0+  Si96  1  0.57174638  0.18069983  0.32035961  1
  Si0+  Si97  1  0.92538521  0.32191832  0.64808633  1
  Si0+  Si98  1  0.67474116  0.92843739  0.34781985  1
  Si0+  Si99  1  0.18162550  0.92934993  0.68099245  1
  Si0+  Si100  1  0.57355166  0.17921202  0.64813292  1
  Si0+  Si101  1  0.92841683  0.82238189  0.65122508  1
  Si0+  Si102  1  0.07152184  0.17690432  0.98436014  1
  Si0+  Si103  1  0.17591488  0.42606136  0.01502041  1
  Si0+  Si104  1  0.82497179  0.57314896  0.68538499  1
  Si0+  Si105  1  0.32352511  0.07353383  0.01506485  1
  Si0+  Si106  1  0.32393158  0.07256190  0.34879132  1
  Si0+  Si107  1  0.67676235  0.42780425  0.34916790  1
  Si0+  Si108  1  0.82332813  0.57149003  0.01323114  1
  Si0+  Si109  1  0.42899316  0.32223090  0.31758310  1
  Si0+  Si110  1  0.32258180  0.57158965  0.35234330  1
  Si0+  Si111  1  0.67819366  0.92805823  0.01548763  1
  Si0+  Si112  1  0.68159881  0.42810479  0.01578906  1
  Si0+  Si113  1  0.57383455  0.67850569  0.98570799  1
  Si0+  Si114  1  0.17734988  0.42468127  0.68371940  1
  Si0+  Si115  1  0.81970214  0.07072188  0.01646513  1
  Si0+  Si116  1  0.07133414  0.67782854  0.98401436  1
  Si0+  Si117  1  0.92614124  0.32048386  0.31992762  1
  Si0+  Si118  1  0.32093315  0.07445749  0.68055981  1
  Si0+  Si119  1  0.57247123  0.67579123  0.31496356  1
  O2-  O120  1  0.25454739  0.00594415  0.06030613  1
  O2-  O121  1  0.25665951  0.00358926  0.39481918  1
  O2-  O122  1  0.25497246  -0.00147069  0.72287528  1
  O2-  O123  1  0.24769297  0.49175089  0.05897669  1
  O2-  O124  1  0.25289316  0.50340202  0.39519503  1
  O2-  O125  1  0.24340170  0.49516028  0.72852960  1
  O2-  O126  1  0.74846543  -0.00028471  0.05886749  1
  O2-  O127  1  0.74872478  -0.00815178  0.39097787  1
  O2-  O128  1  0.74924052  -0.00075005  0.73511139  1
  O2-  O129  1  0.75303405  0.49945432  0.05655590  1
  O2-  O130  1  0.74371185  0.49841789  0.39195120  1
  O2-  O131  1  0.75396889  0.50697131  0.73042245  1
  O2-  O132  1  -0.00499425  0.25295445  0.27387439  1
  O2-  O133  1  -0.00558572  0.25370318  0.60458965  1
  O2-  O134  1  0.00664653  0.24914110  0.94054087  1
  O2-  O135  1  -0.00067127  0.74817663  0.26790644  1
  O2-  O136  1  -0.00844149  0.74923618  0.60710309  1
  O2-  O137  1  0.00324776  0.74724714  0.93988192  1
  O2-  O138  1  0.50148088  0.25196260  0.27709909  1
  O2-  O139  1  0.50519815  0.24772145  0.60259209  1
  O2-  O140  1  0.49886206  0.24965278  0.93553590  1
  O2-  O141  1  0.50524551  0.74580003  0.27103943  1
  O2-  O142  1  0.50390643  0.75554965  0.60273034  1
  O2-  O143  1  0.50274991  0.74395467  0.94125296  1
  O2-  O144  1  0.06909096  0.17617602  0.08990528  1
  O2-  O145  1  0.07019499  0.17889379  0.43122328  1
  O2-  O146  1  0.06960859  0.18038899  0.76615923  1
  O2-  O147  1  0.06812548  0.67433598  0.08917103  1
  O2-  O148  1  0.07004946  0.67669277  0.43050049  1
  O2-  O149  1  0.07170067  0.68377849  0.76726915  1
  O2-  O150  1  0.57400473  0.18086476  0.09796883  1
  O2-  O151  1  0.57091377  0.18071187  0.42506125  1
  O2-  O152  1  0.57094764  0.18019613  0.75358834  1
  O2-  O153  1  0.57769819  0.68179301  0.09141566  1
  O2-  O154  1  0.57143626  0.67247518  0.42001557  1
  O2-  O155  1  0.56618708  0.67738218  0.76613039  1
  O2-  O156  1  0.18333578  0.42647310  0.23370559  1
  O2-  O157  1  0.18012153  0.42377128  0.57807827  1
  O2-  O158  1  0.17238169  0.42713769  0.90971347  1
  O2-  O159  1  0.18078753  0.93166906  0.23507989  1
  O2-  O160  1  0.18062361  0.92981770  0.57604495  1
  O2-  O161  1  0.17922000  0.93151747  0.90080382  1
  O2-  O162  1  0.67733280  0.42574933  0.24324283  1
  O2-  O163  1  0.68163356  0.43365009  0.56825393  1
  O2-  O164  1  0.67991157  0.42954993  0.91101219  1
  O2-  O165  1  0.67187506  0.93274306  0.24178886  1
  O2-  O166  1  0.67753202  0.93158471  0.56924878  1
  O2-  O167  1  0.67947074  0.92749610  0.91096547  1
  O2-  O168  1  0.43176197  0.32143973  0.09981089  1
  O2-  O169  1  0.42978510  0.32309053  0.42265990  1
  O2-  O170  1  0.43153737  0.32041258  0.76450356  1
  O2-  O171  1  0.42886639  0.81773689  0.09996883  1
  O2-  O172  1  0.43281971  0.82206621  0.43056784  1
  O2-  O173  1  0.42382491  0.81972868  0.76519708  1
  O2-  O174  1  0.93015964  0.32248747  0.10047319  1
  O2-  O175  1  0.92374067  0.31845788  0.42513699  1
  O2-  O176  1  0.92794529  0.32216472  0.75414271  1
  O2-  O177  1  0.92639148  0.82143284  0.09789904  1
  O2-  O178  1  0.93042897  0.81996341  0.43373527  1
  O2-  O179  1  0.93195809  0.82249184  0.75733776  1
  O2-  O180  1  0.32511851  0.07280608  0.24314246  1
  O2-  O181  1  0.31888942  0.07718055  0.57549191  1
  O2-  O182  1  0.32086799  0.07442273  0.90929464  1
  O2-  O183  1  0.32462499  0.56822010  0.24645182  1
  O2-  O184  1  0.31583490  0.56865997  0.56574041  1
  O2-  O185  1  0.32086016  0.57126639  0.90243546  1
  O2-  O186  1  0.81680233  0.07413678  0.23258712  1
  O2-  O187  1  0.82398787  0.06768886  0.57183024  1
  O2-  O188  1  0.82047608  0.06991518  0.91178987  1
  O2-  O189  1  0.81915935  0.56896452  0.23221656  1
  O2-  O190  1  0.82569190  0.57017002  0.57978630  1
  O2-  O191  1  0.82329655  0.57081975  0.90844189  1
  O2-  O192  1  0.03885745  0.08317256  0.26403691  1
  O2-  O193  1  0.03802051  0.08233770  0.59980732  1
  O2-  O194  1  0.04102217  0.08575068  0.93672955  1
  O2-  O195  1  0.04210289  0.57567984  0.26625463  1
  O2-  O196  1  0.04475804  0.58003628  0.60182147  1
  O2-  O197  1  0.04655616  0.58547648  0.93485418  1
  O2-  O198  1  0.54491108  0.09025261  0.26955094  1
  O2-  O199  1  0.54742598  0.08630803  0.60159081  1
  O2-  O200  1  0.54612826  0.08017756  0.92904783  1
  O2-  O201  1  0.54623585  0.58243058  0.26667026  1
  O2-  O202  1  0.54073684  0.58332009  0.59672591  1
  O2-  O203  1  0.55030090  0.58247801  0.94513746  1
  O2-  O204  1  0.16753015  0.20957840  0.26327456  1
  O2-  O205  1  0.16442810  0.20862187  0.59536950  1
  O2-  O206  1  0.16672966  0.19704112  0.93931228  1
  O2-  O207  1  0.17054451  0.70152294  0.26548207  1
  O2-  O208  1  0.16319048  0.71323685  0.59650992  1
  O2-  O209  1  0.16489241  0.70636677  0.94072692  1
  O2-  O210  1  0.66340639  0.20955023  0.27236427  1
  O2-  O211  1  0.66834447  0.20596187  0.60568338  1
  O2-  O212  1  0.66934891  0.20772493  0.92936993  1
  O2-  O213  1  0.66681677  0.69907535  0.26948501  1
  O2-  O214  1  0.67320790  0.70234659  0.60201463  1
  O2-  O215  1  0.66606363  0.70333167  0.93687917  1
  O2-  O216  1  0.08327016  0.45504003  0.06258515  1
  O2-  O217  1  0.08302410  0.45241715  0.40306038  1
  O2-  O218  1  0.08146017  0.44711161  0.72671241  1
  O2-  O219  1  0.08215360  0.96286984  0.06842353  1
  O2-  O220  1  0.08555403  0.96133525  0.40293486  1
  O2-  O221  1  0.09109595  0.95992462  0.72967404  1
  O2-  O222  1  0.59139403  0.45498183  0.06734655  1
  O2-  O223  1  0.58215096  0.45286656  0.39374945  1
  O2-  O224  1  0.58317027  0.46392213  0.73619216  1
  O2-  O225  1  0.58529352  0.95622084  0.06149780  1
  O2-  O226  1  0.58385279  0.96125158  0.39536996  1
  O2-  O227  1  0.57740351  0.95806100  0.73498761  1
  O2-  O228  1  0.19803130  0.33062096  0.05994475  1
  O2-  O229  1  0.21379681  0.33124581  0.40072965  1
  O2-  O230  1  0.20413614  0.33099643  0.72869920  1
  O2-  O231  1  0.20887352  0.83495158  0.07017467  1
  O2-  O232  1  0.21188135  0.83139486  0.39998365  1
  O2-  O233  1  0.20799374  0.83759865  0.72888348  1
  O2-  O234  1  0.71099945  0.33580053  0.06180814  1
  O2-  O235  1  0.70234272  0.33585970  0.39837128  1
  O2-  O236  1  0.70837422  0.33627984  0.73765290  1
  O2-  O237  1  0.70662096  0.83617063  0.06301028  1
  O2-  O238  1  0.69212489  0.83236723  0.39085351  1
  O2-  O239  1  0.70276621  0.82906017  0.73714449  1
  O2-  O240  1  0.45603883  0.41415274  0.26955659  1
  O2-  O241  1  0.46245970  0.41681737  0.59662951  1
  O2-  O242  1  0.46158104  0.42168261  0.93609979  1
  O2-  O243  1  0.46044010  0.91799919  0.26260493  1
  O2-  O244  1  0.45041152  0.92443703  0.60002113  1
  O2-  O245  1  0.45460618  0.91491052  0.93310601  1
  O2-  O246  1  0.95255739  0.41393437  0.27471477  1
  O2-  O247  1  0.94920732  0.41607711  0.60268991  1
  O2-  O248  1  0.95835541  0.41790576  0.92884115  1
  O2-  O249  1  0.95922329  0.91825886  0.26657254  1
  O2-  O250  1  0.95918295  0.91472472  0.60673507  1
  O2-  O251  1  0.96013987  0.91779271  0.93068299  1
  O2-  O252  1  0.33900886  0.29301406  0.26839494  1
  O2-  O253  1  0.33473265  0.28908053  0.59690341  1
  O2-  O254  1  0.32912758  0.29913475  0.93217605  1
  O2-  O255  1  0.33474366  0.78848938  0.26410264  1
  O2-  O256  1  0.33151654  0.78963795  0.59724443  1
  O2-  O257  1  0.32986365  0.78605830  0.93560041  1
  O2-  O258  1  0.83209025  0.29479570  0.27318434  1
  O2-  O259  1  0.83075398  0.29733996  0.60465919  1
  O2-  O260  1  0.83601605  0.29041031  0.93104577  1
  O2-  O261  1  0.82784219  0.79567445  0.26876268  1
  O2-  O262  1  0.83245006  0.80429946  0.60832567  1
  O2-  O263  1  0.83255921  0.79063575  0.92991091  1
  O2-  O264  1  0.41853008  0.04838428  0.05900015  1
  O2-  O265  1  0.41836631  0.04883009  0.39475747  1
  O2-  O266  1  0.41475770  0.05465199  0.72674746  1
  O2-  O267  1  0.41788487  0.54133335  0.07323169  1
  O2-  O268  1  0.41662291  0.54392342  0.39697766  1
  O2-  O269  1  0.41396932  0.53938835  0.73196298  1
  O2-  O270  1  0.91162911  0.04256926  0.06327217  1
  O2-  O271  1  0.91713313  0.04039749  0.40021819  1
  O2-  O272  1  0.92073406  0.04015102  0.74034923  1
  O2-  O273  1  0.91519380  0.54281017  0.06017491  1
  O2-  O274  1  0.91473450  0.53922124  0.40302639  1
  O2-  O275  1  0.91763655  0.54361490  0.73263003  1
  O2-  O276  1  0.30045168  0.16838547  0.06120437  1
  O2-  O277  1  0.29849417  0.16660024  0.39380175  1
  O2-  O278  1  0.28669780  0.16375793  0.72967534  1
  O2-  O279  1  0.28704587  0.66321216  0.07299037  1
  O2-  O280  1  0.29859454  0.66576981  0.39603156  1
  O2-  O281  1  0.28405797  0.66630893  0.73276106  1
  O2-  O282  1  0.79173108  0.16347653  0.06269831  1
  O2-  O283  1  0.78812228  0.16482824  0.40320297  1
  O2-  O284  1  0.79643187  0.16949096  0.73726791  1
  O2-  O285  1  0.79370148  0.66290654  0.06101592  1
  O2-  O286  1  0.79080517  0.66782438  0.40222485  1
  O2-  O287  1  0.80443444  0.66859723  0.72904895  1
