# generated using pymatgen
data_Ca2Al2SiO7
_symmetry_space_group_name_H-M   'P 1'
_cell_length_a   15.46299808
_cell_length_b   15.46029029
_cell_length_c   15.28520578
_cell_angle_alpha   90.00709962
_cell_angle_beta   89.96867046
_cell_angle_gamma   90.00602626
_symmetry_Int_Tables_number   1
_chemical_formula_structural   Ca2Al2SiO7
_chemical_formula_sum   'Ca48 Al48 Si24 O168'
_cell_volume   3654.11797982
_cell_formula_units_Z   24
loop_
 _symmetry_equiv_pos_site_id
 _symmetry_equiv_pos_as_xyz
  1  'x, y, z'
loop_
 _atom_type_symbol
 _atom_type_oxidation_number
  Ca2+  2.0
  Al0+  0.0
  Si0+  0.0
  O2-  -2.0
loop_
 _atom_site_type_symbol
 _atom_site_label
 _atom_site_symmetry_multiplicity
 _atom_site_fract_x
 _atom_site_fract_y
 _atom_site_fract_z
 _atom_site_occupancy
  Ca2+  Ca0  1  0.17553997  0.08993928  0.17150446  1
  Ca2+  Ca1  1  0.17677225  0.08957249  0.49994869  1
  Ca2+  Ca2  1  0.17908837  0.08426405  0.83543114  1
  Ca2+  Ca3  1  0.17703273  0.58147273  0.17106163  1
  Ca2+  Ca4  1  0.17650781  0.57571083  0.50542214  1
  Ca2+  Ca5  1  0.17850674  0.57871997  0.83370952  1
  Ca2+  Ca6  1  0.67158197  0.07993056  0.18053766  1
  Ca2+  Ca7  1  0.66088241  0.07545834  0.49630354  1
  Ca2+  Ca8  1  0.66143203  0.07448718  0.83434042  1
  Ca2+  Ca9  1  0.66916094  0.57460196  0.16408968  1
  Ca2+  Ca10  1  0.67430130  0.58291222  0.50302433  1
  Ca2+  Ca11  1  0.67406545  0.57743054  0.83954822  1
  Ca2+  Ca12  1  0.07398731  0.32971549  0.16816110  1
  Ca2+  Ca13  1  0.08067524  0.33115996  0.49329528  1
  Ca2+  Ca14  1  0.08186472  0.34012535  0.83140964  1
  Ca2+  Ca15  1  0.07042623  0.83664192  0.16261132  1
  Ca2+  Ca16  1  0.07689194  0.83107254  0.49105196  1
  Ca2+  Ca17  1  0.07737052  0.83095945  0.83222957  1
  Ca2+  Ca18  1  0.57714315  0.32960612  0.16354108  1
  Ca2+  Ca19  1  0.57074881  0.32770058  0.49171613  1
  Ca2+  Ca20  1  0.57287089  0.33872679  0.83200398  1
  Ca2+  Ca21  1  0.57981165  0.83624078  0.16973791  1
  Ca2+  Ca22  1  0.57842238  0.83678355  0.49636565  1
  Ca2+  Ca23  1  0.57892914  0.82992406  0.82370971  1
  Ca2+  Ca24  1  0.34575861  0.42537763  0.17156636  1
  Ca2+  Ca25  1  0.33397200  0.42155647  0.50787718  1
  Ca2+  Ca26  1  0.33322768  0.41805584  0.83928308  1
  Ca2+  Ca27  1  0.33514852  0.92847702  0.17633728  1
  Ca2+  Ca28  1  0.34726975  0.92850665  0.50162019  1
  Ca2+  Ca29  1  0.34105071  0.92870810  0.83520078  1
  Ca2+  Ca30  1  0.83275244  0.41047187  0.16925808  1
  Ca2+  Ca31  1  0.83439879  0.41905597  0.50583996  1
  Ca2+  Ca32  1  0.82968950  0.42669839  0.84565504  1
  Ca2+  Ca33  1  0.83008073  0.91882960  0.17866558  1
  Ca2+  Ca34  1  0.82401220  0.91827972  0.49966562  1
  Ca2+  Ca35  1  0.82650653  0.91363441  0.83743747  1
  Ca2+  Ca36  1  0.41639247  0.17228579  0.16471389  1
  Ca2+  Ca37  1  0.41444971  0.17484706  0.49096370  1
  Ca2+  Ca38  1  0.40938480  0.17553954  0.82826475  1
  Ca2+  Ca39  1  0.40998891  0.67060597  0.16379531  1
  Ca2+  Ca40  1  0.40783613  0.67590763  0.49480898  1
  Ca2+  Ca41  1  0.41309578  0.66883547  0.82545716  1
  Ca2+  Ca42  1  0.91806312  0.17030942  0.16564736  1
  Ca2+  Ca43  1  0.92541021  0.16942935  0.48507282  1
  Ca2+  Ca44  1  0.91749835  0.17518054  0.83197700  1
  Ca2+  Ca45  1  0.91039883  0.67784808  0.16026460  1
  Ca2+  Ca46  1  0.91724519  0.66933785  0.49349080  1
  Ca2+  Ca47  1  0.90834052  0.66695146  0.83062179  1
  Al0+  Al48  1  -0.00039972  -0.00150469  -0.00847456  1
  Al0+  Al49  1  0.00088729  -0.00024687  0.32871632  1
  Al0+  Al50  1  -0.00036686  0.00103514  0.66684991  1
  Al0+  Al51  1  0.00224062  0.50256176  0.00071011  1
  Al0+  Al52  1  0.00200995  0.50027022  0.32949328  1
  Al0+  Al53  1  0.00135410  0.50209342  0.67355653  1
  Al0+  Al54  1  0.49984123  0.00029840  0.00466234  1
  Al0+  Al55  1  0.50004204  -0.00123913  0.33264949  1
  Al0+  Al56  1  0.50126447  -0.00087773  0.67265106  1
  Al0+  Al57  1  0.50183380  0.50004719  0.00310024  1
  Al0+  Al58  1  0.50300682  0.50270493  0.33698473  1
  Al0+  Al59  1  0.50276837  0.50155880  0.66364669  1
  Al0+  Al60  1  0.24987851  0.24985124  0.00089432  1
  Al0+  Al61  1  0.24790551  0.25271322  0.32845584  1
  Al0+  Al62  1  0.24835670  0.25008632  0.67051963  1
  Al0+  Al63  1  0.24739378  0.75112022  0.00200753  1
  Al0+  Al64  1  0.25040861  0.74984617  0.33225721  1
  Al0+  Al65  1  0.24692385  0.75093155  0.66473117  1
  Al0+  Al66  1  0.74974898  0.24737892  -0.00336865  1
  Al0+  Al67  1  0.74870663  0.24982408  0.33377955  1
  Al0+  Al68  1  0.74999784  0.24880082  0.66621859  1
  Al0+  Al69  1  0.74786923  0.74911018  -0.00108847  1
  Al0+  Al70  1  0.74894148  0.74851014  0.33306264  1
  Al0+  Al71  1  0.74862611  0.75135473  0.67251467  1
  Al0+  Al72  1  0.31950276  0.07208954  0.34633397  1
  Al0+  Al73  1  0.43086820  0.32075928  0.98598465  1
  Al0+  Al74  1  0.92865525  0.81894737  0.32150558  1
  Al0+  Al75  1  0.32006955  0.06923717  0.67933471  1
  Al0+  Al76  1  0.32107720  0.57089560  0.01395611  1
  Al0+  Al77  1  0.56918230  0.17795313  0.31934187  1
  Al0+  Al78  1  0.32316416  0.57281982  0.68045507  1
  Al0+  Al79  1  0.68085673  0.93151309  0.68172779  1
  Al0+  Al80  1  0.82216081  0.57167514  0.01710087  1
  Al0+  Al81  1  0.82306149  0.07275065  0.34754862  1
  Al0+  Al82  1  0.42945597  0.81950521  0.31913013  1
  Al0+  Al83  1  0.92755946  0.32267046  0.32071446  1
  Al0+  Al84  1  0.92895550  0.32111628  0.98509183  1
  Al0+  Al85  1  0.42870681  0.32106873  0.65361630  1
  Al0+  Al86  1  0.67919735  0.92715933  0.34874674  1
  Al0+  Al87  1  0.82016307  0.56961625  0.67890342  1
  Al0+  Al88  1  0.18078271  0.42855575  0.68210786  1
  Al0+  Al89  1  0.32039778  0.07086832  0.01577739  1
  Al0+  Al90  1  0.92740187  0.81937738  0.98366013  1
  Al0+  Al91  1  0.42821126  0.82057902  0.65411403  1
  Al0+  Al92  1  0.07202303  0.17763632  0.31792633  1
  Al0+  Al93  1  0.42836455  0.32378560  0.31890259  1
  Al0+  Al94  1  0.68035893  0.42641679  0.01568673  1
  Al0+  Al95  1  0.32288270  0.57154736  0.34824533  1
  Si0+  Si96  1  0.92719744  0.82083353  0.65124961  1
  Si0+  Si97  1  0.06982497  0.17879767  0.65226801  1
  Si0+  Si98  1  0.92964989  0.32270561  0.65414039  1
  Si0+  Si99  1  0.17785433  0.42719927  0.01968837  1
  Si0+  Si100  1  0.17790049  0.92716177  0.34870849  1
  Si0+  Si101  1  0.57204257  0.17507112  0.98181057  1
  Si0+  Si102  1  0.57272181  0.17654414  0.65057411  1
  Si0+  Si103  1  0.82529004  0.07298902  0.68485390  1
  Si0+  Si104  1  0.57392409  0.67915919  0.64967044  1
  Si0+  Si105  1  0.06943974  0.67875890  0.65074641  1
  Si0+  Si106  1  0.07261492  0.67789373  0.31552571  1
  Si0+  Si107  1  0.07210864  0.17802615  0.97983261  1
  Si0+  Si108  1  0.17309957  0.92747375  0.68300271  1
  Si0+  Si109  1  0.17634017  0.92877897  0.01626655  1
  Si0+  Si110  1  0.82210120  0.56948764  0.34675592  1
  Si0+  Si111  1  0.17708933  0.43014926  0.34918630  1
  Si0+  Si112  1  0.56891712  0.67978992  0.98456463  1
  Si0+  Si113  1  0.57431620  0.67741713  0.31493471  1
  Si0+  Si114  1  0.82178437  0.06905129  0.01269982  1
  Si0+  Si115  1  0.67847317  0.42493276  0.68235333  1
  Si0+  Si116  1  0.07411727  0.67888187  0.98090660  1
  Si0+  Si117  1  0.42789229  0.82183523  0.98582082  1
  Si0+  Si118  1  0.67891401  0.92846964  0.01609373  1
  Si0+  Si119  1  0.67924063  0.42778410  0.35029591  1
  O2-  O120  1  0.24509618  -0.00379418  0.06107720  1
  O2-  O121  1  0.24556039  -0.00369480  0.39373022  1
  O2-  O122  1  0.24664854  -0.00802716  0.72551016  1
  O2-  O123  1  0.24947544  0.49382720  0.06232390  1
  O2-  O124  1  0.25056125  0.49393993  0.39310053  1
  O2-  O125  1  0.25814582  0.49536597  0.73190498  1
  O2-  O126  1  0.75135676  -0.00157975  0.05598185  1
  O2-  O127  1  0.75084449  0.00068779  0.39752204  1
  O2-  O128  1  0.75516904  0.00613174  0.72965698  1
  O2-  O129  1  0.75728942  0.49330881  0.06703452  1
  O2-  O130  1  0.75533069  0.49541076  0.39037599  1
  O2-  O131  1  0.74885596  0.49225466  0.72568500  1
  O2-  O132  1  -0.00492153  0.24634882  0.27097646  1
  O2-  O133  1  -0.00224418  0.24963825  0.61142401  1
  O2-  O134  1  0.00505228  0.24877213  0.93565712  1
  O2-  O135  1  0.00333330  0.74602978  0.27186409  1
  O2-  O136  1  -0.00143866  0.75060374  0.60878068  1
  O2-  O137  1  0.00008884  0.74267296  0.93642552  1
  O2-  O138  1  0.49731168  0.24912372  0.26832366  1
  O2-  O139  1  0.50458514  0.24660044  0.60818397  1
  O2-  O140  1  0.50403597  0.24457695  0.93797529  1
  O2-  O141  1  0.50241480  0.74344827  0.27158894  1
  O2-  O142  1  0.49917546  0.74197134  0.60697306  1
  O2-  O143  1  0.49592056  0.74899950  0.94235993  1
  O2-  O144  1  0.07020721  0.17551724  0.08490026  1
  O2-  O145  1  0.07289640  0.18051647  0.43227050  1
  O2-  O146  1  0.06801360  0.17678811  0.75736903  1
  O2-  O147  1  0.07735194  0.68344810  0.08616790  1
  O2-  O148  1  0.06997168  0.67751181  0.42160025  1
  O2-  O149  1  0.06934733  0.68003517  0.75571400  1
  O2-  O150  1  0.57211195  0.17223250  0.08689252  1
  O2-  O151  1  0.56751639  0.18028058  0.43339646  1
  O2-  O152  1  0.57365418  0.17660278  0.75639195  1
  O2-  O153  1  0.57045308  0.68163962  0.08944195  1
  O2-  O154  1  0.57828479  0.67763599  0.42048368  1
  O2-  O155  1  0.57702861  0.68183196  0.75547509  1
  O2-  O156  1  0.17191920  0.43417749  0.24404638  1
  O2-  O157  1  0.17687873  0.43045623  0.56866318  1
  O2-  O158  1  0.17852252  0.42841794  0.91380273  1
  O2-  O159  1  0.17954451  0.92566520  0.24305597  1
  O2-  O160  1  0.16474425  0.92976736  0.57813672  1
  O2-  O161  1  0.17694806  0.92865402  0.91034740  1
  O2-  O162  1  0.67726282  0.42947872  0.24550959  1
  O2-  O163  1  0.68096453  0.42431557  0.57664238  1
  O2-  O164  1  0.67931379  0.43121085  0.90163248  1
  O2-  O165  1  0.68205159  0.92600790  0.23472541  1
  O2-  O166  1  0.68205222  0.93004462  0.56944813  1
  O2-  O167  1  0.67783004  0.92915292  0.91065007  1
  O2-  O168  1  0.43329661  0.32099138  0.09848821  1
  O2-  O169  1  0.42966497  0.32336738  0.43293062  1
  O2-  O170  1  0.42990262  0.31997235  0.76700908  1
  O2-  O171  1  0.43004075  0.82197076  0.09079357  1
  O2-  O172  1  0.43061036  0.81921921  0.43231745  1
  O2-  O173  1  0.43181515  0.82082536  0.76798388  1
  O2-  O174  1  0.92929753  0.31633847  0.09759352  1
  O2-  O175  1  0.93226332  0.32673164  0.43497772  1
  O2-  O176  1  0.93044880  0.32145575  0.75931156  1
  O2-  O177  1  0.92838085  0.82085173  0.09651841  1
  O2-  O178  1  0.92917151  0.81514481  0.43519633  1
  O2-  O179  1  0.92790222  0.81969512  0.75650472  1
  O2-  O180  1  0.31836657  0.06992106  0.23325436  1
  O2-  O181  1  0.31898862  0.07018818  0.56645899  1
  O2-  O182  1  0.32026200  0.06867999  0.90214035  1
  O2-  O183  1  0.31989653  0.57197086  0.23488447  1
  O2-  O184  1  0.31749106  0.57378755  0.56717438  1
  O2-  O185  1  0.31987315  0.57256714  0.90102897  1
  O2-  O186  1  0.82217543  0.06974214  0.23330141  1
  O2-  O187  1  0.82963842  0.07178169  0.58000544  1
  O2-  O188  1  0.82031151  0.06748458  0.90716483  1
  O2-  O189  1  0.81996758  0.57132199  0.24219677  1
  O2-  O190  1  0.82036741  0.56895673  0.56514984  1
  O2-  O191  1  0.81635717  0.57256604  0.90329205  1
  O2-  O192  1  0.04920774  0.07884181  0.26344636  1
  O2-  O193  1  0.04260735  0.08702023  0.60410298  1
  O2-  O194  1  0.04496401  0.08557788  0.93124531  1
  O2-  O195  1  0.04796444  0.58526502  0.26811102  1
  O2-  O196  1  0.03923153  0.58748722  0.60335744  1
  O2-  O197  1  0.05513112  0.58342919  0.93658851  1
  O2-  O198  1  0.54446340  0.07929821  0.26592640  1
  O2-  O199  1  0.54597122  0.08275244  0.60685313  1
  O2-  O200  1  0.54345196  0.08128094  0.93573877  1
  O2-  O201  1  0.55110401  0.58332531  0.26985351  1
  O2-  O202  1  0.55827193  0.58356499  0.60391565  1
  O2-  O203  1  0.54350754  0.58779324  0.93692185  1
  O2-  O204  1  0.16627067  0.21161140  0.26068292  1
  O2-  O205  1  0.16117275  0.20735597  0.60538472  1
  O2-  O206  1  0.16603156  0.20388192  0.93457125  1
  O2-  O207  1  0.16533736  0.70441548  0.26908139  1
  O2-  O208  1  0.15996721  0.70623682  0.60085105  1
  O2-  O209  1  0.16473333  0.71189921  0.93128746  1
  O2-  O210  1  0.66807692  0.20579408  0.26742121  1
  O2-  O211  1  0.66779807  0.19904656  0.60475834  1
  O2-  O212  1  0.66598891  0.19683723  0.93436832  1
  O2-  O213  1  0.66554329  0.70601272  0.26571725  1
  O2-  O214  1  0.66529508  0.71238374  0.60248757  1
  O2-  O215  1  0.65899011  0.71061353  0.93485897  1
  O2-  O216  1  0.08549472  0.45614524  0.06593687  1
  O2-  O217  1  0.08552533  0.46105679  0.39840091  1
  O2-  O218  1  0.08525501  0.46329647  0.73819982  1
  O2-  O219  1  0.08154626  0.95544885  0.05964310  1
  O2-  O220  1  0.08360898  0.95072791  0.39406636  1
  O2-  O221  1  0.08224681  0.95778495  0.73375717  1
  O2-  O222  1  0.58542006  0.46218673  0.07049779  1
  O2-  O223  1  0.59123804  0.46193118  0.40143403  1
  O2-  O224  1  0.58597949  0.45410093  0.72824096  1
  O2-  O225  1  0.58785091  0.95650391  0.06419633  1
  O2-  O226  1  0.58105985  0.95611333  0.40143626  1
  O2-  O227  1  0.58595721  0.96134198  0.74001241  1
  O2-  O228  1  0.19896905  0.33209209  0.06313697  1
  O2-  O229  1  0.19733001  0.33487537  0.39297162  1
  O2-  O230  1  0.20187268  0.32956265  0.73685457  1
  O2-  O231  1  0.19909645  0.83529325  0.06294172  1
  O2-  O232  1  0.20214495  0.83344475  0.39533207  1
  O2-  O233  1  0.19432178  0.83254897  0.72757119  1
  O2-  O234  1  0.70396041  0.32522784  0.06477018  1
  O2-  O235  1  0.70284142  0.33608404  0.39903288  1
  O2-  O236  1  0.70065408  0.33065466  0.72875616  1
  O2-  O237  1  0.70527547  0.83626913  0.06170992  1
  O2-  O238  1  0.70912358  0.82884330  0.40194742  1
  O2-  O239  1  0.71239980  0.83634095  0.73875508  1
  O2-  O240  1  0.46291427  0.42195805  0.26911071  1
  O2-  O241  1  0.45891104  0.41845977  0.60004306  1
  O2-  O242  1  0.46350991  0.41787244  0.93298522  1
  O2-  O243  1  0.46193701  0.91450205  0.26369072  1
  O2-  O244  1  0.46494283  0.91658316  0.60256220  1
  O2-  O245  1  0.45986527  0.91308078  0.93930562  1
  O2-  O246  1  0.95973431  0.41900609  0.26466315  1
  O2-  O247  1  0.95906391  0.41485430  0.60868462  1
  O2-  O248  1  0.95823822  0.42024509  0.93438465  1
  O2-  O249  1  0.95788250  0.91463657  0.26584511  1
  O2-  O250  1  0.95464584  0.91374661  0.60624197  1
  O2-  O251  1  0.95939462  0.91452082  0.92606569  1
  O2-  O252  1  0.32889429  0.30228409  0.26694757  1
  O2-  O253  1  0.33073926  0.29016645  0.60264384  1
  O2-  O254  1  0.33239014  0.29100499  0.93430803  1
  O2-  O255  1  0.33242205  0.79037929  0.26457109  1
  O2-  O256  1  0.32903839  0.79722694  0.60138204  1
  O2-  O257  1  0.33413445  0.79808219  0.94072926  1
  O2-  O258  1  0.82789026  0.29956062  0.26988621  1
  O2-  O259  1  0.83612581  0.29859631  0.60803423  1
  O2-  O260  1  0.83320789  0.28810113  0.92925144  1
  O2-  O261  1  0.83316247  0.78603667  0.26686030  1
  O2-  O262  1  0.83538118  0.79150789  0.60576970  1
  O2-  O263  1  0.82984839  0.78915599  0.93019881  1
  O2-  O264  1  0.41646502  0.03876703  0.06952553  1
  O2-  O265  1  0.41568851  0.03960488  0.39929064  1
  O2-  O266  1  0.41546515  0.03932542  0.73605978  1
  O2-  O267  1  0.41840098  0.54397382  0.06743099  1
  O2-  O268  1  0.42135776  0.54764351  0.40155973  1
  O2-  O269  1  0.42610332  0.55433615  0.72766508  1
  O2-  O270  1  0.91483733  0.04115464  0.05662919  1
  O2-  O271  1  0.92231367  0.04336001  0.39876412  1
  O2-  O272  1  0.91743181  0.04567017  0.73360411  1
  O2-  O273  1  0.92483184  0.55513360  0.06445305  1
  O2-  O274  1  0.91583171  0.54599281  0.39285622  1
  O2-  O275  1  0.91615456  0.54342330  0.73541844  1
  O2-  O276  1  0.28913876  0.16749428  0.06830831  1
  O2-  O277  1  0.28740974  0.16981952  0.39791732  1
  O2-  O278  1  0.28525160  0.16341478  0.73538474  1
  O2-  O279  1  0.28783880  0.66799133  0.06693773  1
  O2-  O280  1  0.28762817  0.66756773  0.40112355  1
  O2-  O281  1  0.28781547  0.67010933  0.73301056  1
  O2-  O282  1  0.79545198  0.16097639  0.05903329  1
  O2-  O283  1  0.79660841  0.17151600  0.40126644  1
  O2-  O284  1  0.80033839  0.16770780  0.72995798  1
  O2-  O285  1  0.78517518  0.66834144  0.06885097  1
  O2-  O286  1  0.79015939  0.65918724  0.39611560  1
  O2-  O287  1  0.78762869  0.66493130  0.73402926  1
