# generated using pymatgen
data_Ca2Al2SiO7
_symmetry_space_group_name_H-M   'P 1'
_cell_length_a   15.46136349
_cell_length_b   15.46245305
_cell_length_c   15.28607487
_cell_angle_alpha   89.99646264
_cell_angle_beta   90.00531814
_cell_angle_gamma   89.98978270
_symmetry_Int_Tables_number   1
_chemical_formula_structural   Ca2Al2SiO7
_chemical_formula_sum   'Ca48 Al48 Si24 O168'
_cell_volume   3654.45111715
_cell_formula_units_Z   24
loop_
 _symmetry_equiv_pos_site_id
 _symmetry_equiv_pos_as_xyz
  1  'x, y, z'
loop_
 _atom_type_symbol
 _atom_type_oxidation_number
  Ca2+  2.0
  Al0+  0.0
  Si0+  0.0
  O2-  -2.0
loop_
 _atom_site_type_symbol
 _atom_site_label
 _atom_site_symmetry_multiplicity
 _atom_site_fract_x
 _atom_site_fract_y
 _atom_site_fract_z
 _atom_site_occupancy
  Ca2+  Ca0  1  0.17598123  0.08474609  0.17181819  1
  Ca2+  Ca1  1  0.17887835  0.09004589  0.50827803  1
  Ca2+  Ca2  1  0.17324746  0.09207653  0.83444245  1
  Ca2+  Ca3  1  0.15321401  0.57549663  0.16761528  1
  Ca2+  Ca4  1  0.15782046  0.57329376  0.50123209  1
  Ca2+  Ca5  1  0.16513700  0.57311522  0.84272394  1
  Ca2+  Ca6  1  0.66718491  0.07903134  0.16752732  1
  Ca2+  Ca7  1  0.67003031  0.08368123  0.50327764  1
  Ca2+  Ca8  1  0.67386672  0.08426657  0.84163056  1
  Ca2+  Ca9  1  0.66940014  0.58158213  0.16351747  1
  Ca2+  Ca10  1  0.67026635  0.57863656  0.50344205  1
  Ca2+  Ca11  1  0.67101512  0.57810171  0.84891685  1
  Ca2+  Ca12  1  0.07552085  0.34046911  0.16224359  1
  Ca2+  Ca13  1  0.08346830  0.33239292  0.49647744  1
  Ca2+  Ca14  1  0.07982671  0.33369242  0.83247694  1
  Ca2+  Ca15  1  0.07337431  0.82341356  0.15668997  1
  Ca2+  Ca16  1  0.07530386  0.82658067  0.48790390  1
  Ca2+  Ca17  1  0.07809852  0.82987646  0.83337136  1
  Ca2+  Ca18  1  0.57918736  0.32245531  0.15354793  1
  Ca2+  Ca19  1  0.58331871  0.31675236  0.49319299  1
  Ca2+  Ca20  1  0.58812180  0.32343052  0.83328303  1
  Ca2+  Ca21  1  0.58936857  0.83307205  0.15923795  1
  Ca2+  Ca22  1  0.57792072  0.84191776  0.49713811  1
  Ca2+  Ca23  1  0.58580292  0.83117226  0.83517483  1
  Ca2+  Ca24  1  0.32262354  0.41108351  0.16886097  1
  Ca2+  Ca25  1  0.31907073  0.41484580  0.50535101  1
  Ca2+  Ca26  1  0.32190882  0.40598842  0.84012777  1
  Ca2+  Ca27  1  0.33320613  0.92338040  0.17322544  1
  Ca2+  Ca28  1  0.33509924  0.92619183  0.50621190  1
  Ca2+  Ca29  1  0.33772972  0.91983939  0.83214142  1
  Ca2+  Ca30  1  0.83628248  0.41662489  0.16430262  1
  Ca2+  Ca31  1  0.83704142  0.41433821  0.49951847  1
  Ca2+  Ca32  1  0.82844169  0.42094805  0.84773045  1
  Ca2+  Ca33  1  0.82497182  0.91169439  0.16757542  1
  Ca2+  Ca34  1  0.82817704  0.91880142  0.50393410  1
  Ca2+  Ca35  1  0.83193705  0.92937767  0.84524116  1
  Ca2+  Ca36  1  0.42621232  0.16653200  0.16149414  1
  Ca2+  Ca37  1  0.42529220  0.15518450  0.49677471  1
  Ca2+  Ca38  1  0.42867165  0.16739518  0.83126492  1
  Ca2+  Ca39  1  0.42393157  0.66906937  0.15795482  1
  Ca2+  Ca40  1  0.41546367  0.67439378  0.49987450  1
  Ca2+  Ca41  1  0.42318174  0.67099833  0.83147584  1
  Ca2+  Ca42  1  0.91266609  0.17733201  0.15914388  1
  Ca2+  Ca43  1  0.92174781  0.16940375  0.49751155  1
  Ca2+  Ca44  1  0.91441407  0.16908956  0.82869829  1
  Ca2+  Ca45  1  0.92019421  0.67421952  0.15925860  1
  Ca2+  Ca46  1  0.92231558  0.67385638  0.48829789  1
  Ca2+  Ca47  1  0.91443377  0.66816790  0.83987817  1
  Al0+  Al48  1  0.00235281  0.00060516  0.00162237  1
  Al0+  Al49  1  -0.00066567  0.00127829  0.32893528  1
  Al0+  Al50  1  0.00029413  0.00047735  0.66444479  1
  Al0+  Al51  1  -0.00005622  0.49941091  -0.00108837  1
  Al0+  Al52  1  -0.00070538  0.49976123  0.33291036  1
  Al0+  Al53  1  -0.00107471  0.50062938  0.67110711  1
  Al0+  Al54  1  0.50049757  0.00129310  -0.00080307  1
  Al0+  Al55  1  0.50162452  -0.00104918  0.33602285  1
  Al0+  Al56  1  0.49949782  -0.00145341  0.66437928  1
  Al0+  Al57  1  0.49665219  0.50077721  -0.00476401  1
  Al0+  Al58  1  0.49917826  0.49962771  0.33710828  1
  Al0+  Al59  1  0.49879840  0.49992306  0.66465010  1
  Al0+  Al60  1  0.25047416  0.25047081  0.00370162  1
  Al0+  Al61  1  0.25132533  0.25128300  0.34361685  1
  Al0+  Al62  1  0.24940703  0.24981324  0.67260573  1
  Al0+  Al63  1  0.24909463  0.74966609  -0.00373398  1
  Al0+  Al64  1  0.25138419  0.74874100  0.32933833  1
  Al0+  Al65  1  0.25064011  0.74912880  0.66121123  1
  Al0+  Al66  1  0.75032002  0.25034052  -0.00063307  1
  Al0+  Al67  1  0.74961718  0.24866815  0.32635250  1
  Al0+  Al68  1  0.74966060  0.25038955  0.66400168  1
  Al0+  Al69  1  0.75010531  0.75076570  -0.00234733  1
  Al0+  Al70  1  0.74851451  0.74995245  0.33768125  1
  Al0+  Al71  1  0.75009835  0.74863777  0.66570722  1
  Al0+  Al72  1  0.92800864  0.82310146  0.98300498  1
  Al0+  Al73  1  0.07160558  0.17926045  0.65387997  1
  Al0+  Al74  1  0.57114360  0.18023590  0.65133648  1
  Al0+  Al75  1  0.93062085  0.31903894  0.31981237  1
  Al0+  Al76  1  0.18068926  0.42954683  0.01529103  1
  Al0+  Al77  1  0.17913404  0.43049006  0.68325776  1
  Al0+  Al78  1  0.56915018  0.17753942  0.31810994  1
  Al0+  Al79  1  0.68181138  0.92902182  0.34904289  1
  Al0+  Al80  1  0.82441223  0.07332001  0.01615863  1
  Al0+  Al81  1  0.32179596  0.06936313  0.68336387  1
  Al0+  Al82  1  0.57065709  0.67948933  0.98804337  1
  Al0+  Al83  1  0.92589754  0.82335084  0.31822895  1
  Al0+  Al84  1  0.82155123  0.07053716  0.67847769  1
  Al0+  Al85  1  0.17866405  0.43253119  0.34867709  1
  Al0+  Al86  1  0.43036487  0.81926295  0.65217235  1
  Al0+  Al87  1  0.07143761  0.67932315  0.31809545  1
  Al0+  Al88  1  0.31981684  0.06900790  0.34748237  1
  Al0+  Al89  1  0.92994779  0.31940610  0.98589708  1
  Al0+  Al90  1  0.82073181  0.57059925  0.01634554  1
  Al0+  Al91  1  0.42623517  0.32132009  0.98605095  1
  Al0+  Al92  1  0.57107804  0.17880229  0.98394452  1
  Al0+  Al93  1  0.67926778  0.93076648  0.01347045  1
  Al0+  Al94  1  0.67541173  0.42825324  0.01467912  1
  Al0+  Al95  1  0.07061395  0.67833815  0.98211606  1
  Si0+  Si96  1  0.07402932  0.17736704  0.98559014  1
  Si0+  Si97  1  0.67844822  0.42925931  0.67901303  1
  Si0+  Si98  1  0.82296204  0.07552222  0.35000206  1
  Si0+  Si99  1  0.92869956  0.32317567  0.65038526  1
  Si0+  Si100  1  0.81855527  0.56920940  0.34884562  1
  Si0+  Si101  1  0.17928626  0.92627804  0.01480807  1
  Si0+  Si102  1  0.67705082  0.42661935  0.34838775  1
  Si0+  Si103  1  0.17793051  0.92574429  0.68197333  1
  Si0+  Si104  1  0.43102994  0.82028695  0.31847194  1
  Si0+  Si105  1  0.81990453  0.57167742  0.68139342  1
  Si0+  Si106  1  0.32246003  0.57365223  0.68389357  1
  Si0+  Si107  1  0.32011093  0.06944206  0.01491867  1
  Si0+  Si108  1  0.17717177  0.92644969  0.34782002  1
  Si0+  Si109  1  0.32129500  0.57557481  0.01620806  1
  Si0+  Si110  1  0.07635877  0.17876032  0.31815689  1
  Si0+  Si111  1  0.42659828  0.82366330  0.98423262  1
  Si0+  Si112  1  0.32603345  0.57424264  0.35169098  1
  Si0+  Si113  1  0.57375725  0.67629991  0.64806253  1
  Si0+  Si114  1  0.06930915  0.67848561  0.65137870  1
  Si0+  Si115  1  0.42673918  0.32240270  0.64896331  1
  Si0+  Si116  1  0.57080776  0.67627985  0.32010145  1
  Si0+  Si117  1  0.67847105  0.92694374  0.68358801  1
  Si0+  Si118  1  0.92841049  0.82166058  0.65118527  1
  Si0+  Si119  1  0.42756753  0.32332409  0.31934311  1
  O2-  O120  1  0.25024987  -0.00266034  0.05705331  1
  O2-  O121  1  0.24163360  -0.00260853  0.39479562  1
  O2-  O122  1  0.24465898  -0.00444491  0.72823668  1
  O2-  O123  1  0.25425958  0.50602829  0.06124374  1
  O2-  O124  1  0.25411440  0.50791615  0.39454039  1
  O2-  O125  1  0.25632542  0.50355309  0.72858811  1
  O2-  O126  1  0.75224139  0.00064316  0.06512621  1
  O2-  O127  1  0.75879692  0.00224879  0.39448131  1
  O2-  O128  1  0.74759326  -0.00457627  0.72566680  1
  O2-  O129  1  0.74802687  0.49898606  0.06663429  1
  O2-  O130  1  0.74857276  0.49704207  0.39201384  1
  O2-  O131  1  0.74617633  0.50296711  0.72107772  1
  O2-  O132  1  0.00514110  0.24385336  0.27357294  1
  O2-  O133  1  -0.00272110  0.25428457  0.60666820  1
  O2-  O134  1  0.00093311  0.24070507  0.94077650  1
  O2-  O135  1  0.00330633  0.75593859  0.27054624  1
  O2-  O136  1  -0.00041122  0.75056305  0.60877362  1
  O2-  O137  1  -0.00052642  0.75089115  0.93156841  1
  O2-  O138  1  0.49578206  0.25504507  0.27488517  1
  O2-  O139  1  0.49522698  0.25413752  0.60363895  1
  O2-  O140  1  0.50236446  0.25473979  0.93475420  1
  O2-  O141  1  0.49870694  0.74595551  0.27804690  1
  O2-  O142  1  0.50632710  0.74596981  0.60365894  1
  O2-  O143  1  0.49604872  0.75483216  0.94197258  1
  O2-  O144  1  0.07798761  0.17962681  0.09130688  1
  O2-  O145  1  0.07660032  0.18049681  0.42400732  1
  O2-  O146  1  0.07075736  0.18041697  0.76664248  1
  O2-  O147  1  0.07125396  0.68156036  0.09539018  1
  O2-  O148  1  0.06752794  0.67938668  0.43295794  1
  O2-  O149  1  0.06887905  0.67870396  0.75576192  1
  O2-  O150  1  0.56577656  0.17541095  0.09748672  1
  O2-  O151  1  0.56911556  0.17856021  0.43182165  1
  O2-  O152  1  0.57292842  0.18213611  0.76360729  1
  O2-  O153  1  0.56813107  0.68057247  0.10171424  1
  O2-  O154  1  0.56992384  0.67516563  0.42551612  1
  O2-  O155  1  0.57469523  0.67533225  0.75302268  1
  O2-  O156  1  0.17965618  0.43227831  0.23610907  1
  O2-  O157  1  0.17715629  0.43368306  0.56974182  1
  O2-  O158  1  0.18187310  0.42903565  0.90213252  1
  O2-  O159  1  0.18228348  0.92650555  0.24225373  1
  O2-  O160  1  0.17977922  0.92477102  0.57622332  1
  O2-  O161  1  0.18039911  0.92510384  0.90968122  1
  O2-  O162  1  0.67376365  0.42909530  0.24432134  1
  O2-  O163  1  0.68056068  0.43029011  0.57322550  1
  O2-  O164  1  0.67840893  0.43073183  0.90013559  1
  O2-  O165  1  0.67936843  0.92693978  0.23686786  1
  O2-  O166  1  0.68059234  0.92553965  0.57757632  1
  O2-  O167  1  0.67778514  0.93223502  0.89959197  1
  O2-  O168  1  0.42352314  0.31524928  0.10005671  1
  O2-  O169  1  0.42987774  0.32492731  0.42516067  1
  O2-  O170  1  0.42917893  0.32292869  0.75407228  1
  O2-  O171  1  0.42450766  0.82347824  0.09014522  1
  O2-  O172  1  0.43148868  0.82021075  0.42365022  1
  O2-  O173  1  0.43063131  0.81677191  0.76499749  1
  O2-  O174  1  0.93362121  0.32065581  0.09904157  1
  O2-  O175  1  0.93102135  0.31910379  0.43363557  1
  O2-  O176  1  0.92774755  0.32486715  0.75539545  1
  O2-  O177  1  0.93033175  0.82172624  0.09637113  1
  O2-  O178  1  0.92630868  0.81888182  0.43311638  1
  O2-  O179  1  0.92794719  0.82113359  0.75554798  1
  O2-  O180  1  0.31951402  0.06700391  0.23401043  1
  O2-  O181  1  0.32138582  0.06700364  0.57009533  1
  O2-  O182  1  0.31951303  0.06844961  0.90991239  1
  O2-  O183  1  0.33411420  0.57366516  0.24702750  1
  O2-  O184  1  0.32158796  0.57389238  0.57799669  1
  O2-  O185  1  0.31889308  0.57938566  0.91067448  1
  O2-  O186  1  0.81986213  0.07885681  0.24530410  1
  O2-  O187  1  0.82109261  0.06889592  0.56504384  1
  O2-  O188  1  0.82350015  0.07180273  0.90189129  1
  O2-  O189  1  0.81690308  0.57070491  0.24474431  1
  O2-  O190  1  0.82064849  0.57204898  0.57569958  1
  O2-  O191  1  0.81837562  0.56884473  0.90186588  1
  O2-  O192  1  0.05763575  0.08320704  0.27329363  1
  O2-  O193  1  0.04387386  0.08216440  0.59784882  1
  O2-  O194  1  0.05753718  0.08170012  0.94073874  1
  O2-  O195  1  0.03711442  0.58304077  0.26694072  1
  O2-  O196  1  0.03719349  0.58734513  0.60438589  1
  O2-  O197  1  0.04061266  0.58089923  0.92932309  1
  O2-  O198  1  0.53502397  0.08164462  0.26591287  1
  O2-  O199  1  0.54078716  0.08266680  0.59923415  1
  O2-  O200  1  0.53725482  0.08235093  0.92971096  1
  O2-  O201  1  0.54443027  0.58391145  0.27338971  1
  O2-  O202  1  0.54684766  0.58308999  0.60039323  1
  O2-  O203  1  0.53938349  0.58504559  0.93002056  1
  O2-  O204  1  0.17008015  0.20726098  0.27400913  1
  O2-  O205  1  0.16871485  0.21145692  0.60095759  1
  O2-  O206  1  0.16525545  0.20901670  0.93830143  1
  O2-  O207  1  0.17260151  0.69923644  0.26716573  1
  O2-  O208  1  0.16162193  0.70285700  0.60323102  1
  O2-  O209  1  0.16928535  0.70734564  0.92891176  1
  O2-  O210  1  0.66507436  0.20718290  0.26454664  1
  O2-  O211  1  0.66656861  0.21386479  0.59497594  1
  O2-  O212  1  0.66983501  0.20531928  0.93206384  1
  O2-  O213  1  0.66213930  0.70552578  0.27470314  1
  O2-  O214  1  0.66804330  0.70038752  0.60127814  1
  O2-  O215  1  0.66545900  0.70955044  0.93088331  1
  O2-  O216  1  0.08412929  0.46139369  0.06744923  1
  O2-  O217  1  0.08221419  0.46434284  0.40405387  1
  O2-  O218  1  0.08248756  0.46281345  0.73622539  1
  O2-  O219  1  0.08894256  0.95372515  0.06430864  1
  O2-  O220  1  0.08082600  0.94664324  0.39091879  1
  O2-  O221  1  0.08350660  0.94918461  0.72637582  1
  O2-  O222  1  0.57558548  0.45673721  0.06485386  1
  O2-  O223  1  0.58663196  0.45552686  0.39936236  1
  O2-  O224  1  0.58476812  0.45320659  0.72395121  1
  O2-  O225  1  0.57959413  0.95734679  0.06662640  1
  O2-  O226  1  0.58591254  0.96206657  0.40382985  1
  O2-  O227  1  0.58406695  0.95053781  0.72667718  1
  O2-  O228  1  0.21237758  0.33372524  0.07110900  1
  O2-  O229  1  0.20987147  0.33710399  0.40591419  1
  O2-  O230  1  0.20837622  0.33408359  0.73719708  1
  O2-  O231  1  0.20843455  0.83520626  0.06306942  1
  O2-  O232  1  0.20511188  0.83278290  0.39361769  1
  O2-  O233  1  0.20649597  0.83237834  0.72739970  1
  O2-  O234  1  0.70320781  0.33002560  0.06636406  1
  O2-  O235  1  0.70726396  0.33486814  0.39488430  1
  O2-  O236  1  0.70849255  0.33877698  0.72624188  1
  O2-  O237  1  0.70592399  0.83146440  0.06517888  1
  O2-  O238  1  0.70831108  0.83171701  0.40636972  1
  O2-  O239  1  0.70294478  0.83158159  0.72717410  1
  O2-  O240  1  0.45163096  0.41766002  0.27420860  1
  O2-  O241  1  0.44971961  0.41728188  0.60266091  1
  O2-  O242  1  0.44288968  0.42218497  0.93408903  1
  O2-  O243  1  0.46205467  0.91021729  0.27059040  1
  O2-  O244  1  0.46093719  0.91477747  0.59590180  1
  O2-  O245  1  0.45294445  0.91616304  0.93722359  1
  O2-  O246  1  0.96124141  0.41562156  0.26742203  1
  O2-  O247  1  0.95543067  0.41729163  0.60436576  1
  O2-  O248  1  0.96288704  0.41445752  0.93081051  1
  O2-  O249  1  0.94558508  0.92428547  0.26782762  1
  O2-  O250  1  0.95537944  0.91255631  0.60204066  1
  O2-  O251  1  0.96100957  0.92134452  0.93137642  1
  O2-  O252  1  0.33295096  0.29705839  0.27666223  1
  O2-  O253  1  0.33242277  0.29619706  0.60549838  1
  O2-  O254  1  0.33042696  0.28515794  0.93199761  1
  O2-  O255  1  0.33862166  0.79671184  0.27016291  1
  O2-  O256  1  0.33447069  0.78812808  0.59480635  1
  O2-  O257  1  0.33437046  0.79790244  0.93585263  1
  O2-  O258  1  0.83392050  0.29200628  0.26517839  1
  O2-  O259  1  0.83559608  0.29806366  0.60264736  1
  O2-  O260  1  0.83246214  0.29394840  0.93169543  1
  O2-  O261  1  0.82875686  0.78748823  0.26847479  1
  O2-  O262  1  0.83650736  0.79185022  0.60368639  1
  O2-  O263  1  0.83066129  0.79447974  0.92885233  1
  O2-  O264  1  0.41123200  0.04108233  0.06274439  1
  O2-  O265  1  0.41428555  0.03220256  0.40169630  1
  O2-  O266  1  0.41760727  0.03447390  0.73613138  1
  O2-  O267  1  0.41562194  0.55225425  0.06107522  1
  O2-  O268  1  0.41774018  0.54722646  0.40300815  1
  O2-  O269  1  0.41846522  0.55195809  0.72724337  1
  O2-  O270  1  0.92499358  0.04965126  0.06738555  1
  O2-  O271  1  0.92004661  0.05595621  0.39275498  1
  O2-  O272  1  0.91884555  0.04127693  0.73171757  1
  O2-  O273  1  0.91869274  0.54091264  0.06794821  1
  O2-  O274  1  0.90957767  0.54033407  0.39774885  1
  O2-  O275  1  0.91018269  0.54308556  0.73003556  1
  O2-  O276  1  0.28971005  0.15913367  0.06436051  1
  O2-  O277  1  0.29437109  0.16563842  0.40446174  1
  O2-  O278  1  0.29167978  0.16558379  0.73732704  1
  O2-  O279  1  0.29652055  0.66936425  0.06357598  1
  O2-  O280  1  0.30178116  0.66939565  0.39634221  1
  O2-  O281  1  0.29546889  0.66725505  0.72855890  1
  O2-  O282  1  0.79494916  0.17125189  0.06781504  1
  O2-  O283  1  0.79177946  0.16727934  0.39792081  1
  O2-  O284  1  0.79134373  0.16861709  0.72980433  1
  O2-  O285  1  0.79181378  0.66942424  0.06688488  1
  O2-  O286  1  0.78839578  0.65890944  0.40016717  1
  O2-  O287  1  0.79412240  0.66409140  0.72862642  1
