# generated using pymatgen
data_Ca2Al2SiO7
_symmetry_space_group_name_H-M   'P 1'
_cell_length_a   15.45835238
_cell_length_b   15.45984823
_cell_length_c   15.28440172
_cell_angle_alpha   90.00403122
_cell_angle_beta   90.00107513
_cell_angle_gamma   89.99269186
_symmetry_Int_Tables_number   1
_chemical_formula_structural   Ca2Al2SiO7
_chemical_formula_sum   'Ca48 Al48 Si24 O168'
_cell_volume   3652.72408520
_cell_formula_units_Z   24
loop_
 _symmetry_equiv_pos_site_id
 _symmetry_equiv_pos_as_xyz
  1  'x, y, z'
loop_
 _atom_type_symbol
 _atom_type_oxidation_number
  Ca2+  2.0
  Al0+  0.0
  Si0+  0.0
  O2-  -2.0
loop_
 _atom_site_type_symbol
 _atom_site_label
 _atom_site_symmetry_multiplicity
 _atom_site_fract_x
 _atom_site_fract_y
 _atom_site_fract_z
 _atom_site_occupancy
  Ca2+  Ca0  1  0.16835814  0.07696845  0.17125488  1
  Ca2+  Ca1  1  0.17171710  0.07200348  0.51025438  1
  Ca2+  Ca2  1  0.16890903  0.08428085  0.83254302  1
  Ca2+  Ca3  1  0.17193907  0.58658918  0.17010859  1
  Ca2+  Ca4  1  0.16547948  0.58494523  0.50307987  1
  Ca2+  Ca5  1  0.17438673  0.57419290  0.84516145  1
  Ca2+  Ca6  1  0.67593921  0.09019653  0.17269127  1
  Ca2+  Ca7  1  0.67550295  0.08231092  0.50674653  1
  Ca2+  Ca8  1  0.67428690  0.07804937  0.83793587  1
  Ca2+  Ca9  1  0.65803205  0.58109511  0.17202877  1
  Ca2+  Ca10  1  0.65230330  0.57321833  0.50144197  1
  Ca2+  Ca11  1  0.65755059  0.57753544  0.83664657  1
  Ca2+  Ca12  1  0.08175547  0.32653435  0.15643718  1
  Ca2+  Ca13  1  0.08152477  0.32283849  0.49919365  1
  Ca2+  Ca14  1  0.08978613  0.32132515  0.82950710  1
  Ca2+  Ca15  1  0.08113389  0.83249376  0.16556625  1
  Ca2+  Ca16  1  0.08161106  0.83907686  0.49735862  1
  Ca2+  Ca17  1  0.07223508  0.84229939  0.82768967  1
  Ca2+  Ca18  1  0.59090246  0.32381881  0.16555960  1
  Ca2+  Ca19  1  0.58415270  0.33139769  0.49624026  1
  Ca2+  Ca20  1  0.58035074  0.32790602  0.82741725  1
  Ca2+  Ca21  1  0.57187559  0.82724973  0.15723946  1
  Ca2+  Ca22  1  0.57263707  0.84054104  0.49501661  1
  Ca2+  Ca23  1  0.57434162  0.83225859  0.82604373  1
  Ca2+  Ca24  1  0.33065622  0.42198914  0.16394997  1
  Ca2+  Ca25  1  0.33845897  0.41969342  0.50799615  1
  Ca2+  Ca26  1  0.33223488  0.41998014  0.84166260  1
  Ca2+  Ca27  1  0.33022097  0.90852815  0.17253249  1
  Ca2+  Ca28  1  0.32744758  0.91544686  0.50802210  1
  Ca2+  Ca29  1  0.33147119  0.91363861  0.83296854  1
  Ca2+  Ca30  1  0.82683987  0.42004021  0.17470300  1
  Ca2+  Ca31  1  0.82022963  0.42028898  0.50446348  1
  Ca2+  Ca32  1  0.82747827  0.41722020  0.83431265  1
  Ca2+  Ca33  1  0.83735020  0.92687747  0.16887249  1
  Ca2+  Ca34  1  0.82807004  0.92455007  0.51049132  1
  Ca2+  Ca35  1  0.83453070  0.92092690  0.83561490  1
  Ca2+  Ca36  1  0.43377345  0.16341001  0.16113448  1
  Ca2+  Ca37  1  0.42021703  0.16859970  0.49919830  1
  Ca2+  Ca38  1  0.41928426  0.16999443  0.82486419  1
  Ca2+  Ca39  1  0.42284454  0.67388260  0.16211443  1
  Ca2+  Ca40  1  0.42073456  0.68071659  0.49373028  1
  Ca2+  Ca41  1  0.41513020  0.67386466  0.83415620  1
  Ca2+  Ca42  1  0.91858017  0.16305396  0.15898231  1
  Ca2+  Ca43  1  0.91849762  0.15508596  0.50090825  1
  Ca2+  Ca44  1  0.92633254  0.15424011  0.83040524  1
  Ca2+  Ca45  1  0.92305087  0.67234656  0.16024343  1
  Ca2+  Ca46  1  0.92281698  0.67469967  0.49666555  1
  Ca2+  Ca47  1  0.91515560  0.68115515  0.82896250  1
  Al0+  Al48  1  0.00003847  0.00105554  -0.00167541  1
  Al0+  Al49  1  0.00208065  0.00067706  0.34030688  1
  Al0+  Al50  1  0.00128073  -0.00135162  0.66323106  1
  Al0+  Al51  1  -0.00260415  0.49834213  0.00338431  1
  Al0+  Al52  1  -0.00036734  0.49994493  0.33084484  1
  Al0+  Al53  1  -0.00084565  0.49811810  0.66738716  1
  Al0+  Al54  1  0.50057197  -0.00080035  -0.00801394  1
  Al0+  Al55  1  0.50029885  0.00379741  0.32387142  1
  Al0+  Al56  1  0.50073735  0.00076370  0.66857333  1
  Al0+  Al57  1  0.49825168  0.49977072  0.00397931  1
  Al0+  Al58  1  0.49677785  0.50060488  0.33414359  1
  Al0+  Al59  1  0.49892706  0.49845102  0.66888653  1
  Al0+  Al60  1  0.25003001  0.24819369  0.00319628  1
  Al0+  Al61  1  0.24927721  0.25083592  0.33226872  1
  Al0+  Al62  1  0.25006564  0.24965208  0.65905169  1
  Al0+  Al63  1  0.25002878  0.74855478  0.00138057  1
  Al0+  Al64  1  0.24761113  0.74906172  0.33151489  1
  Al0+  Al65  1  0.25097215  0.74894766  0.66856258  1
  Al0+  Al66  1  0.75150538  0.24964892  -0.00135224  1
  Al0+  Al67  1  0.75105470  0.25280943  0.33952965  1
  Al0+  Al68  1  0.75194040  0.25223462  0.67602343  1
  Al0+  Al69  1  0.74882375  0.74891381  -0.00632859  1
  Al0+  Al70  1  0.75106073  0.75128937  0.33042088  1
  Al0+  Al71  1  0.75111121  0.74791339  0.66251334  1
  Al0+  Al72  1  0.57462107  0.17906008  0.98422191  1
  Al0+  Al73  1  0.32031863  0.57164915  0.01824927  1
  Al0+  Al74  1  0.92904068  0.82056611  0.65072080  1
  Al0+  Al75  1  0.57155635  0.67781778  0.31969761  1
  Al0+  Al76  1  0.18069300  0.92750410  0.68353054  1
  Al0+  Al77  1  0.42934779  0.82193055  0.65182660  1
  Al0+  Al78  1  0.06955560  0.17927182  0.65081774  1
  Al0+  Al79  1  0.06889105  0.67818462  0.31938333  1
  Al0+  Al80  1  0.67806405  0.43120675  0.68264964  1
  Al0+  Al81  1  0.32129550  0.07315026  0.68077882  1
  Al0+  Al82  1  0.18245252  0.92907392  0.34667086  1
  Al0+  Al83  1  0.07119282  0.18009541  0.98746451  1
  Al0+  Al84  1  0.67752288  0.92609778  0.68081587  1
  Al0+  Al85  1  0.42996540  0.32076241  0.65397446  1
  Al0+  Al86  1  0.82160712  0.07016094  0.68393431  1
  Al0+  Al87  1  0.17749414  0.42622678  0.01558615  1
  Al0+  Al88  1  0.42879874  0.82285734  0.31846185  1
  Al0+  Al89  1  0.82038251  0.07078872  0.34757672  1
  Al0+  Al90  1  0.57044381  0.67672868  0.98348081  1
  Al0+  Al91  1  0.57239202  0.18272050  0.32159696  1
  Al0+  Al92  1  0.67881907  0.43269512  0.34682906  1
  Al0+  Al93  1  0.93076919  0.82060810  0.98754319  1
  Al0+  Al94  1  0.82006091  0.06858855  0.01473785  1
  Al0+  Al95  1  0.42646666  0.82102091  0.98199689  1
  Si0+  Si96  1  0.92722476  0.32394690  0.98302316  1
  Si0+  Si97  1  0.32370540  0.07129407  0.01518574  1
  Si0+  Si98  1  0.17786037  0.42844667  0.67932842  1
  Si0+  Si99  1  0.67617452  0.92772531  0.34591115  1
  Si0+  Si100  1  0.67664580  0.92650154  0.01654218  1
  Si0+  Si101  1  0.93003361  0.32040905  0.31924970  1
  Si0+  Si102  1  0.42929003  0.31907633  0.98575274  1
  Si0+  Si103  1  0.82046907  0.57352676  0.01519199  1
  Si0+  Si104  1  0.82459393  0.57448172  0.34926216  1
  Si0+  Si105  1  0.07080062  0.17857782  0.31815433  1
  Si0+  Si106  1  0.31761830  0.56905726  0.35084289  1
  Si0+  Si107  1  0.17898942  0.93065892  0.01458487  1
  Si0+  Si108  1  0.82462507  0.57116269  0.68385516  1
  Si0+  Si109  1  0.92706260  0.32435162  0.64884819  1
  Si0+  Si110  1  0.07137887  0.67558328  0.98373169  1
  Si0+  Si111  1  0.57473953  0.17938589  0.65133944  1
  Si0+  Si112  1  0.57103065  0.67677147  0.65010556  1
  Si0+  Si113  1  0.32021947  0.56989682  0.68133762  1
  Si0+  Si114  1  0.07190555  0.67549887  0.65297000  1
  Si0+  Si115  1  0.67981424  0.42969988  0.01592174  1
  Si0+  Si116  1  0.17621455  0.42706304  0.35029874  1
  Si0+  Si117  1  0.42510769  0.32342943  0.31485662  1
  Si0+  Si118  1  0.32452431  0.07469704  0.34786252  1
  Si0+  Si119  1  0.92908464  0.82505302  0.31699869  1
  O2-  O120  1  0.25492976  -0.00296121  0.05660672  1
  O2-  O121  1  0.25985896  0.00206437  0.39114029  1
  O2-  O122  1  0.25269038  -0.00057524  0.73370344  1
  O2-  O123  1  0.24478921  0.50165956  0.06749711  1
  O2-  O124  1  0.24791460  0.49646079  0.39390411  1
  O2-  O125  1  0.24723820  0.50004161  0.72184055  1
  O2-  O126  1  0.74369068  -0.00374045  0.06282162  1
  O2-  O127  1  0.74584007  -0.00511481  0.39124433  1
  O2-  O128  1  0.74930936  -0.00222088  0.73252213  1
  O2-  O129  1  0.74893798  0.50288421  0.05783017  1
  O2-  O130  1  0.74855370  0.51323641  0.39292715  1
  O2-  O131  1  0.75221669  0.50670093  0.72888039  1
  O2-  O132  1  0.00019771  0.24943941  0.27553238  1
  O2-  O133  1  -0.00852927  0.25166305  0.60447711  1
  O2-  O134  1  -0.00015383  0.25838859  0.94106545  1
  O2-  O135  1  -0.00667651  0.75196000  0.27273655  1
  O2-  O136  1  0.00570100  0.74567781  0.60732526  1
  O2-  O137  1  0.00434289  0.74491454  0.93927448  1
  O2-  O138  1  0.49490054  0.25469088  0.27289374  1
  O2-  O139  1  0.50483277  0.24691152  0.60660033  1
  O2-  O140  1  0.49715467  0.25150512  0.93936587  1
  O2-  O141  1  0.50478360  0.75425857  0.26968482  1
  O2-  O142  1  0.50886715  0.75142755  0.60601756  1
  O2-  O143  1  0.50059888  0.75023148  0.93346983  1
  O2-  O144  1  0.06859386  0.17912632  0.10131394  1
  O2-  O145  1  0.07116724  0.18055456  0.42289182  1
  O2-  O146  1  0.07131396  0.18286701  0.76391930  1
  O2-  O147  1  0.06911423  0.67649517  0.08970817  1
  O2-  O148  1  0.06777522  0.67529326  0.43241651  1
  O2-  O149  1  0.06882375  0.67131871  0.75826644  1
  O2-  O150  1  0.57615562  0.18294594  0.09786464  1
  O2-  O151  1  0.57288785  0.18454432  0.43442472  1
  O2-  O152  1  0.57372818  0.18288447  0.75691420  1
  O2-  O153  1  0.56989040  0.67756782  0.09706249  1
  O2-  O154  1  0.56512532  0.67473592  0.43305998  1
  O2-  O155  1  0.56663625  0.67363709  0.75542800  1
  O2-  O156  1  0.17612808  0.42606382  0.24562787  1
  O2-  O157  1  0.17708069  0.43086663  0.57378599  1
  O2-  O158  1  0.18104437  0.42631185  0.90147376  1
  O2-  O159  1  0.17956888  0.93220334  0.23282795  1
  O2-  O160  1  0.18230982  0.92734702  0.56970712  1
  O2-  O161  1  0.17679794  0.93275291  0.91003365  1
  O2-  O162  1  0.68339048  0.43022470  0.23352237  1
  O2-  O163  1  0.67759138  0.43266987  0.56930960  1
  O2-  O164  1  0.68048359  0.43016302  0.91095425  1
  O2-  O165  1  0.67782576  0.92873039  0.24034371  1
  O2-  O166  1  0.67786056  0.92909286  0.56640925  1
  O2-  O167  1  0.67880623  0.92720657  0.91126824  1
  O2-  O168  1  0.43055490  0.31731440  0.09165524  1
  O2-  O169  1  0.42367113  0.32369014  0.42048175  1
  O2-  O170  1  0.43050514  0.32267593  0.76703489  1
  O2-  O171  1  0.42640110  0.82042413  0.09572537  1
  O2-  O172  1  0.42791911  0.82174313  0.43222523  1
  O2-  O173  1  0.42663241  0.81641266  0.76418326  1
  O2-  O174  1  0.92487404  0.32321862  0.08923378  1
  O2-  O175  1  0.93207460  0.32236959  0.42402537  1
  O2-  O176  1  0.93120433  0.33074060  0.75396870  1
  O2-  O177  1  0.93393674  0.82026182  0.10105126  1
  O2-  O178  1  0.93134517  0.82460152  0.42230157  1
  O2-  O179  1  0.93042891  0.81912566  0.76402991  1
  O2-  O180  1  0.32123388  0.07781472  0.24195644  1
  O2-  O181  1  0.31889074  0.07382409  0.56672052  1
  O2-  O182  1  0.32136086  0.07571373  0.91072012  1
  O2-  O183  1  0.31642635  0.56755911  0.24612774  1
  O2-  O184  1  0.31982452  0.56913111  0.57579600  1
  O2-  O185  1  0.31935044  0.56843258  0.90411735  1
  O2-  O186  1  0.82236068  0.07120823  0.23415066  1
  O2-  O187  1  0.81874679  0.06968972  0.56986313  1
  O2-  O188  1  0.82192120  0.06637911  0.90256069  1
  O2-  O189  1  0.82931935  0.56914431  0.24370877  1
  O2-  O190  1  0.82934238  0.56724303  0.57834929  1
  O2-  O191  1  0.82304068  0.57101160  0.91039487  1
  O2-  O192  1  0.04250996  0.08641839  0.27222526  1
  O2-  O193  1  0.04075435  0.08310776  0.59563864  1
  O2-  O194  1  0.03781215  0.08572728  0.93230930  1
  O2-  O195  1  0.04007285  0.58132869  0.26368162  1
  O2-  O196  1  0.04452852  0.58256204  0.60464255  1
  O2-  O197  1  0.04513999  0.58120824  0.93971482  1
  O2-  O198  1  0.54577165  0.08774060  0.26195608  1
  O2-  O199  1  0.55114755  0.08557505  0.60576132  1
  O2-  O200  1  0.54671398  0.08249890  0.93096575  1
  O2-  O201  1  0.53766471  0.58064534  0.26626466  1
  O2-  O202  1  0.53630611  0.58577224  0.60378401  1
  O2-  O203  1  0.53932927  0.57748151  0.93292439  1
  O2-  O204  1  0.16285338  0.20628840  0.27067195  1
  O2-  O205  1  0.16311732  0.21452557  0.59334482  1
  O2-  O206  1  0.16870334  0.20904818  0.93423486  1
  O2-  O207  1  0.16405462  0.70984878  0.26398425  1
  O2-  O208  1  0.16645750  0.69824123  0.60791594  1
  O2-  O209  1  0.16587976  0.69826264  0.94009876  1
  O2-  O210  1  0.66836264  0.21884837  0.26816370  1
  O2-  O211  1  0.66860888  0.20906438  0.60800787  1
  O2-  O212  1  0.66932315  0.21342935  0.92981367  1
  O2-  O213  1  0.67425895  0.69530874  0.27026220  1
  O2-  O214  1  0.66776489  0.69021740  0.60673198  1
  O2-  O215  1  0.67014227  0.69834535  0.93049200  1
  O2-  O216  1  0.07618431  0.44853589  0.06645998  1
  O2-  O217  1  0.08447245  0.45604398  0.39729216  1
  O2-  O218  1  0.08608739  0.45361328  0.72798519  1
  O2-  O219  1  0.08980389  0.96371564  0.06412672  1
  O2-  O220  1  0.08812774  0.96305741  0.40284967  1
  O2-  O221  1  0.08216652  0.95842618  0.73310364  1
  O2-  O222  1  0.58746202  0.45386325  0.06375410  1
  O2-  O223  1  0.57964173  0.45780842  0.39969606  1
  O2-  O224  1  0.58185565  0.46203320  0.73776315  1
  O2-  O225  1  0.58143624  0.95120178  0.05980933  1
  O2-  O226  1  0.58211359  0.95622590  0.38977200  1
  O2-  O227  1  0.57985010  0.95381170  0.73474394  1
  O2-  O228  1  0.20929064  0.32948717  0.07141116  1
  O2-  O229  1  0.20277848  0.33423973  0.39710759  1
  O2-  O230  1  0.20804197  0.33711790  0.72454232  1
  O2-  O231  1  0.20159985  0.83661155  0.06037989  1
  O2-  O232  1  0.20750656  0.83073381  0.39992158  1
  O2-  O233  1  0.20599911  0.82793799  0.73611518  1
  O2-  O234  1  0.71196909  0.33895528  0.06298023  1
  O2-  O235  1  0.71568726  0.34003880  0.40418427  1
  O2-  O236  1  0.70986139  0.33687919  0.73965281  1
  O2-  O237  1  0.70320138  0.83197717  0.06048419  1
  O2-  O238  1  0.69794385  0.83285437  0.39175635  1
  O2-  O239  1  0.70404663  0.82531155  0.72974296  1
  O2-  O240  1  0.45022672  0.41694191  0.26962207  1
  O2-  O241  1  0.46147809  0.41709728  0.59854467  1
  O2-  O242  1  0.45430438  0.41325135  0.94168242  1
  O2-  O243  1  0.45018686  0.92233460  0.26418895  1
  O2-  O244  1  0.45601866  0.92059974  0.59945789  1
  O2-  O245  1  0.45150024  0.91981727  0.92927583  1
  O2-  O246  1  0.95748013  0.41139876  0.26958440  1
  O2-  O247  1  0.95707834  0.41557977  0.59914952  1
  O2-  O248  1  0.94753947  0.41894127  0.93740586  1
  O2-  O249  1  0.96230854  0.91684555  0.27113489  1
  O2-  O250  1  0.96075920  0.91552643  0.59520843  1
  O2-  O251  1  0.96453646  0.91527196  0.93288607  1
  O2-  O252  1  0.33112644  0.29864898  0.26849361  1
  O2-  O253  1  0.33452756  0.29336439  0.59570292  1
  O2-  O254  1  0.33535119  0.29398727  0.94091562  1
  O2-  O255  1  0.33174464  0.78825731  0.26676642  1
  O2-  O256  1  0.33337002  0.78543122  0.59874189  1
  O2-  O257  1  0.32763841  0.79002100  0.93087459  1
  O2-  O258  1  0.83822641  0.29309510  0.27213906  1
  O2-  O259  1  0.83098553  0.30233495  0.60661404  1
  O2-  O260  1  0.83573345  0.29571087  0.93533733  1
  O2-  O261  1  0.83384918  0.80640112  0.27182228  1
  O2-  O262  1  0.83368153  0.78827780  0.59416148  1
  O2-  O263  1  0.83500689  0.79034402  0.93257628  1
  O2-  O264  1  0.41739380  0.04561378  0.06046180  1
  O2-  O265  1  0.42065631  0.05513568  0.39055479  1
  O2-  O266  1  0.42128380  0.05139835  0.73178629  1
  O2-  O267  1  0.41683264  0.53845857  0.07318750  1
  O2-  O268  1  0.40880566  0.54127891  0.39922391  1
  O2-  O269  1  0.40967780  0.53854453  0.73009625  1
  O2-  O270  1  0.91692795  0.03627545  0.06910422  1
  O2-  O271  1  0.91652698  0.04025428  0.40213972  1
  O2-  O272  1  0.92071056  0.03948441  0.73254669  1
  O2-  O273  1  0.91153923  0.54528036  0.06510234  1
  O2-  O274  1  0.91475881  0.54007320  0.39788369  1
  O2-  O275  1  0.91585241  0.54092967  0.73325513  1
  O2-  O276  1  0.29374543  0.16071946  0.06612341  1
  O2-  O277  1  0.29545648  0.16757978  0.39443345  1
  O2-  O278  1  0.28895700  0.17187103  0.73211899  1
  O2-  O279  1  0.29145897  0.66984592  0.07213495  1
  O2-  O280  1  0.28676174  0.65998438  0.39776779  1
  O2-  O281  1  0.29340730  0.66044724  0.73042678  1
  O2-  O282  1  0.79204849  0.16781368  0.06662536  1
  O2-  O283  1  0.79120304  0.16721432  0.40230551  1
  O2-  O284  1  0.79967834  0.17019297  0.73626786  1
  O2-  O285  1  0.79455850  0.66562692  0.06289197  1
  O2-  O286  1  0.80888685  0.67159174  0.39148931  1
  O2-  O287  1  0.80274319  0.66624700  0.72676476  1
