# generated using pymatgen
data_Ca2Al2SiO7
_symmetry_space_group_name_H-M   'P 1'
_cell_length_a   15.46611596
_cell_length_b   15.46720921
_cell_length_c   15.28965467
_cell_angle_alpha   89.98184981
_cell_angle_beta   89.99736655
_cell_angle_gamma   89.99077249
_symmetry_Int_Tables_number   1
_chemical_formula_structural   Ca2Al2SiO7
_chemical_formula_sum   'Ca48 Al48 Si24 O168'
_cell_volume   3657.55504212
_cell_formula_units_Z   24
loop_
 _symmetry_equiv_pos_site_id
 _symmetry_equiv_pos_as_xyz
  1  'x, y, z'
loop_
 _atom_type_symbol
 _atom_type_oxidation_number
  Ca2+  2.0
  Al0+  0.0
  Si0+  0.0
  O2-  -2.0
loop_
 _atom_site_type_symbol
 _atom_site_label
 _atom_site_symmetry_multiplicity
 _atom_site_fract_x
 _atom_site_fract_y
 _atom_site_fract_z
 _atom_site_occupancy
  Ca2+  Ca0  1  0.17710610  0.09036352  0.16759565  1
  Ca2+  Ca1  1  0.17597746  0.08146660  0.51043971  1
  Ca2+  Ca2  1  0.17416080  0.08684401  0.83595778  1
  Ca2+  Ca3  1  0.17140997  0.59174476  0.16282484  1
  Ca2+  Ca4  1  0.16899070  0.57819900  0.50569238  1
  Ca2+  Ca5  1  0.17154046  0.58476644  0.84500994  1
  Ca2+  Ca6  1  0.66755615  0.07829368  0.16127367  1
  Ca2+  Ca7  1  0.67202564  0.07439507  0.51510867  1
  Ca2+  Ca8  1  0.66946798  0.07974080  0.84592804  1
  Ca2+  Ca9  1  0.66433295  0.58158973  0.16982576  1
  Ca2+  Ca10  1  0.66904557  0.59064105  0.50211410  1
  Ca2+  Ca11  1  0.65692934  0.57612627  0.84149380  1
  Ca2+  Ca12  1  0.07408300  0.32854649  0.15573603  1
  Ca2+  Ca13  1  0.08390352  0.32505034  0.49979581  1
  Ca2+  Ca14  1  0.07667075  0.32083565  0.83528195  1
  Ca2+  Ca15  1  0.07006138  0.83074136  0.15608194  1
  Ca2+  Ca16  1  0.07670132  0.84175073  0.49745622  1
  Ca2+  Ca17  1  0.08143478  0.83777385  0.83348678  1
  Ca2+  Ca18  1  0.58033542  0.32902358  0.15977041  1
  Ca2+  Ca19  1  0.57683828  0.32196902  0.49743895  1
  Ca2+  Ca20  1  0.59106313  0.31856255  0.83431293  1
  Ca2+  Ca21  1  0.58280716  0.82286296  0.15532819  1
  Ca2+  Ca22  1  0.59274103  0.82542149  0.49895366  1
  Ca2+  Ca23  1  0.58746563  0.83060345  0.83297341  1
  Ca2+  Ca24  1  0.33701540  0.42188703  0.16865929  1
  Ca2+  Ca25  1  0.33818422  0.41443921  0.50067312  1
  Ca2+  Ca26  1  0.33417843  0.42576387  0.84219081  1
  Ca2+  Ca27  1  0.34195784  0.92799957  0.16505221  1
  Ca2+  Ca28  1  0.32645538  0.92736830  0.50887275  1
  Ca2+  Ca29  1  0.33250493  0.92422992  0.84100689  1
  Ca2+  Ca30  1  0.82702877  0.41877196  0.16602895  1
  Ca2+  Ca31  1  0.83462940  0.42811724  0.50147911  1
  Ca2+  Ca32  1  0.82786972  0.41668580  0.84458240  1
  Ca2+  Ca33  1  0.83363683  0.91210419  0.16373871  1
  Ca2+  Ca34  1  0.82941349  0.91881064  0.50761074  1
  Ca2+  Ca35  1  0.82300626  0.92542852  0.83849269  1
  Ca2+  Ca36  1  0.41601792  0.16938685  0.15998254  1
  Ca2+  Ca37  1  0.41748589  0.16253462  0.49738700  1
  Ca2+  Ca38  1  0.42713170  0.15541692  0.83259608  1
  Ca2+  Ca39  1  0.42435064  0.67264619  0.15405189  1
  Ca2+  Ca40  1  0.43019267  0.67040682  0.49519497  1
  Ca2+  Ca41  1  0.42281071  0.67279433  0.83479553  1
  Ca2+  Ca42  1  0.92263871  0.16980322  0.15021109  1
  Ca2+  Ca43  1  0.92392699  0.15432276  0.50256118  1
  Ca2+  Ca44  1  0.92081312  0.15776958  0.83095739  1
  Ca2+  Ca45  1  0.91628606  0.67495300  0.15952900  1
  Ca2+  Ca46  1  0.91595247  0.67543283  0.48897469  1
  Ca2+  Ca47  1  0.91721752  0.67521366  0.83609454  1
  Al0+  Al48  1  0.00091268  -0.00025052  -0.00479616  1
  Al0+  Al49  1  0.00045580  -0.00084631  0.32710691  1
  Al0+  Al50  1  -0.00009525  -0.00012327  0.66790837  1
  Al0+  Al51  1  -0.00030782  0.49896557  -0.00683080  1
  Al0+  Al52  1  0.00068286  0.49899921  0.33866802  1
  Al0+  Al53  1  0.00039732  0.50077822  0.66660818  1
  Al0+  Al54  1  0.49961668  -0.00006542  0.00348818  1
  Al0+  Al55  1  0.50203342  -0.00127449  0.33991692  1
  Al0+  Al56  1  0.49885117  -0.00272854  0.66640750  1
  Al0+  Al57  1  0.49842072  0.50013715  0.00688209  1
  Al0+  Al58  1  0.50005933  0.49663494  0.32911284  1
  Al0+  Al59  1  0.50112839  0.50162140  0.66078693  1
  Al0+  Al60  1  0.24775239  0.25238952  0.00072567  1
  Al0+  Al61  1  0.25126428  0.25050762  0.33456213  1
  Al0+  Al62  1  0.24701562  0.25221946  0.66710611  1
  Al0+  Al63  1  0.25092214  0.75076091  -0.00073761  1
  Al0+  Al64  1  0.25032169  0.75004572  0.33660708  1
  Al0+  Al65  1  0.25015640  0.74859282  0.66693523  1
  Al0+  Al66  1  0.74819458  0.25163831  0.00434978  1
  Al0+  Al67  1  0.75084500  0.25010058  0.33664581  1
  Al0+  Al68  1  0.74990282  0.25437957  0.66113301  1
  Al0+  Al69  1  0.75078618  0.74826325  -0.00619982  1
  Al0+  Al70  1  0.75156818  0.74897041  0.32887346  1
  Al0+  Al71  1  0.75251726  0.75023776  0.66669752  1
  Al0+  Al72  1  0.32082535  0.07098354  0.34806800  1
  Al0+  Al73  1  0.82221217  0.07068249  0.01530101  1
  Al0+  Al74  1  0.07248838  0.17806698  0.98483243  1
  Al0+  Al75  1  0.57025560  0.68026056  0.31868574  1
  Al0+  Al76  1  0.07127192  0.68000292  0.98537111  1
  Al0+  Al77  1  0.67871157  0.92701701  0.68123083  1
  Al0+  Al78  1  0.42981072  0.82313219  0.98551058  1
  Al0+  Al79  1  0.57046361  0.68040488  0.65177793  1
  Al0+  Al80  1  0.81906332  0.56991757  0.34566109  1
  Al0+  Al81  1  0.67920039  0.92692133  0.01626857  1
  Al0+  Al82  1  0.32006309  0.57228625  0.01426392  1
  Al0+  Al83  1  0.92612324  0.32017038  0.98598687  1
  Al0+  Al84  1  0.56804497  0.18045890  0.99032464  1
  Al0+  Al85  1  0.93109330  0.82042365  0.31940404  1
  Al0+  Al86  1  0.31986461  0.07195209  0.01452987  1
  Al0+  Al87  1  0.57107304  0.17636177  0.65409918  1
  Al0+  Al88  1  0.32089602  0.07307807  0.68334441  1
  Al0+  Al89  1  0.67786662  0.42881283  0.01401131  1
  Al0+  Al90  1  0.57088351  0.67695804  0.98492019  1
  Al0+  Al91  1  0.17851499  0.92761394  0.68220235  1
  Al0+  Al92  1  0.81901231  0.07383898  0.68019171  1
  Al0+  Al93  1  0.92702009  0.82272748  0.98037206  1
  Al0+  Al94  1  0.06863271  0.17982357  0.65125676  1
  Al0+  Al95  1  0.42915672  0.31727532  0.31912995  1
  Si0+  Si96  1  0.42640372  0.32301321  0.98453302  1
  Si0+  Si97  1  0.67608958  0.42621308  0.35362899  1
  Si0+  Si98  1  0.82274510  0.57140782  0.68213355  1
  Si0+  Si99  1  0.06961783  0.18044291  0.31924056  1
  Si0+  Si100  1  0.17707866  0.42972670  0.01731787  1
  Si0+  Si101  1  0.17798094  0.92716294  0.01789716  1
  Si0+  Si102  1  0.92734454  0.32595717  0.64651671  1
  Si0+  Si103  1  0.92927329  0.32334297  0.32004092  1
  Si0+  Si104  1  0.17601144  0.92839738  0.34827192  1
  Si0+  Si105  1  0.42848465  0.32268841  0.65248830  1
  Si0+  Si106  1  0.17675406  0.43007834  0.68335781  1
  Si0+  Si107  1  0.32289139  0.57160569  0.34990813  1
  Si0+  Si108  1  0.68203450  0.92860469  0.34772134  1
  Si0+  Si109  1  0.07298840  0.67640270  0.64977857  1
  Si0+  Si110  1  0.67859065  0.43230260  0.67949067  1
  Si0+  Si111  1  0.42643801  0.82271866  0.31839849  1
  Si0+  Si112  1  0.82349982  0.07233960  0.34723686  1
  Si0+  Si113  1  0.32196477  0.56872059  0.67978580  1
  Si0+  Si114  1  0.93204630  0.81843273  0.65034075  1
  Si0+  Si115  1  0.17984153  0.42942306  0.34975716  1
  Si0+  Si116  1  0.42456074  0.82135274  0.64785061  1
  Si0+  Si117  1  0.07386120  0.67472846  0.31901856  1
  Si0+  Si118  1  0.82348898  0.57085323  0.01476416  1
  Si0+  Si119  1  0.57438912  0.17526710  0.31749382  1
  O2-  O120  1  0.24432919  -0.00181792  0.06261844  1
  O2-  O121  1  0.24698727  -0.00563030  0.39263883  1
  O2-  O122  1  0.25117213  -0.00162981  0.73219810  1
  O2-  O123  1  0.24408990  0.49919975  0.06275730  1
  O2-  O124  1  0.25033784  0.50161913  0.39249361  1
  O2-  O125  1  0.24957917  0.49989522  0.72310680  1
  O2-  O126  1  0.75380626  -0.00378618  0.06762826  1
  O2-  O127  1  0.74977379  0.00382612  0.38879897  1
  O2-  O128  1  0.73936834  0.00992500  0.72876907  1
  O2-  O129  1  0.75192262  0.50525014  0.05911487  1
  O2-  O130  1  0.74360543  0.49732494  0.39644503  1
  O2-  O131  1  0.75164185  0.50050914  0.72257209  1
  O2-  O132  1  -0.00503898  0.24782112  0.27821612  1
  O2-  O133  1  -0.00839609  0.25240927  0.60260117  1
  O2-  O134  1  -0.00696966  0.24337103  0.93653941  1
  O2-  O135  1  0.00744944  0.74549423  0.27642654  1
  O2-  O136  1  0.00471161  0.74903872  0.60651598  1
  O2-  O137  1  0.00210635  0.75217428  0.93209644  1
  O2-  O138  1  0.50388551  0.24249481  0.27419585  1
  O2-  O139  1  0.49116711  0.24775713  0.60892480  1
  O2-  O140  1  0.49271084  0.25309513  0.94029116  1
  O2-  O141  1  0.49245316  0.75199932  0.27408600  1
  O2-  O142  1  0.49872521  0.75751162  0.60401100  1
  O2-  O143  1  0.50337798  0.75287016  0.93503467  1
  O2-  O144  1  0.07459100  0.18401363  0.09948076  1
  O2-  O145  1  0.06906107  0.18070471  0.42459310  1
  O2-  O146  1  0.06987945  0.18300394  0.76307974  1
  O2-  O147  1  0.06917807  0.68044859  0.09973055  1
  O2-  O148  1  0.07300423  0.67299609  0.42506040  1
  O2-  O149  1  0.07178016  0.67189639  0.75374625  1
  O2-  O150  1  0.56681241  0.18202870  0.10367799  1
  O2-  O151  1  0.57491302  0.17682945  0.42341481  1
  O2-  O152  1  0.57416046  0.18069681  0.76660415  1
  O2-  O153  1  0.56823537  0.67651639  0.09879630  1
  O2-  O154  1  0.57091391  0.68313967  0.43235180  1
  O2-  O155  1  0.56651707  0.67404072  0.76345976  1
  O2-  O156  1  0.17793893  0.42911836  0.24542858  1
  O2-  O157  1  0.17547045  0.43162926  0.57750120  1
  O2-  O158  1  0.17996793  0.42984517  0.91159108  1
  O2-  O159  1  0.17291057  0.92931223  0.24350354  1
  O2-  O160  1  0.17906848  0.92933607  0.56750168  1
  O2-  O161  1  0.18134467  0.92616595  0.91257269  1
  O2-  O162  1  0.67760238  0.42371832  0.24856054  1
  O2-  O163  1  0.67836664  0.43435851  0.57418707  1
  O2-  O164  1  0.67752458  0.42968732  0.90027201  1
  O2-  O165  1  0.68111360  0.92796786  0.24335237  1
  O2-  O166  1  0.68622920  0.92385874  0.56649419  1
  O2-  O167  1  0.67820972  0.93003239  0.90304877  1
  O2-  O168  1  0.42707450  0.32170812  0.09043063  1
  O2-  O169  1  0.42956779  0.31715881  0.43273562  1
  O2-  O170  1  0.43159536  0.33021223  0.75717746  1
  O2-  O171  1  0.43048575  0.82081698  0.09991567  1
  O2-  O172  1  0.42577443  0.82066000  0.42409965  1
  O2-  O173  1  0.41867885  0.81657254  0.75242592  1
  O2-  O174  1  0.93023875  0.32206853  0.10060204  1
  O2-  O175  1  0.93263415  0.32624987  0.42507951  1
  O2-  O176  1  0.92980860  0.33238629  0.75100796  1
  O2-  O177  1  0.92848015  0.81890616  0.09454034  1
  O2-  O178  1  0.93207077  0.82091112  0.43315048  1
  O2-  O179  1  0.93173538  0.81481200  0.75431231  1
  O2-  O180  1  0.31931021  0.07267819  0.23532431  1
  O2-  O181  1  0.31761581  0.07306355  0.56882673  1
  O2-  O182  1  0.31973811  0.07256398  0.90212917  1
  O2-  O183  1  0.32122857  0.57234610  0.24550772  1
  O2-  O184  1  0.32070535  0.56615963  0.57401536  1
  O2-  O185  1  0.32035945  0.56851855  0.90062299  1
  O2-  O186  1  0.82540139  0.07439992  0.24304449  1
  O2-  O187  1  0.82086489  0.06716980  0.56522041  1
  O2-  O188  1  0.81788711  0.07231439  0.90207645  1
  O2-  O189  1  0.82027769  0.56693745  0.23340977  1
  O2-  O190  1  0.82396287  0.57115986  0.57645972  1
  O2-  O191  1  0.82492274  0.56770863  0.90884306  1
  O2-  O192  1  0.04607392  0.08850109  0.27129693  1
  O2-  O193  1  0.03858335  0.08259548  0.59630493  1
  O2-  O194  1  0.05360031  0.07839013  0.93310072  1
  O2-  O195  1  0.04749993  0.58119567  0.27417328  1
  O2-  O196  1  0.04252974  0.58553739  0.60030139  1
  O2-  O197  1  0.04494605  0.58165696  0.93120844  1
  O2-  O198  1  0.55099536  0.07995029  0.27512343  1
  O2-  O199  1  0.54510960  0.07846596  0.59910698  1
  O2-  O200  1  0.53866046  0.08444519  0.93677927  1
  O2-  O201  1  0.54355070  0.58117449  0.26915182  1
  O2-  O202  1  0.53679675  0.58575711  0.59350834  1
  O2-  O203  1  0.53559021  0.57927861  0.93452469  1
  O2-  O204  1  0.16029798  0.21304224  0.27382354  1
  O2-  O205  1  0.16410672  0.21619136  0.59591555  1
  O2-  O206  1  0.16710957  0.21630238  0.93050423  1
  O2-  O207  1  0.16923527  0.69776826  0.27556302  1
  O2-  O208  1  0.16618390  0.69959536  0.60206027  1
  O2-  O209  1  0.17034792  0.70526640  0.93329897  1
  O2-  O210  1  0.66826271  0.20322566  0.27325593  1
  O2-  O211  1  0.66524335  0.21280305  0.59633724  1
  O2-  O212  1  0.66335357  0.21420065  0.93716410  1
  O2-  O213  1  0.66589650  0.71134736  0.26506734  1
  O2-  O214  1  0.66933176  0.70986725  0.59945401  1
  O2-  O215  1  0.67059918  0.69657612  0.93263311  1
  O2-  O216  1  0.08254713  0.45452369  0.06192306  1
  O2-  O217  1  0.08929758  0.45644493  0.40122269  1
  O2-  O218  1  0.08618478  0.46072468  0.73058236  1
  O2-  O219  1  0.08277900  0.95007844  0.06130333  1
  O2-  O220  1  0.08333311  0.95787108  0.39559305  1
  O2-  O221  1  0.08038715  0.95565956  0.73334622  1
  O2-  O222  1  0.58249013  0.45824614  0.07125508  1
  O2-  O223  1  0.58130318  0.45009323  0.39799421  1
  O2-  O224  1  0.58766295  0.46335739  0.72603306  1
  O2-  O225  1  0.58244293  0.95817866  0.07130420  1
  O2-  O226  1  0.58989975  0.95121256  0.39797096  1
  O2-  O227  1  0.57520001  0.93984711  0.72601867  1
  O2-  O228  1  0.20382625  0.33784027  0.06605975  1
  O2-  O229  1  0.21035009  0.33912864  0.39926689  1
  O2-  O230  1  0.20223229  0.33862109  0.73048803  1
  O2-  O231  1  0.20415504  0.83439588  0.06523130  1
  O2-  O232  1  0.19704561  0.83303800  0.39495164  1
  O2-  O233  1  0.20203819  0.82623318  0.73141252  1
  O2-  O234  1  0.70918387  0.33536424  0.07367359  1
  O2-  O235  1  0.70482358  0.33357254  0.40148271  1
  O2-  O236  1  0.70424411  0.33968450  0.72542720  1
  O2-  O237  1  0.70713260  0.82602395  0.06521464  1
  O2-  O238  1  0.71498613  0.83825263  0.39505301  1
  O2-  O239  1  0.71677928  0.83209541  0.73442128  1
  O2-  O240  1  0.45754626  0.41406674  0.26460935  1
  O2-  O241  1  0.46072731  0.41235026  0.60012582  1
  O2-  O242  1  0.45354221  0.41637083  0.94030958  1
  O2-  O243  1  0.45494768  0.91658872  0.27508319  1
  O2-  O244  1  0.44464462  0.91632538  0.60266788  1
  O2-  O245  1  0.45537580  0.92169996  0.93356655  1
  O2-  O246  1  0.96245656  0.41298622  0.27222511  1
  O2-  O247  1  0.96139187  0.41733544  0.59793647  1
  O2-  O248  1  0.95856718  0.41542173  0.92929182  1
  O2-  O249  1  0.96044933  0.91602695  0.26275657  1
  O2-  O250  1  0.95883502  0.91046636  0.60255092  1
  O2-  O251  1  0.95373713  0.92102176  0.92837582  1
  O2-  O252  1  0.33163105  0.28978124  0.26516776  1
  O2-  O253  1  0.33211263  0.30460910  0.60821971  1
  O2-  O254  1  0.33166534  0.30253286  0.93980521  1
  O2-  O255  1  0.33114488  0.80033705  0.27419993  1
  O2-  O256  1  0.33355980  0.78911698  0.59802838  1
  O2-  O257  1  0.33271048  0.79217547  0.93291067  1
  O2-  O258  1  0.83454592  0.30101701  0.27666764  1
  O2-  O259  1  0.83245814  0.30887422  0.59957785  1
  O2-  O260  1  0.82571146  0.29946029  0.93593330  1
  O2-  O261  1  0.83688341  0.78680319  0.26448038  1
  O2-  O262  1  0.84184292  0.78720580  0.60102737  1
  O2-  O263  1  0.83148892  0.79015007  0.92532834  1
  O2-  O264  1  0.41504529  0.04082320  0.07121454  1
  O2-  O265  1  0.41828466  0.04228520  0.40257124  1
  O2-  O266  1  0.42097051  0.04659332  0.73189508  1
  O2-  O267  1  0.41310728  0.53834087  0.07272694  1
  O2-  O268  1  0.41383543  0.53940292  0.39692436  1
  O2-  O269  1  0.41303830  0.53794873  0.72581841  1
  O2-  O270  1  0.92358986  0.04641086  0.06505799  1
  O2-  O271  1  0.91512097  0.04050143  0.39390079  1
  O2-  O272  1  0.91521633  0.03909255  0.73132580  1
  O2-  O273  1  0.91632284  0.54210096  0.06102064  1
  O2-  O274  1  0.91548129  0.53841551  0.40276268  1
  O2-  O275  1  0.91465374  0.54336116  0.72864532  1
  O2-  O276  1  0.28819785  0.16970431  0.06774262  1
  O2-  O277  1  0.28761179  0.16708147  0.40220685  1
  O2-  O278  1  0.29117238  0.17248876  0.73284804  1
  O2-  O279  1  0.28942574  0.66816824  0.07016041  1
  O2-  O280  1  0.29708238  0.66363512  0.39925357  1
  O2-  O281  1  0.29568566  0.66063259  0.72574854  1
  O2-  O282  1  0.79156908  0.16827856  0.06940580  1
  O2-  O283  1  0.80101471  0.16524639  0.39613563  1
  O2-  O284  1  0.80309695  0.17818004  0.72416489  1
  O2-  O285  1  0.80121422  0.66560809  0.05838670  1
  O2-  O286  1  0.78899624  0.66696187  0.40066259  1
  O2-  O287  1  0.79636979  0.66293504  0.72836259  1
