# generated using pymatgen
data_Ca2Al2SiO7
_symmetry_space_group_name_H-M   'P 1'
_cell_length_a   15.46542594
_cell_length_b   15.46397351
_cell_length_c   15.28924868
_cell_angle_alpha   89.99585057
_cell_angle_beta   90.00310334
_cell_angle_gamma   89.99734616
_symmetry_Int_Tables_number   1
_chemical_formula_structural   Ca2Al2SiO7
_chemical_formula_sum   'Ca48 Al48 Si24 O168'
_cell_volume   3656.52986496
_cell_formula_units_Z   24
loop_
 _symmetry_equiv_pos_site_id
 _symmetry_equiv_pos_as_xyz
  1  'x, y, z'
loop_
 _atom_type_symbol
 _atom_type_oxidation_number
  Ca2+  2.0
  Al0+  0.0
  Si0+  0.0
  O2-  -2.0
loop_
 _atom_site_type_symbol
 _atom_site_label
 _atom_site_symmetry_multiplicity
 _atom_site_fract_x
 _atom_site_fract_y
 _atom_site_fract_z
 _atom_site_occupancy
  Ca2+  Ca0  1  0.16925771  0.07970681  0.16948504  1
  Ca2+  Ca1  1  0.18167885  0.08521172  0.50585388  1
  Ca2+  Ca2  1  0.17525689  0.07969706  0.84099266  1
  Ca2+  Ca3  1  0.16778722  0.58402587  0.17221497  1
  Ca2+  Ca4  1  0.16617218  0.57833195  0.50473762  1
  Ca2+  Ca5  1  0.16909043  0.57749788  0.83530305  1
  Ca2+  Ca6  1  0.66104621  0.07614021  0.17399763  1
  Ca2+  Ca7  1  0.66294334  0.08108131  0.49444177  1
  Ca2+  Ca8  1  0.66168944  0.07743311  0.84298216  1
  Ca2+  Ca9  1  0.67485738  0.58398989  0.16781111  1
  Ca2+  Ca10  1  0.67529007  0.58278703  0.50977745  1
  Ca2+  Ca11  1  0.66589266  0.57830751  0.84087790  1
  Ca2+  Ca12  1  0.07250120  0.32383891  0.15649173  1
  Ca2+  Ca13  1  0.08365616  0.33574960  0.49637283  1
  Ca2+  Ca14  1  0.07904466  0.33391070  0.83279636  1
  Ca2+  Ca15  1  0.07746295  0.83315827  0.16364248  1
  Ca2+  Ca16  1  0.07353247  0.82384058  0.48887620  1
  Ca2+  Ca17  1  0.08293354  0.83549714  0.83156317  1
  Ca2+  Ca18  1  0.58683474  0.32173798  0.16066077  1
  Ca2+  Ca19  1  0.57352488  0.33260834  0.49398835  1
  Ca2+  Ca20  1  0.58667282  0.33094467  0.82759819  1
  Ca2+  Ca21  1  0.58350567  0.83392043  0.15728107  1
  Ca2+  Ca22  1  0.58450969  0.83159217  0.50078800  1
  Ca2+  Ca23  1  0.58170818  0.82540071  0.83145167  1
  Ca2+  Ca24  1  0.33346010  0.41424489  0.17115704  1
  Ca2+  Ca25  1  0.32922505  0.40868182  0.50879601  1
  Ca2+  Ca26  1  0.33002424  0.40942379  0.83249543  1
  Ca2+  Ca27  1  0.33067830  0.91905449  0.17012077  1
  Ca2+  Ca28  1  0.34200444  0.92908320  0.50503900  1
  Ca2+  Ca29  1  0.33627135  0.91663648  0.83969211  1
  Ca2+  Ca30  1  0.83020610  0.42129547  0.16575320  1
  Ca2+  Ca31  1  0.82555413  0.42784529  0.50822083  1
  Ca2+  Ca32  1  0.82268138  0.42663283  0.84080278  1
  Ca2+  Ca33  1  0.82050173  0.91970014  0.17621545  1
  Ca2+  Ca34  1  0.83085100  0.91668165  0.49496944  1
  Ca2+  Ca35  1  0.82429782  0.91837505  0.84136048  1
  Ca2+  Ca36  1  0.42434971  0.16630830  0.16841345  1
  Ca2+  Ca37  1  0.41591118  0.17390957  0.49277812  1
  Ca2+  Ca38  1  0.42270669  0.16820716  0.82900715  1
  Ca2+  Ca39  1  0.42690828  0.67543993  0.15447579  1
  Ca2+  Ca40  1  0.42398778  0.66954486  0.49950934  1
  Ca2+  Ca41  1  0.42804758  0.67754615  0.82798674  1
  Ca2+  Ca42  1  0.91685672  0.16791858  0.15540377  1
  Ca2+  Ca43  1  0.91726291  0.16710236  0.49151523  1
  Ca2+  Ca44  1  0.92015459  0.17250780  0.83475859  1
  Ca2+  Ca45  1  0.91410220  0.66507204  0.16798703  1
  Ca2+  Ca46  1  0.91742510  0.66481322  0.48985770  1
  Ca2+  Ca47  1  0.91058273  0.66168580  0.83131107  1
  Al0+  Al48  1  0.00288564  -0.00130634  -0.00186834  1
  Al0+  Al49  1  -0.00106982  -0.00232837  0.33329925  1
  Al0+  Al50  1  0.00164280  0.00039838  0.66495032  1
  Al0+  Al51  1  0.00034846  0.50024325  -0.00022508  1
  Al0+  Al52  1  0.00089450  0.49844512  0.33225329  1
  Al0+  Al53  1  0.00051939  0.49904105  0.67369922  1
  Al0+  Al54  1  0.49831724  0.00302000  -0.00230043  1
  Al0+  Al55  1  0.49846346  0.00035577  0.33921058  1
  Al0+  Al56  1  0.50165645  0.00064016  0.66834267  1
  Al0+  Al57  1  0.49931327  0.49962195  0.00171833  1
  Al0+  Al58  1  0.49731185  0.50153391  0.32915139  1
  Al0+  Al59  1  0.49954489  0.49999103  0.66163948  1
  Al0+  Al60  1  0.24966235  0.24869274  -0.00124904  1
  Al0+  Al61  1  0.24851776  0.25014022  0.33209783  1
  Al0+  Al62  1  0.25105917  0.24751689  0.67376598  1
  Al0+  Al63  1  0.24855782  0.75092179  0.00065433  1
  Al0+  Al64  1  0.24965991  0.74762012  0.33169490  1
  Al0+  Al65  1  0.24823001  0.75105398  0.66089667  1
  Al0+  Al66  1  0.75056612  0.25248524  -0.00753860  1
  Al0+  Al67  1  0.74841537  0.24941246  0.33434280  1
  Al0+  Al68  1  0.75337433  0.25055105  0.66743359  1
  Al0+  Al69  1  0.75126270  0.75048557  0.00401911  1
  Al0+  Al70  1  0.75057744  0.75016012  0.33807955  1
  Al0+  Al71  1  0.75202963  0.75322356  0.66570585  1
  Al0+  Al72  1  0.67798341  0.93139336  0.01190936  1
  Al0+  Al73  1  0.67599281  0.42711582  0.01657334  1
  Al0+  Al74  1  0.57363254  0.67907579  0.98660422  1
  Al0+  Al75  1  0.57010155  0.17951191  0.31889686  1
  Al0+  Al76  1  0.82237696  0.07313367  0.34659943  1
  Al0+  Al77  1  0.42597928  0.32237381  0.31724610  1
  Al0+  Al78  1  0.82019560  0.56740863  0.34750409  1
  Al0+  Al79  1  0.17901645  0.92778624  0.01447751  1
  Al0+  Al80  1  0.18064417  0.42891236  0.68134770  1
  Al0+  Al81  1  0.57064781  0.18065599  0.98624624  1
  Al0+  Al82  1  0.42734396  0.82205451  0.98682450  1
  Al0+  Al83  1  0.07090603  0.67682567  0.31703409  1
  Al0+  Al84  1  0.82021435  0.57311482  0.68180669  1
  Al0+  Al85  1  0.67725548  0.92832991  0.35040260  1
  Al0+  Al86  1  0.57270575  0.67951524  0.65085295  1
  Al0+  Al87  1  0.42810871  0.82270351  0.64993621  1
  Al0+  Al88  1  0.92777553  0.82077078  0.31605160  1
  Al0+  Al89  1  0.82182608  0.57137723  0.01782377  1
  Al0+  Al90  1  0.07186723  0.17665799  0.98360628  1
  Al0+  Al91  1  0.42939659  0.31851746  0.65500716  1
  Al0+  Al92  1  0.92890909  0.32314174  0.98259744  1
  Al0+  Al93  1  0.31741168  0.06990565  0.34681418  1
  Al0+  Al94  1  0.67633466  0.42888577  0.68033242  1
  Al0+  Al95  1  0.32246323  0.06905704  0.68262191  1
  Si0+  Si96  1  0.82234216  0.07159318  0.01189705  1
  Si0+  Si97  1  0.32173637  0.57512704  0.68239931  1
  Si0+  Si98  1  0.07076177  0.17925758  0.65061161  1
  Si0+  Si99  1  0.32143631  0.07313814  0.01908531  1
  Si0+  Si100  1  0.07058075  0.17835956  0.32070208  1
  Si0+  Si101  1  0.18130205  0.43026132  0.34652595  1
  Si0+  Si102  1  0.68163351  0.93189868  0.68299081  1
  Si0+  Si103  1  0.17981462  0.42817113  0.01641535  1
  Si0+  Si104  1  0.82595402  0.07179577  0.68256272  1
  Si0+  Si105  1  0.57162507  0.67934250  0.31840880  1
  Si0+  Si106  1  0.92869674  0.32010116  0.32070233  1
  Si0+  Si107  1  0.67491472  0.42730389  0.34938635  1
  Si0+  Si108  1  0.92997094  0.82038478  0.98458718  1
  Si0+  Si109  1  0.93134630  0.32142793  0.64972319  1
  Si0+  Si110  1  0.32234507  0.57308629  0.34857504  1
  Si0+  Si111  1  0.17720136  0.92823391  0.68162279  1
  Si0+  Si112  1  0.17738624  0.92477356  0.35109643  1
  Si0+  Si113  1  0.07188383  0.67877024  0.98348448  1
  Si0+  Si114  1  0.06953523  0.67689824  0.65282587  1
  Si0+  Si115  1  0.42686984  0.32307229  0.98331296  1
  Si0+  Si116  1  0.93027109  0.82324973  0.65171775  1
  Si0+  Si117  1  0.57610660  0.17751138  0.64946277  1
  Si0+  Si118  1  0.42924271  0.82109227  0.31935443  1
  Si0+  Si119  1  0.31952270  0.57115142  0.01422802  1
  O2-  O120  1  0.25309371  0.00270799  0.06128122  1
  O2-  O121  1  0.24431992  -0.00567036  0.39597599  1
  O2-  O122  1  0.25092039  -0.00989432  0.72695473  1
  O2-  O123  1  0.25139271  0.49785245  0.05894599  1
  O2-  O124  1  0.25321628  0.49956547  0.38995781  1
  O2-  O125  1  0.25635933  0.50318205  0.72761640  1
  O2-  O126  1  0.75078451  0.00808255  0.05794641  1
  O2-  O127  1  0.75053189  0.00153526  0.39812870  1
  O2-  O128  1  0.75080263  0.00546808  0.72437086  1
  O2-  O129  1  0.74781059  0.50008219  0.06595539  1
  O2-  O130  1  0.74304914  0.49600693  0.39443188  1
  O2-  O131  1  0.74387858  0.50533887  0.73013807  1
  O2-  O132  1  -0.00809504  0.24117412  0.27951802  1
  O2-  O133  1  0.00102435  0.24989667  0.60554725  1
  O2-  O134  1  0.00106911  0.24975477  0.93345633  1
  O2-  O135  1  0.00052796  0.74929678  0.26583188  1
  O2-  O136  1  -0.00201814  0.74768004  0.61188266  1
  O2-  O137  1  -0.00069494  0.74787809  0.94121255  1
  O2-  O138  1  0.50134687  0.25430002  0.26808365  1
  O2-  O139  1  0.50797697  0.24818924  0.60776644  1
  O2-  O140  1  0.49920818  0.25856799  0.93977729  1
  O2-  O141  1  0.50116644  0.75151351  0.27712288  1
  O2-  O142  1  0.49907130  0.74988399  0.59935342  1
  O2-  O143  1  0.50190147  0.75231830  0.93805186  1
  O2-  O144  1  0.07076995  0.17840962  0.09795918  1
  O2-  O145  1  0.07360958  0.18327082  0.42614988  1
  O2-  O146  1  0.06777442  0.17769890  0.75512449  1
  O2-  O147  1  0.07414551  0.67866710  0.08815993  1
  O2-  O148  1  0.07028896  0.67542153  0.43123390  1
  O2-  O149  1  0.07177668  0.67782586  0.75800186  1
  O2-  O150  1  0.56809569  0.17762534  0.09892611  1
  O2-  O151  1  0.56807314  0.18106525  0.43271252  1
  O2-  O152  1  0.57554249  0.17643935  0.75516270  1
  O2-  O153  1  0.57085351  0.68096093  0.10085908  1
  O2-  O154  1  0.56896618  0.67745250  0.42339015  1
  O2-  O155  1  0.57295312  0.68273389  0.76412877  1
  O2-  O156  1  0.18134419  0.43045665  0.24148450  1
  O2-  O157  1  0.17858981  0.42999070  0.56773232  1
  O2-  O158  1  0.18071529  0.42929785  0.91126813  1
  O2-  O159  1  0.17936942  0.92505909  0.24548083  1
  O2-  O160  1  0.17236880  0.93257724  0.57640835  1
  O2-  O161  1  0.17941803  0.92777595  0.90115494  1
  O2-  O162  1  0.67679036  0.42744593  0.24409985  1
  O2-  O163  1  0.68085255  0.42690067  0.56633528  1
  O2-  O164  1  0.67612861  0.42823891  0.90312753  1
  O2-  O165  1  0.67588131  0.92928912  0.23676349  1
  O2-  O166  1  0.68276375  0.93114001  0.57814264  1
  O2-  O167  1  0.68164838  0.93139419  0.89829599  1
  O2-  O168  1  0.42304386  0.32055402  0.08866258  1
  O2-  O169  1  0.42302633  0.32001499  0.43087904  1
  O2-  O170  1  0.42672837  0.31447933  0.76786038  1
  O2-  O171  1  0.42588688  0.81917108  0.10103979  1
  O2-  O172  1  0.42814283  0.81884378  0.42431524  1
  O2-  O173  1  0.42838601  0.82125453  0.76313059  1
  O2-  O174  1  0.93187131  0.32131405  0.09707612  1
  O2-  O175  1  0.93385574  0.32233087  0.42612496  1
  O2-  O176  1  0.93332054  0.31970759  0.75415112  1
  O2-  O177  1  0.93183462  0.82218329  0.08904502  1
  O2-  O178  1  0.93083985  0.81901877  0.43042307  1
  O2-  O179  1  0.93224043  0.82726261  0.75691024  1
  O2-  O180  1  0.31484298  0.06897953  0.23399401  1
  O2-  O181  1  0.31880853  0.07109626  0.56927221  1
  O2-  O182  1  0.32027227  0.07413396  0.91343426  1
  O2-  O183  1  0.32073810  0.57478892  0.24346105  1
  O2-  O184  1  0.31682613  0.57590904  0.57654910  1
  O2-  O185  1  0.31557414  0.57135297  0.90929691  1
  O2-  O186  1  0.82412878  0.07332231  0.23323334  1
  O2-  O187  1  0.83062712  0.06978710  0.57790942  1
  O2-  O188  1  0.82306530  0.06640147  0.90570369  1
  O2-  O189  1  0.82106152  0.56485628  0.23506082  1
  O2-  O190  1  0.82323373  0.56962868  0.56794232  1
  O2-  O191  1  0.82227704  0.57080098  0.90443790  1
  O2-  O192  1  0.05239867  0.08343285  0.27654182  1
  O2-  O193  1  0.04292906  0.08777001  0.60193302  1
  O2-  O194  1  0.04442313  0.07866274  0.92920979  1
  O2-  O195  1  0.04304306  0.57814324  0.26384951  1
  O2-  O196  1  0.04199374  0.58447957  0.60626467  1
  O2-  O197  1  0.04667001  0.58635241  0.93622752  1
  O2-  O198  1  0.53678430  0.08089635  0.26877775  1
  O2-  O199  1  0.54882740  0.08428035  0.60466401  1
  O2-  O200  1  0.53629141  0.08642090  0.92941966  1
  O2-  O201  1  0.54275080  0.58865574  0.26957069  1
  O2-  O202  1  0.54628751  0.58114547  0.59646960  1
  O2-  O203  1  0.54185293  0.58075506  0.93565510  1
  O2-  O204  1  0.15766151  0.21402618  0.27003903  1
  O2-  O205  1  0.16301690  0.20851387  0.60575756  1
  O2-  O206  1  0.17002440  0.20676110  0.93129709  1
  O2-  O207  1  0.17053621  0.70354911  0.26479369  1
  O2-  O208  1  0.16035090  0.70306807  0.60241431  1
  O2-  O209  1  0.16204859  0.70869001  0.93430352  1
  O2-  O210  1  0.67039980  0.20311713  0.26687288  1
  O2-  O211  1  0.67147216  0.19956790  0.60486737  1
  O2-  O212  1  0.66772065  0.20490235  0.93013071  1
  O2-  O213  1  0.66388860  0.70659670  0.27359324  1
  O2-  O214  1  0.67069408  0.71276728  0.59813637  1
  O2-  O215  1  0.67212172  0.70787253  0.93474118  1
  O2-  O216  1  0.08877141  0.45744406  0.06346780  1
  O2-  O217  1  0.09035437  0.45865038  0.39557403  1
  O2-  O218  1  0.08638636  0.46160764  0.73812221  1
  O2-  O219  1  0.08265263  0.95934235  0.06905227  1
  O2-  O220  1  0.08285646  0.94791426  0.39551147  1
  O2-  O221  1  0.08586443  0.95934094  0.73038313  1
  O2-  O222  1  0.57611444  0.45126910  0.06927800  1
  O2-  O223  1  0.57982023  0.45359712  0.39238960  1
  O2-  O224  1  0.57518988  0.45056183  0.73020103  1
  O2-  O225  1  0.58055218  0.96087336  0.06448554  1
  O2-  O226  1  0.58035505  0.95784779  0.40595022  1
  O2-  O227  1  0.58976254  0.95767596  0.73044537  1
  O2-  O228  1  0.20620307  0.33551886  0.06313015  1
  O2-  O229  1  0.20693810  0.33849554  0.39541037  1
  O2-  O230  1  0.21029380  0.33335921  0.73719700  1
  O2-  O231  1  0.20755585  0.83120151  0.06989305  1
  O2-  O232  1  0.20341945  0.83067656  0.39628028  1
  O2-  O233  1  0.19526209  0.83134799  0.72406411  1
  O2-  O234  1  0.70901906  0.32822992  0.06689467  1
  O2-  O235  1  0.69938857  0.33387842  0.39561702  1
  O2-  O236  1  0.70993359  0.33085268  0.73226092  1
  O2-  O237  1  0.71062446  0.83649168  0.06673092  1
  O2-  O238  1  0.70806239  0.83155389  0.40547092  1
  O2-  O239  1  0.71328159  0.84157955  0.73056858  1
  O2-  O240  1  0.44688754  0.42347168  0.26623120  1
  O2-  O241  1  0.44995867  0.41732877  0.60012876  1
  O2-  O242  1  0.44498776  0.41886027  0.93949666  1
  O2-  O243  1  0.45472171  0.91373544  0.27397306  1
  O2-  O244  1  0.46089522  0.92093411  0.59875198  1
  O2-  O245  1  0.45149175  0.92122865  0.93536615  1
  O2-  O246  1  0.96573637  0.40699413  0.27072910  1
  O2-  O247  1  0.96257607  0.41317937  0.60386114  1
  O2-  O248  1  0.96319536  0.41987971  0.92966219  1
  O2-  O249  1  0.95543029  0.91987456  0.26370015  1
  O2-  O250  1  0.96272820  0.91274588  0.60181954  1
  O2-  O251  1  0.96001748  0.91054911  0.93468906  1
  O2-  O252  1  0.32836581  0.29068959  0.26354631  1
  O2-  O253  1  0.33217046  0.28401192  0.60222774  1
  O2-  O254  1  0.33433253  0.29369238  0.93658205  1
  O2-  O255  1  0.33749391  0.79210939  0.27244498  1
  O2-  O256  1  0.32813096  0.79802075  0.59686763  1
  O2-  O257  1  0.32982759  0.79021263  0.93339104  1
  O2-  O258  1  0.83445932  0.30101999  0.27576729  1
  O2-  O259  1  0.83960646  0.29401875  0.60197594  1
  O2-  O260  1  0.83239177  0.29635618  0.92638289  1
  O2-  O261  1  0.82847160  0.79208552  0.26621046  1
  O2-  O262  1  0.83815072  0.80045166  0.60386906  1
  O2-  O263  1  0.83818042  0.79376342  0.93697973  1
  O2-  O264  1  0.41449843  0.04751619  0.06478011  1
  O2-  O265  1  0.41265815  0.04037303  0.40305253  1
  O2-  O266  1  0.42044162  0.04260817  0.73579279  1
  O2-  O267  1  0.41124472  0.54667975  0.06305525  1
  O2-  O268  1  0.41489633  0.54854405  0.39595259  1
  O2-  O269  1  0.41681792  0.55331074  0.72490106  1
  O2-  O270  1  0.91546421  0.04382634  0.05716626  1
  O2-  O271  1  0.92135653  0.04473862  0.40118333  1
  O2-  O272  1  0.91600264  0.03947116  0.73119814  1
  O2-  O273  1  0.92158421  0.54188027  0.06875557  1
  O2-  O274  1  0.91748675  0.53430901  0.40022057  1
  O2-  O275  1  0.91712079  0.54125311  0.73553857  1
  O2-  O276  1  0.29310189  0.16605243  0.06540748  1
  O2-  O277  1  0.28303036  0.16627454  0.40053372  1
  O2-  O278  1  0.28637954  0.16178872  0.73955758  1
  O2-  O279  1  0.28780151  0.66097577  0.06319841  1
  O2-  O280  1  0.29214930  0.66311720  0.39842224  1
  O2-  O281  1  0.29050107  0.66736689  0.72853474  1
  O2-  O282  1  0.80351980  0.16821708  0.05209571  1
  O2-  O283  1  0.79585410  0.17166381  0.40234296  1
  O2-  O284  1  0.80361633  0.16550337  0.72799796  1
  O2-  O285  1  0.79576739  0.67019563  0.07075817  1
  O2-  O286  1  0.79324578  0.66498123  0.40064548  1
  O2-  O287  1  0.80019668  0.67509362  0.73084123  1
