# generated using pymatgen
data_Ca2Al2SiO7
_symmetry_space_group_name_H-M   'P 1'
_cell_length_a   15.45433245
_cell_length_b   15.45425038
_cell_length_c   15.28070102
_cell_angle_alpha   89.99542717
_cell_angle_beta   89.99439188
_cell_angle_gamma   89.99962563
_symmetry_Int_Tables_number   1
_chemical_formula_structural   Ca2Al2SiO7
_chemical_formula_sum   'Ca48 Al48 Si24 O168'
_cell_volume   3649.56808228
_cell_formula_units_Z   24
loop_
 _symmetry_equiv_pos_site_id
 _symmetry_equiv_pos_as_xyz
  1  'x, y, z'
loop_
 _atom_type_symbol
 _atom_type_oxidation_number
  Ca2+  2.0
  Al0+  0.0
  Si0+  0.0
  O2-  -2.0
loop_
 _atom_site_type_symbol
 _atom_site_label
 _atom_site_symmetry_multiplicity
 _atom_site_fract_x
 _atom_site_fract_y
 _atom_site_fract_z
 _atom_site_occupancy
  Ca2+  Ca0  1  0.17419383  0.07582739  0.16971364  1
  Ca2+  Ca1  1  0.16823336  0.07977929  0.50439511  1
  Ca2+  Ca2  1  0.15756372  0.07271299  0.83573587  1
  Ca2+  Ca3  1  0.16570483  0.58064247  0.17152916  1
  Ca2+  Ca4  1  0.18161307  0.58893734  0.50339733  1
  Ca2+  Ca5  1  0.17218548  0.58279359  0.84248471  1
  Ca2+  Ca6  1  0.67441695  0.07731903  0.17801690  1
  Ca2+  Ca7  1  0.67322835  0.07762118  0.49892656  1
  Ca2+  Ca8  1  0.68209220  0.08153161  0.84057682  1
  Ca2+  Ca9  1  0.66394529  0.58196868  0.17149785  1
  Ca2+  Ca10  1  0.67018855  0.59362958  0.49877387  1
  Ca2+  Ca11  1  0.66283913  0.58248066  0.83938542  1
  Ca2+  Ca12  1  0.07821749  0.33552374  0.16335653  1
  Ca2+  Ca13  1  0.07802877  0.32438323  0.49384334  1
  Ca2+  Ca14  1  0.08592391  0.32634910  0.82908565  1
  Ca2+  Ca15  1  0.07409533  0.83023545  0.15830188  1
  Ca2+  Ca16  1  0.07378470  0.84113847  0.49867344  1
  Ca2+  Ca17  1  0.07720707  0.84104195  0.83208743  1
  Ca2+  Ca18  1  0.58046227  0.32927026  0.16113371  1
  Ca2+  Ca19  1  0.58408554  0.32294694  0.49278761  1
  Ca2+  Ca20  1  0.57831807  0.33923037  0.83514119  1
  Ca2+  Ca21  1  0.58340923  0.82662760  0.16735384  1
  Ca2+  Ca22  1  0.57990181  0.82593949  0.48709959  1
  Ca2+  Ca23  1  0.58497161  0.81939009  0.82847142  1
  Ca2+  Ca24  1  0.32982539  0.41883950  0.16858012  1
  Ca2+  Ca25  1  0.33890507  0.43020875  0.50256711  1
  Ca2+  Ca26  1  0.32954770  0.42053250  0.84109461  1
  Ca2+  Ca27  1  0.32886886  0.91300642  0.17509953  1
  Ca2+  Ca28  1  0.33120964  0.91773493  0.50179268  1
  Ca2+  Ca29  1  0.31852747  0.91433337  0.83785176  1
  Ca2+  Ca30  1  0.82946176  0.42396009  0.17487022  1
  Ca2+  Ca31  1  0.83636304  0.42185053  0.49669559  1
  Ca2+  Ca32  1  0.82406848  0.42018695  0.84260047  1
  Ca2+  Ca33  1  0.83374602  0.92255805  0.17459335  1
  Ca2+  Ca34  1  0.83344958  0.91903844  0.50140541  1
  Ca2+  Ca35  1  0.84640443  0.92524095  0.83596779  1
  Ca2+  Ca36  1  0.42372710  0.16406153  0.16440333  1
  Ca2+  Ca37  1  0.42205221  0.16401257  0.48718108  1
  Ca2+  Ca38  1  0.41213144  0.17709542  0.83237985  1
  Ca2+  Ca39  1  0.42400002  0.66519197  0.16746808  1
  Ca2+  Ca40  1  0.42331805  0.66750032  0.49186971  1
  Ca2+  Ca41  1  0.42646583  0.65953375  0.82925291  1
  Ca2+  Ca42  1  0.90706871  0.16987189  0.16585592  1
  Ca2+  Ca43  1  0.91582322  0.16578426  0.49564340  1
  Ca2+  Ca44  1  0.91912253  0.16239372  0.82681311  1
  Ca2+  Ca45  1  0.91377117  0.67886070  0.16152593  1
  Ca2+  Ca46  1  0.91459356  0.67886289  0.49034420  1
  Ca2+  Ca47  1  0.92331100  0.67965479  0.83066537  1
  Al0+  Al48  1  0.00165645  0.00201914  0.00866548  1
  Al0+  Al49  1  0.00117514  0.00113471  0.33137109  1
  Al0+  Al50  1  0.00067127  0.00193888  0.66389244  1
  Al0+  Al51  1  0.00033194  0.50051771  -0.00145691  1
  Al0+  Al52  1  -0.00172736  0.49700935  0.33571888  1
  Al0+  Al53  1  -0.00039911  0.50060489  0.66718482  1
  Al0+  Al54  1  0.50215120  0.00017357  -0.00501420  1
  Al0+  Al55  1  0.49939117  -0.00108626  0.33206677  1
  Al0+  Al56  1  0.50054834  0.00022469  0.67092410  1
  Al0+  Al57  1  0.49986317  0.49841440  -0.00292857  1
  Al0+  Al58  1  0.49852854  0.49779266  0.33455055  1
  Al0+  Al59  1  0.50053372  0.50010740  0.66512978  1
  Al0+  Al60  1  0.25036416  0.25171438  -0.00009847  1
  Al0+  Al61  1  0.24856241  0.24822440  0.33724313  1
  Al0+  Al62  1  0.24992049  0.25158437  0.65959479  1
  Al0+  Al63  1  0.25067071  0.74970908  0.00277496  1
  Al0+  Al64  1  0.24962948  0.74783058  0.33566884  1
  Al0+  Al65  1  0.25111090  0.75014506  0.67779889  1
  Al0+  Al66  1  0.74929252  0.25108659  0.00622654  1
  Al0+  Al67  1  0.75015443  0.24971089  0.32896522  1
  Al0+  Al68  1  0.74901758  0.25074747  0.67143330  1
  Al0+  Al69  1  0.75012742  0.75270498  -0.01127006  1
  Al0+  Al70  1  0.75014597  0.74885958  0.33192008  1
  Al0+  Al71  1  0.75042254  0.74976973  0.66050928  1
  Al0+  Al72  1  0.18018112  0.93232194  0.67986409  1
  Al0+  Al73  1  0.82101273  0.06963967  0.01569512  1
  Al0+  Al74  1  0.93242894  0.82052880  0.65082399  1
  Al0+  Al75  1  0.82183778  0.07215995  0.34965315  1
  Al0+  Al76  1  0.67919912  0.92726014  0.34727935  1
  Al0+  Al77  1  0.56893608  0.68018669  0.98576088  1
  Al0+  Al78  1  0.32157732  0.56953443  0.68280526  1
  Al0+  Al79  1  0.42953731  0.31866818  0.98694887  1
  Al0+  Al80  1  0.32113923  0.06993547  0.34537506  1
  Al0+  Al81  1  0.57111739  0.67721976  0.31749838  1
  Al0+  Al82  1  0.32026988  0.56929304  0.34641157  1
  Al0+  Al83  1  0.06961020  0.18042036  0.65292061  1
  Al0+  Al84  1  0.07271840  0.67727606  0.98569701  1
  Al0+  Al85  1  0.81877522  0.06979436  0.68012919  1
  Al0+  Al86  1  0.92977792  0.32004615  0.31884744  1
  Al0+  Al87  1  0.57053934  0.17797427  0.32006604  1
  Al0+  Al88  1  0.17791562  0.42846321  0.01337575  1
  Al0+  Al89  1  0.92995462  0.82173040  0.31936205  1
  Al0+  Al90  1  0.56908690  0.67898306  0.65022018  1
  Al0+  Al91  1  0.93091522  0.82409066  0.98410970  1
  Al0+  Al92  1  0.82035836  0.57081911  0.34567007  1
  Al0+  Al93  1  0.67788982  0.43146805  0.01460013  1
  Al0+  Al94  1  0.18069818  0.92853813  0.01623841  1
  Al0+  Al95  1  0.42667400  0.82083293  0.31949837  1
  Si0+  Si96  1  0.67728637  0.42756493  0.35006513  1
  Si0+  Si97  1  0.07046386  0.18195293  0.98691517  1
  Si0+  Si98  1  0.82204999  0.57337966  0.68211003  1
  Si0+  Si99  1  0.42639935  0.82478848  0.98178943  1
  Si0+  Si100  1  0.07395160  0.17804899  0.31356750  1
  Si0+  Si101  1  0.82132073  0.57383494  0.01341497  1
  Si0+  Si102  1  0.17756987  0.42724780  0.68224504  1
  Si0+  Si103  1  0.42632654  0.32118330  0.31756572  1
  Si0+  Si104  1  0.68060925  0.42947502  0.68146207  1
  Si0+  Si105  1  0.17617592  0.42646321  0.35238144  1
  Si0+  Si106  1  0.32259765  0.57072390  0.01749493  1
  Si0+  Si107  1  0.92678883  0.32173844  0.98504896  1
  Si0+  Si108  1  0.67704622  0.92570340  0.68435010  1
  Si0+  Si109  1  0.42625154  0.82307892  0.65254111  1
  Si0+  Si110  1  0.32478280  0.07556316  0.68379679  1
  Si0+  Si111  1  0.17827667  0.92697761  0.35024854  1
  Si0+  Si112  1  0.07205000  0.67661340  0.31981752  1
  Si0+  Si113  1  0.43006598  0.32025700  0.65006847  1
  Si0+  Si114  1  0.32331251  0.07263553  0.01401378  1
  Si0+  Si115  1  0.07450595  0.67584516  0.65059154  1
  Si0+  Si116  1  0.57455797  0.17766609  0.98137669  1
  Si0+  Si117  1  0.67624229  0.92624469  0.01491783  1
  Si0+  Si118  1  0.57211084  0.17882632  0.65398744  1
  Si0+  Si119  1  0.92467151  0.32389142  0.65158016  1
  O2-  O120  1  0.26186128  -0.00169028  0.05932691  1
  O2-  O121  1  0.24811665  -0.00509000  0.39381420  1
  O2-  O122  1  0.25643036  0.00650988  0.72738031  1
  O2-  O123  1  0.24813581  0.50715799  0.06020068  1
  O2-  O124  1  0.24560925  0.49493659  0.39542007  1
  O2-  O125  1  0.24290208  0.49794529  0.72796159  1
  O2-  O126  1  0.74488457  -0.00498147  0.05852389  1
  O2-  O127  1  0.75250129  -0.00241428  0.39924328  1
  O2-  O128  1  0.74549471  -0.00535064  0.72888917  1
  O2-  O129  1  0.75192925  0.50692777  0.05937644  1
  O2-  O130  1  0.74338985  0.49847648  0.39474179  1
  O2-  O131  1  0.75177478  0.50081802  0.72325598  1
  O2-  O132  1  0.00307167  0.24486382  0.27015143  1
  O2-  O133  1  -0.00427184  0.25714070  0.60851616  1
  O2-  O134  1  -0.00201082  0.25110471  0.94293055  1
  O2-  O135  1  0.00418926  0.74534689  0.27502416  1
  O2-  O136  1  0.00588161  0.74348361  0.60499218  1
  O2-  O137  1  0.00386118  0.75194127  0.93466960  1
  O2-  O138  1  0.49376463  0.25136327  0.27401734  1
  O2-  O139  1  0.49624827  0.24399061  0.61001639  1
  O2-  O140  1  0.50327111  0.24394553  0.93701544  1
  O2-  O141  1  0.49906223  0.74963037  0.26878118  1
  O2-  O142  1  0.49600745  0.75660692  0.60709536  1
  O2-  O143  1  0.49497052  0.75559005  0.93788601  1
  O2-  O144  1  0.07228470  0.18441363  0.09173017  1
  O2-  O145  1  0.07571855  0.18005454  0.41940399  1
  O2-  O146  1  0.06846895  0.18150574  0.76667839  1
  O2-  O147  1  0.06976009  0.67661716  0.09943651  1
  O2-  O148  1  0.07245624  0.67809735  0.42579597  1
  O2-  O149  1  0.07169072  0.67351227  0.75590602  1
  O2-  O150  1  0.57349807  0.17794979  0.08665672  1
  O2-  O151  1  0.56977990  0.18093078  0.43416866  1
  O2-  O152  1  0.57302595  0.18284463  0.75896898  1
  O2-  O153  1  0.56801606  0.67867755  0.09811415  1
  O2-  O154  1  0.56801243  0.67771651  0.43125601  1
  O2-  O155  1  0.56795688  0.67642298  0.76368942  1
  O2-  O156  1  0.17611497  0.42652670  0.24659178  1
  O2-  O157  1  0.17947089  0.42642962  0.57683038  1
  O2-  O158  1  0.18138623  0.42500493  0.90008430  1
  O2-  O159  1  0.17913624  0.92795791  0.24467090  1
  O2-  O160  1  0.18136214  0.93428326  0.56691660  1
  O2-  O161  1  0.17853869  0.93349832  0.90285138  1
  O2-  O162  1  0.67775084  0.42809237  0.24451380  1
  O2-  O163  1  0.68118596  0.42514132  0.57671401  1
  O2-  O164  1  0.67953184  0.43161044  0.90056389  1
  O2-  O165  1  0.68039762  0.92885049  0.23340112  1
  O2-  O166  1  0.67500354  0.92771898  0.57922440  1
  O2-  O167  1  0.67445757  0.92865959  0.90893141  1
  O2-  O168  1  0.42961827  0.31660218  0.09966932  1
  O2-  O169  1  0.42902649  0.32112047  0.42380407  1
  O2-  O170  1  0.42997136  0.32097968  0.75529526  1
  O2-  O171  1  0.42708961  0.82621333  0.08699989  1
  O2-  O172  1  0.42514422  0.81907569  0.43355198  1
  O2-  O173  1  0.42788821  0.82208218  0.75834004  1
  O2-  O174  1  0.92715975  0.32176426  0.08989044  1
  O2-  O175  1  0.93245218  0.32086054  0.43242090  1
  O2-  O176  1  0.92316660  0.32425475  0.75743601  1
  O2-  O177  1  0.93008889  0.82252188  0.09749760  1
  O2-  O178  1  0.93234122  0.82167843  0.43285231  1
  O2-  O179  1  0.93450438  0.82128795  0.76379517  1
  O2-  O180  1  0.31829008  0.07218052  0.23224115  1
  O2-  O181  1  0.32672970  0.07545093  0.57842171  1
  O2-  O182  1  0.31949080  0.07474966  0.90810471  1
  O2-  O183  1  0.31934269  0.56654991  0.23356177  1
  O2-  O184  1  0.32272568  0.56757371  0.56967406  1
  O2-  O185  1  0.32396081  0.56646929  0.91151289  1
  O2-  O186  1  0.81904298  0.07179980  0.23611416  1
  O2-  O187  1  0.81618184  0.07254860  0.56791610  1
  O2-  O188  1  0.82215304  0.07093711  0.90186154  1
  O2-  O189  1  0.82134532  0.56868582  0.23264815  1
  O2-  O190  1  0.82253759  0.57232259  0.57708593  1
  O2-  O191  1  0.82027402  0.56986863  0.90713764  1
  O2-  O192  1  0.05206587  0.08367856  0.26851762  1
  O2-  O193  1  0.03789296  0.08655794  0.59601390  1
  O2-  O194  1  0.04178303  0.08970020  0.94156355  1
  O2-  O195  1  0.04748713  0.58189666  0.27631543  1
  O2-  O196  1  0.05133189  0.58129796  0.60448397  1
  O2-  O197  1  0.04413344  0.57917397  0.93011177  1
  O2-  O198  1  0.53960220  0.08304690  0.26427019  1
  O2-  O199  1  0.55015066  0.08434217  0.60942728  1
  O2-  O200  1  0.55358200  0.08341195  0.93397304  1
  O2-  O201  1  0.54103735  0.57762089  0.26720555  1
  O2-  O202  1  0.53798344  0.58209034  0.59694657  1
  O2-  O203  1  0.53678008  0.58385598  0.93077573  1
  O2-  O204  1  0.16681682  0.20681139  0.26733877  1
  O2-  O205  1  0.16624311  0.20953363  0.59644805  1
  O2-  O206  1  0.16093724  0.21075399  0.93734865  1
  O2-  O207  1  0.16551260  0.70013447  0.27326637  1
  O2-  O208  1  0.16990991  0.70292510  0.60933083  1
  O2-  O209  1  0.17383917  0.70103145  0.93576789  1
  O2-  O210  1  0.66480627  0.21105551  0.26411133  1
  O2-  O211  1  0.66144973  0.21339870  0.60586909  1
  O2-  O212  1  0.66699369  0.20923993  0.93562913  1
  O2-  O213  1  0.66966760  0.70308679  0.26505018  1
  O2-  O214  1  0.66668849  0.70706376  0.59773181  1
  O2-  O215  1  0.66467121  0.70867885  0.92733527  1
  O2-  O216  1  0.07954162  0.45489757  0.06665205  1
  O2-  O217  1  0.08317635  0.45094920  0.39954214  1
  O2-  O218  1  0.08154116  0.44684613  0.72681422  1
  O2-  O219  1  0.08839313  0.96564695  0.07324257  1
  O2-  O220  1  0.08604036  0.95705160  0.39631946  1
  O2-  O221  1  0.08525841  0.96813173  0.73408637  1
  O2-  O222  1  0.58081354  0.45998525  0.06766897  1
  O2-  O223  1  0.58258881  0.44765050  0.39638855  1
  O2-  O224  1  0.58878404  0.45862385  0.72818841  1
  O2-  O225  1  0.58177005  0.95086091  0.06011347  1
  O2-  O226  1  0.58100874  0.95684148  0.40015568  1
  O2-  O227  1  0.58324884  0.94971565  0.73206366  1
  O2-  O228  1  0.21278166  0.33390076  0.06917792  1
  O2-  O229  1  0.20141631  0.33289530  0.39870304  1
  O2-  O230  1  0.20708612  0.33393668  0.72774855  1
  O2-  O231  1  0.20661103  0.83054252  0.06964006  1
  O2-  O232  1  0.20093558  0.83316519  0.39684857  1
  O2-  O233  1  0.20750610  0.83640042  0.73769421  1
  O2-  O234  1  0.70780518  0.33544015  0.06898512  1
  O2-  O235  1  0.70751662  0.33535471  0.39634006  1
  O2-  O236  1  0.70763199  0.33936029  0.73335239  1
  O2-  O237  1  0.70170808  0.83151969  0.05757224  1
  O2-  O238  1  0.70597072  0.82877798  0.40026402  1
  O2-  O239  1  0.70432416  0.83137898  0.72817886  1
  O2-  O240  1  0.45280173  0.41343740  0.27041083  1
  O2-  O241  1  0.46462862  0.40925507  0.60178120  1
  O2-  O242  1  0.46196197  0.41334559  0.92973041  1
  O2-  O243  1  0.45211692  0.91905748  0.26570409  1
  O2-  O244  1  0.44836244  0.91930596  0.60929541  1
  O2-  O245  1  0.44989085  0.91860624  0.93360584  1
  O2-  O246  1  0.96153095  0.41628920  0.26391518  1
  O2-  O247  1  0.94825253  0.41844103  0.60574981  1
  O2-  O248  1  0.95301395  0.41324046  0.93640799  1
  O2-  O249  1  0.96094373  0.91822694  0.26560804  1
  O2-  O250  1  0.96518001  0.91622766  0.59716031  1
  O2-  O251  1  0.96483170  0.92331437  0.93466109  1
  O2-  O252  1  0.33112129  0.29753427  0.27468798  1
  O2-  O253  1  0.33745281  0.29928257  0.60142459  1
  O2-  O254  1  0.33366573  0.28736344  0.92969122  1
  O2-  O255  1  0.32837019  0.79025761  0.26669426  1
  O2-  O256  1  0.33185629  0.79673833  0.60917362  1
  O2-  O257  1  0.33237371  0.79877149  0.93714453  1
  O2-  O258  1  0.83338590  0.29237470  0.26344689  1
  O2-  O259  1  0.83183899  0.29560595  0.60558459  1
  O2-  O260  1  0.83464345  0.29315312  0.93809491  1
  O2-  O261  1  0.83431123  0.78967518  0.26580685  1
  O2-  O262  1  0.83536428  0.79051229  0.59794904  1
  O2-  O263  1  0.83344140  0.79868234  0.92730400  1
  O2-  O264  1  0.42086795  0.05444479  0.05465728  1
  O2-  O265  1  0.41729433  0.04201325  0.40085622  1
  O2-  O266  1  0.41861943  0.05357909  0.73197882  1
  O2-  O267  1  0.41320299  0.53680863  0.06334887  1
  O2-  O268  1  0.41567049  0.53600714  0.40272342  1
  O2-  O269  1  0.41701065  0.53207584  0.73567822  1
  O2-  O270  1  0.91674447  0.04252413  0.07192738  1
  O2-  O271  1  0.92310052  0.04775445  0.39860597  1
  O2-  O272  1  0.91630937  0.03973180  0.73242669  1
  O2-  O273  1  0.91414927  0.54687659  0.05909786  1
  O2-  O274  1  0.91508278  0.53648762  0.40279697  1
  O2-  O275  1  0.91443540  0.54716032  0.72988365  1
  O2-  O276  1  0.29164430  0.16340478  0.06143825  1
  O2-  O277  1  0.29062489  0.16608590  0.40252078  1
  O2-  O278  1  0.29736502  0.17055291  0.72655159  1
  O2-  O279  1  0.30491208  0.66643554  0.06114701  1
  O2-  O280  1  0.28931185  0.66482220  0.40339074  1
  O2-  O281  1  0.29620018  0.66581096  0.73960344  1
  O2-  O282  1  0.78975217  0.16652004  0.06838186  1
  O2-  O283  1  0.79110268  0.17110967  0.40044718  1
  O2-  O284  1  0.78800440  0.16656577  0.73611649  1
  O2-  O285  1  0.79657735  0.66949823  0.05425420  1
  O2-  O286  1  0.79104718  0.66634191  0.40190212  1
  O2-  O287  1  0.79211826  0.66461915  0.72913563  1
