# generated using pymatgen
data_Ca2Al2SiO7
_symmetry_space_group_name_H-M   'P 1'
_cell_length_a   15.46211013
_cell_length_b   15.46117591
_cell_length_c   15.28704394
_cell_angle_alpha   90.00455464
_cell_angle_beta   89.99425384
_cell_angle_gamma   90.00302934
_symmetry_Int_Tables_number   1
_chemical_formula_structural   Ca2Al2SiO7
_chemical_formula_sum   'Ca48 Al48 Si24 O168'
_cell_volume   3654.55745074
_cell_formula_units_Z   24
loop_
 _symmetry_equiv_pos_site_id
 _symmetry_equiv_pos_as_xyz
  1  'x, y, z'
loop_
 _atom_type_symbol
 _atom_type_oxidation_number
  Ca2+  2.0
  Al0+  0.0
  Si0+  0.0
  O2-  -2.0
loop_
 _atom_site_type_symbol
 _atom_site_label
 _atom_site_symmetry_multiplicity
 _atom_site_fract_x
 _atom_site_fract_y
 _atom_site_fract_z
 _atom_site_occupancy
  Ca2+  Ca0  1  0.17218446  0.07918547  0.18121172  1
  Ca2+  Ca1  1  0.17690310  0.09409889  0.49869342  1
  Ca2+  Ca2  1  0.17735647  0.08916974  0.83459008  1
  Ca2+  Ca3  1  0.16909943  0.58644750  0.16884152  1
  Ca2+  Ca4  1  0.16604376  0.58465385  0.50112904  1
  Ca2+  Ca5  1  0.17371905  0.58092974  0.84052346  1
  Ca2+  Ca6  1  0.66797682  0.07913132  0.16677133  1
  Ca2+  Ca7  1  0.65329885  0.07438611  0.50099956  1
  Ca2+  Ca8  1  0.66478776  0.08027468  0.84029219  1
  Ca2+  Ca9  1  0.67078137  0.57800410  0.16531258  1
  Ca2+  Ca10  1  0.67466966  0.57475878  0.51099129  1
  Ca2+  Ca11  1  0.67515923  0.56731473  0.83836498  1
  Ca2+  Ca12  1  0.07837652  0.32432326  0.16388117  1
  Ca2+  Ca13  1  0.07605948  0.32965952  0.49600563  1
  Ca2+  Ca14  1  0.06875884  0.33745258  0.83082784  1
  Ca2+  Ca15  1  0.07182293  0.83818865  0.16406159  1
  Ca2+  Ca16  1  0.07596188  0.82881961  0.48651837  1
  Ca2+  Ca17  1  0.07379499  0.83200314  0.83300100  1
  Ca2+  Ca18  1  0.58443499  0.32150087  0.16146046  1
  Ca2+  Ca19  1  0.57901977  0.32282450  0.49473103  1
  Ca2+  Ca20  1  0.58939546  0.32389897  0.82588851  1
  Ca2+  Ca21  1  0.57912347  0.84103776  0.15867876  1
  Ca2+  Ca22  1  0.58821983  0.83630831  0.49615873  1
  Ca2+  Ca23  1  0.58301247  0.84063116  0.83203481  1
  Ca2+  Ca24  1  0.34027301  0.42256366  0.17107104  1
  Ca2+  Ca25  1  0.33634461  0.40849217  0.50328462  1
  Ca2+  Ca26  1  0.33600107  0.41913800  0.83807796  1
  Ca2+  Ca27  1  0.32791956  0.92016029  0.17556630  1
  Ca2+  Ca28  1  0.32803574  0.93291224  0.50106271  1
  Ca2+  Ca29  1  0.33597209  0.92235302  0.83715710  1
  Ca2+  Ca30  1  0.83152927  0.41417016  0.16221008  1
  Ca2+  Ca31  1  0.83011692  0.42209276  0.51293452  1
  Ca2+  Ca32  1  0.82934453  0.41799503  0.84292623  1
  Ca2+  Ca33  1  0.82558723  0.91248210  0.17029317  1
  Ca2+  Ca34  1  0.82476357  0.91526006  0.50290838  1
  Ca2+  Ca35  1  0.82162765  0.92344799  0.84363263  1
  Ca2+  Ca36  1  0.42830063  0.16048722  0.16534020  1
  Ca2+  Ca37  1  0.42207364  0.17009275  0.49578532  1
  Ca2+  Ca38  1  0.42999859  0.16914487  0.82400549  1
  Ca2+  Ca39  1  0.41747150  0.67401750  0.15649278  1
  Ca2+  Ca40  1  0.42205206  0.66940604  0.49546558  1
  Ca2+  Ca41  1  0.41523837  0.67169203  0.83518861  1
  Ca2+  Ca42  1  0.92019362  0.16356027  0.15830232  1
  Ca2+  Ca43  1  0.91831868  0.17385599  0.49509889  1
  Ca2+  Ca44  1  0.90558902  0.17816150  0.83431659  1
  Ca2+  Ca45  1  0.91688045  0.67689706  0.16294879  1
  Ca2+  Ca46  1  0.91929712  0.67017379  0.49158382  1
  Ca2+  Ca47  1  0.90153729  0.66919568  0.83356221  1
  Al0+  Al48  1  0.00177391  -0.00182233  -0.00613890  1
  Al0+  Al49  1  -0.00261031  0.00031386  0.33077882  1
  Al0+  Al50  1  0.00076490  -0.00207844  0.66596945  1
  Al0+  Al51  1  0.00195781  0.49894933  0.00159220  1
  Al0+  Al52  1  0.00174107  0.50209092  0.32948332  1
  Al0+  Al53  1  0.00241291  0.50224711  0.66625691  1
  Al0+  Al54  1  0.49884593  0.00043855  -0.00567574  1
  Al0+  Al55  1  0.49958181  0.00039068  0.33779254  1
  Al0+  Al56  1  0.49644446  0.00000230  0.67014644  1
  Al0+  Al57  1  0.49936603  0.50061479  0.00846845  1
  Al0+  Al58  1  0.50095737  0.50031851  0.33209892  1
  Al0+  Al59  1  0.50023457  0.50239667  0.66770836  1
  Al0+  Al60  1  0.25133573  0.24999938  0.00157547  1
  Al0+  Al61  1  0.24812259  0.25471032  0.32936676  1
  Al0+  Al62  1  0.25054871  0.25110668  0.67124303  1
  Al0+  Al63  1  0.25082588  0.74974945  -0.00169294  1
  Al0+  Al64  1  0.25065645  0.74886746  0.33600683  1
  Al0+  Al65  1  0.24881285  0.75107608  0.66570990  1
  Al0+  Al66  1  0.75112814  0.24803171  0.00095704  1
  Al0+  Al67  1  0.74746331  0.25043408  0.33073842  1
  Al0+  Al68  1  0.75024549  0.24718245  0.65648190  1
  Al0+  Al69  1  0.74855938  0.74753721  0.00198871  1
  Al0+  Al70  1  0.75034118  0.74847662  0.33451785  1
  Al0+  Al71  1  0.74830805  0.75094652  0.67303772  1
  Al0+  Al72  1  0.42876658  0.32271016  0.31653706  1
  Al0+  Al73  1  0.92924810  0.32161334  0.65323602  1
  Al0+  Al74  1  0.42888698  0.32356320  0.65382067  1
  Al0+  Al75  1  0.56982843  0.17650605  0.31511474  1
  Al0+  Al76  1  0.06918640  0.18007302  0.32127753  1
  Al0+  Al77  1  0.82288458  0.07016344  0.01383736  1
  Al0+  Al78  1  0.93192589  0.31901355  0.98771178  1
  Al0+  Al79  1  0.92700730  0.82105359  0.31890191  1
  Al0+  Al80  1  0.17556830  0.92785501  0.34787380  1
  Al0+  Al81  1  0.31810758  0.07173536  0.68243382  1
  Al0+  Al82  1  0.82327552  0.57077673  0.01806624  1
  Al0+  Al83  1  0.31952211  0.07368826  0.34775801  1
  Al0+  Al84  1  0.57005459  0.18039704  0.98507880  1
  Al0+  Al85  1  0.57150106  0.17648094  0.64980518  1
  Al0+  Al86  1  0.92666717  0.82015657  0.98359304  1
  Al0+  Al87  1  0.31972541  0.57074246  0.01403346  1
  Al0+  Al88  1  0.67744879  0.92982037  0.01465428  1
  Al0+  Al89  1  0.67915567  0.42602612  0.67912291  1
  Al0+  Al90  1  0.67902146  0.42600728  0.01667500  1
  Al0+  Al91  1  0.82338896  0.57015621  0.68104698  1
  Al0+  Al92  1  0.68047706  0.92896574  0.34712786  1
  Al0+  Al93  1  0.07313708  0.67864622  0.31713650  1
  Al0+  Al94  1  0.67916621  0.93121201  0.68099575  1
  Al0+  Al95  1  0.42935409  0.82021504  0.98615730  1
  Si0+  Si96  1  0.07178565  0.67894771  0.98214902  1
  Si0+  Si97  1  0.07323812  0.68042766  0.65153948  1
  Si0+  Si98  1  0.82691923  0.07122420  0.68121577  1
  Si0+  Si99  1  0.82108400  0.56869205  0.34813624  1
  Si0+  Si100  1  0.07576140  0.17568321  0.98199739  1
  Si0+  Si101  1  0.42666561  0.82082670  0.64959436  1
  Si0+  Si102  1  0.82197917  0.07491889  0.35026505  1
  Si0+  Si103  1  0.07300099  0.17804483  0.65183367  1
  Si0+  Si104  1  0.92762082  0.81963719  0.65227033  1
  Si0+  Si105  1  0.43062634  0.81963966  0.32139729  1
  Si0+  Si106  1  0.57161207  0.67826680  0.31912686  1
  Si0+  Si107  1  0.42761149  0.32387699  0.98430054  1
  Si0+  Si108  1  0.17989659  0.43023748  0.68157679  1
  Si0+  Si109  1  0.18013225  0.92873848  0.01302138  1
  Si0+  Si110  1  0.92696691  0.32347690  0.31681394  1
  Si0+  Si111  1  0.17847660  0.42667142  0.01872512  1
  Si0+  Si112  1  0.32312301  0.57100801  0.35039559  1
  Si0+  Si113  1  0.17813460  0.43149216  0.34927539  1
  Si0+  Si114  1  0.57057311  0.68146734  0.65249408  1
  Si0+  Si115  1  0.32044984  0.07108362  0.01494410  1
  Si0+  Si116  1  0.57166658  0.67506875  0.98254517  1
  Si0+  Si117  1  0.32140632  0.57442821  0.68097456  1
  Si0+  Si118  1  0.67818628  0.42861753  0.34959248  1
  Si0+  Si119  1  0.17739545  0.92561633  0.68493682  1
  O2-  O120  1  0.24643598  0.00327276  0.05624785  1
  O2-  O121  1  0.24381191  0.00394461  0.39747796  1
  O2-  O122  1  0.24279061  -0.00296034  0.72938178  1
  O2-  O123  1  0.24858914  0.49403329  0.06270393  1
  O2-  O124  1  0.25153595  0.50043760  0.39239948  1
  O2-  O125  1  0.25398491  0.49943554  0.72186833  1
  O2-  O126  1  0.75359814  -0.00349686  0.06543119  1
  O2-  O127  1  0.75377114  0.00524067  0.39431025  1
  O2-  O128  1  0.75339975  0.00727216  0.72440664  1
  O2-  O129  1  0.75102768  0.49858926  0.06750444  1
  O2-  O130  1  0.75334560  0.49549858  0.39141895  1
  O2-  O131  1  0.75730691  0.49178670  0.72903046  1
  O2-  O132  1  -0.00956578  0.24963674  0.27368293  1
  O2-  O133  1  0.00153986  0.24380792  0.60748866  1
  O2-  O134  1  0.00552177  0.24342716  0.93921755  1
  O2-  O135  1  0.00436133  0.75403655  0.26909662  1
  O2-  O136  1  -0.00083652  0.74859826  0.61074964  1
  O2-  O137  1  -0.00159985  0.74146998  0.93615543  1
  O2-  O138  1  0.49730156  0.24865518  0.26584186  1
  O2-  O139  1  0.50186479  0.25333679  0.60320445  1
  O2-  O140  1  0.49776786  0.25838808  0.93932693  1
  O2-  O141  1  0.50236747  0.75078655  0.27734278  1
  O2-  O142  1  0.50025162  0.75235954  0.60764738  1
  O2-  O143  1  0.50583544  0.74730321  0.93861372  1
  O2-  O144  1  0.07819584  0.17649019  0.08752711  1
  O2-  O145  1  0.06954093  0.18602732  0.43469924  1
  O2-  O146  1  0.07486212  0.18060598  0.75729862  1
  O2-  O147  1  0.07513679  0.68350042  0.08719543  1
  O2-  O148  1  0.06931565  0.67570463  0.43142912  1
  O2-  O149  1  0.08032246  0.68214825  0.75606618  1
  O2-  O150  1  0.56704790  0.17728937  0.09778943  1
  O2-  O151  1  0.56860938  0.17718640  0.42847469  1
  O2-  O152  1  0.56968149  0.17556961  0.76340980  1
  O2-  O153  1  0.56809670  0.67443653  0.08860023  1
  O2-  O154  1  0.56965021  0.67682568  0.42475986  1
  O2-  O155  1  0.56771487  0.68122988  0.75703914  1
  O2-  O156  1  0.17652620  0.43347675  0.24457883  1
  O2-  O157  1  0.17771439  0.43177089  0.57641559  1
  O2-  O158  1  0.17872019  0.42790230  0.91266366  1
  O2-  O159  1  0.18046838  0.92754192  0.23376584  1
  O2-  O160  1  0.17895763  0.92158255  0.57997592  1
  O2-  O161  1  0.18243258  0.92831178  0.90760957  1
  O2-  O162  1  0.67757603  0.43071261  0.24486979  1
  O2-  O163  1  0.67911936  0.43249197  0.56497730  1
  O2-  O164  1  0.67960662  0.42636643  0.90298109  1
  O2-  O165  1  0.67910476  0.92626829  0.23489256  1
  O2-  O166  1  0.68194073  0.92738886  0.56765004  1
  O2-  O167  1  0.67709874  0.93360741  0.90099268  1
  O2-  O168  1  0.42520159  0.32087221  0.08952977  1
  O2-  O169  1  0.43239634  0.32530744  0.43008487  1
  O2-  O170  1  0.42700658  0.32290026  0.76730903  1
  O2-  O171  1  0.42725585  0.81930320  0.09967084  1
  O2-  O172  1  0.43122638  0.81622421  0.42681493  1
  O2-  O173  1  0.42372736  0.81793701  0.75458104  1
  O2-  O174  1  0.93579702  0.31782298  0.10075842  1
  O2-  O175  1  0.93011515  0.32604223  0.42276092  1
  O2-  O176  1  0.93187067  0.32357028  0.76609656  1
  O2-  O177  1  0.93034713  0.82160722  0.09613622  1
  O2-  O178  1  0.92434109  0.81503036  0.43324808  1
  O2-  O179  1  0.92912685  0.81898249  0.75718006  1
  O2-  O180  1  0.32024462  0.06820381  0.23381021  1
  O2-  O181  1  0.31597395  0.07177681  0.56964532  1
  O2-  O182  1  0.31865348  0.07104725  0.90969543  1
  O2-  O183  1  0.32401633  0.57205501  0.24569104  1
  O2-  O184  1  0.31880552  0.57924310  0.57596358  1
  O2-  O185  1  0.31696939  0.57087278  0.90031641  1
  O2-  O186  1  0.82200714  0.07559503  0.24507651  1
  O2-  O187  1  0.83499923  0.06604804  0.57599572  1
  O2-  O188  1  0.82064116  0.07060220  0.89983235  1
  O2-  O189  1  0.81950402  0.56896188  0.24362785  1
  O2-  O190  1  0.82188516  0.57169316  0.56661153  1
  O2-  O191  1  0.82151619  0.56755894  0.90442401  1
  O2-  O192  1  0.04501814  0.08228817  0.26714537  1
  O2-  O193  1  0.05277803  0.08207670  0.60780680  1
  O2-  O194  1  0.05544178  0.08200053  0.93433868  1
  O2-  O195  1  0.04332696  0.58175912  0.26214298  1
  O2-  O196  1  0.04945925  0.58796314  0.60355798  1
  O2-  O197  1  0.05413848  0.58220007  0.93963378  1
  O2-  O198  1  0.53965885  0.07734390  0.26445268  1
  O2-  O199  1  0.53422025  0.07924838  0.59864802  1
  O2-  O200  1  0.53428047  0.08637231  0.92930236  1
  O2-  O201  1  0.54135797  0.58852419  0.27010474  1
  O2-  O202  1  0.54159365  0.59084960  0.60276724  1
  O2-  O203  1  0.53969086  0.58291609  0.93687349  1
  O2-  O204  1  0.16287478  0.21508244  0.26436295  1
  O2-  O205  1  0.16462918  0.20970641  0.60569212  1
  O2-  O206  1  0.16887297  0.20550437  0.93576853  1
  O2-  O207  1  0.17470675  0.70072920  0.26811932  1
  O2-  O208  1  0.16343314  0.71033413  0.60075848  1
  O2-  O209  1  0.16303141  0.71030330  0.93343768  1
  O2-  O210  1  0.66878505  0.20623325  0.26384868  1
  O2-  O211  1  0.67071528  0.19562367  0.59438674  1
  O2-  O212  1  0.66793320  0.20777726  0.93295499  1
  O2-  O213  1  0.66375540  0.70305263  0.27276518  1
  O2-  O214  1  0.66233297  0.71021140  0.60471638  1
  O2-  O215  1  0.66628662  0.69548837  0.93790462  1
  O2-  O216  1  0.08666190  0.45347024  0.06642768  1
  O2-  O217  1  0.08724732  0.46241099  0.39835428  1
  O2-  O218  1  0.09077214  0.46299392  0.73143001  1
  O2-  O219  1  0.08679176  0.95235058  0.05800363  1
  O2-  O220  1  0.07458926  0.95010020  0.39794266  1
  O2-  O221  1  0.08232201  0.94791064  0.72984556  1
  O2-  O222  1  0.58137851  0.45520408  0.07093411  1
  O2-  O223  1  0.58827175  0.46252652  0.39713305  1
  O2-  O224  1  0.58268242  0.46117097  0.73263388  1
  O2-  O225  1  0.57850082  0.96144148  0.06517748  1
  O2-  O226  1  0.58342019  0.95736404  0.40258135  1
  O2-  O227  1  0.58053070  0.95672087  0.73263610  1
  O2-  O228  1  0.20261479  0.33228328  0.06427059  1
  O2-  O229  1  0.20324541  0.33989169  0.39793107  1
  O2-  O230  1  0.20430161  0.33936897  0.73169761  1
  O2-  O231  1  0.21160870  0.83865256  0.06037975  1
  O2-  O232  1  0.20787436  0.83015829  0.40168395  1
  O2-  O233  1  0.20735349  0.83368150  0.73297454  1
  O2-  O234  1  0.71072406  0.32953805  0.07059155  1
  O2-  O235  1  0.70157355  0.33503127  0.39516650  1
  O2-  O236  1  0.70187786  0.32374438  0.72477819  1
  O2-  O237  1  0.69790708  0.82820815  0.06338196  1
  O2-  O238  1  0.71084390  0.83128680  0.40193006  1
  O2-  O239  1  0.70914681  0.83546548  0.73668341  1
  O2-  O240  1  0.45993083  0.42137917  0.26442430  1
  O2-  O241  1  0.44982487  0.42524228  0.60265895  1
  O2-  O242  1  0.44825063  0.42048685  0.94280822  1
  O2-  O243  1  0.45611771  0.91178093  0.27509965  1
  O2-  O244  1  0.45252934  0.91315288  0.60401436  1
  O2-  O245  1  0.45786750  0.91564791  0.92904746  1
  O2-  O246  1  0.95893797  0.41439169  0.26993915  1
  O2-  O247  1  0.96509957  0.41778615  0.59942327  1
  O2-  O248  1  0.96519818  0.41537607  0.93330737  1
  O2-  O249  1  0.94767934  0.92100793  0.26675129  1
  O2-  O250  1  0.95576075  0.91117490  0.60429521  1
  O2-  O251  1  0.96253888  0.91434952  0.92663635  1
  O2-  O252  1  0.32747022  0.30450687  0.26633619  1
  O2-  O253  1  0.32917943  0.29404799  0.60252449  1
  O2-  O254  1  0.33323543  0.29804987  0.93854033  1
  O2-  O255  1  0.33939319  0.79014506  0.27434497  1
  O2-  O256  1  0.33630147  0.78900161  0.60138119  1
  O2-  O257  1  0.33454007  0.78558979  0.92959247  1
  O2-  O258  1  0.83143335  0.30387769  0.27365632  1
  O2-  O259  1  0.83459417  0.29414101  0.59429206  1
  O2-  O260  1  0.83561070  0.28897462  0.93360563  1
  O2-  O261  1  0.83129473  0.78458610  0.26518679  1
  O2-  O262  1  0.83529947  0.79114632  0.60645997  1
  O2-  O263  1  0.82877856  0.79038389  0.93126445  1
  O2-  O264  1  0.41056886  0.03837346  0.06066537  1
  O2-  O265  1  0.41506819  0.04001643  0.40287190  1
  O2-  O266  1  0.41211589  0.03670207  0.73780531  1
  O2-  O267  1  0.41559649  0.54558431  0.07147880  1
  O2-  O268  1  0.41514899  0.54330329  0.39852953  1
  O2-  O269  1  0.41378575  0.55195577  0.72878391  1
  O2-  O270  1  0.92499751  0.04537902  0.06134311  1
  O2-  O271  1  0.91606297  0.05155816  0.39630544  1
  O2-  O272  1  0.91862587  0.04336334  0.73080317  1
  O2-  O273  1  0.92298497  0.54367674  0.06877332  1
  O2-  O274  1  0.91479405  0.54343874  0.39381352  1
  O2-  O275  1  0.92511274  0.55171324  0.73113342  1
  O2-  O276  1  0.29670064  0.16395888  0.06203369  1
  O2-  O277  1  0.29016138  0.17366424  0.39771385  1
  O2-  O278  1  0.28725971  0.16734857  0.73917968  1
  O2-  O279  1  0.28620489  0.66686526  0.06795846  1
  O2-  O280  1  0.29625767  0.66208376  0.40022008  1
  O2-  O281  1  0.28803477  0.66403226  0.73003762  1
  O2-  O282  1  0.79560085  0.16726800  0.06828421  1
  O2-  O283  1  0.79673674  0.16944417  0.39603425  1
  O2-  O284  1  0.80432429  0.16765472  0.72115855  1
  O2-  O285  1  0.79335577  0.66857505  0.07077785  1
  O2-  O286  1  0.79040369  0.65884306  0.39721409  1
  O2-  O287  1  0.78733086  0.66544773  0.73464673  1
