# generated using pymatgen
data_Ca2Al2SiO7
_symmetry_space_group_name_H-M   'P 1'
_cell_length_a   15.47262985
_cell_length_b   15.46907285
_cell_length_c   15.29438341
_cell_angle_alpha   89.99947667
_cell_angle_beta   90.01892856
_cell_angle_gamma   89.99704362
_symmetry_Int_Tables_number   1
_chemical_formula_structural   Ca2Al2SiO7
_chemical_formula_sum   'Ca48 Al48 Si24 O168'
_cell_volume   3660.66822697
_cell_formula_units_Z   24
loop_
 _symmetry_equiv_pos_site_id
 _symmetry_equiv_pos_as_xyz
  1  'x, y, z'
loop_
 _atom_type_symbol
 _atom_type_oxidation_number
  Ca2+  2.0
  Al0+  0.0
  Si0+  0.0
  O2-  -2.0
loop_
 _atom_site_type_symbol
 _atom_site_label
 _atom_site_symmetry_multiplicity
 _atom_site_fract_x
 _atom_site_fract_y
 _atom_site_fract_z
 _atom_site_occupancy
  Ca2+  Ca0  1  0.16724455  0.08478881  0.17743347  1
  Ca2+  Ca1  1  0.16463290  0.07714307  0.50750779  1
  Ca2+  Ca2  1  0.16847440  0.09341844  0.83071970  1
  Ca2+  Ca3  1  0.16357462  0.57178702  0.17649000  1
  Ca2+  Ca4  1  0.15842170  0.57627255  0.50583188  1
  Ca2+  Ca5  1  0.15580873  0.57012314  0.83435273  1
  Ca2+  Ca6  1  0.67096712  0.07642753  0.16927613  1
  Ca2+  Ca7  1  0.67517611  0.07942248  0.51444447  1
  Ca2+  Ca8  1  0.67123302  0.08053495  0.83178022  1
  Ca2+  Ca9  1  0.67655070  0.58321716  0.16708977  1
  Ca2+  Ca10  1  0.66846279  0.58292175  0.50684371  1
  Ca2+  Ca11  1  0.67317458  0.58366922  0.83838538  1
  Ca2+  Ca12  1  0.09133240  0.32650170  0.16138159  1
  Ca2+  Ca13  1  0.09094876  0.32447272  0.50257265  1
  Ca2+  Ca14  1  0.07962348  0.32812240  0.82796335  1
  Ca2+  Ca15  1  0.07329393  0.83612199  0.16498989  1
  Ca2+  Ca16  1  0.08943094  0.82820958  0.49143221  1
  Ca2+  Ca17  1  0.07994851  0.82712507  0.82489292  1
  Ca2+  Ca18  1  0.57782385  0.33170983  0.16379842  1
  Ca2+  Ca19  1  0.57502020  0.32653700  0.50228508  1
  Ca2+  Ca20  1  0.57241266  0.32879496  0.81894126  1
  Ca2+  Ca21  1  0.58051806  0.83482268  0.15911642  1
  Ca2+  Ca22  1  0.58535719  0.83256844  0.50150476  1
  Ca2+  Ca23  1  0.58915755  0.83269311  0.82612638  1
  Ca2+  Ca24  1  0.31946988  0.42153964  0.17440336  1
  Ca2+  Ca25  1  0.32179737  0.41868789  0.50361814  1
  Ca2+  Ca26  1  0.31990370  0.40672106  0.83166720  1
  Ca2+  Ca27  1  0.32105556  0.92408104  0.17711580  1
  Ca2+  Ca28  1  0.32063563  0.92654837  0.50422722  1
  Ca2+  Ca29  1  0.32484681  0.91952513  0.82814232  1
  Ca2+  Ca30  1  0.84328832  0.42168496  0.16444309  1
  Ca2+  Ca31  1  0.83771609  0.41676140  0.50849538  1
  Ca2+  Ca32  1  0.84544852  0.42182840  0.83927797  1
  Ca2+  Ca33  1  0.83173442  0.90723038  0.16843912  1
  Ca2+  Ca34  1  0.83313596  0.92185398  0.50906392  1
  Ca2+  Ca35  1  0.82676298  0.91939957  0.83539908  1
  Ca2+  Ca36  1  0.41402396  0.16332808  0.16430218  1
  Ca2+  Ca37  1  0.41141921  0.16187106  0.50271420  1
  Ca2+  Ca38  1  0.42105599  0.16918194  0.81955764  1
  Ca2+  Ca39  1  0.41325348  0.66450110  0.16730835  1
  Ca2+  Ca40  1  0.42096819  0.66173206  0.49720354  1
  Ca2+  Ca41  1  0.42659197  0.66836847  0.82186490  1
  Ca2+  Ca42  1  0.93437056  0.17343656  0.15864556  1
  Ca2+  Ca43  1  0.92735412  0.16378450  0.49922078  1
  Ca2+  Ca44  1  0.92398348  0.17600864  0.82384499  1
  Ca2+  Ca45  1  0.92132191  0.67431132  0.16493128  1
  Ca2+  Ca46  1  0.93114508  0.67590834  0.49660339  1
  Ca2+  Ca47  1  0.91686604  0.67115040  0.83041190  1
  Al0+  Al48  1  0.00017295  -0.00062757  -0.00955106  1
  Al0+  Al49  1  -0.00250366  0.00151403  0.32722188  1
  Al0+  Al50  1  -0.00279985  0.00072057  0.67381269  1
  Al0+  Al51  1  0.00146437  0.50023890  0.00954105  1
  Al0+  Al52  1  -0.00294983  0.50133874  0.33606983  1
  Al0+  Al53  1  -0.00046465  0.50243794  0.66400791  1
  Al0+  Al54  1  0.49999101  -0.00137522  0.00325707  1
  Al0+  Al55  1  0.50131842  -0.00158321  0.33497614  1
  Al0+  Al56  1  0.49894720  -0.00204315  0.66922582  1
  Al0+  Al57  1  0.50097939  0.50058072  -0.00008208  1
  Al0+  Al58  1  0.50109689  0.49787545  0.33385934  1
  Al0+  Al59  1  0.50036010  0.50080142  0.65825639  1
  Al0+  Al60  1  0.25291397  0.25062015  0.00147753  1
  Al0+  Al61  1  0.25291942  0.25347738  0.33541126  1
  Al0+  Al62  1  0.24853554  0.25172062  0.66682404  1
  Al0+  Al63  1  0.25158254  0.75240996  -0.00070152  1
  Al0+  Al64  1  0.25425349  0.74908640  0.33364239  1
  Al0+  Al65  1  0.25223822  0.74921080  0.66679254  1
  Al0+  Al66  1  0.74984532  0.24935741  -0.00026711  1
  Al0+  Al67  1  0.74802211  0.24819025  0.33071369  1
  Al0+  Al68  1  0.74709408  0.25180008  0.66474534  1
  Al0+  Al69  1  0.74976504  0.74910894  0.00533320  1
  Al0+  Al70  1  0.74889279  0.74700880  0.33092431  1
  Al0+  Al71  1  0.75038474  0.74844610  0.66471463  1
  Al0+  Al72  1  0.07458320  0.67791564  0.31799380  1
  Al0+  Al73  1  0.32273115  0.07223455  0.34766448  1
  Al0+  Al74  1  0.42651742  0.32108383  0.64949043  1
  Al0+  Al75  1  0.07216282  0.18234579  0.32109736  1
  Al0+  Al76  1  0.56988446  0.17618212  0.65184878  1
  Al0+  Al77  1  0.68036005  0.92725468  0.68018185  1
  Al0+  Al78  1  0.17819313  0.43160458  0.68192254  1
  Al0+  Al79  1  0.82154997  0.07531385  0.68288295  1
  Al0+  Al80  1  0.92859956  0.82138791  0.31931418  1
  Al0+  Al81  1  0.18195605  0.43041788  0.01414908  1
  Al0+  Al82  1  0.17541213  0.93087655  0.34507527  1
  Al0+  Al83  1  0.92842667  0.32329653  0.65238849  1
  Al0+  Al84  1  0.17620787  0.92581609  0.68241645  1
  Al0+  Al85  1  0.06931418  0.17789734  0.65100622  1
  Al0+  Al86  1  0.82061655  0.56969903  0.01474599  1
  Al0+  Al87  1  0.57242213  0.68045330  0.65271303  1
  Al0+  Al88  1  0.68106047  0.93124660  0.01522349  1
  Al0+  Al89  1  0.92998131  0.32297207  0.98719898  1
  Al0+  Al90  1  0.07491656  0.17921925  0.98383969  1
  Al0+  Al91  1  0.07183474  0.68110989  0.65539358  1
  Al0+  Al92  1  0.32339480  0.57125331  0.34866828  1
  Al0+  Al93  1  0.92690735  0.81946882  0.98390965  1
  Al0+  Al94  1  0.31810820  0.07116920  0.68236386  1
  Al0+  Al95  1  0.17596796  0.43086923  0.35152722  1
  Si0+  Si96  1  0.57022575  0.17637911  0.98673168  1
  Si0+  Si97  1  0.56979455  0.67986179  0.98637340  1
  Si0+  Si98  1  0.67635152  0.43006850  0.68036781  1
  Si0+  Si99  1  0.42920811  0.82261904  0.98442185  1
  Si0+  Si100  1  0.07335785  0.67946496  0.98532753  1
  Si0+  Si101  1  0.81838318  0.57096482  0.35121943  1
  Si0+  Si102  1  0.81953230  0.56888512  0.68109569  1
  Si0+  Si103  1  0.81847517  0.07096734  0.34577741  1
  Si0+  Si104  1  0.57142437  0.17694518  0.31609984  1
  Si0+  Si105  1  0.92790727  0.82144655  0.65303177  1
  Si0+  Si106  1  0.82420224  0.07374445  0.01816961  1
  Si0+  Si107  1  0.67943587  0.92664490  0.34790349  1
  Si0+  Si108  1  0.43214917  0.32116833  0.98648842  1
  Si0+  Si109  1  0.67445354  0.42666591  0.01631807  1
  Si0+  Si110  1  0.42733761  0.82172452  0.64776083  1
  Si0+  Si111  1  0.31953674  0.06884956  0.01404987  1
  Si0+  Si112  1  0.43228223  0.82232384  0.31670819  1
  Si0+  Si113  1  0.32474596  0.57120663  0.68361900  1
  Si0+  Si114  1  0.43170096  0.32119865  0.31589806  1
  Si0+  Si115  1  0.17725050  0.92653487  0.01442762  1
  Si0+  Si116  1  0.67945152  0.42696374  0.34857651  1
  Si0+  Si117  1  0.92331873  0.32108880  0.31719629  1
  Si0+  Si118  1  0.57057042  0.67677949  0.31525444  1
  Si0+  Si119  1  0.32533071  0.57494538  0.01439250  1
  O2-  O120  1  0.24375217  0.00287491  0.05531243  1
  O2-  O121  1  0.24429579  0.00614149  0.39475306  1
  O2-  O122  1  0.24376948  0.00211855  0.73380511  1
  O2-  O123  1  0.25470327  0.50881232  0.05806023  1
  O2-  O124  1  0.24406143  0.50857547  0.39904828  1
  O2-  O125  1  0.25462378  0.50550356  0.72921732  1
  O2-  O126  1  0.75723811  0.00324392  0.06420604  1
  O2-  O127  1  0.75242557  -0.00486292  0.38796937  1
  O2-  O128  1  0.74914239  0.00153556  0.73071258  1
  O2-  O129  1  0.74821352  0.49031709  0.06008624  1
  O2-  O130  1  0.75271447  0.49440529  0.39214293  1
  O2-  O131  1  0.75064807  0.49617211  0.72414083  1
  O2-  O132  1  -0.00061168  0.26004741  0.27482537  1
  O2-  O133  1  -0.00415406  0.24866150  0.60090184  1
  O2-  O134  1  -0.00116417  0.24893401  0.93704245  1
  O2-  O135  1  0.00471802  0.75314129  0.26907504  1
  O2-  O136  1  0.00574353  0.76376063  0.60921071  1
  O2-  O137  1  0.00511806  0.74752658  0.93949585  1
  O2-  O138  1  0.49773024  0.24488337  0.27312007  1
  O2-  O139  1  0.49506528  0.24455716  0.60040374  1
  O2-  O140  1  0.50606811  0.25332228  0.94528661  1
  O2-  O141  1  0.50011157  0.74794122  0.27283290  1
  O2-  O142  1  0.49809448  0.75405685  0.60449313  1
  O2-  O143  1  0.49671825  0.74768590  0.94356614  1
  O2-  O144  1  0.07735393  0.18109446  0.09805182  1
  O2-  O145  1  0.06921080  0.17869891  0.43319696  1
  O2-  O146  1  0.07019346  0.18284648  0.76431232  1
  O2-  O147  1  0.07439795  0.68216037  0.09067991  1
  O2-  O148  1  0.06941411  0.67862310  0.43152111  1
  O2-  O149  1  0.06577747  0.67752909  0.76884257  1
  O2-  O150  1  0.56672627  0.17531959  0.09244903  1
  O2-  O151  1  0.57529871  0.17819163  0.42017839  1
  O2-  O152  1  0.56927617  0.18080597  0.76624706  1
  O2-  O153  1  0.56835234  0.67960694  0.09171680  1
  O2-  O154  1  0.57256485  0.67725334  0.41998193  1
  O2-  O155  1  0.57232246  0.67968617  0.76632279  1
  O2-  O156  1  0.18065214  0.42881403  0.23729811  1
  O2-  O157  1  0.17782177  0.43399785  0.56956248  1
  O2-  O158  1  0.18279762  0.43024043  0.90132447  1
  O2-  O159  1  0.17776561  0.93306546  0.23053506  1
  O2-  O160  1  0.17989933  0.92379008  0.56901790  1
  O2-  O161  1  0.18267301  0.91910251  0.91035255  1
  O2-  O162  1  0.67807518  0.42864228  0.24318429  1
  O2-  O163  1  0.67575065  0.43354161  0.57502101  1
  O2-  O164  1  0.66562244  0.43134302  0.91167337  1
  O2-  O165  1  0.67725706  0.92802029  0.24249041  1
  O2-  O166  1  0.68496195  0.92498629  0.56606621  1
  O2-  O167  1  0.67832853  0.93190958  0.90311189  1
  O2-  O168  1  0.43316875  0.32034393  0.09189211  1
  O2-  O169  1  0.43631603  0.32488643  0.41991842  1
  O2-  O170  1  0.43079650  0.32274773  0.76412444  1
  O2-  O171  1  0.43048737  0.82361114  0.08966963  1
  O2-  O172  1  0.43788012  0.82551310  0.42092489  1
  O2-  O173  1  0.42703888  0.81880317  0.75396923  1
  O2-  O174  1  0.93185686  0.32141268  0.10110902  1
  O2-  O175  1  0.91376095  0.31537300  0.42163081  1
  O2-  O176  1  0.93163979  0.32633987  0.76584546  1
  O2-  O177  1  0.92711201  0.81673665  0.09696925  1
  O2-  O178  1  0.92208777  0.81881436  0.43238560  1
  O2-  O179  1  0.92295407  0.81370011  0.75842715  1
  O2-  O180  1  0.32546107  0.06784881  0.23306056  1
  O2-  O181  1  0.31809593  0.06772257  0.56921857  1
  O2-  O182  1  0.32342093  0.06806815  0.90970900  1
  O2-  O183  1  0.32903149  0.56422265  0.23466924  1
  O2-  O184  1  0.32638660  0.56949691  0.57844262  1
  O2-  O185  1  0.33092766  0.57510811  0.90950538  1
  O2-  O186  1  0.81364394  0.07366908  0.24079653  1
  O2-  O187  1  0.82070756  0.07240319  0.56830763  1
  O2-  O188  1  0.81868854  0.07558768  0.91343813  1
  O2-  O189  1  0.81528739  0.57235978  0.24601873  1
  O2-  O190  1  0.81662236  0.56940046  0.57593460  1
  O2-  O191  1  0.81678393  0.57099246  0.90159799  1
  O2-  O192  1  0.03844589  0.08771514  0.26394927  1
  O2-  O193  1  0.04142425  0.07718305  0.60185113  1
  O2-  O194  1  0.05328229  0.07933809  0.93242677  1
  O2-  O195  1  0.03838044  0.58046069  0.26585771  1
  O2-  O196  1  0.03192649  0.58974266  0.59865278  1
  O2-  O197  1  0.04562068  0.58500738  0.94364698  1
  O2-  O198  1  0.54552499  0.08394959  0.26910674  1
  O2-  O199  1  0.54652379  0.07585018  0.60106040  1
  O2-  O200  1  0.53592488  0.08710921  0.93944822  1
  O2-  O201  1  0.54343911  0.58454137  0.26794479  1
  O2-  O202  1  0.54253847  0.58556502  0.59522312  1
  O2-  O203  1  0.54567122  0.58697691  0.93866277  1
  O2-  O204  1  0.17070114  0.21095646  0.26819227  1
  O2-  O205  1  0.16729773  0.20836682  0.59980167  1
  O2-  O206  1  0.17328317  0.21151058  0.93288891  1
  O2-  O207  1  0.17661808  0.69699722  0.26827364  1
  O2-  O208  1  0.17139269  0.70183328  0.60367863  1
  O2-  O209  1  0.16764924  0.70350679  0.93931964  1
  O2-  O210  1  0.66055877  0.20894677  0.26468440  1
  O2-  O211  1  0.66579597  0.20921030  0.59691492  1
  O2-  O212  1  0.66455498  0.19671066  0.94270921  1
  O2-  O213  1  0.66147944  0.70549404  0.26648745  1
  O2-  O214  1  0.66792272  0.71045291  0.59569291  1
  O2-  O215  1  0.66073468  0.70976634  0.94036745  1
  O2-  O216  1  0.08688422  0.45826684  0.07176408  1
  O2-  O217  1  0.07484816  0.45277696  0.40141941  1
  O2-  O218  1  0.08227869  0.46745664  0.73487844  1
  O2-  O219  1  0.08235381  0.94927191  0.05692729  1
  O2-  O220  1  0.07486349  0.95394445  0.39522678  1
  O2-  O221  1  0.07586742  0.94524748  0.73360560  1
  O2-  O222  1  0.58406274  0.45861057  0.06769243  1
  O2-  O223  1  0.58988616  0.45888414  0.39652824  1
  O2-  O224  1  0.58616725  0.46324654  0.72803045  1
  O2-  O225  1  0.58444720  0.96389278  0.07098847  1
  O2-  O226  1  0.58931925  0.95648612  0.39582159  1
  O2-  O227  1  0.58008818  0.94859370  0.73159746  1
  O2-  O228  1  0.21937024  0.33561173  0.06895184  1
  O2-  O229  1  0.21251616  0.33487440  0.40293271  1
  O2-  O230  1  0.20959598  0.33564779  0.73596147  1
  O2-  O231  1  0.21073882  0.83757361  0.06523959  1
  O2-  O232  1  0.20861117  0.83267695  0.39465777  1
  O2-  O233  1  0.21225741  0.82913764  0.73696518  1
  O2-  O234  1  0.69334091  0.33072054  0.06090237  1
  O2-  O235  1  0.70272442  0.33318427  0.39363687  1
  O2-  O236  1  0.69601281  0.33692272  0.72716478  1
  O2-  O237  1  0.70795128  0.83381299  0.07015430  1
  O2-  O238  1  0.70272866  0.83251745  0.39222571  1
  O2-  O239  1  0.71154485  0.82906421  0.73360966  1
  O2-  O240  1  0.46791510  0.40958437  0.26572228  1
  O2-  O241  1  0.46194012  0.41622158  0.59474327  1
  O2-  O242  1  0.45713973  0.41385849  0.93962227  1
  O2-  O243  1  0.46519795  0.91180466  0.26609946  1
  O2-  O244  1  0.45274070  0.91481987  0.60236806  1
  O2-  O245  1  0.46234528  0.91226811  0.93684493  1
  O2-  O246  1  0.94134209  0.41892606  0.27783545  1
  O2-  O247  1  0.95804237  0.42057733  0.59785225  1
  O2-  O248  1  0.95889355  0.42300779  0.93822025  1
  O2-  O249  1  0.94946045  0.92028646  0.26308037  1
  O2-  O250  1  0.94068604  0.91917417  0.61357319  1
  O2-  O251  1  0.95149323  0.91686182  0.92992544  1
  O2-  O252  1  0.33931159  0.29826988  0.26788784  1
  O2-  O253  1  0.32784897  0.29701444  0.59793586  1
  O2-  O254  1  0.34233576  0.28987435  0.93899052  1
  O2-  O255  1  0.34029387  0.79789907  0.26787780  1
  O2-  O256  1  0.33577663  0.79362995  0.60022131  1
  O2-  O257  1  0.33683652  0.79871695  0.93663459  1
  O2-  O258  1  0.83242068  0.29060600  0.26634008  1
  O2-  O259  1  0.82648465  0.30359859  0.60339499  1
  O2-  O260  1  0.82705876  0.30275660  0.93841365  1
  O2-  O261  1  0.83108050  0.78554680  0.26525770  1
  O2-  O262  1  0.83954407  0.78546698  0.60291018  1
  O2-  O263  1  0.83037799  0.78379574  0.93291378  1
  O2-  O264  1  0.40925608  0.03638356  0.06378081  1
  O2-  O265  1  0.41975299  0.03781968  0.39997947  1
  O2-  O266  1  0.41655060  0.04062637  0.73539427  1
  O2-  O267  1  0.41820908  0.54752696  0.06265193  1
  O2-  O268  1  0.42059442  0.53594271  0.40146314  1
  O2-  O269  1  0.41909995  0.54381562  0.72849005  1
  O2-  O270  1  0.91992949  0.04871767  0.05955360  1
  O2-  O271  1  0.91113648  0.04686818  0.39135752  1
  O2-  O272  1  0.91786953  0.04881774  0.73929361  1
  O2-  O273  1  0.91584491  0.54241720  0.07333869  1
  O2-  O274  1  0.91088600  0.54928550  0.39871757  1
  O2-  O275  1  0.91072346  0.54284262  0.72949427  1
  O2-  O276  1  0.29765996  0.16208407  0.06197300  1
  O2-  O277  1  0.30633789  0.17412488  0.39482769  1
  O2-  O278  1  0.29433873  0.17110648  0.73477989  1
  O2-  O279  1  0.30307210  0.67008007  0.05991201  1
  O2-  O280  1  0.31183516  0.67444276  0.39623478  1
  O2-  O281  1  0.30459639  0.66621665  0.72837241  1
  O2-  O282  1  0.79627956  0.16657334  0.06617454  1
  O2-  O283  1  0.78449772  0.16031540  0.39391863  1
  O2-  O284  1  0.78909474  0.17322914  0.73521074  1
  O2-  O285  1  0.78242357  0.66213168  0.07215224  1
  O2-  O286  1  0.78227919  0.65982332  0.39877267  1
  O2-  O287  1  0.78800646  0.65914663  0.72886309  1
