# generated using pymatgen
data_Ca2Al2SiO7
_symmetry_space_group_name_H-M   'P 1'
_cell_length_a   15.45797657
_cell_length_b   15.45705925
_cell_length_c   15.28349718
_cell_angle_alpha   89.99898432
_cell_angle_beta   89.98514528
_cell_angle_gamma   89.99328734
_symmetry_Int_Tables_number   1
_chemical_formula_structural   Ca2Al2SiO7
_chemical_formula_sum   'Ca48 Al48 Si24 O168'
_cell_volume   3651.76010698
_cell_formula_units_Z   24
loop_
 _symmetry_equiv_pos_site_id
 _symmetry_equiv_pos_as_xyz
  1  'x, y, z'
loop_
 _atom_type_symbol
 _atom_type_oxidation_number
  Ca2+  2.0
  Al0+  0.0
  Si0+  0.0
  O2-  -2.0
loop_
 _atom_site_type_symbol
 _atom_site_label
 _atom_site_symmetry_multiplicity
 _atom_site_fract_x
 _atom_site_fract_y
 _atom_site_fract_z
 _atom_site_occupancy
  Ca2+  Ca0  1  0.17073957  0.08846160  0.16259232  1
  Ca2+  Ca1  1  0.16672358  0.07958630  0.50492458  1
  Ca2+  Ca2  1  0.17198914  0.08390698  0.84250943  1
  Ca2+  Ca3  1  0.18151118  0.58747125  0.16940243  1
  Ca2+  Ca4  1  0.17804432  0.59024427  0.50694570  1
  Ca2+  Ca5  1  0.17622887  0.58971040  0.83533022  1
  Ca2+  Ca6  1  0.65427308  0.06955817  0.16598341  1
  Ca2+  Ca7  1  0.67084489  0.07482612  0.50631097  1
  Ca2+  Ca8  1  0.66971827  0.07839535  0.84010952  1
  Ca2+  Ca9  1  0.67542294  0.58260739  0.16839984  1
  Ca2+  Ca10  1  0.66708010  0.58256125  0.50463055  1
  Ca2+  Ca11  1  0.66417327  0.57416030  0.83762190  1
  Ca2+  Ca12  1  0.07768159  0.33149442  0.16209388  1
  Ca2+  Ca13  1  0.06800493  0.33909741  0.49774267  1
  Ca2+  Ca14  1  0.07786333  0.32824091  0.83005195  1
  Ca2+  Ca15  1  0.07245033  0.83143713  0.15787498  1
  Ca2+  Ca16  1  0.07812007  0.82772879  0.50561381  1
  Ca2+  Ca17  1  0.07177204  0.82781310  0.82714499  1
  Ca2+  Ca18  1  0.58013692  0.32695486  0.15544094  1
  Ca2+  Ca19  1  0.58143086  0.33943435  0.50313641  1
  Ca2+  Ca20  1  0.57810107  0.34016004  0.83070615  1
  Ca2+  Ca21  1  0.58575158  0.82873373  0.15963048  1
  Ca2+  Ca22  1  0.58511984  0.82114505  0.49692080  1
  Ca2+  Ca23  1  0.57541252  0.82816545  0.82978544  1
  Ca2+  Ca24  1  0.34042377  0.42753246  0.16631919  1
  Ca2+  Ca25  1  0.33686019  0.42777783  0.50791037  1
  Ca2+  Ca26  1  0.34200236  0.42674547  0.83786167  1
  Ca2+  Ca27  1  0.34314918  0.92409061  0.16404960  1
  Ca2+  Ca28  1  0.33373033  0.91487923  0.50727769  1
  Ca2+  Ca29  1  0.33753960  0.91789935  0.84213806  1
  Ca2+  Ca30  1  0.83132332  0.42396057  0.17043778  1
  Ca2+  Ca31  1  0.83040936  0.41789177  0.50833096  1
  Ca2+  Ca32  1  0.82220784  0.41928067  0.83949407  1
  Ca2+  Ca33  1  0.81966108  0.91108932  0.16781331  1
  Ca2+  Ca34  1  0.82986548  0.92046954  0.50701941  1
  Ca2+  Ca35  1  0.83257368  0.91630762  0.83948510  1
  Ca2+  Ca36  1  0.42051132  0.17365491  0.15085444  1
  Ca2+  Ca37  1  0.41619977  0.17583863  0.49908248  1
  Ca2+  Ca38  1  0.42172537  0.17585827  0.83468701  1
  Ca2+  Ca39  1  0.42181278  0.66682167  0.16091130  1
  Ca2+  Ca40  1  0.42799917  0.66021695  0.49958586  1
  Ca2+  Ca41  1  0.41646547  0.67288312  0.82380705  1
  Ca2+  Ca42  1  0.92225775  0.17184259  0.16113858  1
  Ca2+  Ca43  1  0.90491205  0.17880475  0.50086105  1
  Ca2+  Ca44  1  0.91952472  0.16670554  0.82605670  1
  Ca2+  Ca45  1  0.90999501  0.66770870  0.15868881  1
  Ca2+  Ca46  1  0.91824805  0.66512555  0.49606026  1
  Ca2+  Ca47  1  0.91458381  0.67480633  0.82838175  1
  Al0+  Al48  1  0.00011535  -0.00029461  -0.00641724  1
  Al0+  Al49  1  0.00107694  0.00060693  0.33360134  1
  Al0+  Al50  1  0.00116320  -0.00081536  0.66623658  1
  Al0+  Al51  1  0.00214487  0.50022179  0.00254388  1
  Al0+  Al52  1  0.00086282  0.50028649  0.33035841  1
  Al0+  Al53  1  0.00212872  0.49890220  0.66068129  1
  Al0+  Al54  1  0.49977558  0.00043610  -0.00028960  1
  Al0+  Al55  1  0.49896293  -0.00009181  0.34192096  1
  Al0+  Al56  1  0.50008509  0.00068264  0.66366428  1
  Al0+  Al57  1  0.50134834  0.49936764  0.00680326  1
  Al0+  Al58  1  0.50140989  0.50122165  0.33143464  1
  Al0+  Al59  1  0.49969111  0.49992857  0.66681553  1
  Al0+  Al60  1  0.24924019  0.25055121  -0.00349238  1
  Al0+  Al61  1  0.24883955  0.25041445  0.33447633  1
  Al0+  Al62  1  0.25073596  0.25028338  0.66173650  1
  Al0+  Al63  1  0.24870197  0.75084372  0.00312359  1
  Al0+  Al64  1  0.24985228  0.75249802  0.33706307  1
  Al0+  Al65  1  0.24818208  0.75241928  0.66485806  1
  Al0+  Al66  1  0.75068336  0.24847247  0.00193318  1
  Al0+  Al67  1  0.74910507  0.24946518  0.32615881  1
  Al0+  Al68  1  0.74998707  0.24818344  0.67206845  1
  Al0+  Al69  1  0.74948636  0.75054561  0.00074592  1
  Al0+  Al70  1  0.74860871  0.74876843  0.33814371  1
  Al0+  Al71  1  0.74881507  0.75071948  0.65994476  1
  Al0+  Al72  1  0.82042233  0.06892063  0.68061480  1
  Al0+  Al73  1  0.31879103  0.57045205  0.68062424  1
  Al0+  Al74  1  0.82138833  0.57056028  0.01229514  1
  Al0+  Al75  1  0.82168658  0.56922920  0.34850275  1
  Al0+  Al76  1  0.42960851  0.32075996  0.65207296  1
  Al0+  Al77  1  0.92707352  0.81873514  0.98757247  1
  Al0+  Al78  1  0.68016384  0.43029860  0.67967282  1
  Al0+  Al79  1  0.67857596  0.42615488  0.01729443  1
  Al0+  Al80  1  0.56982993  0.67756766  0.65268129  1
  Al0+  Al81  1  0.67826988  0.92872276  0.34934725  1
  Al0+  Al82  1  0.42827358  0.82316581  0.65147381  1
  Al0+  Al83  1  0.42866394  0.81967372  0.98916357  1
  Al0+  Al84  1  0.32081398  0.57286925  0.01352045  1
  Al0+  Al85  1  0.92753152  0.82189471  0.64993507  1
  Al0+  Al86  1  0.07035369  0.67822870  0.65171565  1
  Al0+  Al87  1  0.57125937  0.67957190  0.31629485  1
  Al0+  Al88  1  0.67941560  0.93082732  0.01138551  1
  Al0+  Al89  1  0.92789065  0.31905427  0.65572195  1
  Al0+  Al90  1  0.32178745  0.57098224  0.34877483  1
  Al0+  Al91  1  0.92809718  0.32179458  0.31764517  1
  Al0+  Al92  1  0.57296072  0.17722070  0.98482328  1
  Al0+  Al93  1  0.31965326  0.07083064  0.01163313  1
  Al0+  Al94  1  0.06983060  0.18000906  0.98600935  1
  Al0+  Al95  1  0.43016791  0.32341107  0.98530910  1
  Si0+  Si96  1  0.57195429  0.67801769  0.98461426  1
  Si0+  Si97  1  0.32204677  0.07322034  0.68198460  1
  Si0+  Si98  1  0.42706734  0.82340237  0.31653774  1
  Si0+  Si99  1  0.82312473  0.07185165  0.34810679  1
  Si0+  Si100  1  0.07284499  0.17764560  0.64857242  1
  Si0+  Si101  1  0.17883674  0.42720598  0.35074093  1
  Si0+  Si102  1  0.18016187  0.93063699  0.68353171  1
  Si0+  Si103  1  0.17621122  0.92873241  0.01699924  1
  Si0+  Si104  1  0.92978890  0.82088174  0.31869338  1
  Si0+  Si105  1  0.17661145  0.42577892  0.68298196  1
  Si0+  Si106  1  0.07324213  0.67707451  0.98524207  1
  Si0+  Si107  1  0.82496826  0.57315011  0.68113106  1
  Si0+  Si108  1  0.82576451  0.07145973  0.01729665  1
  Si0+  Si109  1  0.17794340  0.42720026  0.01667082  1
  Si0+  Si110  1  0.07311327  0.68027974  0.31695357  1
  Si0+  Si111  1  0.42836902  0.32044813  0.31841534  1
  Si0+  Si112  1  0.07301013  0.17714048  0.31622829  1
  Si0+  Si113  1  0.31991865  0.07219584  0.34963956  1
  Si0+  Si114  1  0.67942177  0.42549879  0.34996888  1
  Si0+  Si115  1  0.57259790  0.17791762  0.64904447  1
  Si0+  Si116  1  0.92813714  0.32400357  0.98326346  1
  Si0+  Si117  1  0.56865864  0.17689432  0.31938937  1
  Si0+  Si118  1  0.67693233  0.92638672  0.68427722  1
  Si0+  Si119  1  0.17655969  0.93004418  0.34976518  1
  O2-  O120  1  0.24638928  -0.00421947  0.06199182  1
  O2-  O121  1  0.24928033  0.00047512  0.39105012  1
  O2-  O122  1  0.25270942  0.00076885  0.72414364  1
  O2-  O123  1  0.24713527  0.49624026  0.06013984  1
  O2-  O124  1  0.24732307  0.49556610  0.39533339  1
  O2-  O125  1  0.24378371  0.49555807  0.72739172  1
  O2-  O126  1  0.75347763  0.00614024  0.06092500  1
  O2-  O127  1  0.75475238  0.00343224  0.39296832  1
  O2-  O128  1  0.74858574  -0.00786946  0.72786217  1
  O2-  O129  1  0.75275137  0.49702265  0.06543986  1
  O2-  O130  1  0.74968590  0.49197679  0.39478781  1
  O2-  O131  1  0.75570700  0.50526611  0.72496924  1
  O2-  O132  1  0.00388965  0.24603706  0.27384169  1
  O2-  O133  1  0.00325070  0.24565719  0.60542051  1
  O2-  O134  1  -0.00665268  0.25203815  0.93895038  1
  O2-  O135  1  -0.00134445  0.74805234  0.27515158  1
  O2-  O136  1  -0.00647231  0.74428002  0.59944864  1
  O2-  O137  1  0.00032566  0.74185399  0.94275979  1
  O2-  O138  1  0.49821338  0.24826024  0.27713104  1
  O2-  O139  1  0.50368325  0.24604320  0.60355894  1
  O2-  O140  1  0.50596466  0.25456401  0.93591731  1
  O2-  O141  1  0.49520325  0.75491252  0.27191668  1
  O2-  O142  1  0.49936582  0.75116273  0.60113158  1
  O2-  O143  1  0.49816313  0.74156715  0.94134843  1
  O2-  O144  1  0.06893818  0.18134883  0.09968036  1
  O2-  O145  1  0.07560225  0.17538460  0.42151264  1
  O2-  O146  1  0.07453540  0.17795662  0.75399639  1
  O2-  O147  1  0.07540075  0.68029806  0.09133246  1
  O2-  O148  1  0.07433800  0.68270877  0.42173232  1
  O2-  O149  1  0.07157567  0.68226697  0.76528080  1
  O2-  O150  1  0.56636961  0.17524704  0.09932931  1
  O2-  O151  1  0.56768841  0.17690587  0.42456728  1
  O2-  O152  1  0.57053895  0.17559988  0.75398269  1
  O2-  O153  1  0.57319336  0.68132246  0.09058094  1
  O2-  O154  1  0.57015305  0.67824084  0.42902099  1
  O2-  O155  1  0.56821534  0.67767099  0.76632740  1
  O2-  O156  1  0.18105650  0.42519336  0.24514405  1
  O2-  O157  1  0.17793704  0.42443548  0.57718289  1
  O2-  O158  1  0.17487703  0.42770147  0.91134442  1
  O2-  O159  1  0.17281906  0.93052854  0.24512386  1
  O2-  O160  1  0.17940367  0.93330459  0.57766023  1
  O2-  O161  1  0.17618300  0.92973974  0.91155849  1
  O2-  O162  1  0.68013785  0.42458196  0.24482904  1
  O2-  O163  1  0.68180589  0.42938632  0.56607289  1
  O2-  O164  1  0.67850099  0.42922272  0.90359448  1
  O2-  O165  1  0.67719898  0.93042122  0.23608905  1
  O2-  O166  1  0.67686935  0.93010236  0.57832636  1
  O2-  O167  1  0.68118929  0.93034575  0.89873298  1
  O2-  O168  1  0.42871644  0.32045366  0.09984526  1
  O2-  O169  1  0.42794920  0.31880927  0.42367810  1
  O2-  O170  1  0.42898548  0.32002660  0.76431922  1
  O2-  O171  1  0.43090094  0.81993421  0.10263695  1
  O2-  O172  1  0.42689829  0.82426111  0.42185301  1
  O2-  O173  1  0.42896218  0.82390167  0.76515660  1
  O2-  O174  1  0.93211129  0.32364708  0.08920723  1
  O2-  O175  1  0.92710261  0.31933697  0.43092936  1
  O2-  O176  1  0.93026804  0.31649757  0.76838065  1
  O2-  O177  1  0.92845537  0.81903761  0.10155008  1
  O2-  O178  1  0.93356228  0.82279250  0.42340893  1
  O2-  O179  1  0.93033272  0.82301861  0.76344429  1
  O2-  O180  1  0.32071066  0.07343056  0.24477712  1
  O2-  O181  1  0.31880937  0.07376082  0.57605614  1
  O2-  O182  1  0.31807990  0.06959176  0.89870036  1
  O2-  O183  1  0.32003669  0.57090143  0.23548583  1
  O2-  O184  1  0.31864875  0.56803165  0.56723141  1
  O2-  O185  1  0.31840207  0.57500434  0.90075413  1
  O2-  O186  1  0.82624304  0.06983794  0.24280216  1
  O2-  O187  1  0.81687632  0.06997433  0.56675227  1
  O2-  O188  1  0.82818147  0.06843783  0.91176628  1
  O2-  O189  1  0.82103703  0.56992276  0.23558836  1
  O2-  O190  1  0.82477247  0.56980667  0.57523931  1
  O2-  O191  1  0.82116060  0.57064371  0.89872463  1
  O2-  O192  1  0.04762807  0.08357950  0.26930176  1
  O2-  O193  1  0.04820566  0.08387701  0.60286785  1
  O2-  O194  1  0.04299426  0.08336732  0.93026741  1
  O2-  O195  1  0.05107924  0.58685679  0.27073337  1
  O2-  O196  1  0.05195844  0.57830365  0.59721900  1
  O2-  O197  1  0.05447241  0.58164893  0.94098259  1
  O2-  O198  1  0.53766530  0.08491658  0.27400504  1
  O2-  O199  1  0.54612090  0.08531319  0.60061384  1
  O2-  O200  1  0.53868158  0.08195966  0.93022704  1
  O2-  O201  1  0.54042564  0.58263351  0.26236944  1
  O2-  O202  1  0.53893352  0.58111792  0.59705013  1
  O2-  O203  1  0.55074556  0.58214164  0.94357092  1
  O2-  O204  1  0.16665548  0.20400478  0.26959410  1
  O2-  O205  1  0.16573562  0.20260616  0.60029770  1
  O2-  O206  1  0.16502160  0.21089939  0.93004591  1
  O2-  O207  1  0.16357491  0.71363296  0.26939048  1
  O2-  O208  1  0.16483753  0.71610072  0.59608217  1
  O2-  O209  1  0.16414519  0.70831807  0.93757790  1
  O2-  O210  1  0.66045094  0.20086176  0.27064634  1
  O2-  O211  1  0.66576900  0.20464893  0.60336560  1
  O2-  O212  1  0.67518405  0.19622549  0.93636504  1
  O2-  O213  1  0.66853241  0.71245729  0.26454507  1
  O2-  O214  1  0.66802995  0.70344691  0.59734049  1
  O2-  O215  1  0.66279347  0.70858710  0.93714757  1
  O2-  O216  1  0.08551792  0.45267092  0.06618721  1
  O2-  O217  1  0.08475406  0.45358568  0.39477069  1
  O2-  O218  1  0.08201995  0.44890455  0.72838278  1
  O2-  O219  1  0.08348553  0.95806644  0.06370446  1
  O2-  O220  1  0.08671733  0.96082766  0.40048075  1
  O2-  O221  1  0.08909574  0.95985027  0.73120099  1
  O2-  O222  1  0.58146282  0.45400437  0.07297942  1
  O2-  O223  1  0.58567452  0.45355855  0.39447544  1
  O2-  O224  1  0.58412269  0.46174713  0.73367846  1
  O2-  O225  1  0.58388854  0.96185002  0.06809995  1
  O2-  O226  1  0.58321509  0.96110891  0.40603631  1
  O2-  O227  1  0.58352296  0.95597214  0.72861075  1
  O2-  O228  1  0.20319732  0.33385157  0.06337858  1
  O2-  O229  1  0.20219987  0.33295341  0.39768318  1
  O2-  O230  1  0.20313719  0.33142478  0.72739579  1
  O2-  O231  1  0.19860075  0.83530957  0.06469464  1
  O2-  O232  1  0.20415453  0.83923398  0.39907172  1
  O2-  O233  1  0.20553503  0.83905336  0.73126073  1
  O2-  O234  1  0.70438434  0.32620910  0.06976050  1
  O2-  O235  1  0.70218817  0.32992374  0.39423645  1
  O2-  O236  1  0.70930277  0.33388061  0.73423346  1
  O2-  O237  1  0.71187170  0.83560003  0.06764600  1
  O2-  O238  1  0.71010340  0.83361330  0.40390368  1
  O2-  O239  1  0.69877745  0.83081467  0.72707413  1
  O2-  O240  1  0.45671138  0.41188240  0.27164797  1
  O2-  O241  1  0.46240524  0.41555042  0.59678769  1
  O2-  O242  1  0.45735431  0.42319331  0.93476661  1
  O2-  O243  1  0.45302148  0.91919216  0.27427626  1
  O2-  O244  1  0.45406885  0.92249647  0.59741975  1
  O2-  O245  1  0.46021306  0.91515886  0.93501767  1
  O2-  O246  1  0.96195528  0.41717515  0.26274841  1
  O2-  O247  1  0.95771496  0.41442740  0.59837853  1
  O2-  O248  1  0.95752671  0.41648583  0.93737311  1
  O2-  O249  1  0.96045908  0.91244068  0.27162752  1
  O2-  O250  1  0.96464900  0.91787448  0.59590664  1
  O2-  O251  1  0.96017283  0.91356085  0.93241325  1
  O2-  O252  1  0.33563965  0.29268870  0.27286050  1
  O2-  O253  1  0.33399060  0.28892399  0.59496215  1
  O2-  O254  1  0.33251852  0.29335353  0.93301632  1
  O2-  O255  1  0.33156512  0.80121944  0.27247183  1
  O2-  O256  1  0.32854489  0.79895298  0.60012498  1
  O2-  O257  1  0.32929028  0.79508393  0.93763111  1
  O2-  O258  1  0.83274416  0.29045074  0.26150090  1
  O2-  O259  1  0.83238349  0.28494552  0.60072143  1
  O2-  O260  1  0.83289439  0.30170079  0.94092694  1
  O2-  O261  1  0.83667183  0.79412423  0.27457335  1
  O2-  O262  1  0.82783149  0.80198183  0.59720833  1
  O2-  O263  1  0.83154501  0.78937308  0.93168673  1
  O2-  O264  1  0.41464982  0.03916026  0.06842293  1
  O2-  O265  1  0.41026587  0.04595057  0.40058775  1
  O2-  O266  1  0.41536858  0.04805894  0.72661458  1
  O2-  O267  1  0.41643227  0.54300443  0.06975581  1
  O2-  O268  1  0.41857051  0.53772729  0.40065114  1
  O2-  O269  1  0.41466273  0.53827381  0.73354840  1
  O2-  O270  1  0.91847581  0.04251478  0.06394083  1
  O2-  O271  1  0.91701881  0.04772344  0.39518510  1
  O2-  O272  1  0.91940518  0.04168730  0.73193535  1
  O2-  O273  1  0.92176034  0.54716004  0.06567488  1
  O2-  O274  1  0.92110796  0.54205263  0.39934401  1
  O2-  O275  1  0.91971676  0.54831941  0.72483818  1
  O2-  O276  1  0.28626521  0.16666757  0.06681350  1
  O2-  O277  1  0.29047245  0.16352848  0.39831370  1
  O2-  O278  1  0.29212319  0.16483522  0.72789850  1
  O2-  O279  1  0.28697634  0.66769004  0.07096811  1
  O2-  O280  1  0.28970852  0.66829783  0.40076186  1
  O2-  O281  1  0.28668291  0.66828019  0.73165489  1
  O2-  O282  1  0.80619302  0.16672209  0.06196979  1
  O2-  O283  1  0.79415107  0.16584228  0.39199199  1
  O2-  O284  1  0.78950159  0.16346250  0.73743666  1
  O2-  O285  1  0.79026313  0.66772290  0.06698472  1
  O2-  O286  1  0.79093563  0.66520076  0.40284127  1
  O2-  O287  1  0.80057550  0.66889341  0.72299360  1
