# generated using pymatgen
data_Ca2Al2SiO7
_symmetry_space_group_name_H-M   'P 1'
_cell_length_a   15.46624225
_cell_length_b   15.46885321
_cell_length_c   15.29163677
_cell_angle_alpha   90.00905497
_cell_angle_beta   89.99373864
_cell_angle_gamma   90.00753840
_symmetry_Int_Tables_number   1
_chemical_formula_structural   Ca2Al2SiO7
_chemical_formula_sum   'Ca48 Al48 Si24 O168'
_cell_volume   3658.44801622
_cell_formula_units_Z   24
loop_
 _symmetry_equiv_pos_site_id
 _symmetry_equiv_pos_as_xyz
  1  'x, y, z'
loop_
 _atom_type_symbol
 _atom_type_oxidation_number
  Ca2+  2.0
  Al0+  0.0
  Si0+  0.0
  O2-  -2.0
loop_
 _atom_site_type_symbol
 _atom_site_label
 _atom_site_symmetry_multiplicity
 _atom_site_fract_x
 _atom_site_fract_y
 _atom_site_fract_z
 _atom_site_occupancy
  Ca2+  Ca0  1  0.16580040  0.06887529  0.16856413  1
  Ca2+  Ca1  1  0.17597097  0.07007574  0.50845426  1
  Ca2+  Ca2  1  0.17677720  0.07218761  0.83869185  1
  Ca2+  Ca3  1  0.16107787  0.57858317  0.17139526  1
  Ca2+  Ca4  1  0.16396530  0.57659522  0.50083941  1
  Ca2+  Ca5  1  0.16169811  0.58472000  0.83889114  1
  Ca2+  Ca6  1  0.67344176  0.07414911  0.16585595  1
  Ca2+  Ca7  1  0.67220708  0.08111573  0.50370428  1
  Ca2+  Ca8  1  0.67095782  0.08033213  0.84084878  1
  Ca2+  Ca9  1  0.67713336  0.59470561  0.16948936  1
  Ca2+  Ca10  1  0.66995533  0.59006033  0.49765700  1
  Ca2+  Ca11  1  0.67282817  0.58242744  0.84479822  1
  Ca2+  Ca12  1  0.07947153  0.33020820  0.15909176  1
  Ca2+  Ca13  1  0.07984668  0.33092032  0.49568491  1
  Ca2+  Ca14  1  0.07056566  0.32839855  0.83028025  1
  Ca2+  Ca15  1  0.07837898  0.83232047  0.15725481  1
  Ca2+  Ca16  1  0.07919759  0.84510074  0.49934553  1
  Ca2+  Ca17  1  0.07635252  0.84173508  0.83263667  1
  Ca2+  Ca18  1  0.58369253  0.32372953  0.15844785  1
  Ca2+  Ca19  1  0.58405658  0.32484552  0.49923432  1
  Ca2+  Ca20  1  0.58616270  0.31671367  0.82943657  1
  Ca2+  Ca21  1  0.58903744  0.83112275  0.16285489  1
  Ca2+  Ca22  1  0.57071834  0.83742922  0.49045957  1
  Ca2+  Ca23  1  0.58293089  0.83415790  0.83195823  1
  Ca2+  Ca24  1  0.32574601  0.41914481  0.17336005  1
  Ca2+  Ca25  1  0.32726470  0.41649006  0.50123348  1
  Ca2+  Ca26  1  0.33298374  0.42095364  0.83832870  1
  Ca2+  Ca27  1  0.32469993  0.91331277  0.16815280  1
  Ca2+  Ca28  1  0.32657729  0.90930292  0.50775656  1
  Ca2+  Ca29  1  0.32766628  0.91859865  0.83686521  1
  Ca2+  Ca30  1  0.84002742  0.43030208  0.16721690  1
  Ca2+  Ca31  1  0.83593260  0.42384735  0.50297266  1
  Ca2+  Ca32  1  0.83887867  0.41983784  0.83996870  1
  Ca2+  Ca33  1  0.82353401  0.91699063  0.17075577  1
  Ca2+  Ca34  1  0.82860270  0.92585012  0.50617498  1
  Ca2+  Ca35  1  0.83352506  0.92511779  0.84313125  1
  Ca2+  Ca36  1  0.42082619  0.16296227  0.15738154  1
  Ca2+  Ca37  1  0.42276553  0.15558060  0.50122989  1
  Ca2+  Ca38  1  0.42752490  0.14819527  0.83181096  1
  Ca2+  Ca39  1  0.42922746  0.67338228  0.16391410  1
  Ca2+  Ca40  1  0.42235636  0.67942762  0.49125853  1
  Ca2+  Ca41  1  0.42403033  0.67454981  0.82881663  1
  Ca2+  Ca42  1  0.90603958  0.17194411  0.15964289  1
  Ca2+  Ca43  1  0.90843354  0.16849111  0.49793332  1
  Ca2+  Ca44  1  0.90343302  0.17497032  0.82706637  1
  Ca2+  Ca45  1  0.91814329  0.67142070  0.15513684  1
  Ca2+  Ca46  1  0.91423606  0.67530678  0.49746491  1
  Ca2+  Ca47  1  0.91638351  0.68240826  0.83743971  1
  Al0+  Al48  1  0.00234751  0.00387769  0.00373022  1
  Al0+  Al49  1  0.00223593  0.00289228  0.33959798  1
  Al0+  Al50  1  -0.00003531  0.00209748  0.66947110  1
  Al0+  Al51  1  -0.00030139  0.49927947  -0.00440556  1
  Al0+  Al52  1  -0.00158583  0.49984879  0.34269153  1
  Al0+  Al53  1  -0.00088374  0.49913221  0.66318689  1
  Al0+  Al54  1  0.50019832  -0.00057252  0.00395632  1
  Al0+  Al55  1  0.49948103  0.00143650  0.32845781  1
  Al0+  Al56  1  0.50132880  -0.00290607  0.65907422  1
  Al0+  Al57  1  0.49947243  0.49998346  -0.00289198  1
  Al0+  Al58  1  0.50029252  0.49959080  0.32970551  1
  Al0+  Al59  1  0.50021961  0.49688308  0.66654607  1
  Al0+  Al60  1  0.24950967  0.25206150  0.00148974  1
  Al0+  Al61  1  0.24766403  0.24991426  0.33723456  1
  Al0+  Al62  1  0.25028674  0.25053793  0.67200449  1
  Al0+  Al63  1  0.25152463  0.74726973  0.00111874  1
  Al0+  Al64  1  0.25003689  0.74855842  0.33360434  1
  Al0+  Al65  1  0.25010289  0.74578604  0.66712678  1
  Al0+  Al66  1  0.74672785  0.25121306  -0.00498444  1
  Al0+  Al67  1  0.74968150  0.25369987  0.33372725  1
  Al0+  Al68  1  0.74817411  0.25216240  0.65890397  1
  Al0+  Al69  1  0.75153129  0.74907671  -0.00198026  1
  Al0+  Al70  1  0.75021652  0.75155674  0.34093622  1
  Al0+  Al71  1  0.75354330  0.74842937  0.66306107  1
  Al0+  Al72  1  0.18072052  0.92688750  0.34800560  1
  Al0+  Al73  1  0.57299895  0.68001538  0.31774784  1
  Al0+  Al74  1  0.92984760  0.82501463  0.98834715  1
  Al0+  Al75  1  0.68066803  0.92734902  0.01304639  1
  Al0+  Al76  1  0.43022528  0.81784745  0.65404857  1
  Al0+  Al77  1  0.82041973  0.07342125  0.34872015  1
  Al0+  Al78  1  0.17854786  0.92571411  0.68336367  1
  Al0+  Al79  1  0.57257973  0.67902641  0.98555449  1
  Al0+  Al80  1  0.17871156  0.42867022  0.34737763  1
  Al0+  Al81  1  0.56883373  0.17874706  0.65130293  1
  Al0+  Al82  1  0.93054495  0.82360104  0.65175236  1
  Al0+  Al83  1  0.67764083  0.92954553  0.35019663  1
  Al0+  Al84  1  0.92958911  0.31831096  0.98769515  1
  Al0+  Al85  1  0.92969933  0.32029200  0.64942482  1
  Al0+  Al86  1  0.32432498  0.06975830  0.68111949  1
  Al0+  Al87  1  0.32137831  0.07099559  0.01586490  1
  Al0+  Al88  1  0.42647607  0.82305374  0.31508937  1
  Al0+  Al89  1  0.81813773  0.07247301  0.68026532  1
  Al0+  Al90  1  0.81987282  0.57158229  0.34856576  1
  Al0+  Al91  1  0.07250107  0.67844792  0.98717952  1
  Al0+  Al92  1  0.82062764  0.56862672  0.01118168  1
  Al0+  Al93  1  0.17863799  0.92664707  0.01605922  1
  Al0+  Al94  1  0.56796781  0.17840558  0.98683259  1
  Al0+  Al95  1  0.82165616  0.07525534  0.01261556  1
  Si0+  Si96  1  0.57169900  0.18114652  0.31622230  1
  Si0+  Si97  1  0.32117534  0.07306703  0.34871176  1
  Si0+  Si98  1  0.32317147  0.57018030  0.35000815  1
  Si0+  Si99  1  0.67586977  0.42759047  0.35016214  1
  Si0+  Si100  1  0.42536393  0.32279290  0.98331648  1
  Si0+  Si101  1  0.07458023  0.17936032  0.64937214  1
  Si0+  Si102  1  0.17716468  0.42939575  0.68400288  1
  Si0+  Si103  1  0.32158532  0.56836001  0.68179053  1
  Si0+  Si104  1  0.67863590  0.42992978  0.68153688  1
  Si0+  Si105  1  0.06875220  0.67652674  0.32119218  1
  Si0+  Si106  1  0.92943023  0.32244621  0.31757276  1
  Si0+  Si107  1  0.93147687  0.82296333  0.32113711  1
  Si0+  Si108  1  0.42604988  0.32021002  0.31897737  1
  Si0+  Si109  1  0.57332505  0.67425439  0.65059304  1
  Si0+  Si110  1  0.07109280  0.18052837  0.31843218  1
  Si0+  Si111  1  0.17914513  0.43162009  0.01366210  1
  Si0+  Si112  1  0.07133138  0.67694846  0.64836025  1
  Si0+  Si113  1  0.32453859  0.57074997  0.01594136  1
  Si0+  Si114  1  0.82155928  0.57070877  0.68382276  1
  Si0+  Si115  1  0.67577119  0.42844607  0.01548425  1
  Si0+  Si116  1  0.42639718  0.32456166  0.64918526  1
  Si0+  Si117  1  0.07578726  0.17867342  0.98301394  1
  Si0+  Si118  1  0.67927907  0.92594111  0.68173880  1
  Si0+  Si119  1  0.42835994  0.82084668  0.98311988  1
  O2-  O120  1  0.24966058  -0.00032627  0.06660723  1
  O2-  O121  1  0.26026194  -0.00234526  0.39258754  1
  O2-  O122  1  0.25222693  -0.00221650  0.73025981  1
  O2-  O123  1  0.25029774  0.50193921  0.05679428  1
  O2-  O124  1  0.25390526  0.50219955  0.39522727  1
  O2-  O125  1  0.24963078  0.49886888  0.72586498  1
  O2-  O126  1  0.75629604  -0.00294675  0.06185301  1
  O2-  O127  1  0.74929082  0.00186125  0.40021748  1
  O2-  O128  1  0.74825108  -0.00640346  0.72654787  1
  O2-  O129  1  0.74336521  0.49749876  0.06012197  1
  O2-  O130  1  0.74131552  0.49957362  0.39393954  1
  O2-  O131  1  0.74681721  0.50293871  0.72436034  1
  O2-  O132  1  -0.00329122  0.24833107  0.27547801  1
  O2-  O133  1  0.00329591  0.24473558  0.60269934  1
  O2-  O134  1  -0.00120326  0.23903998  0.93978957  1
  O2-  O135  1  0.00187394  0.75078545  0.27910642  1
  O2-  O136  1  0.00805873  0.75055601  0.60456152  1
  O2-  O137  1  0.00658103  0.75646158  0.93863521  1
  O2-  O138  1  0.49688738  0.25006021  0.27576875  1
  O2-  O139  1  0.48957887  0.25082784  0.60559252  1
  O2-  O140  1  0.49029167  0.25092627  0.93977504  1
  O2-  O141  1  0.50363352  0.75453890  0.26745356  1
  O2-  O142  1  0.50713825  0.74497417  0.60735467  1
  O2-  O143  1  0.49949757  0.75443424  0.93859063  1
  O2-  O144  1  0.08151329  0.18520528  0.08861245  1
  O2-  O145  1  0.07337140  0.18414900  0.42325646  1
  O2-  O146  1  0.07660148  0.18473234  0.75461710  1
  O2-  O147  1  0.06893573  0.67369726  0.10119471  1
  O2-  O148  1  0.06649965  0.67344411  0.42621908  1
  O2-  O149  1  0.06845073  0.67163392  0.75335913  1
  O2-  O150  1  0.56771679  0.18313102  0.10016209  1
  O2-  O151  1  0.57163813  0.18344506  0.42143606  1
  O2-  O152  1  0.56963397  0.18095631  0.76400586  1
  O2-  O153  1  0.57046417  0.67671365  0.09805264  1
  O2-  O154  1  0.56783849  0.67732642  0.43165231  1
  O2-  O155  1  0.57136673  0.67133188  0.75615332  1
  O2-  O156  1  0.17886089  0.43016830  0.23410838  1
  O2-  O157  1  0.17755163  0.43056223  0.57877985  1
  O2-  O158  1  0.18024492  0.43231091  0.90844872  1
  O2-  O159  1  0.17676805  0.92801148  0.23547920  1
  O2-  O160  1  0.18150406  0.92710229  0.56940061  1
  O2-  O161  1  0.18120186  0.92657102  0.90285209  1
  O2-  O162  1  0.67759230  0.42234461  0.24506333  1
  O2-  O163  1  0.67777724  0.43131062  0.57632988  1
  O2-  O164  1  0.67587330  0.42931054  0.90964022  1
  O2-  O165  1  0.68106541  0.92901262  0.23684202  1
  O2-  O166  1  0.67958736  0.92773826  0.57624230  1
  O2-  O167  1  0.67864039  0.92910784  0.89915787  1
  O2-  O168  1  0.42564021  0.32542094  0.08924744  1
  O2-  O169  1  0.42588060  0.32012888  0.42401683  1
  O2-  O170  1  0.43033454  0.33397910  0.75387009  1
  O2-  O171  1  0.42630832  0.81733250  0.08837850  1
  O2-  O172  1  0.42504831  0.81863458  0.42904347  1
  O2-  O173  1  0.43110916  0.81528653  0.76710762  1
  O2-  O174  1  0.93357247  0.32223368  0.10113287  1
  O2-  O175  1  0.93097885  0.32322442  0.42262434  1
  O2-  O176  1  0.93093749  0.32279902  0.76243838  1
  O2-  O177  1  0.92812643  0.81998748  0.10249308  1
  O2-  O178  1  0.93376153  0.82166822  0.42642560  1
  O2-  O179  1  0.92665996  0.82097403  0.76425890  1
  O2-  O180  1  0.31570629  0.07896486  0.24370909  1
  O2-  O181  1  0.32188852  0.06970458  0.56720883  1
  O2-  O182  1  0.32082742  0.06893632  0.90253791  1
  O2-  O183  1  0.32255191  0.56703504  0.24443694  1
  O2-  O184  1  0.32150083  0.56515488  0.57685531  1
  O2-  O185  1  0.32706538  0.56759109  0.91059949  1
  O2-  O186  1  0.81826594  0.07547458  0.23558095  1
  O2-  O187  1  0.81493852  0.07257524  0.56720524  1
  O2-  O188  1  0.81552859  0.07746626  0.89909128  1
  O2-  O189  1  0.82490789  0.56867146  0.23576828  1
  O2-  O190  1  0.82149692  0.56999280  0.57849948  1
  O2-  O191  1  0.82009345  0.56625580  0.89796964  1
  O2-  O192  1  0.04640784  0.08755425  0.27236376  1
  O2-  O193  1  0.05220623  0.08462516  0.60558141  1
  O2-  O194  1  0.06099746  0.08220457  0.94118550  1
  O2-  O195  1  0.03771301  0.58491578  0.27458417  1
  O2-  O196  1  0.04003351  0.58548885  0.59980473  1
  O2-  O197  1  0.03948266  0.58290282  0.93059208  1
  O2-  O198  1  0.54759223  0.08925041  0.26870641  1
  O2-  O199  1  0.54155567  0.08295262  0.59401485  1
  O2-  O200  1  0.53903026  0.08120980  0.93319311  1
  O2-  O201  1  0.54472751  0.58032790  0.26546856  1
  O2-  O202  1  0.54502332  0.58123592  0.60426320  1
  O2-  O203  1  0.53951243  0.58242073  0.93114118  1
  O2-  O204  1  0.16098509  0.21354500  0.27004193  1
  O2-  O205  1  0.16736337  0.20969743  0.60279575  1
  O2-  O206  1  0.16486964  0.21469729  0.93343106  1
  O2-  O207  1  0.16306685  0.69703861  0.27622722  1
  O2-  O208  1  0.16772412  0.69352281  0.60452316  1
  O2-  O209  1  0.17440058  0.69593274  0.93636098  1
  O2-  O210  1  0.66160132  0.21541706  0.26932497  1
  O2-  O211  1  0.66079999  0.21790122  0.59365992  1
  O2-  O212  1  0.66129461  0.21379319  0.92936018  1
  O2-  O213  1  0.67416377  0.70638196  0.26939777  1
  O2-  O214  1  0.66852130  0.69578411  0.60674159  1
  O2-  O215  1  0.66883626  0.70628872  0.93012903  1
  O2-  O216  1  0.08824644  0.46019667  0.06172124  1
  O2-  O217  1  0.08493703  0.46093813  0.40542664  1
  O2-  O218  1  0.08573483  0.46046388  0.73013976  1
  O2-  O219  1  0.08086409  0.95565261  0.07062573  1
  O2-  O220  1  0.08729367  0.96418625  0.40416346  1
  O2-  O221  1  0.08087041  0.95703524  0.73489720  1
  O2-  O222  1  0.58118701  0.45112304  0.06098562  1
  O2-  O223  1  0.58044656  0.44864178  0.39519229  1
  O2-  O224  1  0.58573060  0.45304234  0.72944240  1
  O2-  O225  1  0.58367467  0.95700775  0.06738464  1
  O2-  O226  1  0.57742605  0.95960026  0.39905558  1
  O2-  O227  1  0.58513713  0.95170590  0.72510084  1
  O2-  O228  1  0.20622159  0.34066067  0.06294560  1
  O2-  O229  1  0.21064702  0.33386028  0.40439653  1
  O2-  O230  1  0.20279302  0.33814009  0.73259493  1
  O2-  O231  1  0.20717659  0.82705093  0.06766118  1
  O2-  O232  1  0.20538488  0.82812421  0.40113160  1
  O2-  O233  1  0.20412509  0.82494336  0.73266594  1
  O2-  O234  1  0.70226745  0.33560202  0.06119710  1
  O2-  O235  1  0.70643301  0.33727366  0.40023195  1
  O2-  O236  1  0.70971386  0.33905021  0.72760963  1
  O2-  O237  1  0.70778419  0.82882725  0.06606873  1
  O2-  O238  1  0.70361777  0.83200272  0.40523438  1
  O2-  O239  1  0.70296549  0.83035486  0.72485427  1
  O2-  O240  1  0.45130460  0.41231028  0.27070786  1
  O2-  O241  1  0.45750713  0.41493654  0.59798993  1
  O2-  O242  1  0.45338015  0.41487353  0.93522684  1
  O2-  O243  1  0.44771769  0.92390924  0.26463082  1
  O2-  O244  1  0.45849354  0.91265168  0.59587918  1
  O2-  O245  1  0.45267432  0.91513298  0.93950567  1
  O2-  O246  1  0.96248765  0.41386392  0.27271726  1
  O2-  O247  1  0.96381976  0.41608861  0.59479223  1
  O2-  O248  1  0.96638088  0.41159828  0.93077851  1
  O2-  O249  1  0.95999190  0.91515259  0.27588068  1
  O2-  O250  1  0.95921749  0.92122527  0.59822577  1
  O2-  O251  1  0.95434629  0.92537556  0.93700638  1
  O2-  O252  1  0.33344665  0.29325492  0.27208137  1
  O2-  O253  1  0.32966762  0.30489868  0.60729845  1
  O2-  O254  1  0.33016897  0.30361578  0.93776793  1
  O2-  O255  1  0.32930771  0.78758379  0.26288562  1
  O2-  O256  1  0.33431053  0.78253624  0.60037860  1
  O2-  O257  1  0.33668591  0.79030516  0.93613804  1
  O2-  O258  1  0.83592783  0.29982090  0.27124563  1
  O2-  O259  1  0.83291368  0.29367712  0.59419531  1
  O2-  O260  1  0.83150714  0.29535305  0.93279345  1
  O2-  O261  1  0.83858796  0.79461938  0.27797253  1
  O2-  O262  1  0.83566440  0.78775953  0.59553170  1
  O2-  O263  1  0.83496867  0.79030384  0.93222792  1
  O2-  O264  1  0.41895511  0.04375456  0.06989968  1
  O2-  O265  1  0.41837659  0.05604873  0.38923122  1
  O2-  O266  1  0.42343197  0.03871942  0.73037321  1
  O2-  O267  1  0.41398510  0.53833606  0.06534552  1
  O2-  O268  1  0.41593156  0.54217406  0.39645223  1
  O2-  O269  1  0.41300073  0.53849729  0.72972186  1
  O2-  O270  1  0.92422227  0.06157940  0.06161528  1
  O2-  O271  1  0.91964765  0.04841183  0.40135838  1
  O2-  O272  1  0.91757396  0.05035987  0.73120600  1
  O2-  O273  1  0.91613119  0.53352444  0.06531857  1
  O2-  O274  1  0.91258410  0.53569167  0.40726224  1
  O2-  O275  1  0.91230982  0.53694432  0.72850327  1
  O2-  O276  1  0.29624263  0.17262688  0.06543190  1
  O2-  O277  1  0.29005323  0.16354345  0.39860628  1
  O2-  O278  1  0.30073926  0.17068357  0.73252835  1
  O2-  O279  1  0.30040412  0.66213077  0.06414481  1
  O2-  O280  1  0.29622182  0.66260169  0.39671872  1
  O2-  O281  1  0.29509074  0.65889379  0.73108832  1
  O2-  O282  1  0.78536174  0.17181252  0.06587565  1
  O2-  O283  1  0.79160396  0.17342839  0.39954900  1
  O2-  O284  1  0.78368813  0.17047800  0.72931068  1
  O2-  O285  1  0.79224318  0.66497989  0.06526194  1
  O2-  O286  1  0.79173811  0.66683478  0.40625468  1
  O2-  O287  1  0.79692629  0.66375965  0.72974925  1
