# generated using pymatgen
data_Ca2Al2SiO7
_symmetry_space_group_name_H-M   'P 1'
_cell_length_a   15.45677642
_cell_length_b   15.45676588
_cell_length_c   15.28280793
_cell_angle_alpha   90.00127555
_cell_angle_beta   90.00098161
_cell_angle_gamma   90.00913378
_symmetry_Int_Tables_number   1
_chemical_formula_structural   Ca2Al2SiO7
_chemical_formula_sum   'Ca48 Al48 Si24 O168'
_cell_volume   3651.24271331
_cell_formula_units_Z   24
loop_
 _symmetry_equiv_pos_site_id
 _symmetry_equiv_pos_as_xyz
  1  'x, y, z'
loop_
 _atom_type_symbol
 _atom_type_oxidation_number
  Ca2+  2.0
  Al0+  0.0
  Si0+  0.0
  O2-  -2.0
loop_
 _atom_site_type_symbol
 _atom_site_label
 _atom_site_symmetry_multiplicity
 _atom_site_fract_x
 _atom_site_fract_y
 _atom_site_fract_z
 _atom_site_occupancy
  Ca2+  Ca0  1  0.16857280  0.07498753  0.17314593  1
  Ca2+  Ca1  1  0.17312441  0.07538566  0.50271634  1
  Ca2+  Ca2  1  0.17174321  0.08398955  0.83391198  1
  Ca2+  Ca3  1  0.16485063  0.58629762  0.16659497  1
  Ca2+  Ca4  1  0.17138989  0.58455015  0.50681238  1
  Ca2+  Ca5  1  0.17452001  0.57792462  0.84254033  1
  Ca2+  Ca6  1  0.67738711  0.07825683  0.17405514  1
  Ca2+  Ca7  1  0.67439531  0.07095910  0.50773439  1
  Ca2+  Ca8  1  0.67198458  0.08008190  0.83271274  1
  Ca2+  Ca9  1  0.66537945  0.58322040  0.16937499  1
  Ca2+  Ca10  1  0.65719521  0.57352279  0.50204488  1
  Ca2+  Ca11  1  0.67095464  0.58071983  0.84001785  1
  Ca2+  Ca12  1  0.07705706  0.33221811  0.15536454  1
  Ca2+  Ca13  1  0.08481821  0.33210219  0.49846673  1
  Ca2+  Ca14  1  0.07908094  0.34314602  0.83304746  1
  Ca2+  Ca15  1  0.08176224  0.82534364  0.16704839  1
  Ca2+  Ca16  1  0.07402263  0.83393285  0.48998029  1
  Ca2+  Ca17  1  0.07589388  0.82641567  0.82840151  1
  Ca2+  Ca18  1  0.57959940  0.33652668  0.16140596  1
  Ca2+  Ca19  1  0.59303950  0.32793381  0.49840559  1
  Ca2+  Ca20  1  0.57962716  0.33003043  0.82652726  1
  Ca2+  Ca21  1  0.58555514  0.82673640  0.16695078  1
  Ca2+  Ca22  1  0.58100022  0.83203296  0.49046692  1
  Ca2+  Ca23  1  0.58952286  0.82670095  0.82897910  1
  Ca2+  Ca24  1  0.33401116  0.42172095  0.16358473  1
  Ca2+  Ca25  1  0.32562547  0.42734085  0.51176073  1
  Ca2+  Ca26  1  0.32550197  0.42365165  0.84052004  1
  Ca2+  Ca27  1  0.32760080  0.90875473  0.17342244  1
  Ca2+  Ca28  1  0.32891656  0.91237857  0.50226832  1
  Ca2+  Ca29  1  0.33780028  0.92491314  0.83347935  1
  Ca2+  Ca30  1  0.83327368  0.42394391  0.16809414  1
  Ca2+  Ca31  1  0.82155745  0.41998500  0.50310359  1
  Ca2+  Ca32  1  0.82777584  0.41781150  0.84085532  1
  Ca2+  Ca33  1  0.83416483  0.92702630  0.17692714  1
  Ca2+  Ca34  1  0.82839877  0.91627954  0.50550052  1
  Ca2+  Ca35  1  0.83396538  0.92276166  0.83416162  1
  Ca2+  Ca36  1  0.42004444  0.17525102  0.15829698  1
  Ca2+  Ca37  1  0.42379886  0.16110816  0.50096585  1
  Ca2+  Ca38  1  0.42017994  0.17221503  0.82406035  1
  Ca2+  Ca39  1  0.42723938  0.66734514  0.16315163  1
  Ca2+  Ca40  1  0.41977325  0.67094973  0.49163507  1
  Ca2+  Ca41  1  0.41856828  0.65900542  0.83370065  1
  Ca2+  Ca42  1  0.91024457  0.17045660  0.16064859  1
  Ca2+  Ca43  1  0.90903700  0.16363554  0.49871602  1
  Ca2+  Ca44  1  0.91005358  0.16868977  0.83134819  1
  Ca2+  Ca45  1  0.92468186  0.66707834  0.15960046  1
  Ca2+  Ca46  1  0.92112576  0.68079806  0.49208324  1
  Ca2+  Ca47  1  0.92073981  0.66459547  0.82953646  1
  Al0+  Al48  1  0.00028768  0.00091913  0.00340302  1
  Al0+  Al49  1  0.00423573  0.00222201  0.33722745  1
  Al0+  Al50  1  -0.00030712  0.00104056  0.66585103  1
  Al0+  Al51  1  -0.00121230  0.49908538  -0.00160656  1
  Al0+  Al52  1  -0.00047428  0.49831526  0.33248276  1
  Al0+  Al53  1  -0.00034426  0.49938971  0.66471771  1
  Al0+  Al54  1  0.50037793  -0.00037835  0.00153877  1
  Al0+  Al55  1  0.50185151  0.00244825  0.32897083  1
  Al0+  Al56  1  0.50074632  -0.00058004  0.67002408  1
  Al0+  Al57  1  0.49768511  0.50017995  -0.00540164  1
  Al0+  Al58  1  0.49869371  0.49930349  0.33487110  1
  Al0+  Al59  1  0.49861288  0.49881378  0.67323478  1
  Al0+  Al60  1  0.24981422  0.24985348  -0.00029230  1
  Al0+  Al61  1  0.24997724  0.25110390  0.33279260  1
  Al0+  Al62  1  0.24831486  0.25040982  0.67152879  1
  Al0+  Al63  1  0.25060108  0.75025651  -0.00244759  1
  Al0+  Al64  1  0.24997683  0.75001852  0.33175563  1
  Al0+  Al65  1  0.25093619  0.74940899  0.67159586  1
  Al0+  Al66  1  0.74978105  0.24817116  -0.00038781  1
  Al0+  Al67  1  0.75020713  0.25153267  0.33870559  1
  Al0+  Al68  1  0.74904371  0.24979937  0.66863934  1
  Al0+  Al69  1  0.74900245  0.74997612  -0.00030535  1
  Al0+  Al70  1  0.75135065  0.75092850  0.32848450  1
  Al0+  Al71  1  0.74988653  0.74934003  0.66358619  1
  Al0+  Al72  1  0.32122687  0.06945313  0.67891244  1
  Al0+  Al73  1  0.82073454  0.57157662  0.01253278  1
  Al0+  Al74  1  0.92863658  0.31963537  0.98646760  1
  Al0+  Al75  1  0.57081137  0.17928386  0.65183582  1
  Al0+  Al76  1  0.57117557  0.68043544  0.98434673  1
  Al0+  Al77  1  0.82017010  0.07018089  0.01474232  1
  Al0+  Al78  1  0.32165321  0.57230618  0.01911982  1
  Al0+  Al79  1  0.17650191  0.42886222  0.68190852  1
  Al0+  Al80  1  0.67831982  0.92592136  0.68245795  1
  Al0+  Al81  1  0.32073476  0.57323562  0.68285778  1
  Al0+  Al82  1  0.07043212  0.67946391  0.98421576  1
  Al0+  Al83  1  0.92900318  0.82466015  0.31695248  1
  Al0+  Al84  1  0.67855688  0.92703714  0.34742423  1
  Al0+  Al85  1  0.82202510  0.07013844  0.68335467  1
  Al0+  Al86  1  0.67813216  0.43219187  0.34576580  1
  Al0+  Al87  1  0.42830100  0.32023888  0.98471773  1
  Al0+  Al88  1  0.42938559  0.82325502  0.31931701  1
  Al0+  Al89  1  0.67944362  0.42851267  0.68182190  1
  Al0+  Al90  1  0.92939673  0.82135485  0.65303125  1
  Al0+  Al91  1  0.18263747  0.92813641  0.34656420  1
  Al0+  Al92  1  0.17852683  0.42909371  0.01760666  1
  Al0+  Al93  1  0.82216987  0.07157885  0.34967896  1
  Al0+  Al94  1  0.07027629  0.67744544  0.31852472  1
  Al0+  Al95  1  0.57133960  0.67634314  0.31925812  1
  Si0+  Si96  1  0.57027172  0.67709257  0.65208628  1
  Si0+  Si97  1  0.07281384  0.67827223  0.65057870  1
  Si0+  Si98  1  0.17971195  0.92979126  0.01404385  1
  Si0+  Si99  1  0.92845072  0.82414655  0.98368528  1
  Si0+  Si100  1  0.17722525  0.42717126  0.34786944  1
  Si0+  Si101  1  0.82485796  0.57225964  0.34920727  1
  Si0+  Si102  1  0.67754831  0.42817319  0.01488647  1
  Si0+  Si103  1  0.07185920  0.17607589  0.98303113  1
  Si0+  Si104  1  0.82081672  0.57169484  0.68065248  1
  Si0+  Si105  1  0.42699274  0.32154827  0.64891083  1
  Si0+  Si106  1  0.42893816  0.82117771  0.65324881  1
  Si0+  Si107  1  0.92840661  0.31907858  0.31935479  1
  Si0+  Si108  1  0.42774429  0.82352008  0.98110204  1
  Si0+  Si109  1  0.32230134  0.07129840  0.01514826  1
  Si0+  Si110  1  0.67667919  0.92724627  0.01829161  1
  Si0+  Si111  1  0.42741753  0.32051686  0.31965213  1
  Si0+  Si112  1  0.57144149  0.17686697  0.98283028  1
  Si0+  Si113  1  0.31963855  0.56926969  0.34740620  1
  Si0+  Si114  1  0.07246495  0.17907597  0.65063625  1
  Si0+  Si115  1  0.07414991  0.18093310  0.31874530  1
  Si0+  Si116  1  0.92822127  0.32126982  0.65016840  1
  Si0+  Si117  1  0.17724308  0.92800203  0.68407456  1
  Si0+  Si118  1  0.57266980  0.18127273  0.31816255  1
  Si0+  Si119  1  0.32286714  0.07575764  0.34784874  1
  O2-  O120  1  0.25263947  -0.00064743  0.05676903  1
  O2-  O121  1  0.26068079  0.00097849  0.39144229  1
  O2-  O122  1  0.24694005  -0.00434555  0.72846189  1
  O2-  O123  1  0.24829516  0.50178019  0.07014621  1
  O2-  O124  1  0.24511986  0.50116285  0.38904466  1
  O2-  O125  1  0.24738592  0.50170570  0.73060620  1
  O2-  O126  1  0.74691084  -0.00517591  0.06122054  1
  O2-  O127  1  0.75405136  -0.00475989  0.39795525  1
  O2-  O128  1  0.75111406  -0.00299647  0.73265963  1
  O2-  O129  1  0.74530590  0.49722622  0.05950021  1
  O2-  O130  1  0.74963155  0.51010481  0.39309710  1
  O2-  O131  1  0.75366853  0.50322509  0.72722516  1
  O2-  O132  1  -0.00025277  0.24830951  0.27723361  1
  O2-  O133  1  0.00026586  0.24997243  0.60888509  1
  O2-  O134  1  0.00438084  0.24578172  0.93903202  1
  O2-  O135  1  -0.00313803  0.74791029  0.26784581  1
  O2-  O136  1  0.00592561  0.74800243  0.60638490  1
  O2-  O137  1  -0.00652739  0.75250557  0.93812398  1
  O2-  O138  1  0.49914629  0.25037692  0.27670059  1
  O2-  O139  1  0.49608189  0.25424829  0.60268821  1
  O2-  O140  1  0.50245864  0.24490453  0.93855608  1
  O2-  O141  1  0.50382090  0.75341519  0.26995952  1
  O2-  O142  1  0.49874490  0.74869112  0.61166081  1
  O2-  O143  1  0.49670179  0.75553365  0.93674769  1
  O2-  O144  1  0.07185189  0.17466075  0.08898451  1
  O2-  O145  1  0.08032554  0.18499975  0.42361771  1
  O2-  O146  1  0.07373221  0.17745329  0.75545630  1
  O2-  O147  1  0.07008426  0.68254268  0.09709617  1
  O2-  O148  1  0.07037085  0.67722678  0.43254660  1
  O2-  O149  1  0.07113284  0.67849472  0.75612323  1
  O2-  O150  1  0.56973811  0.17719430  0.08898220  1
  O2-  O151  1  0.57189213  0.18159568  0.42304512  1
  O2-  O152  1  0.56835208  0.18087331  0.76498043  1
  O2-  O153  1  0.57062029  0.68112717  0.09717620  1
  O2-  O154  1  0.56384503  0.67115605  0.43310968  1
  O2-  O155  1  0.57151444  0.67790072  0.75712073  1
  O2-  O156  1  0.17799157  0.42255140  0.24363674  1
  O2-  O157  1  0.17807274  0.42950689  0.56719901  1
  O2-  O158  1  0.18008417  0.42980252  0.90436309  1
  O2-  O159  1  0.18290641  0.93113022  0.23305004  1
  O2-  O160  1  0.17894511  0.92810297  0.57849696  1
  O2-  O161  1  0.17927858  0.93288861  0.90885894  1
  O2-  O162  1  0.67893887  0.42955721  0.23278027  1
  O2-  O163  1  0.68058751  0.42988511  0.56832683  1
  O2-  O164  1  0.68000562  0.42772880  0.90928421  1
  O2-  O165  1  0.67659512  0.93346864  0.23375325  1
  O2-  O166  1  0.67674826  0.92541375  0.56926779  1
  O2-  O167  1  0.67481728  0.92856099  0.91281610  1
  O2-  O168  1  0.43077039  0.31776527  0.09890411  1
  O2-  O169  1  0.42397631  0.31938932  0.42434024  1
  O2-  O170  1  0.42812531  0.31874226  0.75430349  1
  O2-  O171  1  0.42802130  0.82581150  0.08645948  1
  O2-  O172  1  0.42713878  0.81982809  0.43349565  1
  O2-  O173  1  0.42873846  0.82205361  0.75830925  1
  O2-  O174  1  0.92804077  0.31702889  0.10010206  1
  O2-  O175  1  0.92991981  0.31995903  0.42467118  1
  O2-  O176  1  0.92824975  0.32227042  0.75498009  1
  O2-  O177  1  0.93247676  0.82641138  0.08886417  1
  O2-  O178  1  0.93242911  0.82362154  0.43084710  1
  O2-  O179  1  0.93180230  0.81964289  0.76646198  1
  O2-  O180  1  0.31742555  0.08195280  0.24227428  1
  O2-  O181  1  0.31944429  0.06760166  0.56572503  1
  O2-  O182  1  0.32231076  0.07038530  0.91007801  1
  O2-  O183  1  0.32254796  0.56640211  0.24300975  1
  O2-  O184  1  0.31997555  0.57368736  0.56821323  1
  O2-  O185  1  0.32019022  0.57024459  0.90585982  1
  O2-  O186  1  0.81849802  0.07546125  0.23585555  1
  O2-  O187  1  0.82078703  0.06923150  0.57014926  1
  O2-  O188  1  0.82003196  0.06936703  0.90216426  1
  O2-  O189  1  0.82922806  0.56549496  0.24395983  1
  O2-  O190  1  0.82043883  0.56992819  0.57492200  1
  O2-  O191  1  0.81914772  0.56981875  0.89907542  1
  O2-  O192  1  0.05142584  0.08794886  0.27236529  1
  O2-  O193  1  0.04602424  0.08741991  0.60197107  1
  O2-  O194  1  0.04526561  0.08312504  0.93582257  1
  O2-  O195  1  0.04416714  0.57727477  0.26659360  1
  O2-  O196  1  0.04759685  0.58448776  0.60398656  1
  O2-  O197  1  0.03971711  0.58289105  0.93117815  1
  O2-  O198  1  0.54745439  0.09065378  0.26742020  1
  O2-  O199  1  0.53724860  0.08239613  0.59913760  1
  O2-  O200  1  0.54516258  0.08292231  0.93780604  1
  O2-  O201  1  0.53674223  0.57950412  0.26509971  1
  O2-  O202  1  0.54058564  0.58460599  0.60650082  1
  O2-  O203  1  0.54080764  0.58400987  0.93006198  1
  O2-  O204  1  0.16380991  0.21178015  0.26755796  1
  O2-  O205  1  0.16358279  0.20857614  0.60164290  1
  O2-  O206  1  0.16640960  0.19915329  0.93803124  1
  O2-  O207  1  0.16811408  0.70729512  0.26604270  1
  O2-  O208  1  0.16797348  0.70316827  0.60689795  1
  O2-  O209  1  0.16660367  0.71275768  0.93034057  1
  O2-  O210  1  0.66315178  0.21400020  0.27095543  1
  O2-  O211  1  0.66696758  0.21227575  0.59787346  1
  O2-  O212  1  0.66444982  0.20273937  0.93700162  1
  O2-  O213  1  0.67198755  0.69659912  0.26807757  1
  O2-  O214  1  0.66180272  0.70241564  0.60340661  1
  O2-  O215  1  0.66800878  0.71062494  0.92908750  1
  O2-  O216  1  0.07858051  0.45483178  0.06776861  1
  O2-  O217  1  0.08421133  0.45035427  0.39544023  1
  O2-  O218  1  0.07665631  0.45496515  0.73259013  1
  O2-  O219  1  0.08981898  0.95976126  0.06365807  1
  O2-  O220  1  0.08965693  0.96434591  0.40366274  1
  O2-  O221  1  0.08536754  0.95691024  0.73055329  1
  O2-  O222  1  0.58341350  0.45378692  0.05872464  1
  O2-  O223  1  0.58079419  0.45807325  0.40205182  1
  O2-  O224  1  0.58272561  0.45619941  0.73549670  1
  O2-  O225  1  0.58327954  0.95451252  0.06489222  1
  O2-  O226  1  0.57946970  0.95917732  0.39864828  1
  O2-  O227  1  0.58100154  0.95504293  0.73681850  1
  O2-  O228  1  0.20693555  0.32871101  0.06860965  1
  O2-  O229  1  0.20921095  0.33704236  0.39724990  1
  O2-  O230  1  0.20220639  0.33057937  0.73509888  1
  O2-  O231  1  0.20763342  0.83831583  0.06083387  1
  O2-  O232  1  0.21115535  0.83181524  0.40260059  1
  O2-  O233  1  0.20183447  0.83477167  0.73073895  1
  O2-  O234  1  0.70246111  0.33415245  0.06044485  1
  O2-  O235  1  0.71363970  0.33823896  0.40223094  1
  O2-  O236  1  0.71102765  0.33330133  0.73621856  1
  O2-  O237  1  0.70030480  0.83314092  0.06264880  1
  O2-  O238  1  0.70016777  0.82556599  0.39749894  1
  O2-  O239  1  0.70751482  0.82700211  0.73427141  1
  O2-  O240  1  0.45611096  0.41147045  0.27186011  1
  O2-  O241  1  0.45200683  0.41660553  0.60523142  1
  O2-  O242  1  0.45770383  0.41560822  0.92934532  1
  O2-  O243  1  0.45031131  0.92391891  0.26582546  1
  O2-  O244  1  0.45578544  0.91255410  0.60535589  1
  O2-  O245  1  0.45357174  0.91839148  0.93605884  1
  O2-  O246  1  0.95619422  0.41041153  0.27138037  1
  O2-  O247  1  0.95544964  0.41270893  0.60034061  1
  O2-  O248  1  0.95753003  0.41541001  0.93058288  1
  O2-  O249  1  0.96382494  0.92288453  0.26657071  1
  O2-  O250  1  0.96002389  0.91831733  0.59970816  1
  O2-  O251  1  0.95986330  0.91631532  0.93692733  1
  O2-  O252  1  0.33667629  0.29166930  0.26963458  1
  O2-  O253  1  0.33234106  0.29539766  0.60464202  1
  O2-  O254  1  0.33193354  0.28770737  0.93149701  1
  O2-  O255  1  0.33249343  0.79142959  0.26569392  1
  O2-  O256  1  0.33560662  0.79442449  0.60686195  1
  O2-  O257  1  0.33412689  0.80035301  0.93429608  1
  O2-  O258  1  0.83678804  0.29110017  0.27194082  1
  O2-  O259  1  0.83703080  0.29214205  0.60233874  1
  O2-  O260  1  0.83223879  0.28761559  0.93189899  1
  O2-  O261  1  0.82905197  0.80383066  0.26478496  1
  O2-  O262  1  0.83374845  0.78852196  0.59773956  1
  O2-  O263  1  0.83297678  0.80302395  0.94060859  1
  O2-  O264  1  0.41467991  0.04602687  0.06326919  1
  O2-  O265  1  0.41935142  0.05735365  0.38907018  1
  O2-  O266  1  0.41549014  0.03843059  0.73635218  1
  O2-  O267  1  0.42015739  0.53884157  0.06942795  1
  O2-  O268  1  0.40859343  0.53714474  0.39778660  1
  O2-  O269  1  0.41759159  0.54315718  0.73658729  1
  O2-  O270  1  0.91825658  0.04295278  0.06859933  1
  O2-  O271  1  0.92419451  0.05303814  0.39862358  1
  O2-  O272  1  0.92201520  0.04510008  0.73502961  1
  O2-  O273  1  0.91550540  0.53817139  0.06739708  1
  O2-  O274  1  0.91474504  0.53853644  0.39933289  1
  O2-  O275  1  0.91520695  0.54681373  0.72498263  1
  O2-  O276  1  0.29366939  0.16210111  0.06354165  1
  O2-  O277  1  0.29020449  0.16594604  0.39769705  1
  O2-  O278  1  0.28979387  0.16506152  0.73393717  1
  O2-  O279  1  0.29581781  0.67335886  0.06767569  1
  O2-  O280  1  0.29387576  0.66154534  0.39439502  1
  O2-  O281  1  0.29576912  0.67147476  0.73799336  1
  O2-  O282  1  0.78775610  0.16660368  0.06902359  1
  O2-  O283  1  0.78973651  0.16861989  0.40338310  1
  O2-  O284  1  0.79201340  0.16852864  0.73455477  1
  O2-  O285  1  0.79218185  0.66873646  0.06633680  1
  O2-  O286  1  0.80726818  0.66906980  0.38995488  1
  O2-  O287  1  0.79518870  0.66439669  0.72713697  1
