# generated using pymatgen
data_Ca2Al2SiO7
_symmetry_space_group_name_H-M   'P 1'
_cell_length_a   15.45356326
_cell_length_b   15.45327404
_cell_length_c   15.27970272
_cell_angle_alpha   89.99380058
_cell_angle_beta   89.98223999
_cell_angle_gamma   89.99567548
_symmetry_Int_Tables_number   1
_chemical_formula_structural   Ca2Al2SiO7
_chemical_formula_sum   'Ca48 Al48 Si24 O168'
_cell_volume   3648.91729988
_cell_formula_units_Z   24
loop_
 _symmetry_equiv_pos_site_id
 _symmetry_equiv_pos_as_xyz
  1  'x, y, z'
loop_
 _atom_type_symbol
 _atom_type_oxidation_number
  Ca2+  2.0
  Al0+  0.0
  Si0+  0.0
  O2-  -2.0
loop_
 _atom_site_type_symbol
 _atom_site_label
 _atom_site_symmetry_multiplicity
 _atom_site_fract_x
 _atom_site_fract_y
 _atom_site_fract_z
 _atom_site_occupancy
  Ca2+  Ca0  1  0.17636749  0.09535976  0.16532749  1
  Ca2+  Ca1  1  0.17364368  0.08472196  0.50509594  1
  Ca2+  Ca2  1  0.17407868  0.09378641  0.83607487  1
  Ca2+  Ca3  1  0.17715198  0.57648309  0.16857750  1
  Ca2+  Ca4  1  0.17372939  0.58193657  0.50816336  1
  Ca2+  Ca5  1  0.17396414  0.57848853  0.83970641  1
  Ca2+  Ca6  1  0.67094463  0.08586840  0.17100485  1
  Ca2+  Ca7  1  0.68121599  0.08702271  0.50451881  1
  Ca2+  Ca8  1  0.67001197  0.08818477  0.83742962  1
  Ca2+  Ca9  1  0.66267332  0.57541033  0.16907161  1
  Ca2+  Ca10  1  0.67160355  0.58552723  0.50389976  1
  Ca2+  Ca11  1  0.67237251  0.57596126  0.83801018  1
  Ca2+  Ca12  1  0.07414229  0.33216346  0.15799419  1
  Ca2+  Ca13  1  0.07707787  0.32719628  0.49723643  1
  Ca2+  Ca14  1  0.09227501  0.32483646  0.83400957  1
  Ca2+  Ca15  1  0.07306569  0.83710440  0.16341156  1
  Ca2+  Ca16  1  0.08157256  0.82575335  0.49845404  1
  Ca2+  Ca17  1  0.08147835  0.82614783  0.82886884  1
  Ca2+  Ca18  1  0.57360604  0.32877112  0.15796779  1
  Ca2+  Ca19  1  0.57084666  0.33550597  0.49684222  1
  Ca2+  Ca20  1  0.57485273  0.33372069  0.83671952  1
  Ca2+  Ca21  1  0.58519461  0.82354932  0.16500033  1
  Ca2+  Ca22  1  0.57849222  0.82700552  0.49802385  1
  Ca2+  Ca23  1  0.57403820  0.83137006  0.82768234  1
  Ca2+  Ca24  1  0.33327564  0.41681945  0.16874623  1
  Ca2+  Ca25  1  0.34078174  0.42485980  0.50405903  1
  Ca2+  Ca26  1  0.33421986  0.42377766  0.84259623  1
  Ca2+  Ca27  1  0.33241483  0.93211126  0.17144690  1
  Ca2+  Ca28  1  0.33824193  0.92837770  0.50738613  1
  Ca2+  Ca29  1  0.33594793  0.92765651  0.83703781  1
  Ca2+  Ca30  1  0.82710791  0.40329716  0.16853121  1
  Ca2+  Ca31  1  0.83181396  0.41940215  0.50655042  1
  Ca2+  Ca32  1  0.83130086  0.41895872  0.84074332  1
  Ca2+  Ca33  1  0.83794999  0.92135246  0.17396340  1
  Ca2+  Ca34  1  0.83750729  0.92404246  0.50216273  1
  Ca2+  Ca35  1  0.83704937  0.92149932  0.83570138  1
  Ca2+  Ca36  1  0.41572137  0.17401234  0.15688562  1
  Ca2+  Ca37  1  0.40728069  0.17766979  0.49630740  1
  Ca2+  Ca38  1  0.41034156  0.17771771  0.82841196  1
  Ca2+  Ca39  1  0.41790028  0.65745111  0.16618718  1
  Ca2+  Ca40  1  0.41528943  0.66914182  0.49445351  1
  Ca2+  Ca41  1  0.40825215  0.67065778  0.82425997  1
  Ca2+  Ca42  1  0.92018691  0.17383306  0.15803826  1
  Ca2+  Ca43  1  0.92016189  0.16357510  0.49419226  1
  Ca2+  Ca44  1  0.92767802  0.17141076  0.82891871  1
  Ca2+  Ca45  1  0.91391652  0.68173753  0.16056694  1
  Ca2+  Ca46  1  0.92245376  0.66635276  0.49528318  1
  Ca2+  Ca47  1  0.92142104  0.66779085  0.82657583  1
  Al0+  Al48  1  0.00042770  -0.00040259  -0.00868549  1
  Al0+  Al49  1  0.00183466  -0.00160987  0.33412344  1
  Al0+  Al50  1  0.00026813  0.00015052  0.66709124  1
  Al0+  Al51  1  0.00038784  0.50388044  0.00288460  1
  Al0+  Al52  1  0.00010590  0.49863236  0.32831136  1
  Al0+  Al53  1  -0.00029604  0.50009088  0.66706948  1
  Al0+  Al54  1  0.50248916  -0.00211950  0.00295123  1
  Al0+  Al55  1  0.50079935  -0.00125211  0.33946133  1
  Al0+  Al56  1  0.50161323  0.00054051  0.66526435  1
  Al0+  Al57  1  0.50479987  0.49992947  0.00306604  1
  Al0+  Al58  1  0.49965571  0.49908607  0.33032355  1
  Al0+  Al59  1  0.50072759  0.49990688  0.66725609  1
  Al0+  Al60  1  0.24946972  0.25287002  0.00175486  1
  Al0+  Al61  1  0.24799679  0.25161622  0.33460767  1
  Al0+  Al62  1  0.24863014  0.25027412  0.65874799  1
  Al0+  Al63  1  0.24983069  0.75166811  0.00690097  1
  Al0+  Al64  1  0.25059119  0.75003238  0.33518628  1
  Al0+  Al65  1  0.24906062  0.75119264  0.65976923  1
  Al0+  Al66  1  0.74992396  0.25027134  -0.00323590  1
  Al0+  Al67  1  0.74858082  0.24925667  0.33771837  1
  Al0+  Al68  1  0.74883213  0.24967712  0.67218698  1
  Al0+  Al69  1  0.74898008  0.75163909  -0.00590697  1
  Al0+  Al70  1  0.74886761  0.74889765  0.32585651  1
  Al0+  Al71  1  0.74929557  0.75024906  0.67155005  1
  Al0+  Al72  1  0.06992938  0.17869167  0.65017075  1
  Al0+  Al73  1  0.32067727  0.57149709  0.67815123  1
  Al0+  Al74  1  0.57089756  0.17561942  0.98581854  1
  Al0+  Al75  1  0.93106462  0.81938773  0.32119151  1
  Al0+  Al76  1  0.82260247  0.07089700  0.68295754  1
  Al0+  Al77  1  0.92815840  0.82107890  0.98327531  1
  Al0+  Al78  1  0.68298420  0.42844727  0.01515799  1
  Al0+  Al79  1  0.07142296  0.18072018  0.98477597  1
  Al0+  Al80  1  0.82054941  0.07020331  0.34511554  1
  Al0+  Al81  1  0.82214237  0.57113052  0.67914576  1
  Al0+  Al82  1  0.56916081  0.67978414  0.31950451  1
  Al0+  Al83  1  0.17767194  0.42855978  0.01591586  1
  Al0+  Al84  1  0.42941135  0.32153044  0.98522148  1
  Al0+  Al85  1  0.92701373  0.32036638  0.32120972  1
  Al0+  Al86  1  0.42869960  0.31930932  0.31881982  1
  Al0+  Al87  1  0.32028283  0.07196808  0.68013736  1
  Al0+  Al88  1  0.32085771  0.07217332  0.34827173  1
  Al0+  Al89  1  0.32276505  0.57274845  0.01554457  1
  Al0+  Al90  1  0.92757158  0.32422604  0.98422029  1
  Al0+  Al91  1  0.07027886  0.67758524  0.65328426  1
  Al0+  Al92  1  0.42981829  0.32110403  0.65237968  1
  Al0+  Al93  1  0.32110286  0.56839596  0.34947249  1
  Al0+  Al94  1  0.32132283  0.07071093  0.01209304  1
  Al0+  Al95  1  0.42860051  0.82226825  0.65306405  1
  Si0+  Si96  1  0.92559175  0.32118918  0.65087860  1
  Si0+  Si97  1  0.92655970  0.82084441  0.64966378  1
  Si0+  Si98  1  0.67850972  0.92818083  0.68471133  1
  Si0+  Si99  1  0.57065472  0.67874648  0.98309627  1
  Si0+  Si100  1  0.82160497  0.57518960  0.01773646  1
  Si0+  Si101  1  0.17464264  0.42875406  0.35264624  1
  Si0+  Si102  1  0.17792676  0.92716972  0.35159056  1
  Si0+  Si103  1  0.82130031  0.06860547  0.01341072  1
  Si0+  Si104  1  0.17821882  0.92767118  0.68299328  1
  Si0+  Si105  1  0.07063363  0.17747846  0.31675872  1
  Si0+  Si106  1  0.82068765  0.57231720  0.34512197  1
  Si0+  Si107  1  0.17675874  0.92782788  0.01678711  1
  Si0+  Si108  1  0.42691888  0.82408392  0.31563482  1
  Si0+  Si109  1  0.07457102  0.67638196  0.31469882  1
  Si0+  Si110  1  0.67935289  0.42912939  0.34906600  1
  Si0+  Si111  1  0.07366402  0.68016284  0.98484156  1
  Si0+  Si112  1  0.17769418  0.42824681  0.68134619  1
  Si0+  Si113  1  0.57204760  0.17680955  0.31980759  1
  Si0+  Si114  1  0.57226799  0.67820345  0.65160726  1
  Si0+  Si115  1  0.67900231  0.92688525  0.01632407  1
  Si0+  Si116  1  0.42875853  0.82022243  0.98769724  1
  Si0+  Si117  1  0.57372996  0.17763617  0.64848866  1
  Si0+  Si118  1  0.67732206  0.42816948  0.68417076  1
  Si0+  Si119  1  0.67893013  0.92413052  0.35059206  1
  O2-  O120  1  0.24379997  -0.00129100  0.05988350  1
  O2-  O121  1  0.24878061  -0.00575981  0.39457374  1
  O2-  O122  1  0.24628948  -0.00331627  0.72759247  1
  O2-  O123  1  0.25325198  0.49802053  0.06505099  1
  O2-  O124  1  0.24431070  0.49647674  0.39708302  1
  O2-  O125  1  0.24730921  0.49648776  0.72497413  1
  O2-  O126  1  0.75001160  -0.00167385  0.05739720  1
  O2-  O127  1  0.74612360  -0.00496169  0.39334251  1
  O2-  O128  1  0.74738327  -0.00370789  0.72939241  1
  O2-  O129  1  0.76007349  0.50094133  0.06346692  1
  O2-  O130  1  0.75328579  0.49868731  0.38934547  1
  O2-  O131  1  0.74904566  0.49536979  0.72597147  1
  O2-  O132  1  -0.00013099  0.24454125  0.27419163  1
  O2-  O133  1  -0.00890480  0.25041562  0.60519666  1
  O2-  O134  1  0.00200710  0.25526852  0.93398172  1
  O2-  O135  1  0.00478932  0.74504416  0.27186393  1
  O2-  O136  1  -0.00698794  0.75012550  0.60580703  1
  O2-  O137  1  0.00231608  0.74536348  0.93896491  1
  O2-  O138  1  0.49847813  0.23874934  0.27480288  1
  O2-  O139  1  0.50302162  0.24431912  0.60484655  1
  O2-  O140  1  0.49635919  0.24443228  0.93509487  1
  O2-  O141  1  0.49347736  0.75338989  0.27124092  1
  O2-  O142  1  0.50121156  0.74438999  0.60752479  1
  O2-  O143  1  0.49405160  0.74473671  0.94331016  1
  O2-  O144  1  0.06723197  0.17729156  0.09860443  1
  O2-  O145  1  0.06922631  0.17781304  0.42264646  1
  O2-  O146  1  0.07154982  0.18114985  0.76269952  1
  O2-  O147  1  0.07281449  0.68392503  0.09050247  1
  O2-  O148  1  0.07262649  0.67634328  0.42052745  1
  O2-  O149  1  0.07004361  0.67990426  0.76637105  1
  O2-  O150  1  0.57091310  0.17557498  0.10001446  1
  O2-  O151  1  0.57578243  0.18095960  0.42528633  1
  O2-  O152  1  0.57456803  0.17801959  0.75374565  1
  O2-  O153  1  0.57419760  0.68153928  0.08826685  1
  O2-  O154  1  0.57160307  0.68195215  0.43270216  1
  O2-  O155  1  0.57307146  0.67993274  0.75722548  1
  O2-  O156  1  0.17321177  0.42981241  0.24747613  1
  O2-  O157  1  0.17583867  0.43059981  0.57548583  1
  O2-  O158  1  0.17900317  0.43133675  0.90195258  1
  O2-  O159  1  0.17637113  0.92694850  0.24599244  1
  O2-  O160  1  0.17812578  0.92837767  0.57718518  1
  O2-  O161  1  0.17989384  0.92197005  0.91154519  1
  O2-  O162  1  0.67991291  0.42838049  0.24420221  1
  O2-  O163  1  0.67734159  0.42913952  0.57792380  1
  O2-  O164  1  0.68154494  0.43365237  0.90206279  1
  O2-  O165  1  0.67922558  0.92326940  0.24481368  1
  O2-  O166  1  0.68013194  0.92590102  0.57905650  1
  O2-  O167  1  0.67790172  0.92421487  0.91146507  1
  O2-  O168  1  0.43182445  0.32028370  0.09903409  1
  O2-  O169  1  0.43233687  0.32128412  0.43224478  1
  O2-  O170  1  0.43043203  0.32291980  0.76496513  1
  O2-  O171  1  0.43281407  0.82223303  0.09267342  1
  O2-  O172  1  0.42946338  0.82429569  0.42126748  1
  O2-  O173  1  0.43017118  0.82202843  0.76679952  1
  O2-  O174  1  0.92598052  0.31685039  0.09808506  1
  O2-  O175  1  0.92761881  0.32141345  0.43453395  1
  O2-  O176  1  0.92588555  0.32137378  0.75591435  1
  O2-  O177  1  0.92784596  0.82201408  0.09682884  1
  O2-  O178  1  0.93116900  0.81708858  0.43423562  1
  O2-  O179  1  0.92771678  0.81966816  0.75524172  1
  O2-  O180  1  0.32005835  0.07128366  0.23497502  1
  O2-  O181  1  0.31792962  0.07084958  0.56683369  1
  O2-  O182  1  0.32185811  0.06806849  0.89901389  1
  O2-  O183  1  0.32080770  0.56624402  0.23674129  1
  O2-  O184  1  0.32088964  0.57033809  0.56487590  1
  O2-  O185  1  0.31958254  0.57669969  0.90168750  1
  O2-  O186  1  0.81902912  0.06933941  0.23184137  1
  O2-  O187  1  0.82162308  0.06899294  0.56928466  1
  O2-  O188  1  0.81993686  0.06569663  0.90840098  1
  O2-  O189  1  0.81769398  0.57508758  0.24044948  1
  O2-  O190  1  0.81992895  0.57109888  0.56512208  1
  O2-  O191  1  0.81723541  0.57740622  0.91203481  1
  O2-  O192  1  0.04905681  0.08275269  0.27218717  1
  O2-  O193  1  0.04081711  0.08060308  0.59746777  1
  O2-  O194  1  0.04353517  0.08312401  0.92977461  1
  O2-  O195  1  0.04942024  0.58326991  0.26852116  1
  O2-  O196  1  0.03990368  0.58134804  0.59752046  1
  O2-  O197  1  0.05134551  0.58600326  0.93946634  1
  O2-  O198  1  0.55465178  0.07926099  0.27814838  1
  O2-  O199  1  0.55348986  0.08279343  0.60294369  1
  O2-  O200  1  0.55008507  0.07417214  0.93503565  1
  O2-  O201  1  0.53901528  0.58386019  0.26435271  1
  O2-  O202  1  0.55125071  0.58397800  0.60569581  1
  O2-  O203  1  0.55006525  0.58552790  0.93696979  1
  O2-  O204  1  0.16308463  0.20668501  0.27109310  1
  O2-  O205  1  0.16350607  0.21207678  0.59214424  1
  O2-  O206  1  0.16995876  0.20912394  0.93225334  1
  O2-  O207  1  0.16803350  0.70382349  0.26958483  1
  O2-  O208  1  0.16358696  0.71161396  0.59469152  1
  O2-  O209  1  0.16652725  0.71001558  0.93910332  1
  O2-  O210  1  0.66358338  0.20730926  0.27222252  1
  O2-  O211  1  0.66719970  0.20690513  0.60256511  1
  O2-  O212  1  0.66757620  0.20718186  0.93186207  1
  O2-  O213  1  0.66362464  0.71114633  0.26078035  1
  O2-  O214  1  0.66522440  0.70794435  0.60483046  1
  O2-  O215  1  0.65911328  0.71310734  0.93286453  1
  O2-  O216  1  0.07965989  0.45968841  0.07064391  1
  O2-  O217  1  0.08074931  0.45574556  0.39901121  1
  O2-  O218  1  0.08464090  0.45335878  0.72843247  1
  O2-  O219  1  0.08151005  0.95332919  0.05997097  1
  O2-  O220  1  0.08564417  0.95403573  0.40011879  1
  O2-  O221  1  0.08401708  0.95068992  0.72877682  1
  O2-  O222  1  0.58876164  0.46285831  0.07169438  1
  O2-  O223  1  0.58944646  0.46174315  0.39674150  1
  O2-  O224  1  0.58621104  0.45809278  0.73212591  1
  O2-  O225  1  0.58849862  0.95219328  0.06772519  1
  O2-  O226  1  0.58498525  0.94604818  0.39779485  1
  O2-  O227  1  0.58529499  0.95460896  0.73109367  1
  O2-  O228  1  0.20196705  0.33027500  0.07088374  1
  O2-  O229  1  0.19840768  0.33444881  0.39781027  1
  O2-  O230  1  0.20422066  0.33425494  0.72430810  1
  O2-  O231  1  0.20327684  0.83707271  0.06853836  1
  O2-  O232  1  0.20086830  0.83262658  0.39753540  1
  O2-  O233  1  0.20469071  0.83409355  0.72811453  1
  O2-  O234  1  0.71108477  0.33068207  0.06944332  1
  O2-  O235  1  0.70515214  0.33818435  0.39936425  1
  O2-  O236  1  0.69978454  0.33457482  0.73081164  1
  O2-  O237  1  0.70894680  0.83523957  0.06381574  1
  O2-  O238  1  0.70805520  0.83136613  0.39660617  1
  O2-  O239  1  0.70241800  0.83490438  0.73328023  1
  O2-  O240  1  0.46484065  0.41333431  0.26468820  1
  O2-  O241  1  0.46471995  0.41714892  0.59788932  1
  O2-  O242  1  0.46489612  0.41912677  0.93402988  1
  O2-  O243  1  0.45581434  0.91749035  0.27020593  1
  O2-  O244  1  0.46415649  0.91688386  0.59716965  1
  O2-  O245  1  0.46251406  0.90920602  0.93849573  1
  O2-  O246  1  0.95496352  0.41685877  0.26523582  1
  O2-  O247  1  0.95307906  0.41440234  0.60452597  1
  O2-  O248  1  0.94844555  0.42728667  0.93804260  1
  O2-  O249  1  0.96295933  0.91558662  0.26605481  1
  O2-  O250  1  0.95460647  0.91383127  0.60418590  1
  O2-  O251  1  0.95959074  0.91540852  0.92665765  1
  O2-  O252  1  0.32937524  0.29378609  0.26840388  1
  O2-  O253  1  0.33412550  0.29205216  0.59576697  1
  O2-  O254  1  0.32941259  0.29902855  0.93463262  1
  O2-  O255  1  0.33179470  0.80183728  0.27167421  1
  O2-  O256  1  0.33299078  0.79533556  0.59610590  1
  O2-  O257  1  0.33460556  0.79787389  0.94259653  1
  O2-  O258  1  0.82941425  0.28917781  0.26942835  1
  O2-  O259  1  0.83000841  0.29870188  0.60678978  1
  O2-  O260  1  0.83085562  0.29364098  0.93028672  1
  O2-  O261  1  0.83524511  0.78983097  0.26467221  1
  O2-  O262  1  0.83121984  0.79771998  0.60605487  1
  O2-  O263  1  0.83168702  0.79126697  0.92838789  1
  O2-  O264  1  0.41661890  0.03559419  0.06719133  1
  O2-  O265  1  0.41851516  0.04371237  0.40259726  1
  O2-  O266  1  0.41869415  0.04222162  0.73073187  1
  O2-  O267  1  0.42320429  0.54772912  0.06525827  1
  O2-  O268  1  0.41845360  0.53629839  0.40186463  1
  O2-  O269  1  0.41870055  0.54471269  0.73128263  1
  O2-  O270  1  0.91338996  0.03870637  0.05902509  1
  O2-  O271  1  0.91722331  0.03834953  0.39892531  1
  O2-  O272  1  0.91866556  0.03876129  0.73666174  1
  O2-  O273  1  0.91818056  0.56188258  0.06115216  1
  O2-  O274  1  0.91451612  0.54743196  0.39033991  1
  O2-  O275  1  0.91826282  0.54213441  0.73464597  1
  O2-  O276  1  0.29160604  0.16717017  0.06613817  1
  O2-  O277  1  0.28662684  0.16806056  0.40174160  1
  O2-  O278  1  0.28666698  0.16932439  0.73050426  1
  O2-  O279  1  0.29318490  0.67036396  0.07157436  1
  O2-  O280  1  0.29478054  0.66851522  0.39966742  1
  O2-  O281  1  0.28937417  0.66959108  0.72861238  1
  O2-  O282  1  0.79390650  0.16085754  0.05931185  1
  O2-  O283  1  0.78837241  0.16497319  0.40319243  1
  O2-  O284  1  0.79170982  0.16734600  0.73676617  1
  O2-  O285  1  0.78686706  0.66723364  0.06278018  1
  O2-  O286  1  0.78896473  0.66265697  0.39352387  1
  O2-  O287  1  0.79110734  0.66690098  0.73515228  1
