# generated using pymatgen
data_Ca2Al2SiO7
_symmetry_space_group_name_H-M   'P 1'
_cell_length_a   15.46067585
_cell_length_b   15.46139095
_cell_length_c   15.28651469
_cell_angle_alpha   90.00872342
_cell_angle_beta   90.00407821
_cell_angle_gamma   90.00486278
_symmetry_Int_Tables_number   1
_chemical_formula_structural   Ca2Al2SiO7
_chemical_formula_sum   'Ca48 Al48 Si24 O168'
_cell_volume   3654.14273118
_cell_formula_units_Z   24
loop_
 _symmetry_equiv_pos_site_id
 _symmetry_equiv_pos_as_xyz
  1  'x, y, z'
loop_
 _atom_type_symbol
 _atom_type_oxidation_number
  Ca2+  2.0
  Al0+  0.0
  Si0+  0.0
  O2-  -2.0
loop_
 _atom_site_type_symbol
 _atom_site_label
 _atom_site_symmetry_multiplicity
 _atom_site_fract_x
 _atom_site_fract_y
 _atom_site_fract_z
 _atom_site_occupancy
  Ca2+  Ca0  1  0.16032755  0.08096138  0.17042605  1
  Ca2+  Ca1  1  0.16531906  0.07664446  0.50468684  1
  Ca2+  Ca2  1  0.16072565  0.07008867  0.83894428  1
  Ca2+  Ca3  1  0.17259714  0.57514427  0.18146506  1
  Ca2+  Ca4  1  0.16975026  0.59116983  0.49853128  1
  Ca2+  Ca5  1  0.16653635  0.58427484  0.83605308  1
  Ca2+  Ca6  1  0.66041622  0.07884582  0.17211421  1
  Ca2+  Ca7  1  0.67165400  0.06935525  0.50776399  1
  Ca2+  Ca8  1  0.66868271  0.08252147  0.83411318  1
  Ca2+  Ca9  1  0.67404115  0.58404396  0.17121755  1
  Ca2+  Ca10  1  0.67760562  0.58782202  0.50315501  1
  Ca2+  Ca11  1  0.67812806  0.57601719  0.83622712  1
  Ca2+  Ca12  1  0.09055315  0.32342294  0.16534756  1
  Ca2+  Ca13  1  0.08437902  0.32677418  0.49021035  1
  Ca2+  Ca14  1  0.08284714  0.32458494  0.83096270  1
  Ca2+  Ca15  1  0.07871603  0.82854905  0.16581740  1
  Ca2+  Ca16  1  0.07301175  0.82415496  0.49700839  1
  Ca2+  Ca17  1  0.07977295  0.82935038  0.82132239  1
  Ca2+  Ca18  1  0.57386408  0.33629992  0.15705185  1
  Ca2+  Ca19  1  0.57491238  0.34207453  0.49750343  1
  Ca2+  Ca20  1  0.57978270  0.34209007  0.82878529  1
  Ca2+  Ca21  1  0.58335826  0.82897448  0.17207347  1
  Ca2+  Ca22  1  0.58412221  0.83257656  0.48739661  1
  Ca2+  Ca23  1  0.58376112  0.83380984  0.82772888  1
  Ca2+  Ca24  1  0.33225888  0.41565711  0.17715587  1
  Ca2+  Ca25  1  0.33182081  0.41647868  0.49750493  1
  Ca2+  Ca26  1  0.33752448  0.41314323  0.83430289  1
  Ca2+  Ca27  1  0.32916032  0.91715924  0.17284787  1
  Ca2+  Ca28  1  0.32878570  0.91396105  0.50489206  1
  Ca2+  Ca29  1  0.31773743  0.91444955  0.83917386  1
  Ca2+  Ca30  1  0.82903898  0.42657179  0.17189940  1
  Ca2+  Ca31  1  0.82998709  0.43126238  0.50793470  1
  Ca2+  Ca32  1  0.82740793  0.42782907  0.84130308  1
  Ca2+  Ca33  1  0.82840579  0.91663307  0.17603653  1
  Ca2+  Ca34  1  0.82896021  0.91317291  0.50596442  1
  Ca2+  Ca35  1  0.83406807  0.91832253  0.82888640  1
  Ca2+  Ca36  1  0.42205813  0.17894721  0.15985236  1
  Ca2+  Ca37  1  0.41693551  0.17805008  0.49485567  1
  Ca2+  Ca38  1  0.42473874  0.17864242  0.83063793  1
  Ca2+  Ca39  1  0.41894831  0.66484873  0.17156447  1
  Ca2+  Ca40  1  0.42562528  0.67197696  0.48698836  1
  Ca2+  Ca41  1  0.42053842  0.66645966  0.82803202  1
  Ca2+  Ca42  1  0.92810872  0.16607588  0.16397817  1
  Ca2+  Ca43  1  0.91967565  0.16445144  0.49641448  1
  Ca2+  Ca44  1  0.91888928  0.16132836  0.82945526  1
  Ca2+  Ca45  1  0.91259961  0.66659502  0.16914056  1
  Ca2+  Ca46  1  0.91645739  0.67263247  0.49267613  1
  Ca2+  Ca47  1  0.91873169  0.66900669  0.82301132  1
  Al0+  Al48  1  -0.00156311  -0.00245920  0.00119768  1
  Al0+  Al49  1  -0.00015431  0.00014482  0.32629099  1
  Al0+  Al50  1  0.00027570  -0.00266438  0.66940155  1
  Al0+  Al51  1  0.00226739  0.50072625  0.00457586  1
  Al0+  Al52  1  -0.00099765  0.49820014  0.33798789  1
  Al0+  Al53  1  0.00437332  0.49730963  0.66752738  1
  Al0+  Al54  1  0.49748560  0.00136223  -0.00447048  1
  Al0+  Al55  1  0.49842423  0.00054989  0.33473476  1
  Al0+  Al56  1  0.49904407  0.00333502  0.67107057  1
  Al0+  Al57  1  0.50095120  0.50318206  -0.00215622  1
  Al0+  Al58  1  0.49900604  0.50152500  0.32827485  1
  Al0+  Al59  1  0.49791887  0.50190897  0.66433376  1
  Al0+  Al60  1  0.25118247  0.24780289  -0.01084749  1
  Al0+  Al61  1  0.25076300  0.24830317  0.32967560  1
  Al0+  Al62  1  0.25218287  0.25098209  0.66351075  1
  Al0+  Al63  1  0.24767537  0.75030031  0.00511505  1
  Al0+  Al64  1  0.24891642  0.74990242  0.33067894  1
  Al0+  Al65  1  0.25105433  0.74916442  0.66800519  1
  Al0+  Al66  1  0.75034677  0.24977878  0.00221623  1
  Al0+  Al67  1  0.75086295  0.24921764  0.33418267  1
  Al0+  Al68  1  0.74934408  0.24841856  0.67158452  1
  Al0+  Al69  1  0.74986322  0.75211950  0.00175903  1
  Al0+  Al70  1  0.74871858  0.75067978  0.33210350  1
  Al0+  Al71  1  0.75024299  0.75022675  0.67252413  1
  Al0+  Al72  1  0.67919722  0.93163271  0.34501719  1
  Al0+  Al73  1  0.67655805  0.92792515  0.68292527  1
  Al0+  Al74  1  0.07007343  0.17988895  0.32104540  1
  Al0+  Al75  1  0.43118604  0.32387985  0.98244768  1
  Al0+  Al76  1  0.82484162  0.57096280  0.68165270  1
  Al0+  Al77  1  0.06929134  0.17753258  0.98382194  1
  Al0+  Al78  1  0.81986273  0.57043345  0.34803420  1
  Al0+  Al79  1  0.32140794  0.57204362  0.34920688  1
  Al0+  Al80  1  0.18219579  0.92929171  0.67837039  1
  Al0+  Al81  1  0.67812179  0.42889407  0.01614424  1
  Al0+  Al82  1  0.07032421  0.67626330  0.31713834  1
  Al0+  Al83  1  0.07405004  0.67550561  0.65195827  1
  Al0+  Al84  1  0.17720964  0.92910881  0.01724898  1
  Al0+  Al85  1  0.92836546  0.82002062  0.31693303  1
  Al0+  Al86  1  0.82258813  0.57272367  0.01731660  1
  Al0+  Al87  1  0.43091804  0.32170213  0.64863956  1
  Al0+  Al88  1  0.17985719  0.42595818  0.34834437  1
  Al0+  Al89  1  0.82195395  0.07035625  0.68158809  1
  Al0+  Al90  1  0.57367740  0.17747268  0.98367739  1
  Al0+  Al91  1  0.43138643  0.32024697  0.31961822  1
  Al0+  Al92  1  0.57179795  0.67945816  0.31794099  1
  Al0+  Al93  1  0.92854815  0.81942228  0.65209340  1
  Al0+  Al94  1  0.42699197  0.82402777  0.31908257  1
  Al0+  Al95  1  0.67700962  0.43087548  0.67953634  1
  Si0+  Si96  1  0.92979685  0.32350165  0.98440102  1
  Si0+  Si97  1  0.82440285  0.07250601  0.34842612  1
  Si0+  Si98  1  0.18006866  0.42462872  0.68306167  1
  Si0+  Si99  1  0.82154761  0.07062281  0.01657330  1
  Si0+  Si100  1  0.92779656  0.32076266  0.65346182  1
  Si0+  Si101  1  0.42883154  0.82314214  0.65538465  1
  Si0+  Si102  1  0.56925350  0.68178179  0.65433640  1
  Si0+  Si103  1  0.42632084  0.82024363  0.98452836  1
  Si0+  Si104  1  0.67687602  0.42603769  0.34862573  1
  Si0+  Si105  1  0.31921247  0.56995448  0.68158223  1
  Si0+  Si106  1  0.07172491  0.67898762  0.98593979  1
  Si0+  Si107  1  0.32135048  0.07594423  0.68505247  1
  Si0+  Si108  1  0.06995433  0.17875600  0.65260778  1
  Si0+  Si109  1  0.67617331  0.93093877  0.01588646  1
  Si0+  Si110  1  0.92551263  0.32259193  0.31770659  1
  Si0+  Si111  1  0.18139430  0.42686223  0.01236623  1
  Si0+  Si112  1  0.57165880  0.68227339  0.98276306  1
  Si0+  Si113  1  0.57390742  0.17689031  0.64759869  1
  Si0+  Si114  1  0.92788549  0.81972063  0.98367655  1
  Si0+  Si115  1  0.17690072  0.92907951  0.34841166  1
  Si0+  Si116  1  0.32088879  0.57217389  0.01390954  1
  Si0+  Si117  1  0.57293928  0.17777002  0.31962284  1
  Si0+  Si118  1  0.32026429  0.07029020  0.34798213  1
  Si0+  Si119  1  0.32033526  0.07086604  0.01649118  1
  O2-  O120  1  0.25054335  0.00519079  0.06389892  1
  O2-  O121  1  0.25099182  -0.00261413  0.39036014  1
  O2-  O122  1  0.25557182  0.00399778  0.72839746  1
  O2-  O123  1  0.25539728  0.49503638  0.05334786  1
  O2-  O124  1  0.24784738  0.50146237  0.39992372  1
  O2-  O125  1  0.24727360  0.49999794  0.72416756  1
  O2-  O126  1  0.74442798  0.00519434  0.05722914  1
  O2-  O127  1  0.75440101  0.00536935  0.39160340  1
  O2-  O128  1  0.74843677  0.00021773  0.73294274  1
  O2-  O129  1  0.75118995  0.49949294  0.06623101  1
  O2-  O130  1  0.74597559  0.49381535  0.39299961  1
  O2-  O131  1  0.75392115  0.49705881  0.73042975  1
  O2-  O132  1  -0.00356455  0.25548069  0.27396975  1
  O2-  O133  1  -0.00182530  0.24865491  0.61062593  1
  O2-  O134  1  -0.00498622  0.25259245  0.93706557  1
  O2-  O135  1  -0.00124098  0.74737613  0.26482311  1
  O2-  O136  1  -0.00372719  0.74226510  0.60400768  1
  O2-  O137  1  -0.00184577  0.74686440  0.94349908  1
  O2-  O138  1  0.51105333  0.25115876  0.27364273  1
  O2-  O139  1  0.50762861  0.24813691  0.60344766  1
  O2-  O140  1  0.50795105  0.25571780  0.93369955  1
  O2-  O141  1  0.49683148  0.75007371  0.26875644  1
  O2-  O142  1  0.50687086  0.76107788  0.61352554  1
  O2-  O143  1  0.49871003  0.75181601  0.94045182  1
  O2-  O144  1  0.06927371  0.17918140  0.09676065  1
  O2-  O145  1  0.06887978  0.17809570  0.43457188  1
  O2-  O146  1  0.06993230  0.18024197  0.75784120  1
  O2-  O147  1  0.07443692  0.67996123  0.09029098  1
  O2-  O148  1  0.07033602  0.68078688  0.43041065  1
  O2-  O149  1  0.07710818  0.67933405  0.76648892  1
  O2-  O150  1  0.56712124  0.17321081  0.09735618  1
  O2-  O151  1  0.57014755  0.17626067  0.42498989  1
  O2-  O152  1  0.57095408  0.17495579  0.75292085  1
  O2-  O153  1  0.57172539  0.68342667  0.08732047  1
  O2-  O154  1  0.57233935  0.68220795  0.43212627  1
  O2-  O155  1  0.56439617  0.68041250  0.75997040  1
  O2-  O156  1  0.18447305  0.42314884  0.23404672  1
  O2-  O157  1  0.18175911  0.41754313  0.57899473  1
  O2-  O158  1  0.17903319  0.42967653  0.90692807  1
  O2-  O159  1  0.17661353  0.93231897  0.24316637  1
  O2-  O160  1  0.18416275  0.93145893  0.56532205  1
  O2-  O161  1  0.17899494  0.92722593  0.90387517  1
  O2-  O162  1  0.67948823  0.42387451  0.24321026  1
  O2-  O163  1  0.67676116  0.43568820  0.56588453  1
  O2-  O164  1  0.67912115  0.43357910  0.90254670  1
  O2-  O165  1  0.67849370  0.93483379  0.23131648  1
  O2-  O166  1  0.67402223  0.92909860  0.56967155  1
  O2-  O167  1  0.67737007  0.92872495  0.91104700  1
  O2-  O168  1  0.42804189  0.32156986  0.09585582  1
  O2-  O169  1  0.43058960  0.31784179  0.43278010  1
  O2-  O170  1  0.43001090  0.32111007  0.76141488  1
  O2-  O171  1  0.42605455  0.81960041  0.08904993  1
  O2-  O172  1  0.42985176  0.82571295  0.43326380  1
  O2-  O173  1  0.42580638  0.81771007  0.76092579  1
  O2-  O174  1  0.93391197  0.32293549  0.08984939  1
  O2-  O175  1  0.92334786  0.31880556  0.42349260  1
  O2-  O176  1  0.93157942  0.32136460  0.75862742  1
  O2-  O177  1  0.92722896  0.82113388  0.08844563  1
  O2-  O178  1  0.92956950  0.82255178  0.43014029  1
  O2-  O179  1  0.93260757  0.82086493  0.76641804  1
  O2-  O180  1  0.32014258  0.07046142  0.24293035  1
  O2-  O181  1  0.31910375  0.07692007  0.57909517  1
  O2-  O182  1  0.31916749  0.06654527  0.91096412  1
  O2-  O183  1  0.32097065  0.56867305  0.23498467  1
  O2-  O184  1  0.32087730  0.57150495  0.57730443  1
  O2-  O185  1  0.31830197  0.57620733  0.90831082  1
  O2-  O186  1  0.82406652  0.07268299  0.24255809  1
  O2-  O187  1  0.82249328  0.06982689  0.56800386  1
  O2-  O188  1  0.82537037  0.06646118  0.91183570  1
  O2-  O189  1  0.81773521  0.56887119  0.23502090  1
  O2-  O190  1  0.82237575  0.57142119  0.56825038  1
  O2-  O191  1  0.82315855  0.57289047  0.90371692  1
  O2-  O192  1  0.03831235  0.08595708  0.26249732  1
  O2-  O193  1  0.04342721  0.08654189  0.60631546  1
  O2-  O194  1  0.03559392  0.08046216  0.93204498  1
  O2-  O195  1  0.04469120  0.57545809  0.26772993  1
  O2-  O196  1  0.05808332  0.57273681  0.60369474  1
  O2-  O197  1  0.04862393  0.58505330  0.93972310  1
  O2-  O198  1  0.54062138  0.08720037  0.27165388  1
  O2-  O199  1  0.54334347  0.08393979  0.60156264  1
  O2-  O200  1  0.53887406  0.08125174  0.92787588  1
  O2-  O201  1  0.54418537  0.58229578  0.26227656  1
  O2-  O202  1  0.53275906  0.59467340  0.60484757  1
  O2-  O203  1  0.54343815  0.59137817  0.93415909  1
  O2-  O204  1  0.16585462  0.20886558  0.26450563  1
  O2-  O205  1  0.16171889  0.20774979  0.60608786  1
  O2-  O206  1  0.16504971  0.20601510  0.92722857  1
  O2-  O207  1  0.16885749  0.70444274  0.26438205  1
  O2-  O208  1  0.17100514  0.71060347  0.59941548  1
  O2-  O209  1  0.16296079  0.70959753  0.93779067  1
  O2-  O210  1  0.66934786  0.19480847  0.27540713  1
  O2-  O211  1  0.66951645  0.19715540  0.60393782  1
  O2-  O212  1  0.67626668  0.19631418  0.93547538  1
  O2-  O213  1  0.66646277  0.71300867  0.26159823  1
  O2-  O214  1  0.66402742  0.70175883  0.61100050  1
  O2-  O215  1  0.66252371  0.71359803  0.93528158  1
  O2-  O216  1  0.09136061  0.45522814  0.06220014  1
  O2-  O217  1  0.07895874  0.44530832  0.39910364  1
  O2-  O218  1  0.08810445  0.44746265  0.73245988  1
  O2-  O219  1  0.08046242  0.95982542  0.07017246  1
  O2-  O220  1  0.08644914  0.96274206  0.39442472  1
  O2-  O221  1  0.08685863  0.96020187  0.73405114  1
  O2-  O222  1  0.57936985  0.46087247  0.06680763  1
  O2-  O223  1  0.58276732  0.45264878  0.39150066  1
  O2-  O224  1  0.58010034  0.46587999  0.73261499  1
  O2-  O225  1  0.58233905  0.95598262  0.06061685  1
  O2-  O226  1  0.58271882  0.96213774  0.39994242  1
  O2-  O227  1  0.57742297  0.95605452  0.73679519  1
  O2-  O228  1  0.20719783  0.33263925  0.05549172  1
  O2-  O229  1  0.21290416  0.32820309  0.40135606  1
  O2-  O230  1  0.21305260  0.33521358  0.73322363  1
  O2-  O231  1  0.21039669  0.83355430  0.07147694  1
  O2-  O232  1  0.20185940  0.83657572  0.39414261  1
  O2-  O233  1  0.21526856  0.83395986  0.73489548  1
  O2-  O234  1  0.70173973  0.32841642  0.06756454  1
  O2-  O235  1  0.70012421  0.33151215  0.39518609  1
  O2-  O236  1  0.69691193  0.32961124  0.72923081  1
  O2-  O237  1  0.70730472  0.84036373  0.06327497  1
  O2-  O238  1  0.70829312  0.83514705  0.39804704  1
  O2-  O239  1  0.70353483  0.83048299  0.73851357  1
  O2-  O240  1  0.45547522  0.41744899  0.26506445  1
  O2-  O241  1  0.45935639  0.41962646  0.59591390  1
  O2-  O242  1  0.45478694  0.42468069  0.93039332  1
  O2-  O243  1  0.45700764  0.92172654  0.26457961  1
  O2-  O244  1  0.44593757  0.91915547  0.61232589  1
  O2-  O245  1  0.45124879  0.91234657  0.93656336  1
  O2-  O246  1  0.94864715  0.41622630  0.27237451  1
  O2-  O247  1  0.95822104  0.41099368  0.60477505  1
  O2-  O248  1  0.96010806  0.41619529  0.93800260  1
  O2-  O249  1  0.95791784  0.91758875  0.26199086  1
  O2-  O250  1  0.96139820  0.91702412  0.59972285  1
  O2-  O251  1  0.95796432  0.91069338  0.93658520  1
  O2-  O252  1  0.33747600  0.28325429  0.26485832  1
  O2-  O253  1  0.33449115  0.28769664  0.59543139  1
  O2-  O254  1  0.33469121  0.29133184  0.92664219  1
  O2-  O255  1  0.32851384  0.79870400  0.26575658  1
  O2-  O256  1  0.34060567  0.78861241  0.60612368  1
  O2-  O257  1  0.33475718  0.78841025  0.93773971  1
  O2-  O258  1  0.83325820  0.29481813  0.26880146  1
  O2-  O259  1  0.83545050  0.29436194  0.60685717  1
  O2-  O260  1  0.83459080  0.30131367  0.94113873  1
  O2-  O261  1  0.83016888  0.79292568  0.26364960  1
  O2-  O262  1  0.82714080  0.79624980  0.60308233  1
  O2-  O263  1  0.83521640  0.79427053  0.93641109  1
  O2-  O264  1  0.41340439  0.04303252  0.06259002  1
  O2-  O265  1  0.41132728  0.04468756  0.39802988  1
  O2-  O266  1  0.41567598  0.05470028  0.73056038  1
  O2-  O267  1  0.41511567  0.55148107  0.05838431  1
  O2-  O268  1  0.42094516  0.54396618  0.40020389  1
  O2-  O269  1  0.40958300  0.54027723  0.73115169  1
  O2-  O270  1  0.91020899  0.03606879  0.06616025  1
  O2-  O271  1  0.91796240  0.04564704  0.39358242  1
  O2-  O272  1  0.91919963  0.03985104  0.73686892  1
  O2-  O273  1  0.92202241  0.54521121  0.06929432  1
  O2-  O274  1  0.91592279  0.54107777  0.40310699  1
  O2-  O275  1  0.92451027  0.54290997  0.73318348  1
  O2-  O276  1  0.29586572  0.16654437  0.05843899  1
  O2-  O277  1  0.28908749  0.16017368  0.39660799  1
  O2-  O278  1  0.29202139  0.16791017  0.73189936  1
  O2-  O279  1  0.28846757  0.66078419  0.06388943  1
  O2-  O280  1  0.29518989  0.67233821  0.40058580  1
  O2-  O281  1  0.29315223  0.66112951  0.73221179  1
  O2-  O282  1  0.80319833  0.16486969  0.06283788  1
  O2-  O283  1  0.80207016  0.16677100  0.39507913  1
  O2-  O284  1  0.79709437  0.16884528  0.73696370  1
  O2-  O285  1  0.79041997  0.67129255  0.06815315  1
  O2-  O286  1  0.78612399  0.66657961  0.40031683  1
  O2-  O287  1  0.79489282  0.66777996  0.73631740  1
