# generated using pymatgen
data_Ca2Al2SiO7
_symmetry_space_group_name_H-M   'P 1'
_cell_length_a   15.46207902
_cell_length_b   15.46248179
_cell_length_c   15.28777873
_cell_angle_alpha   89.98757717
_cell_angle_beta   90.00402015
_cell_angle_gamma   89.98837465
_symmetry_Int_Tables_number   1
_chemical_formula_structural   Ca2Al2SiO7
_chemical_formula_sum   'Ca48 Al48 Si24 O168'
_cell_volume   3655.03430434
_cell_formula_units_Z   24
loop_
 _symmetry_equiv_pos_site_id
 _symmetry_equiv_pos_as_xyz
  1  'x, y, z'
loop_
 _atom_type_symbol
 _atom_type_oxidation_number
  Ca2+  2.0
  Al0+  0.0
  Si0+  0.0
  O2-  -2.0
loop_
 _atom_site_type_symbol
 _atom_site_label
 _atom_site_symmetry_multiplicity
 _atom_site_fract_x
 _atom_site_fract_y
 _atom_site_fract_z
 _atom_site_occupancy
  Ca2+  Ca0  1  0.17619908  0.07914707  0.17319914  1
  Ca2+  Ca1  1  0.17310134  0.08203062  0.50886228  1
  Ca2+  Ca2  1  0.17196792  0.07378259  0.83915243  1
  Ca2+  Ca3  1  0.15976692  0.58501893  0.16836714  1
  Ca2+  Ca4  1  0.16423819  0.58124768  0.51095466  1
  Ca2+  Ca5  1  0.16308157  0.58368532  0.83146888  1
  Ca2+  Ca6  1  0.66965944  0.07991295  0.17776881  1
  Ca2+  Ca7  1  0.66924354  0.08135688  0.49588063  1
  Ca2+  Ca8  1  0.66890932  0.08603812  0.83887895  1
  Ca2+  Ca9  1  0.67186326  0.58552182  0.17957287  1
  Ca2+  Ca10  1  0.67396760  0.59311514  0.49935448  1
  Ca2+  Ca11  1  0.66910478  0.58060784  0.83780114  1
  Ca2+  Ca12  1  0.08411902  0.32499025  0.16814910  1
  Ca2+  Ca13  1  0.08897700  0.32376572  0.50083800  1
  Ca2+  Ca14  1  0.08174381  0.32784224  0.82178547  1
  Ca2+  Ca15  1  0.07485342  0.82880994  0.15920195  1
  Ca2+  Ca16  1  0.08610959  0.82474482  0.49423136  1
  Ca2+  Ca17  1  0.09347659  0.82809502  0.82931024  1
  Ca2+  Ca18  1  0.57659326  0.32031172  0.16004007  1
  Ca2+  Ca19  1  0.57812989  0.32571988  0.49279234  1
  Ca2+  Ca20  1  0.57529406  0.32763489  0.83471796  1
  Ca2+  Ca21  1  0.58140623  0.83433497  0.16558461  1
  Ca2+  Ca22  1  0.57659912  0.83364257  0.49402293  1
  Ca2+  Ca23  1  0.56650540  0.83800815  0.83044357  1
  Ca2+  Ca24  1  0.33552057  0.41592356  0.16836583  1
  Ca2+  Ca25  1  0.32520865  0.42697076  0.50979017  1
  Ca2+  Ca26  1  0.33004681  0.42005439  0.83459502  1
  Ca2+  Ca27  1  0.33256828  0.92237472  0.16638245  1
  Ca2+  Ca28  1  0.32963889  0.92628448  0.50929882  1
  Ca2+  Ca29  1  0.32545707  0.91934491  0.83678555  1
  Ca2+  Ca30  1  0.83185452  0.42589509  0.17556597  1
  Ca2+  Ca31  1  0.83780246  0.42074302  0.50376968  1
  Ca2+  Ca32  1  0.83745968  0.41537303  0.83570453  1
  Ca2+  Ca33  1  0.82863710  0.91386859  0.17858031  1
  Ca2+  Ca34  1  0.83099595  0.91360889  0.49494850  1
  Ca2+  Ca35  1  0.83243582  0.91483192  0.83865853  1
  Ca2+  Ca36  1  0.42414138  0.15966458  0.16062363  1
  Ca2+  Ca37  1  0.41659070  0.16147988  0.49196573  1
  Ca2+  Ca38  1  0.41552996  0.15906443  0.83333970  1
  Ca2+  Ca39  1  0.42415921  0.67368255  0.16097437  1
  Ca2+  Ca40  1  0.41368926  0.67472467  0.49771537  1
  Ca2+  Ca41  1  0.40600088  0.67967798  0.82798461  1
  Ca2+  Ca42  1  0.92389554  0.15483679  0.16960565  1
  Ca2+  Ca43  1  0.92903038  0.16658433  0.49560482  1
  Ca2+  Ca44  1  0.92704194  0.17181229  0.82171709  1
  Ca2+  Ca45  1  0.92062582  0.67638154  0.16550211  1
  Ca2+  Ca46  1  0.92780561  0.67037084  0.49028393  1
  Ca2+  Ca47  1  0.92933027  0.67447704  0.83105051  1
  Al0+  Al48  1  -0.00078098  -0.00058093  -0.00068913  1
  Al0+  Al49  1  -0.00005846  -0.00017848  0.32980688  1
  Al0+  Al50  1  -0.00212641  0.00015456  0.66657042  1
  Al0+  Al51  1  0.00023267  0.50063136  -0.00104685  1
  Al0+  Al52  1  -0.00039056  0.49872795  0.33473051  1
  Al0+  Al53  1  -0.00200154  0.50208212  0.66557926  1
  Al0+  Al54  1  0.50267203  -0.00136052  -0.00450450  1
  Al0+  Al55  1  0.49982185  0.00106600  0.33676244  1
  Al0+  Al56  1  0.50117302  -0.00117122  0.66517396  1
  Al0+  Al57  1  0.50028331  0.49649807  -0.00191599  1
  Al0+  Al58  1  0.49860990  0.50074019  0.33092257  1
  Al0+  Al59  1  0.50341312  0.49950635  0.67080574  1
  Al0+  Al60  1  0.25055382  0.25187059  0.00124659  1
  Al0+  Al61  1  0.24861474  0.25155009  0.33288105  1
  Al0+  Al62  1  0.25227196  0.25241088  0.67025209  1
  Al0+  Al63  1  0.25041066  0.74776780  -0.00054004  1
  Al0+  Al64  1  0.25064936  0.74946143  0.32728260  1
  Al0+  Al65  1  0.25109714  0.75195298  0.66207502  1
  Al0+  Al66  1  0.74874916  0.25084353  -0.00116128  1
  Al0+  Al67  1  0.74876982  0.25027238  0.33383542  1
  Al0+  Al68  1  0.74906517  0.25113352  0.66362016  1
  Al0+  Al69  1  0.75270639  0.74903623  -0.00312527  1
  Al0+  Al70  1  0.74863677  0.74878321  0.33690049  1
  Al0+  Al71  1  0.74958021  0.75003749  0.67103644  1
  Al0+  Al72  1  0.43060563  0.81953071  0.98697094  1
  Al0+  Al73  1  0.92808937  0.82313803  0.98341090  1
  Al0+  Al74  1  0.32277501  0.57206564  0.68117522  1
  Al0+  Al75  1  0.07356667  0.17847014  0.65286865  1
  Al0+  Al76  1  0.57029169  0.17891703  0.32050575  1
  Al0+  Al77  1  0.92751543  0.32156571  0.65137432  1
  Al0+  Al78  1  0.32140466  0.07093612  0.01613196  1
  Al0+  Al79  1  0.17742065  0.43079507  0.68237558  1
  Al0+  Al80  1  0.07286480  0.67621758  0.31743209  1
  Al0+  Al81  1  0.42961838  0.82055855  0.65144978  1
  Al0+  Al82  1  0.07197386  0.17870265  0.31907769  1
  Al0+  Al83  1  0.07002171  0.68276906  0.65232232  1
  Al0+  Al84  1  0.82043586  0.56978234  0.34816356  1
  Al0+  Al85  1  0.82359751  0.07286406  0.34936335  1
  Al0+  Al86  1  0.17676158  0.92983773  0.67941905  1
  Al0+  Al87  1  0.07054553  0.67862775  0.98293205  1
  Al0+  Al88  1  0.31915405  0.07075791  0.34640395  1
  Al0+  Al89  1  0.17766593  0.92615846  0.01740542  1
  Al0+  Al90  1  0.57118513  0.17827843  0.98391563  1
  Al0+  Al91  1  0.56930486  0.67930525  0.32185866  1
  Al0+  Al92  1  0.92926045  0.82047276  0.32002808  1
  Al0+  Al93  1  0.42690906  0.32139591  0.98295956  1
  Al0+  Al94  1  0.67840975  0.92822987  0.34899971  1
  Al0+  Al95  1  0.32359091  0.07230868  0.68192840  1
  Si0+  Si96  1  0.17810703  0.92628164  0.34813459  1
  Si0+  Si97  1  0.57345942  0.67593884  0.98380206  1
  Si0+  Si98  1  0.82004320  0.57146611  0.68435401  1
  Si0+  Si99  1  0.82041935  0.56916868  0.01558299  1
  Si0+  Si100  1  0.81884673  0.07250841  0.68160886  1
  Si0+  Si101  1  0.17727927  0.42973414  0.01687328  1
  Si0+  Si102  1  0.67986904  0.42633875  0.68411603  1
  Si0+  Si103  1  0.67573992  0.42856290  0.35041397  1
  Si0+  Si104  1  0.57043391  0.17924125  0.64998957  1
  Si0+  Si105  1  0.42837418  0.82348102  0.31559736  1
  Si0+  Si106  1  0.67846125  0.42840175  0.01684198  1
  Si0+  Si107  1  0.32267014  0.56990469  0.01626575  1
  Si0+  Si108  1  0.92346801  0.82283339  0.64881061  1
  Si0+  Si109  1  0.42719215  0.32238105  0.31787535  1
  Si0+  Si110  1  0.92996890  0.32101612  0.98796711  1
  Si0+  Si111  1  0.67988453  0.92871584  0.68367237  1
  Si0+  Si112  1  0.07134599  0.17914488  0.98645408  1
  Si0+  Si113  1  0.32252386  0.57178107  0.34594681  1
  Si0+  Si114  1  0.43036050  0.32373651  0.65130335  1
  Si0+  Si115  1  0.82050941  0.07376013  0.01334577  1
  Si0+  Si116  1  0.68129459  0.92842283  0.01324531  1
  Si0+  Si117  1  0.17909180  0.43029477  0.34795197  1
  Si0+  Si118  1  0.57377541  0.67689839  0.65168623  1
  Si0+  Si119  1  0.92772502  0.32140414  0.31663655  1
  O2-  O120  1  0.24873546  -0.00012804  0.06685008  1
  O2-  O121  1  0.24479002  -0.00363258  0.39301705  1
  O2-  O122  1  0.24667126  0.00437015  0.72953498  1
  O2-  O123  1  0.25029087  0.49960227  0.05849391  1
  O2-  O124  1  0.24692404  0.50555674  0.38759453  1
  O2-  O125  1  0.24982756  0.50204282  0.73343779  1
  O2-  O126  1  0.75297931  -0.00103268  0.05448533  1
  O2-  O127  1  0.75185198  -0.00018941  0.39874205  1
  O2-  O128  1  0.75103834  -0.00053753  0.72606050  1
  O2-  O129  1  0.74644495  0.50178501  0.05929046  1
  O2-  O130  1  0.74476613  0.49585551  0.39627452  1
  O2-  O131  1  0.75073005  0.49797900  0.72629552  1
  O2-  O132  1  -0.00772160  0.24920905  0.27167833  1
  O2-  O133  1  0.00214134  0.25202962  0.60280720  1
  O2-  O134  1  -0.00169143  0.24872686  0.94527242  1
  O2-  O135  1  0.00293827  0.75072249  0.26926645  1
  O2-  O136  1  -0.00317689  0.75905066  0.60618447  1
  O2-  O137  1  0.00487371  0.75673077  0.93324092  1
  O2-  O138  1  0.49436630  0.25224971  0.27436481  1
  O2-  O139  1  0.49540064  0.24698307  0.60904510  1
  O2-  O140  1  0.49493778  0.24534578  0.93291133  1
  O2-  O141  1  0.49703725  0.75385085  0.27245514  1
  O2-  O142  1  0.50251326  0.74219193  0.60768159  1
  O2-  O143  1  0.50405256  0.74277740  0.93936144  1
  O2-  O144  1  0.07032546  0.18114151  0.09173738  1
  O2-  O145  1  0.07560540  0.18290587  0.43146828  1
  O2-  O146  1  0.06877496  0.17900311  0.76713091  1
  O2-  O147  1  0.06409321  0.67388231  0.09600423  1
  O2-  O148  1  0.07296780  0.67537852  0.43100956  1
  O2-  O149  1  0.06732928  0.68162690  0.76516074  1
  O2-  O150  1  0.57478337  0.18074741  0.09716430  1
  O2-  O151  1  0.56869367  0.18177383  0.43407370  1
  O2-  O152  1  0.57418892  0.18121392  0.75489830  1
  O2-  O153  1  0.57409423  0.67603994  0.08948478  1
  O2-  O154  1  0.56561344  0.67769301  0.43477795  1
  O2-  O155  1  0.57777682  0.67879133  0.75733272  1
  O2-  O156  1  0.17987389  0.42810650  0.24243681  1
  O2-  O157  1  0.18028891  0.43143149  0.56833532  1
  O2-  O158  1  0.17382603  0.43007342  0.91240951  1
  O2-  O159  1  0.18093706  0.92655028  0.24262696  1
  O2-  O160  1  0.17897577  0.92948053  0.56556084  1
  O2-  O161  1  0.17869087  0.92832667  0.90395489  1
  O2-  O162  1  0.67673511  0.43060336  0.24459205  1
  O2-  O163  1  0.67804968  0.42476541  0.57940328  1
  O2-  O164  1  0.68088574  0.42833018  0.91149156  1
  O2-  O165  1  0.67760461  0.92913840  0.23486011  1
  O2-  O166  1  0.67984564  0.92737912  0.57912455  1
  O2-  O167  1  0.68243882  0.92883656  0.90773028  1
  O2-  O168  1  0.43219987  0.32603386  0.09646946  1
  O2-  O169  1  0.42858688  0.32470805  0.42367089  1
  O2-  O170  1  0.43488832  0.32732967  0.75575325  1
  O2-  O171  1  0.43505202  0.81793842  0.10017336  1
  O2-  O172  1  0.42782488  0.82156044  0.42113804  1
  O2-  O173  1  0.43235585  0.82100912  0.76463401  1
  O2-  O174  1  0.93056977  0.32336342  0.09288457  1
  O2-  O175  1  0.93068052  0.32370356  0.42174816  1
  O2-  O176  1  0.92515289  0.31745398  0.76592086  1
  O2-  O177  1  0.92138600  0.81861370  0.09620049  1
  O2-  O178  1  0.93041696  0.81752368  0.43381080  1
  O2-  O179  1  0.91750083  0.81866843  0.75412716  1
  O2-  O180  1  0.32058592  0.07013455  0.23354543  1
  O2-  O181  1  0.32537982  0.06971832  0.56808457  1
  O2-  O182  1  0.31847797  0.07018533  0.90292226  1
  O2-  O183  1  0.32633764  0.56819831  0.24082030  1
  O2-  O184  1  0.32381851  0.56893330  0.56695161  1
  O2-  O185  1  0.32437013  0.56880974  0.91162587  1
  O2-  O186  1  0.82007709  0.07252490  0.23511978  1
  O2-  O187  1  0.81625615  0.07417576  0.57720903  1
  O2-  O188  1  0.81771248  0.07705052  0.90790731  1
  O2-  O189  1  0.81848958  0.56707570  0.23455275  1
  O2-  O190  1  0.81721414  0.57315863  0.57956563  1
  O2-  O191  1  0.81911406  0.56601770  0.91027905  1
  O2-  O192  1  0.04421574  0.08256372  0.26323904  1
  O2-  O193  1  0.04138056  0.08095849  0.60011181  1
  O2-  O194  1  0.04434171  0.08765136  0.93918398  1
  O2-  O195  1  0.04188130  0.57764335  0.26606233  1
  O2-  O196  1  0.03649809  0.58637220  0.59989308  1
  O2-  O197  1  0.03473443  0.58179082  0.92959992  1
  O2-  O198  1  0.54042989  0.08209030  0.26720336  1
  O2-  O199  1  0.54716134  0.08618647  0.60397541  1
  O2-  O200  1  0.54983136  0.07915101  0.93013538  1
  O2-  O201  1  0.53912944  0.58318053  0.26497013  1
  O2-  O202  1  0.55499392  0.58092212  0.60803876  1
  O2-  O203  1  0.55054336  0.58122610  0.93926726  1
  O2-  O204  1  0.16537262  0.21709637  0.26276449  1
  O2-  O205  1  0.17293348  0.20766888  0.60184057  1
  O2-  O206  1  0.16184183  0.20978427  0.94009193  1
  O2-  O207  1  0.17239290  0.69988704  0.26395551  1
  O2-  O208  1  0.16681046  0.70927936  0.59740267  1
  O2-  O209  1  0.17202671  0.69812356  0.93403318  1
  O2-  O210  1  0.66676928  0.20996402  0.26630369  1
  O2-  O211  1  0.65991548  0.21241296  0.60169239  1
  O2-  O212  1  0.66783455  0.21427894  0.92918761  1
  O2-  O213  1  0.66630824  0.70700963  0.26811757  1
  O2-  O214  1  0.66608599  0.70777529  0.60537938  1
  O2-  O215  1  0.66688773  0.70096600  0.93741770  1
  O2-  O216  1  0.08615274  0.45972367  0.06573662  1
  O2-  O217  1  0.08682788  0.45359750  0.39559911  1
  O2-  O218  1  0.07779511  0.45852229  0.73421142  1
  O2-  O219  1  0.07718518  0.95435643  0.06739030  1
  O2-  O220  1  0.08332948  0.94873592  0.39140544  1
  O2-  O221  1  0.07596325  0.95187752  0.73216315  1
  O2-  O222  1  0.58565567  0.45281367  0.06345865  1
  O2-  O223  1  0.58175269  0.45464483  0.39595895  1
  O2-  O224  1  0.58984877  0.45508429  0.73478241  1
  O2-  O225  1  0.58990323  0.95553121  0.06051411  1
  O2-  O226  1  0.58177553  0.95956580  0.40393910  1
  O2-  O227  1  0.58909750  0.95902789  0.73104363  1
  O2-  O228  1  0.20417270  0.33832083  0.06589030  1
  O2-  O229  1  0.21100587  0.34077142  0.39703126  1
  O2-  O230  1  0.20608267  0.33303760  0.73606613  1
  O2-  O231  1  0.20642666  0.82673029  0.06834551  1
  O2-  O232  1  0.20548858  0.83185318  0.39256861  1
  O2-  O233  1  0.21074279  0.83284511  0.73128163  1
  O2-  O234  1  0.70970160  0.33777183  0.06482499  1
  O2-  O235  1  0.69974894  0.33484424  0.39631098  1
  O2-  O236  1  0.70901028  0.33541380  0.73318416  1
  O2-  O237  1  0.70758912  0.83512712  0.05929438  1
  O2-  O238  1  0.70472508  0.83027693  0.40404112  1
  O2-  O239  1  0.70671274  0.83729474  0.73315508  1
  O2-  O240  1  0.45457294  0.41464856  0.26961934  1
  O2-  O241  1  0.46531253  0.41318046  0.60254097  1
  O2-  O242  1  0.46191462  0.41750597  0.92794724  1
  O2-  O243  1  0.45681829  0.91605619  0.27053684  1
  O2-  O244  1  0.46615189  0.91513757  0.59670081  1
  O2-  O245  1  0.46468953  0.91325854  0.93045748  1
  O2-  O246  1  0.95863942  0.41264868  0.26828611  1
  O2-  O247  1  0.95004942  0.42198246  0.60156013  1
  O2-  O248  1  0.95892885  0.41135906  0.93851853  1
  O2-  O249  1  0.95149283  0.91959648  0.26622993  1
  O2-  O250  1  0.94101925  0.91928352  0.60703356  1
  O2-  O251  1  0.94735476  0.92458521  0.93250444  1
  O2-  O252  1  0.33352285  0.29959358  0.27174875  1
  O2-  O253  1  0.33638937  0.30375077  0.60574395  1
  O2-  O254  1  0.32592528  0.30098835  0.93286128  1
  O2-  O255  1  0.33616019  0.79713945  0.26767795  1
  O2-  O256  1  0.33516818  0.79138999  0.59385246  1
  O2-  O257  1  0.33456233  0.78799401  0.93368549  1
  O2-  O258  1  0.83184335  0.30283176  0.27250740  1
  O2-  O259  1  0.82944906  0.29293190  0.59764133  1
  O2-  O260  1  0.83722535  0.29630725  0.94082039  1
  O2-  O261  1  0.83057447  0.78914819  0.26930763  1
  O2-  O262  1  0.83129245  0.79084463  0.60296256  1
  O2-  O263  1  0.83181398  0.78848112  0.92747972  1
  O2-  O264  1  0.42225516  0.04032708  0.06414967  1
  O2-  O265  1  0.41534817  0.04130496  0.40105088  1
  O2-  O266  1  0.42186007  0.03964580  0.73372786  1
  O2-  O267  1  0.41483352  0.53988735  0.06354883  1
  O2-  O268  1  0.41187037  0.54010800  0.39612943  1
  O2-  O269  1  0.42190376  0.54401205  0.73418130  1
  O2-  O270  1  0.91380296  0.05048121  0.05900751  1
  O2-  O271  1  0.92314532  0.04611985  0.40071795  1
  O2-  O272  1  0.91108009  0.04813383  0.72974617  1
  O2-  O273  1  0.91043805  0.53629314  0.06295427  1
  O2-  O274  1  0.91623587  0.53651962  0.40246455  1
  O2-  O275  1  0.91094405  0.54430044  0.73289754  1
  O2-  O276  1  0.29571985  0.17166882  0.06688133  1
  O2-  O277  1  0.29021498  0.16923599  0.39838241  1
  O2-  O278  1  0.30470859  0.17364945  0.73168737  1
  O2-  O279  1  0.29708190  0.66121705  0.06491468  1
  O2-  O280  1  0.30009604  0.66609214  0.39054334  1
  O2-  O281  1  0.29429431  0.67107336  0.73075300  1
  O2-  O282  1  0.79053482  0.16446546  0.06205150  1
  O2-  O283  1  0.79372624  0.17164118  0.40148173  1
  O2-  O284  1  0.78691007  0.16338916  0.72962822  1
  O2-  O285  1  0.79445331  0.66212532  0.06118338  1
  O2-  O286  1  0.78840272  0.66418350  0.40445692  1
  O2-  O287  1  0.78854366  0.66134894  0.73430311  1
