# generated using pymatgen
data_Ca2Al2SiO7
_symmetry_space_group_name_H-M   'P 1'
_cell_length_a   15.45262790
_cell_length_b   15.45265238
_cell_length_c   15.27979412
_cell_angle_alpha   89.99388225
_cell_angle_beta   89.99644338
_cell_angle_gamma   89.99232188
_symmetry_Int_Tables_number   1
_chemical_formula_structural   Ca2Al2SiO7
_chemical_formula_sum   'Ca48 Al48 Si24 O168'
_cell_volume   3648.57163171
_cell_formula_units_Z   24
loop_
 _symmetry_equiv_pos_site_id
 _symmetry_equiv_pos_as_xyz
  1  'x, y, z'
loop_
 _atom_type_symbol
 _atom_type_oxidation_number
  Ca2+  2.0
  Al0+  0.0
  Si0+  0.0
  O2-  -2.0
loop_
 _atom_site_type_symbol
 _atom_site_label
 _atom_site_symmetry_multiplicity
 _atom_site_fract_x
 _atom_site_fract_y
 _atom_site_fract_z
 _atom_site_occupancy
  Ca2+  Ca0  1  0.17264926  0.08769568  0.17160041  1
  Ca2+  Ca1  1  0.17145862  0.08541005  0.50415599  1
  Ca2+  Ca2  1  0.17852828  0.08731662  0.83756537  1
  Ca2+  Ca3  1  0.16836462  0.58677132  0.17463060  1
  Ca2+  Ca4  1  0.17519770  0.58692549  0.50437481  1
  Ca2+  Ca5  1  0.16811152  0.58174721  0.83558675  1
  Ca2+  Ca6  1  0.67687935  0.09461669  0.17175601  1
  Ca2+  Ca7  1  0.67551159  0.07710517  0.50470455  1
  Ca2+  Ca8  1  0.67476078  0.07992322  0.83867033  1
  Ca2+  Ca9  1  0.65350271  0.57224690  0.17095049  1
  Ca2+  Ca10  1  0.66058248  0.57787052  0.49945059  1
  Ca2+  Ca11  1  0.66947148  0.57764571  0.84311207  1
  Ca2+  Ca12  1  0.07624727  0.32783117  0.16184145  1
  Ca2+  Ca13  1  0.08055569  0.33050549  0.49901203  1
  Ca2+  Ca14  1  0.07093950  0.33588944  0.82576853  1
  Ca2+  Ca15  1  0.08092135  0.82316608  0.16717680  1
  Ca2+  Ca16  1  0.07202318  0.83380718  0.49108697  1
  Ca2+  Ca17  1  0.07940560  0.82914121  0.83047729  1
  Ca2+  Ca18  1  0.58499009  0.32803358  0.15903385  1
  Ca2+  Ca19  1  0.58391328  0.32627603  0.49160130  1
  Ca2+  Ca20  1  0.58279933  0.32793022  0.83815547  1
  Ca2+  Ca21  1  0.58067682  0.82274180  0.16555908  1
  Ca2+  Ca22  1  0.57840863  0.82938066  0.49150025  1
  Ca2+  Ca23  1  0.59064366  0.82898658  0.82986451  1
  Ca2+  Ca24  1  0.33728452  0.42203051  0.17254403  1
  Ca2+  Ca25  1  0.32603098  0.43030536  0.50687530  1
  Ca2+  Ca26  1  0.32793507  0.41632282  0.83603014  1
  Ca2+  Ca27  1  0.33657725  0.91833957  0.16898070  1
  Ca2+  Ca28  1  0.33409336  0.91965578  0.50518619  1
  Ca2+  Ca29  1  0.33612193  0.93043372  0.83759329  1
  Ca2+  Ca30  1  0.82103553  0.41047852  0.16859776  1
  Ca2+  Ca31  1  0.82863085  0.41455823  0.50150260  1
  Ca2+  Ca32  1  0.83024370  0.41013966  0.84218722  1
  Ca2+  Ca33  1  0.83645325  0.92717479  0.17378973  1
  Ca2+  Ca34  1  0.83469723  0.92304788  0.50761280  1
  Ca2+  Ca35  1  0.83447495  0.92446347  0.83445653  1
  Ca2+  Ca36  1  0.43060325  0.17113130  0.15579678  1
  Ca2+  Ca37  1  0.42330772  0.16503571  0.49272891  1
  Ca2+  Ca38  1  0.41623543  0.16612562  0.83287276  1
  Ca2+  Ca39  1  0.42246237  0.66669482  0.16743085  1
  Ca2+  Ca40  1  0.41599926  0.66967616  0.48993944  1
  Ca2+  Ca41  1  0.42353256  0.66191185  0.83170333  1
  Ca2+  Ca42  1  0.91727884  0.16600079  0.16313199  1
  Ca2+  Ca43  1  0.91579339  0.16680783  0.49500418  1
  Ca2+  Ca44  1  0.90521066  0.17471330  0.83072315  1
  Ca2+  Ca45  1  0.92476412  0.66901110  0.16302844  1
  Ca2+  Ca46  1  0.92000862  0.68154238  0.49174061  1
  Ca2+  Ca47  1  0.92280902  0.67076503  0.82615636  1
  Al0+  Al48  1  0.00160095  -0.00130786  0.00403928  1
  Al0+  Al49  1  0.00176928  0.00249531  0.32932735  1
  Al0+  Al50  1  0.00073733  0.00103234  0.66833017  1
  Al0+  Al51  1  0.00079954  0.50040210  -0.00701420  1
  Al0+  Al52  1  -0.00267800  0.49918918  0.33156126  1
  Al0+  Al53  1  -0.00038000  0.49902611  0.66222273  1
  Al0+  Al54  1  0.50122459  -0.00079513  0.00168726  1
  Al0+  Al55  1  0.50254877  0.00085657  0.32434880  1
  Al0+  Al56  1  0.50160123  -0.00216729  0.67406688  1
  Al0+  Al57  1  0.49907967  0.49999232  -0.00491145  1
  Al0+  Al58  1  0.49743059  0.49952041  0.34265193  1
  Al0+  Al59  1  0.49959521  0.49820566  0.66970074  1
  Al0+  Al60  1  0.25003845  0.25084406  0.00338870  1
  Al0+  Al61  1  0.24859078  0.25130525  0.33163255  1
  Al0+  Al62  1  0.25011896  0.25223816  0.67292363  1
  Al0+  Al63  1  0.24961620  0.75034352  -0.00555770  1
  Al0+  Al64  1  0.24922597  0.75248395  0.33131787  1
  Al0+  Al65  1  0.25322757  0.74980321  0.67238113  1
  Al0+  Al66  1  0.74906238  0.24939108  0.00036313  1
  Al0+  Al67  1  0.74948593  0.25019546  0.34108250  1
  Al0+  Al68  1  0.74936363  0.24938274  0.66372598  1
  Al0+  Al69  1  0.75093445  0.75083880  -0.00305995  1
  Al0+  Al70  1  0.74888785  0.74954980  0.32400112  1
  Al0+  Al71  1  0.75031416  0.74793422  0.66442939  1
  Al0+  Al72  1  0.67985508  0.92604999  0.68077640  1
  Al0+  Al73  1  0.31763557  0.57166585  0.34568944  1
  Al0+  Al74  1  0.57195468  0.17797973  0.98308054  1
  Al0+  Al75  1  0.82214584  0.07150593  0.68219069  1
  Al0+  Al76  1  0.93015559  0.31742632  0.98831688  1
  Al0+  Al77  1  0.92704971  0.32080931  0.65027455  1
  Al0+  Al78  1  0.82198130  0.06917071  0.34841817  1
  Al0+  Al79  1  0.17726600  0.43042737  0.68264433  1
  Al0+  Al80  1  0.07049102  0.67832774  0.32062678  1
  Al0+  Al81  1  0.42785861  0.82310470  0.31879658  1
  Al0+  Al82  1  0.32222206  0.57246126  0.68525024  1
  Al0+  Al83  1  0.67925091  0.43057585  0.34844774  1
  Al0+  Al84  1  0.32127447  0.07213842  0.01729838  1
  Al0+  Al85  1  0.07128130  0.67921479  0.98378616  1
  Al0+  Al86  1  0.57193231  0.18056633  0.32142105  1
  Al0+  Al87  1  0.56971007  0.67569848  0.31979160  1
  Al0+  Al88  1  0.57064370  0.67924138  0.98509827  1
  Al0+  Al89  1  0.81941097  0.06974001  0.01534853  1
  Al0+  Al90  1  0.42729400  0.32152048  0.98452414  1
  Al0+  Al91  1  0.92978871  0.82144689  0.65371608  1
  Al0+  Al92  1  0.32160157  0.07069177  0.67835068  1
  Al0+  Al93  1  0.67988204  0.43195437  0.01241961  1
  Al0+  Al94  1  0.92722736  0.82346351  0.31684454  1
  Al0+  Al95  1  0.07213354  0.18041280  0.32012817  1
  Si0+  Si96  1  0.17950896  0.92680075  0.01859132  1
  Si0+  Si97  1  0.07400035  0.67894266  0.64954697  1
  Si0+  Si98  1  0.92883830  0.82361554  0.98199200  1
  Si0+  Si99  1  0.67795025  0.92465938  0.01991394  1
  Si0+  Si100  1  0.07294354  0.17595604  0.98331825  1
  Si0+  Si101  1  0.56893734  0.17798954  0.65147345  1
  Si0+  Si102  1  0.92656134  0.32120565  0.31693104  1
  Si0+  Si103  1  0.42775120  0.32097902  0.65026103  1
  Si0+  Si104  1  0.31966679  0.57099303  0.01535307  1
  Si0+  Si105  1  0.07434804  0.17933777  0.65191576  1
  Si0+  Si106  1  0.81991609  0.57048173  0.67931205  1
  Si0+  Si107  1  0.67743950  0.92607229  0.34743121  1
  Si0+  Si108  1  0.32310629  0.07186776  0.34588779  1
  Si0+  Si109  1  0.42811654  0.82158752  0.98043685  1
  Si0+  Si110  1  0.17736009  0.92757628  0.68298615  1
  Si0+  Si111  1  0.82424740  0.57379453  0.01530477  1
  Si0+  Si112  1  0.18046906  0.93088378  0.34760342  1
  Si0+  Si113  1  0.17643556  0.43024828  0.01640618  1
  Si0+  Si114  1  0.17450489  0.42631394  0.34914728  1
  Si0+  Si115  1  0.42757905  0.32146977  0.32036594  1
  Si0+  Si116  1  0.57062359  0.67663610  0.65141299  1
  Si0+  Si117  1  0.43038561  0.82147204  0.65377723  1
  Si0+  Si118  1  0.82370758  0.57394163  0.34934395  1
  Si0+  Si119  1  0.67937832  0.42805083  0.68254504  1
  O2-  O120  1  0.24627743  -0.00277069  0.06355535  1
  O2-  O121  1  0.25300689  0.00098384  0.38995516  1
  O2-  O122  1  0.24534960  -0.00234286  0.72597907  1
  O2-  O123  1  0.24881543  0.50013985  0.05854261  1
  O2-  O124  1  0.23943514  0.49958350  0.39148069  1
  O2-  O125  1  0.24783378  0.50283971  0.73474821  1
  O2-  O126  1  0.74505766  -0.00491167  0.06340575  1
  O2-  O127  1  0.74961762  -0.00937712  0.39271478  1
  O2-  O128  1  0.75207222  -0.00268763  0.73131489  1
  O2-  O129  1  0.75327803  0.50793461  0.06001428  1
  O2-  O130  1  0.75256309  0.50766984  0.39447920  1
  O2-  O131  1  0.75209886  0.49754579  0.72374491  1
  O2-  O132  1  -0.00271356  0.25453967  0.27346114  1
  O2-  O133  1  0.00229632  0.24454855  0.60720070  1
  O2-  O134  1  0.00299105  0.24226452  0.93845838  1
  O2-  O135  1  -0.00435289  0.74650713  0.26926476  1
  O2-  O136  1  0.00754078  0.74990361  0.60626970  1
  O2-  O137  1  -0.00502550  0.75236347  0.93774024  1
  O2-  O138  1  0.49542895  0.25336886  0.27532017  1
  O2-  O139  1  0.49725781  0.24841658  0.60800540  1
  O2-  O140  1  0.49582625  0.24631369  0.93319328  1
  O2-  O141  1  0.49927803  0.74956992  0.27041665  1
  O2-  O142  1  0.49889117  0.74809096  0.61125234  1
  O2-  O143  1  0.49915740  0.75560549  0.93563367  1
  O2-  O144  1  0.07289715  0.17860166  0.08914166  1
  O2-  O145  1  0.07572433  0.18146680  0.43327430  1
  O2-  O146  1  0.07700454  0.18135522  0.75729041  1
  O2-  O147  1  0.07179292  0.67970194  0.09671018  1
  O2-  O148  1  0.07125992  0.68297816  0.43435273  1
  O2-  O149  1  0.07148346  0.67931309  0.75537182  1
  O2-  O150  1  0.57337371  0.18346745  0.09674454  1
  O2-  O151  1  0.56881296  0.17949559  0.43532185  1
  O2-  O152  1  0.56881674  0.18003290  0.75618369  1
  O2-  O153  1  0.56579770  0.67737210  0.09768130  1
  O2-  O154  1  0.56698922  0.67682139  0.43403610  1
  O2-  O155  1  0.57131717  0.67619928  0.75653791  1
  O2-  O156  1  0.17630035  0.42383654  0.24349508  1
  O2-  O157  1  0.18024639  0.43042053  0.56869861  1
  O2-  O158  1  0.17529686  0.43155591  0.91151404  1
  O2-  O159  1  0.18107703  0.93107457  0.24267815  1
  O2-  O160  1  0.17882636  0.92691315  0.57712251  1
  O2-  O161  1  0.18028407  0.92728820  0.91268758  1
  O2-  O162  1  0.67946785  0.42936837  0.23546070  1
  O2-  O163  1  0.67789078  0.42942513  0.57728445  1
  O2-  O164  1  0.68242926  0.43250821  0.89877216  1
  O2-  O165  1  0.67653246  0.92804720  0.24213732  1
  O2-  O166  1  0.67657654  0.92735128  0.56704268  1
  O2-  O167  1  0.68065050  0.92290639  0.91415172  1
  O2-  O168  1  0.42924261  0.32321756  0.09852737  1
  O2-  O169  1  0.42713826  0.31848512  0.42645447  1
  O2-  O170  1  0.42878679  0.32151470  0.75498179  1
  O2-  O171  1  0.42583335  0.81868318  0.08586094  1
  O2-  O172  1  0.42830644  0.82467581  0.43317919  1
  O2-  O173  1  0.43135033  0.82243466  0.75856988  1
  O2-  O174  1  0.93176974  0.31748584  0.10140897  1
  O2-  O175  1  0.92761274  0.32042862  0.42274050  1
  O2-  O176  1  0.92572571  0.32059536  0.76341233  1
  O2-  O177  1  0.93057039  0.82369810  0.08731465  1
  O2-  O178  1  0.93023259  0.82428967  0.43095120  1
  O2-  O179  1  0.93137145  0.81753508  0.76686748  1
  O2-  O180  1  0.32055496  0.07201969  0.24125804  1
  O2-  O181  1  0.32244981  0.06864380  0.56459380  1
  O2-  O182  1  0.31867532  0.07028488  0.90370990  1
  O2-  O183  1  0.31868148  0.56849355  0.23225166  1
  O2-  O184  1  0.32210427  0.57328799  0.57149826  1
  O2-  O185  1  0.31823980  0.57023852  0.91032370  1
  O2-  O186  1  0.82055965  0.07141962  0.23531656  1
  O2-  O187  1  0.82034137  0.07087610  0.56846663  1
  O2-  O188  1  0.81886269  0.06857445  0.90234210  1
  O2-  O189  1  0.82809681  0.57029965  0.24414374  1
  O2-  O190  1  0.81620338  0.57190783  0.57431432  1
  O2-  O191  1  0.82340201  0.57261890  0.90904798  1
  O2-  O192  1  0.04427137  0.08516915  0.26333013  1
  O2-  O193  1  0.05381503  0.08378971  0.60747043  1
  O2-  O194  1  0.05227211  0.08010352  0.94019299  1
  O2-  O195  1  0.04664736  0.57813221  0.26831933  1
  O2-  O196  1  0.04774504  0.58602409  0.60350567  1
  O2-  O197  1  0.04154432  0.58375153  0.92721137  1
  O2-  O198  1  0.54504403  0.08581159  0.26363741  1
  O2-  O199  1  0.54059481  0.08490707  0.60677961  1
  O2-  O200  1  0.54767707  0.07698498  0.93371285  1
  O2-  O201  1  0.53545524  0.57766465  0.26952142  1
  O2-  O202  1  0.54208933  0.58417927  0.60513937  1
  O2-  O203  1  0.53772519  0.58485568  0.92838344  1
  O2-  O204  1  0.16790298  0.21160177  0.26334757  1
  O2-  O205  1  0.16711983  0.20857188  0.60454629  1
  O2-  O206  1  0.16632854  0.20391508  0.93892659  1
  O2-  O207  1  0.16624418  0.71137105  0.26561238  1
  O2-  O208  1  0.17016250  0.70314778  0.60812428  1
  O2-  O209  1  0.16633210  0.71249403  0.92758689  1
  O2-  O210  1  0.66780452  0.21566457  0.26996094  1
  O2-  O211  1  0.65955175  0.20785772  0.60297356  1
  O2-  O212  1  0.66756190  0.21237745  0.92876724  1
  O2-  O213  1  0.66821476  0.69722979  0.26466026  1
  O2-  O214  1  0.66205021  0.70303232  0.60312896  1
  O2-  O215  1  0.66917061  0.70660056  0.93157275  1
  O2-  O216  1  0.08505989  0.46034380  0.06351635  1
  O2-  O217  1  0.07887364  0.44645698  0.39351652  1
  O2-  O218  1  0.07711648  0.45732454  0.73350147  1
  O2-  O219  1  0.08550129  0.94887105  0.06508952  1
  O2-  O220  1  0.09001792  0.96191907  0.39570661  1
  O2-  O221  1  0.08452332  0.95155026  0.73083290  1
  O2-  O222  1  0.58202461  0.46250017  0.06441020  1
  O2-  O223  1  0.58335242  0.45890535  0.40657063  1
  O2-  O224  1  0.58815935  0.45641131  0.73003111  1
  O2-  O225  1  0.58247898  0.94568166  0.06320254  1
  O2-  O226  1  0.58441553  0.95657522  0.39342456  1
  O2-  O227  1  0.58329241  0.95400048  0.73784933  1
  O2-  O228  1  0.20179114  0.33783575  0.06387784  1
  O2-  O229  1  0.20524715  0.33489060  0.39794464  1
  O2-  O230  1  0.20672595  0.33356412  0.73799642  1
  O2-  O231  1  0.20901995  0.83342102  0.06352183  1
  O2-  O232  1  0.20669228  0.83989798  0.39727860  1
  O2-  O233  1  0.20416243  0.83518743  0.73095087  1
  O2-  O234  1  0.71259442  0.33621441  0.06629623  1
  O2-  O235  1  0.71266295  0.33655303  0.40676783  1
  O2-  O236  1  0.70641969  0.33577349  0.72804529  1
  O2-  O237  1  0.70503357  0.83076034  0.06551886  1
  O2-  O238  1  0.69686227  0.82946710  0.39053804  1
  O2-  O239  1  0.70790666  0.82680450  0.73322314  1
  O2-  O240  1  0.45342267  0.41546006  0.27708798  1
  O2-  O241  1  0.45862811  0.41252780  0.60316134  1
  O2-  O242  1  0.45740287  0.41786260  0.92880507  1
  O2-  O243  1  0.45689058  0.91911399  0.26157079  1
  O2-  O244  1  0.45932171  0.91289948  0.60570178  1
  O2-  O245  1  0.45210001  0.91650424  0.93703663  1
  O2-  O246  1  0.94779506  0.41541797  0.27054470  1
  O2-  O247  1  0.95710565  0.41743062  0.59486736  1
  O2-  O248  1  0.95973814  0.41379924  0.93264490  1
  O2-  O249  1  0.96267631  0.91890120  0.26340559  1
  O2-  O250  1  0.95858006  0.91950114  0.60107125  1
  O2-  O251  1  0.95935566  0.91599697  0.93562231  1
  O2-  O252  1  0.33394122  0.29916298  0.27325388  1
  O2-  O253  1  0.33493161  0.29485696  0.60431309  1
  O2-  O254  1  0.32721472  0.29478911  0.93343392  1
  O2-  O255  1  0.32997898  0.79641455  0.26487792  1
  O2-  O256  1  0.33692096  0.79635787  0.60726330  1
  O2-  O257  1  0.33576487  0.79460403  0.93258848  1
  O2-  O258  1  0.83363615  0.29181457  0.27317756  1
  O2-  O259  1  0.83046445  0.29037038  0.59518655  1
  O2-  O260  1  0.83423858  0.28704834  0.93339089  1
  O2-  O261  1  0.82867951  0.80062908  0.26268918  1
  O2-  O262  1  0.83451992  0.78686106  0.59882355  1
  O2-  O263  1  0.83459846  0.80108043  0.93632900  1
  O2-  O264  1  0.41901940  0.04124041  0.06889152  1
  O2-  O265  1  0.41601733  0.04443046  0.39136808  1
  O2-  O266  1  0.41517592  0.03728292  0.73610933  1
  O2-  O267  1  0.41171214  0.54246383  0.06105280  1
  O2-  O268  1  0.41064691  0.53854426  0.40542304  1
  O2-  O269  1  0.41996293  0.53945197  0.73735251  1
  O2-  O270  1  0.91829186  0.04119700  0.06752818  1
  O2-  O271  1  0.92111030  0.04230991  0.39986803  1
  O2-  O272  1  0.92207205  0.04793226  0.73451994  1
  O2-  O273  1  0.91786464  0.54563774  0.05964559  1
  O2-  O274  1  0.91577659  0.54601702  0.39894045  1
  O2-  O275  1  0.91365374  0.54656507  0.72423028  1
  O2-  O276  1  0.29067047  0.16887286  0.07156682  1
  O2-  O277  1  0.29433402  0.16387662  0.39341001  1
  O2-  O278  1  0.29279232  0.16666595  0.73394085  1
  O2-  O279  1  0.29147569  0.66410571  0.05965704  1
  O2-  O280  1  0.28908335  0.66961834  0.39933484  1
  O2-  O281  1  0.29881734  0.67171268  0.73940401  1
  O2-  O282  1  0.78781674  0.16609934  0.06908448  1
  O2-  O283  1  0.78840280  0.16397536  0.40426418  1
  O2-  O284  1  0.78821359  0.16946815  0.73302987  1
  O2-  O285  1  0.80279467  0.66922503  0.05894128  1
  O2-  O286  1  0.79963119  0.66965800  0.39217390  1
  O2-  O287  1  0.79041264  0.66022782  0.72962973  1
