# generated using pymatgen
data_Ca2Al2SiO7
_symmetry_space_group_name_H-M   'P 1'
_cell_length_a   15.46218653
_cell_length_b   15.46431530
_cell_length_c   15.28691760
_cell_angle_alpha   90.01169428
_cell_angle_beta   89.98870309
_cell_angle_gamma   90.01045228
_symmetry_Int_Tables_number   1
_chemical_formula_structural   Ca2Al2SiO7
_chemical_formula_sum   'Ca48 Al48 Si24 O168'
_cell_volume   3655.28718653
_cell_formula_units_Z   24
loop_
 _symmetry_equiv_pos_site_id
 _symmetry_equiv_pos_as_xyz
  1  'x, y, z'
loop_
 _atom_type_symbol
 _atom_type_oxidation_number
  Ca2+  2.0
  Al0+  0.0
  Si0+  0.0
  O2-  -2.0
loop_
 _atom_site_type_symbol
 _atom_site_label
 _atom_site_symmetry_multiplicity
 _atom_site_fract_x
 _atom_site_fract_y
 _atom_site_fract_z
 _atom_site_occupancy
  Ca2+  Ca0  1  0.17393250  0.06988807  0.17344420  1
  Ca2+  Ca1  1  0.17294290  0.08056888  0.49772445  1
  Ca2+  Ca2  1  0.17189697  0.07532410  0.84279698  1
  Ca2+  Ca3  1  0.17084671  0.58126552  0.17118837  1
  Ca2+  Ca4  1  0.17066222  0.58104947  0.49778954  1
  Ca2+  Ca5  1  0.16888590  0.57081509  0.83698101  1
  Ca2+  Ca6  1  0.66796645  0.09061297  0.16403130  1
  Ca2+  Ca7  1  0.67272960  0.08318565  0.50377807  1
  Ca2+  Ca8  1  0.67511356  0.08994115  0.83980735  1
  Ca2+  Ca9  1  0.66975032  0.57598566  0.17297196  1
  Ca2+  Ca10  1  0.67456307  0.57278727  0.50547702  1
  Ca2+  Ca11  1  0.66978519  0.57538438  0.84241033  1
  Ca2+  Ca12  1  0.06966805  0.34106739  0.16028330  1
  Ca2+  Ca13  1  0.07582940  0.33852863  0.49293961  1
  Ca2+  Ca14  1  0.07798214  0.34216567  0.83160818  1
  Ca2+  Ca15  1  0.09176794  0.82849004  0.16523394  1
  Ca2+  Ca16  1  0.08168515  0.82533454  0.48883110  1
  Ca2+  Ca17  1  0.08348641  0.83264107  0.83177873  1
  Ca2+  Ca18  1  0.58254596  0.33491256  0.16254898  1
  Ca2+  Ca19  1  0.57915875  0.33987594  0.49627296  1
  Ca2+  Ca20  1  0.58789756  0.33301338  0.83150139  1
  Ca2+  Ca21  1  0.57224611  0.82495347  0.15669995  1
  Ca2+  Ca22  1  0.57327510  0.83047976  0.49371480  1
  Ca2+  Ca23  1  0.57629532  0.82731348  0.83048164  1
  Ca2+  Ca24  1  0.32978159  0.41988349  0.17613787  1
  Ca2+  Ca25  1  0.33546600  0.41976811  0.50577658  1
  Ca2+  Ca26  1  0.32240548  0.40600114  0.83588885  1
  Ca2+  Ca27  1  0.32997569  0.91452593  0.17585406  1
  Ca2+  Ca28  1  0.33479992  0.91548879  0.49803700  1
  Ca2+  Ca29  1  0.33188491  0.90955203  0.84044025  1
  Ca2+  Ca30  1  0.82506323  0.41980581  0.17015879  1
  Ca2+  Ca31  1  0.82510931  0.42036354  0.50216471  1
  Ca2+  Ca32  1  0.82391122  0.42488284  0.84234505  1
  Ca2+  Ca33  1  0.83237071  0.92408333  0.16773798  1
  Ca2+  Ca34  1  0.83254316  0.92353828  0.50634186  1
  Ca2+  Ca35  1  0.83525884  0.93124724  0.83946459  1
  Ca2+  Ca36  1  0.41987817  0.16981762  0.16467944  1
  Ca2+  Ca37  1  0.41365526  0.17981330  0.49268481  1
  Ca2+  Ca38  1  0.42585129  0.17174321  0.82972093  1
  Ca2+  Ca39  1  0.41553909  0.67368552  0.16186002  1
  Ca2+  Ca40  1  0.41094016  0.67479548  0.49139679  1
  Ca2+  Ca41  1  0.42014945  0.67406947  0.83371515  1
  Ca2+  Ca42  1  0.91233785  0.18033590  0.15891263  1
  Ca2+  Ca43  1  0.91731223  0.17234095  0.49314744  1
  Ca2+  Ca44  1  0.91089206  0.17191302  0.83306530  1
  Ca2+  Ca45  1  0.91995727  0.65703608  0.16428335  1
  Ca2+  Ca46  1  0.92187879  0.65526967  0.49320851  1
  Ca2+  Ca47  1  0.91419430  0.65822362  0.83095465  1
  Al0+  Al48  1  0.00160816  0.00045994  0.00913798  1
  Al0+  Al49  1  0.00046389  -0.00117961  0.33647776  1
  Al0+  Al50  1  0.00167158  -0.00033023  0.66896644  1
  Al0+  Al51  1  0.00050265  0.50012208  0.00041147  1
  Al0+  Al52  1  -0.00009574  0.50036873  0.32625809  1
  Al0+  Al53  1  0.00169149  0.49931344  0.67123332  1
  Al0+  Al54  1  0.50064501  0.00284487  -0.00950757  1
  Al0+  Al55  1  0.49999653  0.00116105  0.33377284  1
  Al0+  Al56  1  0.50019947  0.00018252  0.66147610  1
  Al0+  Al57  1  0.49809926  0.50145978  -0.00236152  1
  Al0+  Al58  1  0.49926138  0.50009794  0.33753653  1
  Al0+  Al59  1  0.50030480  0.50174770  0.66820832  1
  Al0+  Al60  1  0.24698603  0.24706428  0.00624383  1
  Al0+  Al61  1  0.24910401  0.24699471  0.33149116  1
  Al0+  Al62  1  0.25051732  0.24721120  0.66729299  1
  Al0+  Al63  1  0.24726129  0.74851992  -0.00262251  1
  Al0+  Al64  1  0.24740323  0.74804727  0.33305227  1
  Al0+  Al65  1  0.24853256  0.74903731  0.66284746  1
  Al0+  Al66  1  0.75024412  0.25259636  -0.00120197  1
  Al0+  Al67  1  0.74974428  0.25027977  0.33381404  1
  Al0+  Al68  1  0.75169999  0.25026358  0.67102963  1
  Al0+  Al69  1  0.75124867  0.75215572  -0.00169687  1
  Al0+  Al70  1  0.75152669  0.75094144  0.33755848  1
  Al0+  Al71  1  0.75040573  0.75233834  0.66772898  1
  Al0+  Al72  1  0.18114058  0.92763733  0.01345586  1
  Al0+  Al73  1  0.42847375  0.81968961  0.64991319  1
  Al0+  Al74  1  0.82007698  0.07177815  0.01535783  1
  Al0+  Al75  1  0.06855273  0.68010588  0.31843160  1
  Al0+  Al76  1  0.67825901  0.42736626  0.34952255  1
  Al0+  Al77  1  0.67698021  0.42971185  0.68392900  1
  Al0+  Al78  1  0.42749413  0.82069022  0.98538088  1
  Al0+  Al79  1  0.42999655  0.82009107  0.31942273  1
  Al0+  Al80  1  0.57061222  0.18233479  0.98615981  1
  Al0+  Al81  1  0.82212826  0.57162109  0.68183491  1
  Al0+  Al82  1  0.32327068  0.07145982  0.34959810  1
  Al0+  Al83  1  0.17971671  0.42706727  0.01505677  1
  Al0+  Al84  1  0.57364605  0.67751903  0.98510073  1
  Al0+  Al85  1  0.17949789  0.92745229  0.35075417  1
  Al0+  Al86  1  0.32034994  0.56958600  0.34555121  1
  Al0+  Al87  1  0.42842719  0.32031032  0.65422188  1
  Al0+  Al88  1  0.42804099  0.32282000  0.32037534  1
  Al0+  Al89  1  0.92968492  0.31918422  0.31970160  1
  Al0+  Al90  1  0.82080687  0.57404438  0.01629764  1
  Al0+  Al91  1  0.93086262  0.32160860  0.98356542  1
  Al0+  Al92  1  0.18166393  0.42745609  0.67825285  1
  Al0+  Al93  1  0.82258417  0.57133516  0.34835755  1
  Al0+  Al94  1  0.67635479  0.42994561  0.01648757  1
  Al0+  Al95  1  0.82218386  0.06967476  0.67996570  1
  Si0+  Si96  1  0.92992740  0.82394391  0.65308921  1
  Si0+  Si97  1  0.06821572  0.67853241  0.65160420  1
  Si0+  Si98  1  0.92584039  0.82507314  0.31619294  1
  Si0+  Si99  1  0.06912268  0.67978278  0.98221122  1
  Si0+  Si100  1  0.82010845  0.07083446  0.34750298  1
  Si0+  Si101  1  0.18108941  0.92828202  0.68160594  1
  Si0+  Si102  1  0.07084528  0.17617944  0.98378606  1
  Si0+  Si103  1  0.67846119  0.92821274  0.34743811  1
  Si0+  Si104  1  0.57439903  0.17944012  0.64862821  1
  Si0+  Si105  1  0.67664327  0.92937937  0.01517372  1
  Si0+  Si106  1  0.07196190  0.17456965  0.31517480  1
  Si0+  Si107  1  0.32194054  0.07050084  0.68232282  1
  Si0+  Si108  1  0.57425705  0.67846912  0.31903124  1
  Si0+  Si109  1  0.31993691  0.57161535  0.01485515  1
  Si0+  Si110  1  0.07176210  0.17551820  0.65183960  1
  Si0+  Si111  1  0.32134833  0.57437227  0.68340902  1
  Si0+  Si112  1  0.32484930  0.07127090  0.01583019  1
  Si0+  Si113  1  0.57422021  0.67873451  0.64809194  1
  Si0+  Si114  1  0.17770045  0.42688983  0.34725778  1
  Si0+  Si115  1  0.57223542  0.17851990  0.31766165  1
  Si0+  Si116  1  0.42355636  0.32238070  0.98537180  1
  Si0+  Si117  1  0.92956855  0.82500382  0.98558515  1
  Si0+  Si118  1  0.67611067  0.92941194  0.68357271  1
  Si0+  Si119  1  0.93140794  0.32003788  0.65201961  1
  O2-  O120  1  0.26036537  -0.00212273  0.05807855  1
  O2-  O121  1  0.25202517  -0.00123824  0.40100325  1
  O2-  O122  1  0.25479132  -0.00433455  0.72477199  1
  O2-  O123  1  0.25875352  0.49686879  0.05998299  1
  O2-  O124  1  0.25106175  0.48942864  0.39262985  1
  O2-  O125  1  0.25959447  0.49856754  0.72636941  1
  O2-  O126  1  0.74444330  -0.00210474  0.06184271  1
  O2-  O127  1  0.75123167  -0.00190923  0.38987284  1
  O2-  O128  1  0.74554960  -0.00251432  0.72738817  1
  O2-  O129  1  0.74545327  0.50544168  0.06510542  1
  O2-  O130  1  0.75002968  0.50050045  0.39806496  1
  O2-  O131  1  0.74738035  0.50392324  0.73240470  1
  O2-  O132  1  0.00504111  0.24508441  0.27196344  1
  O2-  O133  1  0.00243203  0.24843357  0.60968564  1
  O2-  O134  1  0.00629278  0.24676520  0.93620566  1
  O2-  O135  1  -0.00716167  0.75476477  0.27264076  1
  O2-  O136  1  -0.00603539  0.74703335  0.61050303  1
  O2-  O137  1  -0.00399979  0.74995424  0.94168948  1
  O2-  O138  1  0.50322287  0.24778471  0.27536538  1
  O2-  O139  1  0.50668719  0.24944513  0.60581953  1
  O2-  O140  1  0.49579327  0.25770269  0.94049464  1
  O2-  O141  1  0.50484494  0.74588474  0.27367007  1
  O2-  O142  1  0.50314197  0.74500496  0.60322334  1
  O2-  O143  1  0.50158472  0.75077140  0.93556301  1
  O2-  O144  1  0.06846890  0.17563930  0.08893190  1
  O2-  O145  1  0.06929586  0.17363783  0.42156073  1
  O2-  O146  1  0.07143587  0.17147276  0.75661663  1
  O2-  O147  1  0.07203690  0.68082830  0.08689582  1
  O2-  O148  1  0.06741983  0.67982573  0.43230388  1
  O2-  O149  1  0.07057117  0.68077597  0.75682906  1
  O2-  O150  1  0.56799351  0.18030319  0.09919765  1
  O2-  O151  1  0.57475066  0.17699777  0.42337082  1
  O2-  O152  1  0.57325875  0.17750363  0.75409478  1
  O2-  O153  1  0.57234208  0.67995516  0.09889982  1
  O2-  O154  1  0.57458765  0.68267373  0.42479324  1
  O2-  O155  1  0.57471339  0.68235707  0.75344052  1
  O2-  O156  1  0.17780528  0.43036576  0.24178815  1
  O2-  O157  1  0.17821765  0.42986814  0.56536473  1
  O2-  O158  1  0.18037002  0.42901618  0.90134374  1
  O2-  O159  1  0.18052839  0.92890996  0.23727350  1
  O2-  O160  1  0.17876966  0.92940472  0.57721378  1
  O2-  O161  1  0.18007665  0.92930011  0.89933181  1
  O2-  O162  1  0.67876254  0.42604355  0.23644399  1
  O2-  O163  1  0.67977987  0.42826603  0.57044344  1
  O2-  O164  1  0.67927608  0.42906811  0.90299250  1
  O2-  O165  1  0.67903759  0.92821335  0.24262465  1
  O2-  O166  1  0.67790511  0.93078306  0.57738739  1
  O2-  O167  1  0.67929183  0.93080523  0.90950980  1
  O2-  O168  1  0.42200311  0.31969177  0.09084818  1
  O2-  O169  1  0.42816216  0.32122162  0.43377591  1
  O2-  O170  1  0.42360061  0.31320006  0.76705527  1
  O2-  O171  1  0.42696407  0.81902253  0.09887122  1
  O2-  O172  1  0.43240301  0.81896499  0.43284102  1
  O2-  O173  1  0.42725234  0.81815702  0.76284709  1
  O2-  O174  1  0.93123728  0.31974522  0.09660505  1
  O2-  O175  1  0.93114848  0.31664362  0.43378477  1
  O2-  O176  1  0.93325341  0.31934529  0.75686874  1
  O2-  O177  1  0.93174121  0.82821512  0.09024459  1
  O2-  O178  1  0.92720035  0.82890527  0.42223116  1
  O2-  O179  1  0.93538498  0.82924947  0.75786830  1
  O2-  O180  1  0.32330991  0.06969198  0.23605790  1
  O2-  O181  1  0.31896859  0.07224061  0.57777392  1
  O2-  O182  1  0.32140119  0.07376030  0.90968420  1
  O2-  O183  1  0.31806590  0.57028918  0.23250493  1
  O2-  O184  1  0.31661660  0.57719787  0.57788250  1
  O2-  O185  1  0.31511561  0.57432780  0.90899337  1
  O2-  O186  1  0.81869263  0.07100156  0.24274030  1
  O2-  O187  1  0.82268063  0.06773064  0.56625075  1
  O2-  O188  1  0.82094280  0.06898117  0.90212412  1
  O2-  O189  1  0.82062805  0.57150877  0.23545553  1
  O2-  O190  1  0.82494965  0.56733690  0.56857601  1
  O2-  O191  1  0.82134280  0.57077631  0.90254543  1
  O2-  O192  1  0.04408078  0.08121644  0.27011935  1
  O2-  O193  1  0.04124573  0.08515914  0.60212318  1
  O2-  O194  1  0.04283805  0.08269953  0.93781616  1
  O2-  O195  1  0.04050815  0.58471236  0.26101120  1
  O2-  O196  1  0.04235192  0.58598586  0.60454549  1
  O2-  O197  1  0.04199878  0.58824841  0.93393074  1
  O2-  O198  1  0.54719326  0.08530243  0.27048882  1
  O2-  O199  1  0.54878045  0.08582971  0.60203869  1
  O2-  O200  1  0.54252033  0.08710331  0.92655743  1
  O2-  O201  1  0.54919110  0.58425905  0.27580288  1
  O2-  O202  1  0.55134801  0.58374425  0.60442684  1
  O2-  O203  1  0.54258475  0.58062718  0.92942178  1
  O2-  O204  1  0.16644473  0.19527709  0.27005831  1
  O2-  O205  1  0.16387008  0.20142026  0.60459176  1
  O2-  O206  1  0.16662934  0.19782982  0.93942422  1
  O2-  O207  1  0.16371519  0.71228379  0.26283849  1
  O2-  O208  1  0.15831107  0.70936392  0.60275016  1
  O2-  O209  1  0.15883852  0.70976308  0.93153792  1
  O2-  O210  1  0.66545778  0.20390922  0.27069762  1
  O2-  O211  1  0.66952323  0.20290980  0.60386006  1
  O2-  O212  1  0.66673195  0.21220982  0.93081477  1
  O2-  O213  1  0.66767922  0.70609475  0.27370870  1
  O2-  O214  1  0.66738365  0.70739959  0.60141149  1
  O2-  O215  1  0.67167932  0.70772920  0.93103783  1
  O2-  O216  1  0.08551262  0.46439038  0.06752872  1
  O2-  O217  1  0.08625178  0.45950587  0.39321348  1
  O2-  O218  1  0.08806587  0.46284313  0.73518438  1
  O2-  O219  1  0.08752778  0.96051058  0.07070462  1
  O2-  O220  1  0.08020933  0.95606807  0.40383742  1
  O2-  O221  1  0.09063563  0.95889609  0.73028749  1
  O2-  O222  1  0.57464943  0.45320067  0.06542625  1
  O2-  O223  1  0.58035725  0.45554401  0.40300961  1
  O2-  O224  1  0.57706990  0.45440210  0.73603031  1
  O2-  O225  1  0.58239445  0.95654479  0.05868442  1
  O2-  O226  1  0.58867025  0.95881288  0.39698854  1
  O2-  O227  1  0.58228102  0.95538505  0.72851022  1
  O2-  O228  1  0.20157267  0.32871450  0.06925757  1
  O2-  O229  1  0.19406480  0.33023948  0.38986547  1
  O2-  O230  1  0.20798846  0.32960781  0.73301594  1
  O2-  O231  1  0.20758230  0.82952053  0.06554447  1
  O2-  O232  1  0.20651634  0.82907610  0.40315942  1
  O2-  O233  1  0.20603963  0.83503185  0.72801716  1
  O2-  O234  1  0.70856566  0.33252687  0.06804999  1
  O2-  O235  1  0.70868677  0.32912128  0.40308625  1
  O2-  O236  1  0.70747876  0.33110826  0.73480821  1
  O2-  O237  1  0.70306650  0.83678158  0.06186582  1
  O2-  O238  1  0.70502795  0.83805940  0.39888799  1
  O2-  O239  1  0.70077965  0.83586437  0.72906663  1
  O2-  O240  1  0.45610153  0.42037221  0.26715881  1
  O2-  O241  1  0.45206050  0.42083783  0.60432554  1
  O2-  O242  1  0.44101507  0.41788186  0.94068482  1
  O2-  O243  1  0.46014206  0.91777416  0.26788474  1
  O2-  O244  1  0.45827714  0.91746322  0.59677305  1
  O2-  O245  1  0.45235262  0.91951326  0.93128140  1
  O2-  O246  1  0.96066524  0.41401609  0.26381823  1
  O2-  O247  1  0.96255224  0.41138827  0.60559961  1
  O2-  O248  1  0.96501040  0.41738787  0.92949034  1
  O2-  O249  1  0.95260864  0.91840040  0.26979580  1
  O2-  O250  1  0.96387786  0.91276370  0.60236077  1
  O2-  O251  1  0.96420870  0.91508018  0.93756725  1
  O2-  O252  1  0.33099077  0.29155624  0.26675326  1
  O2-  O253  1  0.33292417  0.28523283  0.59917549  1
  O2-  O254  1  0.33076372  0.29028353  0.93976606  1
  O2-  O255  1  0.33300510  0.78813408  0.26863159  1
  O2-  O256  1  0.33094391  0.78875511  0.59685134  1
  O2-  O257  1  0.33003427  0.78784231  0.93110456  1
  O2-  O258  1  0.83392958  0.28517348  0.26641363  1
  O2-  O259  1  0.83950499  0.29095806  0.60571423  1
  O2-  O260  1  0.83543770  0.28833653  0.92990064  1
  O2-  O261  1  0.83085220  0.80312170  0.27185040  1
  O2-  O262  1  0.83488062  0.80590774  0.60787727  1
  O2-  O263  1  0.83644614  0.80521691  0.93741470  1
  O2-  O264  1  0.42050184  0.05074566  0.05837135  1
  O2-  O265  1  0.42199563  0.04532027  0.40336304  1
  O2-  O266  1  0.41620087  0.04640740  0.72636969  1
  O2-  O267  1  0.41588390  0.55557347  0.05807539  1
  O2-  O268  1  0.41692321  0.54606503  0.40239595  1
  O2-  O269  1  0.41748715  0.55824609  0.72618801  1
  O2-  O270  1  0.91490744  0.03971014  0.07109483  1
  O2-  O271  1  0.91218373  0.04505065  0.39554156  1
  O2-  O272  1  0.91768913  0.03608696  0.73494132  1
  O2-  O273  1  0.91913080  0.54193082  0.06620711  1
  O2-  O274  1  0.92165928  0.53958311  0.39843497  1
  O2-  O275  1  0.91977006  0.54125760  0.73543776  1
  O2-  O276  1  0.29475406  0.16167650  0.06541669  1
  O2-  O277  1  0.29022721  0.16906546  0.40353789  1
  O2-  O278  1  0.28986758  0.15910016  0.73282985  1
  O2-  O279  1  0.28547299  0.66186279  0.06206317  1
  O2-  O280  1  0.28236806  0.66263003  0.40164202  1
  O2-  O281  1  0.28589378  0.66442898  0.73121157  1
  O2-  O282  1  0.78762399  0.16763191  0.06784433  1
  O2-  O283  1  0.79017912  0.16064575  0.39724720  1
  O2-  O284  1  0.79409115  0.16605806  0.73427488  1
  O2-  O285  1  0.80268657  0.67678929  0.06452833  1
  O2-  O286  1  0.79991923  0.67192916  0.40138902  1
  O2-  O287  1  0.80240857  0.67470636  0.72956493  1
