# generated using pymatgen
data_Ca2Al2SiO7
_symmetry_space_group_name_H-M   'P 1'
_cell_length_a   15.45660949
_cell_length_b   15.45703601
_cell_length_c   15.28343003
_cell_angle_alpha   89.99878401
_cell_angle_beta   89.99426879
_cell_angle_gamma   90.00799916
_symmetry_Int_Tables_number   1
_chemical_formula_structural   Ca2Al2SiO7
_chemical_formula_sum   'Ca48 Al48 Si24 O168'
_cell_volume   3651.41571039
_cell_formula_units_Z   24
loop_
 _symmetry_equiv_pos_site_id
 _symmetry_equiv_pos_as_xyz
  1  'x, y, z'
loop_
 _atom_type_symbol
 _atom_type_oxidation_number
  Ca2+  2.0
  Al0+  0.0
  Si0+  0.0
  O2-  -2.0
loop_
 _atom_site_type_symbol
 _atom_site_label
 _atom_site_symmetry_multiplicity
 _atom_site_fract_x
 _atom_site_fract_y
 _atom_site_fract_z
 _atom_site_occupancy
  Ca2+  Ca0  1  0.16777815  0.07170152  0.17302562  1
  Ca2+  Ca1  1  0.16701466  0.08022277  0.50767675  1
  Ca2+  Ca2  1  0.17080584  0.08778819  0.83050626  1
  Ca2+  Ca3  1  0.17137745  0.58549080  0.16849965  1
  Ca2+  Ca4  1  0.16952528  0.58037628  0.51040787  1
  Ca2+  Ca5  1  0.16886734  0.57630079  0.83643181  1
  Ca2+  Ca6  1  0.67237742  0.08208540  0.16807017  1
  Ca2+  Ca7  1  0.67331802  0.07396699  0.51240987  1
  Ca2+  Ca8  1  0.67930421  0.07856373  0.83351118  1
  Ca2+  Ca9  1  0.67285520  0.58452551  0.17198257  1
  Ca2+  Ca10  1  0.66721607  0.57829834  0.50998146  1
  Ca2+  Ca11  1  0.67365982  0.58639141  0.82820275  1
  Ca2+  Ca12  1  0.07833921  0.33573777  0.16407928  1
  Ca2+  Ca13  1  0.07984327  0.33049595  0.49960142  1
  Ca2+  Ca14  1  0.09071272  0.33048503  0.82432762  1
  Ca2+  Ca15  1  0.08392238  0.82731651  0.16315531  1
  Ca2+  Ca16  1  0.08316017  0.82288756  0.49867659  1
  Ca2+  Ca17  1  0.07027488  0.82472921  0.82344892  1
  Ca2+  Ca18  1  0.58034830  0.33898905  0.16951345  1
  Ca2+  Ca19  1  0.57188710  0.34705060  0.49658316  1
  Ca2+  Ca20  1  0.57689461  0.33743479  0.82392006  1
  Ca2+  Ca21  1  0.57719852  0.82702798  0.16055346  1
  Ca2+  Ca22  1  0.59085348  0.81988146  0.50059739  1
  Ca2+  Ca23  1  0.58000367  0.82878414  0.82506253  1
  Ca2+  Ca24  1  0.32977170  0.42010811  0.16732998  1
  Ca2+  Ca25  1  0.33088685  0.41957432  0.51293849  1
  Ca2+  Ca26  1  0.32655163  0.42679901  0.83152502  1
  Ca2+  Ca27  1  0.32897885  0.91148689  0.17258277  1
  Ca2+  Ca28  1  0.32641652  0.92266809  0.50606420  1
  Ca2+  Ca29  1  0.33659294  0.91992582  0.83631651  1
  Ca2+  Ca30  1  0.82946183  0.42248641  0.17454490  1
  Ca2+  Ca31  1  0.82182579  0.41799176  0.50752896  1
  Ca2+  Ca32  1  0.83545022  0.43386405  0.83496695  1
  Ca2+  Ca33  1  0.84432646  0.92309549  0.16495578  1
  Ca2+  Ca34  1  0.82990696  0.91847014  0.51294408  1
  Ca2+  Ca35  1  0.83639018  0.91818892  0.83424510  1
  Ca2+  Ca36  1  0.41709640  0.17392960  0.16461468  1
  Ca2+  Ca37  1  0.41104084  0.17947514  0.49984010  1
  Ca2+  Ca38  1  0.41483958  0.17445820  0.82074376  1
  Ca2+  Ca39  1  0.42254789  0.66736576  0.16096300  1
  Ca2+  Ca40  1  0.43068791  0.65426351  0.49962710  1
  Ca2+  Ca41  1  0.41693890  0.66474811  0.82734645  1
  Ca2+  Ca42  1  0.91193324  0.17407587  0.16312027  1
  Ca2+  Ca43  1  0.91747028  0.16979649  0.50009220  1
  Ca2+  Ca44  1  0.92067375  0.16454345  0.82525313  1
  Ca2+  Ca45  1  0.92227123  0.66959272  0.15922434  1
  Ca2+  Ca46  1  0.92558556  0.66275618  0.50122889  1
  Ca2+  Ca47  1  0.91263674  0.67220017  0.82320739  1
  Al0+  Al48  1  0.00051504  0.00067572  0.00088211  1
  Al0+  Al49  1  0.00202601  -0.00052808  0.33900581  1
  Al0+  Al50  1  0.00067216  0.00053747  0.66099273  1
  Al0+  Al51  1  -0.00138159  0.49838179  0.00813543  1
  Al0+  Al52  1  0.00167213  0.50066666  0.32410526  1
  Al0+  Al53  1  -0.00142786  0.49846578  0.66944946  1
  Al0+  Al54  1  0.50146936  0.00038630  -0.00236599  1
  Al0+  Al55  1  0.50109594  0.00192470  0.33434479  1
  Al0+  Al56  1  0.49963268  0.00110903  0.67346625  1
  Al0+  Al57  1  0.49872040  0.49877244  0.00225634  1
  Al0+  Al58  1  0.50077306  0.50059667  0.32403904  1
  Al0+  Al59  1  0.49796323  0.50042767  0.66804922  1
  Al0+  Al60  1  0.25015916  0.24941835  0.00589569  1
  Al0+  Al61  1  0.24971404  0.25028023  0.32582542  1
  Al0+  Al62  1  0.24905793  0.24887142  0.66409380  1
  Al0+  Al63  1  0.25123778  0.74965005  -0.00185557  1
  Al0+  Al64  1  0.24985838  0.75017128  0.33585430  1
  Al0+  Al65  1  0.24952819  0.75168136  0.66675784  1
  Al0+  Al66  1  0.75054162  0.24860689  0.00315500  1
  Al0+  Al67  1  0.74897920  0.25107324  0.33346293  1
  Al0+  Al68  1  0.74790366  0.24750537  0.67462370  1
  Al0+  Al69  1  0.74900375  0.75013870  0.00187664  1
  Al0+  Al70  1  0.75226465  0.75174457  0.32690971  1
  Al0+  Al71  1  0.74720900  0.75027796  0.66499462  1
  Al0+  Al72  1  0.82095157  0.57037728  0.67831869  1
  Al0+  Al73  1  0.67849491  0.92686975  0.68225581  1
  Al0+  Al74  1  0.42845297  0.82116079  0.98614219  1
  Al0+  Al75  1  0.32095423  0.57355378  0.67931240  1
  Al0+  Al76  1  0.32103809  0.57248536  0.01724014  1
  Al0+  Al77  1  0.43101314  0.31954652  0.65466501  1
  Al0+  Al78  1  0.82390490  0.07026492  0.68156238  1
  Al0+  Al79  1  0.93034214  0.82095758  0.98662208  1
  Al0+  Al80  1  0.07260677  0.67957951  0.31793549  1
  Al0+  Al81  1  0.17768991  0.42832244  0.67765228  1
  Al0+  Al82  1  0.42818947  0.32124661  0.31711911  1
  Al0+  Al83  1  0.92798435  0.31928780  0.32025402  1
  Al0+  Al84  1  0.67582724  0.42816048  0.68135090  1
  Al0+  Al85  1  0.07044929  0.18034227  0.65322325  1
  Al0+  Al86  1  0.67956209  0.43185821  0.34670733  1
  Al0+  Al87  1  0.07214720  0.67580538  0.65329412  1
  Al0+  Al88  1  0.17997762  0.92769630  0.34864886  1
  Al0+  Al89  1  0.81928951  0.57317491  0.01576700  1
  Al0+  Al90  1  0.31897839  0.07040779  0.67902969  1
  Al0+  Al91  1  0.57250262  0.67980510  0.31801148  1
  Al0+  Al92  1  0.56752566  0.68060242  0.65435115  1
  Al0+  Al93  1  0.92780499  0.82011220  0.65042591  1
  Al0+  Al94  1  0.17919945  0.42708452  0.01805378  1
  Al0+  Al95  1  0.82215076  0.06966480  0.01566529  1
  Si0+  Si96  1  0.67694036  0.92897968  0.01875785  1
  Si0+  Si97  1  0.17790199  0.42806432  0.34776667  1
  Si0+  Si98  1  0.07090723  0.18012595  0.98667882  1
  Si0+  Si99  1  0.17748467  0.92761326  0.68499400  1
  Si0+  Si100  1  0.07147913  0.67596026  0.98318618  1
  Si0+  Si101  1  0.67834083  0.42683282  0.01762223  1
  Si0+  Si102  1  0.57128470  0.67675456  0.98237136  1
  Si0+  Si103  1  0.82044143  0.07137996  0.34841287  1
  Si0+  Si104  1  0.92944939  0.82391939  0.31542156  1
  Si0+  Si105  1  0.57257009  0.17896507  0.98403057  1
  Si0+  Si106  1  0.42963258  0.82391071  0.31981038  1
  Si0+  Si107  1  0.82429740  0.57394328  0.34880281  1
  Si0+  Si108  1  0.57315288  0.17656808  0.65110769  1
  Si0+  Si109  1  0.92411792  0.32199754  0.65295780  1
  Si0+  Si110  1  0.57209776  0.17619690  0.31629456  1
  Si0+  Si111  1  0.32351765  0.07115831  0.01609386  1
  Si0+  Si112  1  0.32050284  0.56926993  0.34750997  1
  Si0+  Si113  1  0.67860488  0.92846450  0.34661668  1
  Si0+  Si114  1  0.42859800  0.31883567  0.98398081  1
  Si0+  Si115  1  0.18030774  0.93064877  0.01258663  1
  Si0+  Si116  1  0.42665284  0.82637243  0.64934370  1
  Si0+  Si117  1  0.32224550  0.07382580  0.34901314  1
  Si0+  Si118  1  0.92782583  0.32099135  0.98513155  1
  Si0+  Si119  1  0.07131201  0.17648259  0.31465290  1
  O2-  O120  1  0.25548142  -0.00299669  0.05730356  1
  O2-  O121  1  0.25401604  0.00476728  0.39231745  1
  O2-  O122  1  0.24839819  -0.00605587  0.72967220  1
  O2-  O123  1  0.24817005  0.50191288  0.06872604  1
  O2-  O124  1  0.25040746  0.49722535  0.38959304  1
  O2-  O125  1  0.24357226  0.50609690  0.72716225  1
  O2-  O126  1  0.74880589  -0.00579885  0.06420786  1
  O2-  O127  1  0.75094252  -0.00175584  0.38844905  1
  O2-  O128  1  0.75384764  -0.00383532  0.73124005  1
  O2-  O129  1  0.74471921  0.49766372  0.06186958  1
  O2-  O130  1  0.75427797  0.50660260  0.39258031  1
  O2-  O131  1  0.75116857  0.49678836  0.73021214  1
  O2-  O132  1  0.00241527  0.24468006  0.27049037  1
  O2-  O133  1  -0.00667978  0.25347621  0.60835476  1
  O2-  O134  1  0.00283406  0.25362615  0.94413799  1
  O2-  O135  1  -0.00340024  0.75358249  0.27172608  1
  O2-  O136  1  -0.00010297  0.74733124  0.60185744  1
  O2-  O137  1  -0.00036594  0.74159075  0.94000386  1
  O2-  O138  1  0.50276501  0.24465202  0.27199692  1
  O2-  O139  1  0.50823635  0.24799351  0.60573389  1
  O2-  O140  1  0.50159302  0.24989383  0.94201133  1
  O2-  O141  1  0.49883322  0.75702723  0.27383997  1
  O2-  O142  1  0.49250122  0.75498788  0.60538384  1
  O2-  O143  1  0.50106099  0.74485578  0.94000569  1
  O2-  O144  1  0.06957625  0.17838144  0.09200945  1
  O2-  O145  1  0.07255141  0.17675318  0.41980716  1
  O2-  O146  1  0.07228741  0.18177398  0.76691668  1
  O2-  O147  1  0.07259150  0.68031286  0.08928953  1
  O2-  O148  1  0.07317149  0.67859818  0.43039592  1
  O2-  O149  1  0.07175255  0.67822629  0.76698546  1
  O2-  O150  1  0.57098815  0.17835961  0.08962796  1
  O2-  O151  1  0.57219308  0.17139524  0.42097644  1
  O2-  O152  1  0.56987937  0.17653563  0.75702326  1
  O2-  O153  1  0.57079193  0.67906911  0.08855753  1
  O2-  O154  1  0.57203917  0.67892282  0.43075042  1
  O2-  O155  1  0.56646202  0.68130263  0.76735629  1
  O2-  O156  1  0.17951636  0.42861914  0.24264000  1
  O2-  O157  1  0.18019362  0.42638802  0.56345801  1
  O2-  O158  1  0.18232791  0.42287513  0.90513023  1
  O2-  O159  1  0.18161132  0.92925523  0.23442942  1
  O2-  O160  1  0.17944572  0.92897395  0.57916536  1
  O2-  O161  1  0.17980915  0.93504395  0.90816198  1
  O2-  O162  1  0.68151676  0.43250386  0.23318781  1
  O2-  O163  1  0.67567555  0.43110449  0.56739396  1
  O2-  O164  1  0.67922269  0.42452761  0.91261792  1
  O2-  O165  1  0.67627853  0.93092455  0.24144824  1
  O2-  O166  1  0.67875520  0.92915683  0.56759965  1
  O2-  O167  1  0.67478598  0.93185719  0.91401856  1
  O2-  O168  1  0.42944213  0.31631440  0.08946661  1
  O2-  O169  1  0.42681444  0.32083592  0.42980326  1
  O2-  O170  1  0.43050694  0.31740990  0.76807844  1
  O2-  O171  1  0.43092723  0.82317845  0.09996198  1
  O2-  O172  1  0.43096466  0.82671703  0.42471685  1
  O2-  O173  1  0.42912085  0.82732909  0.75511446  1
  O2-  O174  1  0.92659756  0.31755372  0.09061642  1
  O2-  O175  1  0.92822532  0.31671130  0.43302718  1
  O2-  O176  1  0.92502054  0.32132681  0.75873210  1
  O2-  O177  1  0.93700409  0.82309631  0.10008730  1
  O2-  O178  1  0.92755366  0.82537875  0.42019974  1
  O2-  O179  1  0.92979035  0.82024128  0.76447530  1
  O2-  O180  1  0.32221214  0.07251096  0.24279268  1
  O2-  O181  1  0.31668645  0.07060623  0.56573030  1
  O2-  O182  1  0.32188550  0.07465564  0.91147036  1
  O2-  O183  1  0.31899800  0.56988352  0.24227031  1
  O2-  O184  1  0.32390767  0.56814692  0.56511293  1
  O2-  O185  1  0.32119910  0.57073942  0.90436884  1
  O2-  O186  1  0.82028969  0.07066207  0.24282405  1
  O2-  O187  1  0.82055173  0.07116330  0.56726325  1
  O2-  O188  1  0.82252317  0.07027813  0.90375525  1
  O2-  O189  1  0.82223633  0.57244410  0.24272318  1
  O2-  O190  1  0.82105611  0.56823942  0.56450861  1
  O2-  O191  1  0.81921103  0.57322421  0.90314842  1
  O2-  O192  1  0.04506332  0.08196979  0.27004997  1
  O2-  O193  1  0.04265953  0.08464110  0.59600294  1
  O2-  O194  1  0.04145750  0.08957654  0.93870413  1
  O2-  O195  1  0.04471557  0.58414245  0.26003346  1
  O2-  O196  1  0.04408166  0.57679112  0.60024781  1
  O2-  O197  1  0.04839010  0.57950862  0.94331389  1
  O2-  O198  1  0.54598967  0.08343959  0.26632615  1
  O2-  O199  1  0.54425841  0.08360752  0.60527468  1
  O2-  O200  1  0.54565706  0.08734121  0.93692496  1
  O2-  O201  1  0.53897382  0.58664147  0.25957969  1
  O2-  O202  1  0.53564290  0.58456278  0.59932229  1
  O2-  O203  1  0.54698930  0.58173642  0.93928443  1
  O2-  O204  1  0.16444999  0.20076724  0.26625167  1
  O2-  O205  1  0.16457666  0.21233332  0.59522220  1
  O2-  O206  1  0.16484911  0.20552552  0.94170134  1
  O2-  O207  1  0.16870462  0.71453237  0.26387552  1
  O2-  O208  1  0.17058853  0.70598039  0.59968482  1
  O2-  O209  1  0.16441018  0.70392227  0.93823848  1
  O2-  O210  1  0.66459831  0.20407622  0.26866865  1
  O2-  O211  1  0.66885505  0.19614559  0.60716491  1
  O2-  O212  1  0.66506097  0.20644238  0.93825677  1
  O2-  O213  1  0.66872172  0.71073707  0.26215893  1
  O2-  O214  1  0.66277545  0.71069685  0.59734964  1
  O2-  O215  1  0.66457030  0.70427402  0.93789567  1
  O2-  O216  1  0.07947136  0.45061308  0.07068640  1
  O2-  O217  1  0.08543510  0.45667675  0.39227214  1
  O2-  O218  1  0.07841891  0.44808165  0.73206192  1
  O2-  O219  1  0.09175166  0.96378057  0.06351927  1
  O2-  O220  1  0.08431502  0.95843702  0.40405492  1
  O2-  O221  1  0.08488469  0.95739072  0.72901908  1
  O2-  O222  1  0.58330854  0.44958809  0.06246094  1
  O2-  O223  1  0.58091231  0.46306704  0.39580902  1
  O2-  O224  1  0.58025829  0.46097162  0.73629681  1
  O2-  O225  1  0.58496346  0.96037646  0.06684898  1
  O2-  O226  1  0.58732355  0.95645944  0.39489161  1
  O2-  O227  1  0.58184378  0.95768763  0.73724254  1
  O2-  O228  1  0.21088220  0.32974398  0.07401145  1
  O2-  O229  1  0.20303840  0.33332482  0.39037545  1
  O2-  O230  1  0.21253611  0.33259642  0.73162929  1
  O2-  O231  1  0.20478532  0.83770698  0.05946073  1
  O2-  O232  1  0.21268418  0.83295952  0.40446547  1
  O2-  O233  1  0.20011093  0.83401312  0.73158669  1
  O2-  O234  1  0.70592012  0.33410710  0.06536340  1
  O2-  O235  1  0.70757587  0.33356527  0.39888305  1
  O2-  O236  1  0.69616128  0.32802930  0.73348854  1
  O2-  O237  1  0.69808496  0.83419827  0.06368188  1
  O2-  O238  1  0.70688353  0.83597964  0.39198793  1
  O2-  O239  1  0.70309749  0.82865925  0.73546911  1
  O2-  O240  1  0.46178733  0.41475769  0.25899729  1
  O2-  O241  1  0.45976158  0.41598064  0.59976266  1
  O2-  O242  1  0.45401456  0.41215068  0.93925829  1
  O2-  O243  1  0.45312690  0.91831741  0.27216689  1
  O2-  O244  1  0.45380859  0.92012527  0.60406981  1
  O2-  O245  1  0.45913327  0.91860013  0.93283933  1
  O2-  O246  1  0.95898203  0.41446244  0.26318118  1
  O2-  O247  1  0.94839048  0.41481531  0.60555110  1
  O2-  O248  1  0.95201524  0.41504410  0.94130702  1
  O2-  O249  1  0.95903950  0.91770504  0.27039701  1
  O2-  O250  1  0.95711920  0.91794906  0.59692018  1
  O2-  O251  1  0.96489124  0.91699145  0.93364629  1
  O2-  O252  1  0.33294326  0.28936338  0.25947397  1
  O2-  O253  1  0.33669715  0.28420546  0.59912721  1
  O2-  O254  1  0.33707305  0.28650511  0.93961022  1
  O2-  O255  1  0.33654588  0.79580968  0.27400528  1
  O2-  O256  1  0.33113243  0.80620869  0.60558044  1
  O2-  O257  1  0.33092313  0.79546196  0.93154506  1
  O2-  O258  1  0.83220248  0.28705169  0.26394336  1
  O2-  O259  1  0.83034456  0.29388118  0.60779231  1
  O2-  O260  1  0.83703510  0.28945073  0.93876226  1
  O2-  O261  1  0.83593360  0.80246277  0.26651009  1
  O2-  O262  1  0.82888149  0.79419061  0.59824602  1
  O2-  O263  1  0.83010156  0.79638605  0.93783354  1
  O2-  O264  1  0.41660982  0.04633363  0.06273578  1
  O2-  O265  1  0.41659936  0.05058677  0.39434370  1
  O2-  O266  1  0.41534305  0.04512480  0.73601248  1
  O2-  O267  1  0.41941142  0.54138121  0.07050951  1
  O2-  O268  1  0.41350836  0.54002103  0.39041350  1
  O2-  O269  1  0.41494284  0.53849130  0.73568249  1
  O2-  O270  1  0.91870309  0.03923415  0.07150259  1
  O2-  O271  1  0.91328259  0.04671737  0.39457487  1
  O2-  O272  1  0.92382432  0.04471396  0.73216031  1
  O2-  O273  1  0.91514417  0.54226240  0.07125732  1
  O2-  O274  1  0.91900760  0.54651013  0.39037600  1
  O2-  O275  1  0.91787701  0.54372071  0.73537516  1
  O2-  O276  1  0.29228678  0.16018135  0.06713526  1
  O2-  O277  1  0.29446322  0.16793193  0.39239816  1
  O2-  O278  1  0.28385320  0.16451979  0.73489159  1
  O2-  O279  1  0.29469405  0.67253301  0.06968211  1
  O2-  O280  1  0.29429896  0.66113714  0.39437807  1
  O2-  O281  1  0.30077514  0.67445198  0.73042691  1
  O2-  O282  1  0.78792355  0.16522888  0.07130424  1
  O2-  O283  1  0.79067379  0.16215342  0.39523507  1
  O2-  O284  1  0.79418711  0.16647770  0.73846613  1
  O2-  O285  1  0.78903037  0.66937241  0.07192585  1
  O2-  O286  1  0.80124750  0.66986160  0.39034268  1
  O2-  O287  1  0.78838630  0.66709227  0.73103642  1
