# generated using pymatgen
data_Ca2Al2SiO7
_symmetry_space_group_name_H-M   'P 1'
_cell_length_a   15.46264667
_cell_length_b   15.46409171
_cell_length_c   15.28752407
_cell_angle_alpha   89.99431205
_cell_angle_beta   90.00184952
_cell_angle_gamma   89.97786026
_symmetry_Int_Tables_number   1
_chemical_formula_structural   Ca2Al2SiO7
_chemical_formula_sum   'Ca48 Al48 Si24 O168'
_cell_volume   3655.48804372
_cell_formula_units_Z   24
loop_
 _symmetry_equiv_pos_site_id
 _symmetry_equiv_pos_as_xyz
  1  'x, y, z'
loop_
 _atom_type_symbol
 _atom_type_oxidation_number
  Ca2+  2.0
  Al0+  0.0
  Si0+  0.0
  O2-  -2.0
loop_
 _atom_site_type_symbol
 _atom_site_label
 _atom_site_symmetry_multiplicity
 _atom_site_fract_x
 _atom_site_fract_y
 _atom_site_fract_z
 _atom_site_occupancy
  Ca2+  Ca0  1  0.16652140  0.07620940  0.17723725  1
  Ca2+  Ca1  1  0.16389293  0.07424806  0.50724237  1
  Ca2+  Ca2  1  0.17010209  0.08462558  0.82974795  1
  Ca2+  Ca3  1  0.17633568  0.58594099  0.17912599  1
  Ca2+  Ca4  1  0.17256381  0.59250210  0.50230685  1
  Ca2+  Ca5  1  0.16702655  0.58449260  0.83493398  1
  Ca2+  Ca6  1  0.66329775  0.07630035  0.17409148  1
  Ca2+  Ca7  1  0.66534261  0.07483209  0.50092277  1
  Ca2+  Ca8  1  0.66460343  0.08288302  0.83937581  1
  Ca2+  Ca9  1  0.67329009  0.59243001  0.17233284  1
  Ca2+  Ca10  1  0.67649908  0.58611290  0.50604043  1
  Ca2+  Ca11  1  0.67123726  0.58568686  0.83422433  1
  Ca2+  Ca12  1  0.07861253  0.33237828  0.17206547  1
  Ca2+  Ca13  1  0.08181397  0.31986153  0.49230570  1
  Ca2+  Ca14  1  0.08141226  0.32788407  0.82428761  1
  Ca2+  Ca15  1  0.07636077  0.82937155  0.17019714  1
  Ca2+  Ca16  1  0.08353074  0.82729867  0.49188694  1
  Ca2+  Ca17  1  0.07763527  0.82862016  0.82610490  1
  Ca2+  Ca18  1  0.57209128  0.33230721  0.16108612  1
  Ca2+  Ca19  1  0.57516014  0.33996127  0.49739450  1
  Ca2+  Ca20  1  0.57363986  0.33723059  0.82705362  1
  Ca2+  Ca21  1  0.58677390  0.82452175  0.16960670  1
  Ca2+  Ca22  1  0.58000024  0.82402398  0.49016718  1
  Ca2+  Ca23  1  0.58479127  0.82045911  0.82887337  1
  Ca2+  Ca24  1  0.33750350  0.41853681  0.17332570  1
  Ca2+  Ca25  1  0.33879738  0.41865070  0.49998008  1
  Ca2+  Ca26  1  0.33494699  0.41053215  0.83401878  1
  Ca2+  Ca27  1  0.32826144  0.91535444  0.18091227  1
  Ca2+  Ca28  1  0.32174193  0.91621965  0.50581369  1
  Ca2+  Ca29  1  0.32669680  0.91892313  0.83271689  1
  Ca2+  Ca30  1  0.83323702  0.42875837  0.17725970  1
  Ca2+  Ca31  1  0.83126555  0.42604986  0.50666647  1
  Ca2+  Ca32  1  0.82869355  0.43067053  0.83763922  1
  Ca2+  Ca33  1  0.83166154  0.91155545  0.17520287  1
  Ca2+  Ca34  1  0.82887899  0.90720113  0.49690548  1
  Ca2+  Ca35  1  0.83483325  0.91595474  0.83843754  1
  Ca2+  Ca36  1  0.42125873  0.17655167  0.16172322  1
  Ca2+  Ca37  1  0.40806715  0.17642363  0.49763364  1
  Ca2+  Ca38  1  0.41752885  0.17502851  0.82795487  1
  Ca2+  Ca39  1  0.42578843  0.66740527  0.16914972  1
  Ca2+  Ca40  1  0.42854428  0.66691925  0.48925449  1
  Ca2+  Ca41  1  0.43133623  0.66190924  0.82760112  1
  Ca2+  Ca42  1  0.92055661  0.16883145  0.17027126  1
  Ca2+  Ca43  1  0.92682408  0.17148031  0.49133744  1
  Ca2+  Ca44  1  0.92299824  0.16932351  0.82494443  1
  Ca2+  Ca45  1  0.90789389  0.67591765  0.16683551  1
  Ca2+  Ca46  1  0.92593902  0.66402523  0.49185793  1
  Ca2+  Ca47  1  0.91423965  0.66890464  0.82868216  1
  Al0+  Al48  1  -0.00056352  -0.00118804  -0.00304274  1
  Al0+  Al49  1  0.00066873  -0.00027453  0.33062869  1
  Al0+  Al50  1  -0.00115549  -0.00075134  0.66761089  1
  Al0+  Al51  1  0.00066583  0.49983355  0.00579342  1
  Al0+  Al52  1  0.00297684  0.49745945  0.33123288  1
  Al0+  Al53  1  0.00034786  0.50206869  0.66816037  1
  Al0+  Al54  1  0.49838357  0.00052575  -0.00204154  1
  Al0+  Al55  1  0.49968763  0.00012330  0.33710916  1
  Al0+  Al56  1  0.49915866  0.00185039  0.67272987  1
  Al0+  Al57  1  0.49918135  0.50032608  -0.00751127  1
  Al0+  Al58  1  0.50077122  0.49940149  0.32832961  1
  Al0+  Al59  1  0.50074818  0.49982354  0.66171695  1
  Al0+  Al60  1  0.24944294  0.24885438  -0.00108721  1
  Al0+  Al61  1  0.25085894  0.25016384  0.32389115  1
  Al0+  Al62  1  0.24985468  0.24983407  0.66244211  1
  Al0+  Al63  1  0.24864486  0.74983364  0.00136965  1
  Al0+  Al64  1  0.25166572  0.75026921  0.33564307  1
  Al0+  Al65  1  0.24921839  0.75080566  0.67205470  1
  Al0+  Al66  1  0.75134365  0.25027056  -0.00142883  1
  Al0+  Al67  1  0.75020383  0.24988617  0.33095750  1
  Al0+  Al68  1  0.74657189  0.25025460  0.67106703  1
  Al0+  Al69  1  0.75017138  0.75190844  -0.00532789  1
  Al0+  Al70  1  0.75079503  0.74946588  0.33720902  1
  Al0+  Al71  1  0.74981222  0.75064777  0.66765810  1
  Al0+  Al72  1  0.92672996  0.32204703  0.31926326  1
  Al0+  Al73  1  0.07164460  0.67874819  0.65413321  1
  Al0+  Al74  1  0.56981460  0.68202009  0.98517647  1
  Al0+  Al75  1  0.32188136  0.56954412  0.34676055  1
  Al0+  Al76  1  0.17870359  0.92934809  0.34675705  1
  Al0+  Al77  1  0.32001449  0.07316646  0.68268117  1
  Al0+  Al78  1  0.43087738  0.32038417  0.31893732  1
  Al0+  Al79  1  0.07411251  0.67722853  0.31918103  1
  Al0+  Al80  1  0.81938828  0.57195198  0.01626189  1
  Al0+  Al81  1  0.67898559  0.92942816  0.34710411  1
  Al0+  Al82  1  0.17682932  0.92759955  0.68470721  1
  Al0+  Al83  1  0.67684248  0.42912147  0.68219406  1
  Al0+  Al84  1  0.82215933  0.57000489  0.34746180  1
  Al0+  Al85  1  0.57256292  0.17732918  0.98502800  1
  Al0+  Al86  1  0.43012608  0.31930246  0.65011859  1
  Al0+  Al87  1  0.42893090  0.31987186  0.98233221  1
  Al0+  Al88  1  0.92946575  0.81863008  0.32027222  1
  Al0+  Al89  1  0.93066066  0.81965444  0.98539043  1
  Al0+  Al90  1  0.57226299  0.67910349  0.31903503  1
  Al0+  Al91  1  0.42878888  0.82273884  0.32156304  1
  Al0+  Al92  1  0.82245000  0.57202716  0.68284445  1
  Al0+  Al93  1  0.06914994  0.17933864  0.65348599  1
  Al0+  Al94  1  0.07113232  0.17789075  0.31713545  1
  Al0+  Al95  1  0.57071513  0.68037209  0.65098295  1
  Si0+  Si96  1  0.17920549  0.42659999  0.01541699  1
  Si0+  Si97  1  0.92588009  0.32244360  0.65300497  1
  Si0+  Si98  1  0.57374910  0.17546494  0.64846113  1
  Si0+  Si99  1  0.17991395  0.42547723  0.35045489  1
  Si0+  Si100  1  0.06859813  0.17930396  0.98410588  1
  Si0+  Si101  1  0.82329603  0.07226364  0.01478839  1
  Si0+  Si102  1  0.67874495  0.92943274  0.68357902  1
  Si0+  Si103  1  0.82010921  0.07152490  0.68139013  1
  Si0+  Si104  1  0.17820266  0.92930648  0.01682044  1
  Si0+  Si105  1  0.92778842  0.82230204  0.64985863  1
  Si0+  Si106  1  0.32195811  0.07367486  0.34861917  1
  Si0+  Si107  1  0.92969236  0.32379236  0.98430448  1
  Si0+  Si108  1  0.32116569  0.57067536  0.01376833  1
  Si0+  Si109  1  0.67793917  0.42591460  0.34786956  1
  Si0+  Si110  1  0.17982910  0.42920610  0.67947056  1
  Si0+  Si111  1  0.67917769  0.93107719  0.01365820  1
  Si0+  Si112  1  0.42830331  0.82385137  0.65254580  1
  Si0+  Si113  1  0.31971907  0.07092660  0.01675671  1
  Si0+  Si114  1  0.57315609  0.17616555  0.31884520  1
  Si0+  Si115  1  0.67689219  0.42820182  0.01701942  1
  Si0+  Si116  1  0.32164460  0.57100650  0.68149236  1
  Si0+  Si117  1  0.42363151  0.82284601  0.98274668  1
  Si0+  Si118  1  0.82204759  0.07335521  0.34986055  1
  Si0+  Si119  1  0.07382036  0.67660385  0.98412973  1
  O2-  O120  1  0.25217884  -0.00295047  0.05943628  1
  O2-  O121  1  0.25379861  0.00456832  0.39205283  1
  O2-  O122  1  0.24919137  0.00015353  0.73433201  1
  O2-  O123  1  0.24976598  0.49930632  0.05519519  1
  O2-  O124  1  0.24521654  0.49703584  0.39495784  1
  O2-  O125  1  0.24916953  0.50105460  0.72399429  1
  O2-  O126  1  0.74647652  0.00656946  0.05496394  1
  O2-  O127  1  0.75405819  0.00420003  0.39444906  1
  O2-  O128  1  0.74911161  0.00135818  0.72576737  1
  O2-  O129  1  0.74464631  0.49670780  0.06269900  1
  O2-  O130  1  0.74883606  0.49252056  0.39145870  1
  O2-  O131  1  0.74962055  0.50028258  0.73254965  1
  O2-  O132  1  -0.00185014  0.24956759  0.26794119  1
  O2-  O133  1  -0.00706050  0.25279264  0.60840132  1
  O2-  O134  1  -0.00085787  0.25148447  0.94110640  1
  O2-  O135  1  -0.00160086  0.74467907  0.26825919  1
  O2-  O136  1  -0.00286314  0.75358509  0.60854394  1
  O2-  O137  1  0.00344469  0.74302010  0.93967974  1
  O2-  O138  1  0.50622501  0.24586264  0.27422869  1
  O2-  O139  1  0.50536643  0.24414745  0.60466814  1
  O2-  O140  1  0.50340959  0.25036315  0.93264628  1
  O2-  O141  1  0.50054277  0.75196503  0.26959650  1
  O2-  O142  1  0.49602952  0.75582143  0.60711286  1
  O2-  O143  1  0.49233558  0.75447835  0.93831467  1
  O2-  O144  1  0.06771623  0.17842163  0.08860353  1
  O2-  O145  1  0.07041617  0.17873353  0.43069029  1
  O2-  O146  1  0.06750323  0.18255379  0.76751987  1
  O2-  O147  1  0.07891360  0.67863263  0.08881821  1
  O2-  O148  1  0.07358783  0.68048735  0.43280975  1
  O2-  O149  1  0.07119267  0.67876126  0.76784870  1
  O2-  O150  1  0.56927496  0.17555779  0.09863845  1
  O2-  O151  1  0.57374785  0.17561015  0.42424017  1
  O2-  O152  1  0.57409778  0.17483269  0.75398839  1
  O2-  O153  1  0.57005182  0.68414277  0.09766949  1
  O2-  O154  1  0.57145231  0.67982473  0.43245261  1
  O2-  O155  1  0.56969000  0.68231785  0.76474222  1
  O2-  O156  1  0.18301448  0.42417166  0.24429017  1
  O2-  O157  1  0.18031646  0.42807150  0.57511251  1
  O2-  O158  1  0.17748205  0.42529174  0.90985472  1
  O2-  O159  1  0.17945748  0.93153648  0.23277371  1
  O2-  O160  1  0.17699349  0.92754880  0.57160913  1
  O2-  O161  1  0.17820708  0.93048350  0.91189038  1
  O2-  O162  1  0.67815326  0.42490062  0.24205454  1
  O2-  O163  1  0.67886764  0.42907187  0.56862709  1
  O2-  O164  1  0.67895180  0.42878761  0.91156579  1
  O2-  O165  1  0.67969400  0.93181254  0.23347333  1
  O2-  O166  1  0.67899836  0.92949531  0.57880537  1
  O2-  O167  1  0.68164723  0.93136237  0.90813203  1
  O2-  O168  1  0.42829810  0.31863232  0.09569335  1
  O2-  O169  1  0.43049977  0.31931804  0.43188895  1
  O2-  O170  1  0.42915155  0.31830819  0.76308835  1
  O2-  O171  1  0.42140073  0.82277565  0.08780424  1
  O2-  O172  1  0.43042057  0.82207596  0.43516340  1
  O2-  O173  1  0.43074936  0.82167822  0.75883451  1
  O2-  O174  1  0.93119224  0.32325004  0.08881901  1
  O2-  O175  1  0.92715035  0.31887297  0.43309010  1
  O2-  O176  1  0.92958863  0.32032998  0.75943685  1
  O2-  O177  1  0.93078972  0.82210186  0.09771155  1
  O2-  O178  1  0.92984171  0.81864122  0.43365379  1
  O2-  O179  1  0.92783347  0.82297060  0.75608210  1
  O2-  O180  1  0.32145816  0.07242568  0.24238979  1
  O2-  O181  1  0.31808081  0.07294407  0.56940152  1
  O2-  O182  1  0.31672737  0.07244425  0.91191099  1
  O2-  O183  1  0.32243334  0.56683606  0.23294769  1
  O2-  O184  1  0.32156540  0.57087918  0.57685997  1
  O2-  O185  1  0.31894519  0.57184155  0.90828972  1
  O2-  O186  1  0.81989966  0.07400179  0.24386571  1
  O2-  O187  1  0.81974590  0.07215781  0.57679694  1
  O2-  O188  1  0.82670418  0.07018330  0.90937745  1
  O2-  O189  1  0.81785831  0.57126060  0.23392495  1
  O2-  O190  1  0.82420921  0.57037381  0.56960893  1
  O2-  O191  1  0.82039412  0.57035688  0.90333640  1
  O2-  O192  1  0.04074308  0.08147595  0.26172170  1
  O2-  O193  1  0.03829667  0.08235271  0.60175383  1
  O2-  O194  1  0.03891845  0.08869992  0.93572793  1
  O2-  O195  1  0.05607820  0.57579996  0.26926119  1
  O2-  O196  1  0.04445318  0.58119697  0.60047150  1
  O2-  O197  1  0.05073621  0.58081907  0.94103606  1
  O2-  O198  1  0.54549605  0.08372552  0.27189019  1
  O2-  O199  1  0.54824944  0.08074253  0.60455085  1
  O2-  O200  1  0.54293839  0.07916824  0.93095638  1
  O2-  O201  1  0.54366035  0.58227578  0.26395327  1
  O2-  O202  1  0.53961839  0.58485863  0.59760840  1
  O2-  O203  1  0.53983925  0.58578683  0.92996971  1
  O2-  O204  1  0.16730049  0.20756084  0.26056358  1
  O2-  O205  1  0.16362095  0.21186456  0.59894356  1
  O2-  O206  1  0.16064690  0.20738133  0.93761029  1
  O2-  O207  1  0.17067567  0.71002682  0.26559576  1
  O2-  O208  1  0.17006367  0.70842494  0.60337499  1
  O2-  O209  1  0.16651066  0.70424059  0.93581966  1
  O2-  O210  1  0.66702010  0.19780413  0.27168656  1
  O2-  O211  1  0.66828400  0.19924279  0.60343801  1
  O2-  O212  1  0.67421988  0.19916443  0.93474732  1
  O2-  O213  1  0.66903135  0.71200345  0.26670084  1
  O2-  O214  1  0.66784046  0.71244120  0.60009668  1
  O2-  O215  1  0.66383386  0.71687055  0.92897652  1
  O2-  O216  1  0.08781699  0.45198304  0.06460425  1
  O2-  O217  1  0.08455684  0.44361259  0.39484237  1
  O2-  O218  1  0.08830528  0.45498961  0.72966355  1
  O2-  O219  1  0.08703538  0.96193392  0.06238156  1
  O2-  O220  1  0.08207130  0.96074316  0.40004407  1
  O2-  O221  1  0.07799258  0.95739267  0.73734731  1
  O2-  O222  1  0.58124884  0.45332443  0.05915297  1
  O2-  O223  1  0.58489872  0.45369679  0.39298894  1
  O2-  O224  1  0.57865382  0.46053397  0.73453974  1
  O2-  O225  1  0.58522058  0.95415052  0.05951422  1
  O2-  O226  1  0.58366946  0.96105537  0.40407566  1
  O2-  O227  1  0.58735619  0.95550738  0.73292137  1
  O2-  O228  1  0.20810378  0.33522194  0.06331550  1
  O2-  O229  1  0.21055019  0.33234154  0.39504873  1
  O2-  O230  1  0.20946504  0.33858137  0.72883421  1
  O2-  O231  1  0.20243984  0.83568755  0.06246273  1
  O2-  O232  1  0.21026993  0.83409880  0.40183791  1
  O2-  O233  1  0.20720579  0.83054623  0.74149138  1
  O2-  O234  1  0.70206299  0.33327878  0.06137045  1
  O2-  O235  1  0.69952293  0.33103669  0.39400932  1
  O2-  O236  1  0.70050653  0.32924938  0.73650944  1
  O2-  O237  1  0.71192302  0.84107275  0.06025969  1
  O2-  O238  1  0.71138092  0.83496107  0.40375070  1
  O2-  O239  1  0.70882015  0.83895249  0.73242077  1
  O2-  O240  1  0.46219534  0.41487784  0.26189600  1
  O2-  O241  1  0.46044764  0.41568967  0.59628902  1
  O2-  O242  1  0.45302039  0.41899509  0.92891964  1
  O2-  O243  1  0.45562184  0.92183474  0.26846877  1
  O2-  O244  1  0.45281345  0.91860773  0.60958509  1
  O2-  O245  1  0.44881306  0.91667113  0.93720689  1
  O2-  O246  1  0.95867678  0.41754884  0.26287655  1
  O2-  O247  1  0.95297790  0.41560462  0.60897681  1
  O2-  O248  1  0.96069676  0.41479294  0.93687815  1
  O2-  O249  1  0.95606205  0.91724973  0.26684277  1
  O2-  O250  1  0.95033668  0.91658598  0.60488184  1
  O2-  O251  1  0.96253158  0.91585519  0.92958809  1
  O2-  O252  1  0.33613486  0.29053011  0.26121775  1
  O2-  O253  1  0.33364724  0.28923727  0.59624099  1
  O2-  O254  1  0.32987365  0.28849582  0.93097029  1
  O2-  O255  1  0.33208852  0.79334417  0.26707864  1
  O2-  O256  1  0.33333513  0.79899056  0.61081899  1
  O2-  O257  1  0.33007082  0.79662414  0.93606763  1
  O2-  O258  1  0.82917613  0.29390960  0.26350533  1
  O2-  O259  1  0.83127488  0.29766228  0.61008497  1
  O2-  O260  1  0.83759952  0.29743404  0.93708599  1
  O2-  O261  1  0.83090544  0.79126526  0.26717004  1
  O2-  O262  1  0.83363604  0.79777742  0.60566864  1
  O2-  O263  1  0.83458688  0.79201150  0.92903112  1
  O2-  O264  1  0.41344386  0.04682190  0.06213008  1
  O2-  O265  1  0.41567368  0.05243269  0.39565643  1
  O2-  O266  1  0.41904807  0.04758088  0.73771083  1
  O2-  O267  1  0.41356056  0.54266113  0.05926095  1
  O2-  O268  1  0.41843663  0.53586574  0.39950983  1
  O2-  O269  1  0.41242187  0.53984275  0.72861490  1
  O2-  O270  1  0.91297156  0.03865664  0.06306307  1
  O2-  O271  1  0.91600194  0.04829701  0.39422136  1
  O2-  O272  1  0.91095272  0.04302819  0.73112040  1
  O2-  O273  1  0.91736863  0.54227845  0.06873765  1
  O2-  O274  1  0.92093563  0.54015471  0.39790710  1
  O2-  O275  1  0.92075504  0.54316246  0.73776444  1
  O2-  O276  1  0.28850453  0.16190711  0.06433871  1
  O2-  O277  1  0.29418368  0.16787363  0.39174278  1
  O2-  O278  1  0.28650486  0.17064237  0.73620893  1
  O2-  O279  1  0.29363998  0.66269734  0.06153031  1
  O2-  O280  1  0.29363110  0.66591399  0.40182168  1
  O2-  O281  1  0.29580522  0.66196376  0.73196893  1
  O2-  O282  1  0.80262134  0.16641919  0.06102512  1
  O2-  O283  1  0.79608878  0.16653389  0.39696472  1
  O2-  O284  1  0.79444827  0.16300764  0.73149864  1
  O2-  O285  1  0.78651070  0.67029097  0.06555810  1
  O2-  O286  1  0.79067617  0.66500947  0.40294183  1
  O2-  O287  1  0.79240667  0.67086805  0.73529469  1
