# generated using pymatgen
data_Ca2Al2SiO7
_symmetry_space_group_name_H-M   'P 1'
_cell_length_a   15.45437371
_cell_length_b   15.45381602
_cell_length_c   15.28064490
_cell_angle_alpha   90.00813032
_cell_angle_beta   89.98660489
_cell_angle_gamma   89.98797525
_symmetry_Int_Tables_number   1
_chemical_formula_structural   Ca2Al2SiO7
_chemical_formula_sum   'Ca48 Al48 Si24 O168'
_cell_volume   3649.46165752
_cell_formula_units_Z   24
loop_
 _symmetry_equiv_pos_site_id
 _symmetry_equiv_pos_as_xyz
  1  'x, y, z'
loop_
 _atom_type_symbol
 _atom_type_oxidation_number
  Ca2+  2.0
  Al0+  0.0
  Si0+  0.0
  O2-  -2.0
loop_
 _atom_site_type_symbol
 _atom_site_label
 _atom_site_symmetry_multiplicity
 _atom_site_fract_x
 _atom_site_fract_y
 _atom_site_fract_z
 _atom_site_occupancy
  Ca2+  Ca0  1  0.17106056  0.08335777  0.16482433  1
  Ca2+  Ca1  1  0.16884498  0.07361746  0.50862986  1
  Ca2+  Ca2  1  0.17307253  0.07178207  0.83988038  1
  Ca2+  Ca3  1  0.16873931  0.58078003  0.16841242  1
  Ca2+  Ca4  1  0.17145555  0.58437211  0.51067570  1
  Ca2+  Ca5  1  0.17130104  0.58677724  0.83032256  1
  Ca2+  Ca6  1  0.66958354  0.08114250  0.17225556  1
  Ca2+  Ca7  1  0.67303461  0.09293679  0.50255074  1
  Ca2+  Ca8  1  0.66623708  0.08071448  0.83246800  1
  Ca2+  Ca9  1  0.67325846  0.57494650  0.17073257  1
  Ca2+  Ca10  1  0.66886248  0.57687681  0.50767882  1
  Ca2+  Ca11  1  0.67831050  0.58963636  0.83647123  1
  Ca2+  Ca12  1  0.07166260  0.33149241  0.16099096  1
  Ca2+  Ca13  1  0.06921026  0.33551373  0.49765880  1
  Ca2+  Ca14  1  0.07315449  0.33242614  0.82969073  1
  Ca2+  Ca15  1  0.07059231  0.83796631  0.16229611  1
  Ca2+  Ca16  1  0.08230796  0.82829994  0.49884267  1
  Ca2+  Ca17  1  0.08351197  0.83331462  0.82920355  1
  Ca2+  Ca18  1  0.58074665  0.33024760  0.16755483  1
  Ca2+  Ca19  1  0.58034540  0.32672745  0.49514985  1
  Ca2+  Ca20  1  0.57365091  0.32609951  0.82437485  1
  Ca2+  Ca21  1  0.58107873  0.83860911  0.16259529  1
  Ca2+  Ca22  1  0.57482618  0.82828446  0.49895167  1
  Ca2+  Ca23  1  0.57972739  0.83103345  0.82593896  1
  Ca2+  Ca24  1  0.33750859  0.41246955  0.17181159  1
  Ca2+  Ca25  1  0.33738247  0.41910532  0.50788492  1
  Ca2+  Ca26  1  0.34200123  0.41927894  0.83558990  1
  Ca2+  Ca27  1  0.33059533  0.92100008  0.16954380  1
  Ca2+  Ca28  1  0.33027368  0.90905055  0.50889348  1
  Ca2+  Ca29  1  0.32379932  0.91496982  0.83902640  1
  Ca2+  Ca30  1  0.83314859  0.41790947  0.17418489  1
  Ca2+  Ca31  1  0.82773224  0.41364821  0.50707654  1
  Ca2+  Ca32  1  0.84111331  0.42722715  0.83625427  1
  Ca2+  Ca33  1  0.82953850  0.91627778  0.17314836  1
  Ca2+  Ca34  1  0.83920360  0.92985955  0.50474156  1
  Ca2+  Ca35  1  0.82760488  0.92081614  0.84108154  1
  Ca2+  Ca36  1  0.41941371  0.17375190  0.15996833  1
  Ca2+  Ca37  1  0.42959019  0.17337362  0.49306637  1
  Ca2+  Ca38  1  0.41828842  0.17127483  0.82681185  1
  Ca2+  Ca39  1  0.41941537  0.67248543  0.16657184  1
  Ca2+  Ca40  1  0.41524773  0.67390129  0.50295885  1
  Ca2+  Ca41  1  0.42473808  0.67080359  0.81898552  1
  Ca2+  Ca42  1  0.90640550  0.17668438  0.16646418  1
  Ca2+  Ca43  1  0.90700890  0.17400669  0.49605854  1
  Ca2+  Ca44  1  0.90912479  0.17744395  0.82699443  1
  Ca2+  Ca45  1  0.91130407  0.67642983  0.15983574  1
  Ca2+  Ca46  1  0.91979919  0.66864881  0.49995067  1
  Ca2+  Ca47  1  0.91806289  0.66996059  0.82749393  1
  Al0+  Al48  1  -0.00022031  0.00097528  -0.00013467  1
  Al0+  Al49  1  0.00130846  -0.00138047  0.33424824  1
  Al0+  Al50  1  -0.00032485  0.00180333  0.67825379  1
  Al0+  Al51  1  0.00179094  0.50200492  0.00177870  1
  Al0+  Al52  1  0.00252099  0.50028470  0.32994875  1
  Al0+  Al53  1  -0.00017611  0.50082191  0.66224236  1
  Al0+  Al54  1  0.50010588  0.00034135  0.00667240  1
  Al0+  Al55  1  0.50009004  -0.00062272  0.32682308  1
  Al0+  Al56  1  0.50027801  0.00104423  0.65851484  1
  Al0+  Al57  1  0.50194882  0.50016810  -0.00218081  1
  Al0+  Al58  1  0.50100370  0.50092337  0.33530487  1
  Al0+  Al59  1  0.50041930  0.50035957  0.66549499  1
  Al0+  Al60  1  0.24945292  0.25131147  -0.00099528  1
  Al0+  Al61  1  0.24913441  0.24945451  0.33368359  1
  Al0+  Al62  1  0.24662425  0.24883217  0.66411460  1
  Al0+  Al63  1  0.24898690  0.74952257  0.00705294  1
  Al0+  Al64  1  0.25105352  0.74873214  0.32773424  1
  Al0+  Al65  1  0.24795731  0.74730799  0.66898730  1
  Al0+  Al66  1  0.74730466  0.25097970  -0.00642123  1
  Al0+  Al67  1  0.74910102  0.25061379  0.33202104  1
  Al0+  Al68  1  0.74871571  0.25067777  0.66678744  1
  Al0+  Al69  1  0.75093090  0.75046429  0.00520485  1
  Al0+  Al70  1  0.74997926  0.74942822  0.33251043  1
  Al0+  Al71  1  0.75000871  0.75051787  0.66474449  1
  Al0+  Al72  1  0.92812144  0.82167532  0.98554586  1
  Al0+  Al73  1  0.18018866  0.92755252  0.68030639  1
  Al0+  Al74  1  0.42890273  0.81966176  0.31721469  1
  Al0+  Al75  1  0.17713679  0.92712067  0.01905330  1
  Al0+  Al76  1  0.06915973  0.68066847  0.65453504  1
  Al0+  Al77  1  0.32111995  0.56799606  0.68012236  1
  Al0+  Al78  1  0.82269015  0.56965786  0.01475697  1
  Al0+  Al79  1  0.81945296  0.07259992  0.68219742  1
  Al0+  Al80  1  0.57216678  0.17956160  0.31494479  1
  Al0+  Al81  1  0.92794716  0.32162807  0.98587148  1
  Al0+  Al82  1  0.93073888  0.32045612  0.65311860  1
  Al0+  Al83  1  0.57512931  0.67846116  0.65206004  1
  Al0+  Al84  1  0.82158147  0.57118065  0.67895411  1
  Al0+  Al85  1  0.68054662  0.43019237  0.34753079  1
  Al0+  Al86  1  0.93000539  0.82090753  0.32181725  1
  Al0+  Al87  1  0.81994507  0.06839478  0.34579763  1
  Al0+  Al88  1  0.42887017  0.32123800  0.98511618  1
  Al0+  Al89  1  0.92967226  0.32000609  0.31973289  1
  Al0+  Al90  1  0.68044086  0.92932962  0.01336914  1
  Al0+  Al91  1  0.42827227  0.32214348  0.31825108  1
  Al0+  Al92  1  0.42582660  0.32151773  0.65163910  1
  Al0+  Al93  1  0.57095797  0.17868597  0.65082524  1
  Al0+  Al94  1  0.42764113  0.82019063  0.65519673  1
  Al0+  Al95  1  0.32042995  0.07218468  0.01524689  1
  Si0+  Si96  1  0.07064803  0.17497794  0.65080969  1
  Si0+  Si97  1  0.07248206  0.17891721  0.98227121  1
  Si0+  Si98  1  0.67802349  0.42839802  0.68528781  1
  Si0+  Si99  1  0.67670864  0.92781118  0.68049218  1
  Si0+  Si100  1  0.32403723  0.57037146  0.01601100  1
  Si0+  Si101  1  0.07288911  0.17617918  0.31717870  1
  Si0+  Si102  1  0.67566260  0.92551139  0.35206493  1
  Si0+  Si103  1  0.42839326  0.82087197  0.98687210  1
  Si0+  Si104  1  0.57041606  0.67975609  0.98655883  1
  Si0+  Si105  1  0.07289870  0.67800767  0.31460746  1
  Si0+  Si106  1  0.82438717  0.57324964  0.35077236  1
  Si0+  Si107  1  0.18112935  0.92843559  0.34910020  1
  Si0+  Si108  1  0.92742324  0.82515249  0.65226911  1
  Si0+  Si109  1  0.31977627  0.57088150  0.34829564  1
  Si0+  Si110  1  0.32310062  0.07258048  0.68021369  1
  Si0+  Si111  1  0.57059204  0.17551419  0.98177142  1
  Si0+  Si112  1  0.57284667  0.67768015  0.31531140  1
  Si0+  Si113  1  0.32197965  0.07130207  0.34925923  1
  Si0+  Si114  1  0.07338124  0.67872637  0.98291738  1
  Si0+  Si115  1  0.17974651  0.43007443  0.01504487  1
  Si0+  Si116  1  0.82103932  0.07494240  0.01584484  1
  Si0+  Si117  1  0.17656279  0.42662631  0.68286089  1
  Si0+  Si118  1  0.17791592  0.42796544  0.34848177  1
  Si0+  Si119  1  0.67765258  0.42824291  0.01547942  1
  O2-  O120  1  0.24977071  -0.00056861  0.06774060  1
  O2-  O121  1  0.25328137  -0.00214829  0.39206860  1
  O2-  O122  1  0.25718945  0.00133780  0.72482574  1
  O2-  O123  1  0.25400910  0.49807612  0.05782430  1
  O2-  O124  1  0.25181506  0.49640548  0.38944321  1
  O2-  O125  1  0.25116455  0.48869548  0.72787023  1
  O2-  O126  1  0.75576977  0.00342866  0.06032852  1
  O2-  O127  1  0.74550177  -0.00624721  0.39488549  1
  O2-  O128  1  0.74568936  -0.00438219  0.72604082  1
  O2-  O129  1  0.75181216  0.49087230  0.06047462  1
  O2-  O130  1  0.75712679  0.50344974  0.39441955  1
  O2-  O131  1  0.74540578  0.49927082  0.72852968  1
  O2-  O132  1  0.00373864  0.24460093  0.27280523  1
  O2-  O133  1  0.00277492  0.24361348  0.60543465  1
  O2-  O134  1  -0.00085645  0.24354349  0.93905811  1
  O2-  O135  1  0.00044955  0.74327197  0.27225199  1
  O2-  O136  1  -0.00500978  0.75548782  0.60768821  1
  O2-  O137  1  0.00588032  0.74921997  0.94028519  1
  O2-  O138  1  0.49738580  0.24938217  0.26564772  1
  O2-  O139  1  0.49723109  0.24960905  0.60198161  1
  O2-  O140  1  0.50077979  0.24415836  0.93940170  1
  O2-  O141  1  0.50773944  0.74944672  0.26980753  1
  O2-  O142  1  0.50101295  0.74968916  0.60435705  1
  O2-  O143  1  0.49875498  0.75004265  0.94412732  1
  O2-  O144  1  0.07495195  0.18267183  0.08809722  1
  O2-  O145  1  0.07430255  0.17653847  0.42267159  1
  O2-  O146  1  0.07115374  0.17679449  0.75639847  1
  O2-  O147  1  0.07373021  0.67662490  0.08876655  1
  O2-  O148  1  0.07624542  0.67864039  0.42004123  1
  O2-  O149  1  0.06940618  0.68092769  0.76751344  1
  O2-  O150  1  0.57259629  0.17663302  0.08703094  1
  O2-  O151  1  0.57141114  0.18164881  0.42814041  1
  O2-  O152  1  0.56931108  0.17803436  0.76486986  1
  O2-  O153  1  0.56731057  0.67807348  0.09176611  1
  O2-  O154  1  0.57127568  0.67772636  0.42047909  1
  O2-  O155  1  0.57509508  0.68173691  0.76647934  1
  O2-  O156  1  0.17597599  0.43001575  0.24306271  1
  O2-  O157  1  0.17460683  0.43008971  0.57701519  1
  O2-  O158  1  0.17782150  0.43181817  0.91025587  1
  O2-  O159  1  0.18099129  0.92975568  0.24432223  1
  O2-  O160  1  0.17979237  0.92856208  0.56642584  1
  O2-  O161  1  0.18113235  0.92484529  0.90555247  1
  O2-  O162  1  0.68171317  0.43259214  0.23383856  1
  O2-  O163  1  0.68053206  0.42800959  0.57945329  1
  O2-  O164  1  0.67496084  0.43206046  0.91030483  1
  O2-  O165  1  0.67776174  0.92522490  0.24612052  1
  O2-  O166  1  0.67768973  0.92642794  0.57515447  1
  O2-  O167  1  0.67916171  0.92850455  0.90017971  1
  O2-  O168  1  0.43089502  0.32272789  0.09800564  1
  O2-  O169  1  0.42732685  0.32128579  0.43116194  1
  O2-  O170  1  0.42777279  0.31908885  0.76567168  1
  O2-  O171  1  0.42967454  0.81801777  0.09213767  1
  O2-  O172  1  0.42415978  0.81547956  0.42977200  1
  O2-  O173  1  0.42853704  0.81930117  0.76938178  1
  O2-  O174  1  0.92971941  0.32097321  0.09927483  1
  O2-  O175  1  0.93120091  0.32095359  0.43262331  1
  O2-  O176  1  0.93356642  0.32139222  0.76641076  1
  O2-  O177  1  0.92779175  0.81861565  0.09903822  1
  O2-  O178  1  0.93497617  0.82215916  0.43485715  1
  O2-  O179  1  0.92713940  0.82359200  0.75789789  1
  O2-  O180  1  0.31840408  0.07208427  0.24429630  1
  O2-  O181  1  0.31951233  0.07274712  0.57441637  1
  O2-  O182  1  0.31943949  0.07003161  0.90141042  1
  O2-  O183  1  0.31771437  0.57200387  0.24251601  1
  O2-  O184  1  0.31653687  0.57029912  0.56675706  1
  O2-  O185  1  0.32443409  0.57203335  0.91132018  1
  O2-  O186  1  0.81950225  0.06697118  0.23249574  1
  O2-  O187  1  0.82114252  0.07176211  0.56892428  1
  O2-  O188  1  0.81753935  0.07527979  0.91026150  1
  O2-  O189  1  0.82301159  0.57288887  0.24477286  1
  O2-  O190  1  0.82245033  0.56847671  0.56590379  1
  O2-  O191  1  0.82195134  0.57087935  0.90162553  1
  O2-  O192  1  0.04883457  0.08258558  0.27098728  1
  O2-  O193  1  0.04445691  0.08086717  0.60626697  1
  O2-  O194  1  0.05238072  0.08342974  0.93857771  1
  O2-  O195  1  0.05144742  0.58352635  0.26810322  1
  O2-  O196  1  0.03953944  0.58565481  0.59677676  1
  O2-  O197  1  0.04758176  0.58554448  0.93677890  1
  O2-  O198  1  0.54683747  0.07989889  0.26342162  1
  O2-  O199  1  0.54748987  0.08082420  0.59454901  1
  O2-  O200  1  0.54431662  0.08141389  0.93698863  1
  O2-  O201  1  0.54196799  0.58629749  0.26767563  1
  O2-  O202  1  0.54701770  0.58033250  0.60019172  1
  O2-  O203  1  0.54357546  0.58877569  0.93754191  1
  O2-  O204  1  0.16528345  0.20385231  0.26951376  1
  O2-  O205  1  0.16391367  0.19788266  0.60271244  1
  O2-  O206  1  0.16331098  0.20996715  0.93390564  1
  O2-  O207  1  0.16437391  0.70622435  0.26557738  1
  O2-  O208  1  0.16440131  0.71152015  0.59834011  1
  O2-  O209  1  0.16864788  0.70337631  0.93901464  1
  O2-  O210  1  0.66871540  0.21129893  0.26075491  1
  O2-  O211  1  0.66812557  0.21090787  0.59828168  1
  O2-  O212  1  0.66297535  0.20198222  0.93349977  1
  O2-  O213  1  0.66782244  0.69876878  0.26972432  1
  O2-  O214  1  0.67190712  0.70668286  0.59553958  1
  O2-  O215  1  0.66233362  0.70913658  0.94143935  1
  O2-  O216  1  0.09071188  0.46220775  0.06623453  1
  O2-  O217  1  0.08755740  0.45963816  0.39736289  1
  O2-  O218  1  0.08614090  0.46052709  0.73026106  1
  O2-  O219  1  0.07812220  0.95783733  0.07023027  1
  O2-  O220  1  0.09016509  0.95659054  0.39770740  1
  O2-  O221  1  0.08594293  0.95954876  0.73826545  1
  O2-  O222  1  0.58691216  0.46090478  0.06451392  1
  O2-  O223  1  0.58435899  0.46245736  0.40215627  1
  O2-  O224  1  0.58355479  0.45175047  0.73001950  1
  O2-  O225  1  0.58461426  0.95863694  0.07000641  1
  O2-  O226  1  0.58045883  0.95045685  0.39472301  1
  O2-  O227  1  0.58255205  0.95436481  0.72612258  1
  O2-  O228  1  0.20398650  0.33794846  0.06310262  1
  O2-  O229  1  0.20030066  0.33476096  0.39559420  1
  O2-  O230  1  0.19332373  0.33014066  0.72680851  1
  O2-  O231  1  0.20501669  0.82883887  0.07379018  1
  O2-  O232  1  0.20941763  0.83473770  0.39296930  1
  O2-  O233  1  0.20983956  0.83189674  0.73586504  1
  O2-  O234  1  0.69770286  0.33199707  0.05825910  1
  O2-  O235  1  0.71140473  0.33406518  0.40122315  1
  O2-  O236  1  0.70523328  0.33596089  0.73221589  1
  O2-  O237  1  0.70998874  0.83403494  0.07108261  1
  O2-  O238  1  0.69952141  0.83053885  0.39617104  1
  O2-  O239  1  0.70166565  0.83447133  0.72778644  1
  O2-  O240  1  0.45624149  0.42199324  0.26733735  1
  O2-  O241  1  0.45311771  0.42058267  0.60103674  1
  O2-  O242  1  0.46176862  0.41804394  0.93197358  1
  O2-  O243  1  0.45506060  0.91672939  0.26268718  1
  O2-  O244  1  0.45170832  0.91787303  0.59938012  1
  O2-  O245  1  0.45570556  0.91353317  0.94223333  1
  O2-  O246  1  0.96241540  0.41657778  0.26563919  1
  O2-  O247  1  0.96377371  0.41469529  0.59664403  1
  O2-  O248  1  0.96474331  0.41787341  0.93479544  1
  O2-  O249  1  0.96447413  0.91547245  0.26595737  1
  O2-  O250  1  0.95672592  0.91904475  0.60931862  1
  O2-  O251  1  0.95441350  0.92039838  0.93357737  1
  O2-  O252  1  0.32756799  0.29565871  0.26753626  1
  O2-  O253  1  0.32497002  0.29801968  0.60084509  1
  O2-  O254  1  0.33015788  0.29590788  0.93304165  1
  O2-  O255  1  0.33481615  0.78373101  0.26026785  1
  O2-  O256  1  0.33122356  0.78639071  0.60161322  1
  O2-  O257  1  0.33519477  0.79239595  0.94330069  1
  O2-  O258  1  0.83431928  0.28953270  0.26470000  1
  O2-  O259  1  0.83343654  0.29073919  0.60170007  1
  O2-  O260  1  0.83052247  0.29565671  0.93114081  1
  O2-  O261  1  0.83184862  0.79371471  0.26836433  1
  O2-  O262  1  0.83445417  0.80173176  0.60493807  1
  O2-  O263  1  0.83173010  0.78776193  0.93312989  1
  O2-  O264  1  0.41797234  0.04489432  0.07014474  1
  O2-  O265  1  0.41546891  0.04469841  0.39303072  1
  O2-  O266  1  0.41846306  0.05080179  0.72375609  1
  O2-  O267  1  0.41602786  0.54324705  0.06386399  1
  O2-  O268  1  0.41271915  0.54824529  0.39469708  1
  O2-  O269  1  0.41934223  0.54326048  0.73488937  1
  O2-  O270  1  0.91694404  0.05580736  0.05881728  1
  O2-  O271  1  0.91758627  0.03846919  0.40005505  1
  O2-  O272  1  0.91509134  0.04536095  0.73977029  1
  O2-  O273  1  0.92045665  0.54355121  0.06930844  1
  O2-  O274  1  0.92057756  0.55007556  0.39246934  1
  O2-  O275  1  0.91792915  0.53809434  0.73287411  1
  O2-  O276  1  0.28907402  0.17063184  0.06821690  1
  O2-  O277  1  0.29193935  0.16232043  0.39725507  1
  O2-  O278  1  0.29391336  0.16507559  0.72753974  1
  O2-  O279  1  0.29407770  0.66034279  0.06658461  1
  O2-  O280  1  0.28669785  0.66158238  0.39487602  1
  O2-  O281  1  0.28494690  0.66169071  0.73663247  1
  O2-  O282  1  0.79121316  0.16834694  0.06117338  1
  O2-  O283  1  0.78929313  0.16568312  0.39811130  1
  O2-  O284  1  0.78608507  0.16822776  0.73684551  1
  O2-  O285  1  0.78669849  0.66357652  0.07052554  1
  O2-  O286  1  0.79845053  0.66695372  0.39641450  1
  O2-  O287  1  0.79363990  0.66959788  0.73226635  1
