# generated using pymatgen
data_Ca2Al2SiO7
_symmetry_space_group_name_H-M   'P 1'
_cell_length_a   15.44983077
_cell_length_b   15.45050939
_cell_length_c   15.27767662
_cell_angle_alpha   90.00400644
_cell_angle_beta   90.00099578
_cell_angle_gamma   89.99591019
_symmetry_Int_Tables_number   1
_chemical_formula_structural   Ca2Al2SiO7
_chemical_formula_sum   'Ca48 Al48 Si24 O168'
_cell_volume   3646.89987680
_cell_formula_units_Z   24
loop_
 _symmetry_equiv_pos_site_id
 _symmetry_equiv_pos_as_xyz
  1  'x, y, z'
loop_
 _atom_type_symbol
 _atom_type_oxidation_number
  Ca2+  2.0
  Al0+  0.0
  Si0+  0.0
  O2-  -2.0
loop_
 _atom_site_type_symbol
 _atom_site_label
 _atom_site_symmetry_multiplicity
 _atom_site_fract_x
 _atom_site_fract_y
 _atom_site_fract_z
 _atom_site_occupancy
  Ca2+  Ca0  1  0.16918006  0.07863706  0.16357965  1
  Ca2+  Ca1  1  0.16436907  0.07769531  0.50996493  1
  Ca2+  Ca2  1  0.16667696  0.07484712  0.83983059  1
  Ca2+  Ca3  1  0.16347397  0.58152958  0.17218792  1
  Ca2+  Ca4  1  0.17065057  0.58775058  0.49741727  1
  Ca2+  Ca5  1  0.16723465  0.57839597  0.84311098  1
  Ca2+  Ca6  1  0.66875980  0.07846102  0.17267866  1
  Ca2+  Ca7  1  0.67197172  0.08373138  0.50270123  1
  Ca2+  Ca8  1  0.66389280  0.06742934  0.83848712  1
  Ca2+  Ca9  1  0.67871580  0.59067204  0.17049925  1
  Ca2+  Ca10  1  0.66998274  0.58151984  0.50209730  1
  Ca2+  Ca11  1  0.67128076  0.58204827  0.83983436  1
  Ca2+  Ca12  1  0.07204345  0.33995261  0.15958797  1
  Ca2+  Ca13  1  0.07748640  0.32427232  0.49575056  1
  Ca2+  Ca14  1  0.08056224  0.33070660  0.83306335  1
  Ca2+  Ca15  1  0.07843034  0.82167807  0.15702684  1
  Ca2+  Ca16  1  0.07871934  0.83176909  0.49768419  1
  Ca2+  Ca17  1  0.07486477  0.83969384  0.82870818  1
  Ca2+  Ca18  1  0.57848338  0.32615678  0.16146944  1
  Ca2+  Ca19  1  0.58453431  0.33245929  0.49742085  1
  Ca2+  Ca20  1  0.57101507  0.33754781  0.82742654  1
  Ca2+  Ca21  1  0.58964539  0.82232055  0.16006151  1
  Ca2+  Ca22  1  0.57876323  0.83350403  0.49815500  1
  Ca2+  Ca23  1  0.58516875  0.83110719  0.82972053  1
  Ca2+  Ca24  1  0.32747928  0.41855508  0.16711581  1
  Ca2+  Ca25  1  0.34126984  0.42548757  0.50325437  1
  Ca2+  Ca26  1  0.32857663  0.41131328  0.84250719  1
  Ca2+  Ca27  1  0.32835532  0.91604867  0.16438262  1
  Ca2+  Ca28  1  0.32735751  0.91550001  0.51030127  1
  Ca2+  Ca29  1  0.32251424  0.91819862  0.84064585  1
  Ca2+  Ca30  1  0.84287503  0.42752666  0.17167085  1
  Ca2+  Ca31  1  0.83103733  0.42097872  0.50099573  1
  Ca2+  Ca32  1  0.82956961  0.42200052  0.84121483  1
  Ca2+  Ca33  1  0.83111525  0.91735512  0.16709285  1
  Ca2+  Ca34  1  0.82905250  0.91969886  0.50730671  1
  Ca2+  Ca35  1  0.82696988  0.90692686  0.83891164  1
  Ca2+  Ca36  1  0.41973086  0.16743592  0.15919297  1
  Ca2+  Ca37  1  0.42463302  0.17386339  0.49574737  1
  Ca2+  Ca38  1  0.40640059  0.17623173  0.83197818  1
  Ca2+  Ca39  1  0.42977576  0.65766182  0.16431794  1
  Ca2+  Ca40  1  0.42074595  0.67196292  0.49270234  1
  Ca2+  Ca41  1  0.42346011  0.67262090  0.82974236  1
  Ca2+  Ca42  1  0.90855577  0.17957907  0.16427575  1
  Ca2+  Ca43  1  0.91740505  0.16871641  0.49377640  1
  Ca2+  Ca44  1  0.92308804  0.17028453  0.82995588  1
  Ca2+  Ca45  1  0.92312693  0.66455192  0.15556182  1
  Ca2+  Ca46  1  0.91880067  0.67150093  0.49394717  1
  Ca2+  Ca47  1  0.91848961  0.67481109  0.83802225  1
  Al0+  Al48  1  -0.00135441  0.00045670  0.00292787  1
  Al0+  Al49  1  -0.00071843  0.00072695  0.33680768  1
  Al0+  Al50  1  0.00048708  0.00024355  0.66152303  1
  Al0+  Al51  1  0.00017734  0.49982987  -0.00334857  1
  Al0+  Al52  1  -0.00009619  0.49955153  0.33525028  1
  Al0+  Al53  1  0.00157921  0.50056693  0.66632151  1
  Al0+  Al54  1  0.50125225  -0.00172088  0.00944718  1
  Al0+  Al55  1  0.49750041  0.00098644  0.33040330  1
  Al0+  Al56  1  0.50091428  0.00105640  0.66629453  1
  Al0+  Al57  1  0.50101186  0.49785172  -0.00920473  1
  Al0+  Al58  1  0.49816668  0.50102515  0.33342363  1
  Al0+  Al59  1  0.50127736  0.50053753  0.66680511  1
  Al0+  Al60  1  0.24999974  0.25050961  0.00755331  1
  Al0+  Al61  1  0.24874824  0.24814899  0.33488173  1
  Al0+  Al62  1  0.25024164  0.25233440  0.65394872  1
  Al0+  Al63  1  0.25242553  0.74845264  0.00201906  1
  Al0+  Al64  1  0.24866765  0.74949764  0.33405141  1
  Al0+  Al65  1  0.25124472  0.75010172  0.66828980  1
  Al0+  Al66  1  0.74790642  0.24925171  -0.00773977  1
  Al0+  Al67  1  0.74886688  0.24854544  0.32919396  1
  Al0+  Al68  1  0.74966928  0.25227188  0.67345198  1
  Al0+  Al69  1  0.75091884  0.74794993  0.00067757  1
  Al0+  Al70  1  0.74850726  0.75044523  0.33688733  1
  Al0+  Al71  1  0.75253135  0.75026488  0.66481111  1
  Al0+  Al72  1  0.32073488  0.56945389  0.34685598  1
  Al0+  Al73  1  0.17590514  0.92613926  0.01652354  1
  Al0+  Al74  1  0.92918142  0.81977971  0.65121539  1
  Al0+  Al75  1  0.17918249  0.92929192  0.67968132  1
  Al0+  Al76  1  0.06949161  0.18023700  0.65400828  1
  Al0+  Al77  1  0.81941248  0.07171657  0.34666006  1
  Al0+  Al78  1  0.57041315  0.67970097  0.32062195  1
  Al0+  Al79  1  0.42890196  0.82182611  0.65510731  1
  Al0+  Al80  1  0.07427186  0.67829853  0.98446098  1
  Al0+  Al81  1  0.82247961  0.57190156  0.34769142  1
  Al0+  Al82  1  0.42929493  0.31766672  0.98767616  1
  Al0+  Al83  1  0.93049479  0.82200988  0.98659447  1
  Al0+  Al84  1  0.68088488  0.92770096  0.01509248  1
  Al0+  Al85  1  0.92765699  0.32208448  0.98476348  1
  Al0+  Al86  1  0.57005646  0.17905069  0.31960213  1
  Al0+  Al87  1  0.81840592  0.56732403  0.01258560  1
  Al0+  Al88  1  0.67932746  0.92980145  0.67937708  1
  Al0+  Al89  1  0.93050708  0.31870822  0.32139136  1
  Al0+  Al90  1  0.06973110  0.68087305  0.32076619  1
  Al0+  Al91  1  0.57171542  0.67940954  0.98541100  1
  Al0+  Al92  1  0.67897025  0.42974093  0.68114682  1
  Al0+  Al93  1  0.42952454  0.32213522  0.65098947  1
  Al0+  Al94  1  0.31998499  0.07107431  0.01522579  1
  Al0+  Al95  1  0.17952650  0.43059823  0.01277337  1
  Si0+  Si96  1  0.42679606  0.32247735  0.31607755  1
  Si0+  Si97  1  0.57177335  0.17435388  0.98141756  1
  Si0+  Si98  1  0.32554169  0.57170972  0.01509731  1
  Si0+  Si99  1  0.32198363  0.07173282  0.35159253  1
  Si0+  Si100  1  0.42920220  0.82377056  0.98457263  1
  Si0+  Si101  1  0.67780000  0.42808910  0.34685739  1
  Si0+  Si102  1  0.57358736  0.17812713  0.65147594  1
  Si0+  Si103  1  0.32178718  0.07423080  0.67992340  1
  Si0+  Si104  1  0.67538315  0.42598475  0.01648148  1
  Si0+  Si105  1  0.92616430  0.32340591  0.65003571  1
  Si0+  Si106  1  0.17707891  0.42650816  0.35282099  1
  Si0+  Si107  1  0.82315567  0.07270951  0.68418823  1
  Si0+  Si108  1  0.92696303  0.82360154  0.31754255  1
  Si0+  Si109  1  0.07176317  0.17917843  0.98617784  1
  Si0+  Si110  1  0.07358290  0.17514347  0.31452640  1
  Si0+  Si111  1  0.18015616  0.92965883  0.34973306  1
  Si0+  Si112  1  0.42636850  0.82251751  0.31590478  1
  Si0+  Si113  1  0.18022484  0.42832291  0.67968975  1
  Si0+  Si114  1  0.67635954  0.92818457  0.35135345  1
  Si0+  Si115  1  0.32121135  0.57117463  0.68242488  1
  Si0+  Si116  1  0.82172735  0.07492005  0.01586906  1
  Si0+  Si117  1  0.57227504  0.67900499  0.64937569  1
  Si0+  Si118  1  0.07346400  0.67615790  0.64916125  1
  Si0+  Si119  1  0.82406882  0.57211836  0.68423128  1
  O2-  O120  1  0.24965691  -0.00273762  0.06605696  1
  O2-  O121  1  0.25002597  0.00168970  0.39332311  1
  O2-  O122  1  0.25485101  0.00422784  0.72439724  1
  O2-  O123  1  0.25174715  0.50823500  0.05880851  1
  O2-  O124  1  0.24832725  0.49324894  0.39646404  1
  O2-  O125  1  0.25006569  0.49974296  0.72332613  1
  O2-  O126  1  0.75443812  0.00455320  0.05975480  1
  O2-  O127  1  0.74633133  -0.00399028  0.39487767  1
  O2-  O128  1  0.75414624  0.00400367  0.72762614  1
  O2-  O129  1  0.74615448  0.49113160  0.06188257  1
  O2-  O130  1  0.74542661  0.49786212  0.39191516  1
  O2-  O131  1  0.75539696  0.50274793  0.72720779  1
  O2-  O132  1  0.00595706  0.24549964  0.27218184  1
  O2-  O133  1  -0.00731497  0.25264838  0.60629181  1
  O2-  O134  1  0.00113688  0.24512530  0.94041454  1
  O2-  O135  1  -0.00800051  0.75161601  0.27385956  1
  O2-  O136  1  0.00418111  0.74464028  0.60560536  1
  O2-  O137  1  0.00830025  0.75638628  0.93530363  1
  O2-  O138  1  0.49423949  0.25257998  0.27263051  1
  O2-  O139  1  0.50608073  0.24814541  0.60664807  1
  O2-  O140  1  0.50239160  0.24273456  0.93804978  1
  O2-  O141  1  0.49724247  0.75560901  0.27283370  1
  O2-  O142  1  0.50490669  0.74953959  0.60614480  1
  O2-  O143  1  0.49643105  0.75394720  0.93972661  1
  O2-  O144  1  0.07104809  0.18061045  0.09185856  1
  O2-  O145  1  0.07379348  0.17562204  0.42047190  1
  O2-  O146  1  0.07068079  0.18237342  0.76714108  1
  O2-  O147  1  0.07022105  0.67685058  0.09830861  1
  O2-  O148  1  0.07124236  0.68460308  0.43429505  1
  O2-  O149  1  0.07381390  0.67303021  0.75416359  1
  O2-  O150  1  0.57252766  0.17689698  0.08732412  1
  O2-  O151  1  0.56887122  0.18059752  0.43312382  1
  O2-  O152  1  0.57169283  0.17686382  0.75667950  1
  O2-  O153  1  0.57129833  0.67948582  0.09877629  1
  O2-  O154  1  0.56857758  0.68069252  0.43398513  1
  O2-  O155  1  0.57081893  0.67870067  0.75501544  1
  O2-  O156  1  0.17687682  0.42672997  0.24730386  1
  O2-  O157  1  0.17981721  0.42973390  0.57463937  1
  O2-  O158  1  0.18206111  0.42816613  0.89889447  1
  O2-  O159  1  0.18120769  0.93049112  0.24501674  1
  O2-  O160  1  0.18103650  0.92995232  0.56592731  1
  O2-  O161  1  0.17651431  0.93000843  0.90267254  1
  O2-  O162  1  0.67700161  0.42789287  0.24152837  1
  O2-  O163  1  0.68003886  0.43034807  0.56746533  1
  O2-  O164  1  0.67533972  0.42909310  0.91061243  1
  O2-  O165  1  0.67739660  0.92754068  0.24586480  1
  O2-  O166  1  0.67956221  0.93198562  0.56612466  1
  O2-  O167  1  0.68046869  0.92861958  0.90160570  1
  O2-  O168  1  0.43115834  0.31798430  0.10086258  1
  O2-  O169  1  0.42863953  0.32217773  0.42199061  1
  O2-  O170  1  0.42592574  0.32020526  0.76391304  1
  O2-  O171  1  0.43032322  0.82303608  0.09037728  1
  O2-  O172  1  0.42652150  0.82245697  0.42207299  1
  O2-  O173  1  0.42779652  0.81876588  0.76782692  1
  O2-  O174  1  0.92889015  0.32178791  0.09807075  1
  O2-  O175  1  0.93159459  0.31686361  0.43496199  1
  O2-  O176  1  0.92854029  0.32410982  0.75551764  1
  O2-  O177  1  0.92899730  0.81956354  0.10037584  1
  O2-  O178  1  0.92989318  0.82423006  0.42353269  1
  O2-  O179  1  0.92846149  0.81927236  0.76388061  1
  O2-  O180  1  0.32242682  0.07235150  0.24695459  1
  O2-  O181  1  0.32049292  0.07248092  0.57383847  1
  O2-  O182  1  0.31705588  0.07270462  0.90119416  1
  O2-  O183  1  0.32160670  0.56679874  0.23414100  1
  O2-  O184  1  0.32113870  0.57133920  0.57702930  1
  O2-  O185  1  0.32637422  0.56896456  0.90905733  1
  O2-  O186  1  0.81750770  0.07176617  0.23378352  1
  O2-  O187  1  0.82097328  0.07341406  0.57816370  1
  O2-  O188  1  0.82100061  0.07644494  0.91022272  1
  O2-  O189  1  0.82334885  0.57129048  0.23482365  1
  O2-  O190  1  0.82424508  0.57090376  0.57822757  1
  O2-  O191  1  0.81628716  0.56704139  0.89925526  1
  O2-  O192  1  0.04712427  0.08138753  0.27013451  1
  O2-  O193  1  0.04048346  0.08496013  0.59628020  1
  O2-  O194  1  0.04748051  0.08507664  0.94054990  1
  O2-  O195  1  0.04364463  0.58184566  0.27056380  1
  O2-  O196  1  0.04823033  0.58252422  0.60127470  1
  O2-  O197  1  0.04016104  0.58284389  0.92938589  1
  O2-  O198  1  0.53922943  0.08272002  0.26474991  1
  O2-  O199  1  0.54781717  0.08585370  0.60258863  1
  O2-  O200  1  0.54587095  0.07923132  0.93935064  1
  O2-  O201  1  0.53807531  0.58355110  0.26654819  1
  O2-  O202  1  0.54383124  0.58651530  0.60302139  1
  O2-  O203  1  0.54161970  0.58384725  0.92875508  1
  O2-  O204  1  0.16853124  0.19874403  0.27026611  1
  O2-  O205  1  0.16284457  0.21257549  0.59342632  1
  O2-  O206  1  0.16437591  0.20830327  0.94117317  1
  O2-  O207  1  0.16586315  0.71237366  0.26652033  1
  O2-  O208  1  0.16726183  0.70307704  0.60412450  1
  O2-  O209  1  0.17681949  0.69681976  0.93580985  1
  O2-  O210  1  0.66462160  0.20952237  0.26260941  1
  O2-  O211  1  0.66813090  0.20497023  0.60699177  1
  O2-  O212  1  0.66430759  0.19793404  0.93274480  1
  O2-  O213  1  0.66790163  0.71001194  0.26767646  1
  O2-  O214  1  0.66659655  0.70242083  0.60425032  1
  O2-  O215  1  0.66671538  0.71194782  0.93070627  1
  O2-  O216  1  0.08280879  0.46036639  0.06623335  1
  O2-  O217  1  0.08540863  0.45480083  0.40101940  1
  O2-  O218  1  0.08747589  0.45378138  0.72720388  1
  O2-  O219  1  0.07850327  0.95649823  0.07103391  1
  O2-  O220  1  0.08775157  0.95658619  0.39720903  1
  O2-  O221  1  0.08246874  0.96253433  0.73129179  1
  O2-  O222  1  0.58165388  0.45289595  0.06097249  1
  O2-  O223  1  0.58419778  0.45334384  0.39393550  1
  O2-  O224  1  0.58258536  0.46202309  0.73562461  1
  O2-  O225  1  0.58546142  0.95565347  0.07260412  1
  O2-  O226  1  0.58156034  0.95556256  0.39476603  1
  O2-  O227  1  0.58253954  0.96011756  0.73443477  1
  O2-  O228  1  0.21159938  0.33707524  0.07144755  1
  O2-  O229  1  0.20008878  0.33092320  0.39732594  1
  O2-  O230  1  0.21015280  0.33608749  0.72456076  1
  O2-  O231  1  0.20626354  0.82761088  0.06925259  1
  O2-  O232  1  0.20913784  0.83862077  0.39796725  1
  O2-  O233  1  0.20917148  0.83261794  0.73349279  1
  O2-  O234  1  0.69717787  0.32941378  0.05750422  1
  O2-  O235  1  0.70531815  0.33525474  0.39357739  1
  O2-  O236  1  0.70495384  0.33316940  0.73814732  1
  O2-  O237  1  0.71452775  0.83269658  0.06960563  1
  O2-  O238  1  0.70034428  0.83510658  0.39926923  1
  O2-  O239  1  0.70985347  0.83194549  0.73121259  1
  O2-  O240  1  0.45229079  0.41562030  0.27039620  1
  O2-  O241  1  0.46241310  0.41883022  0.59772876  1
  O2-  O242  1  0.45909945  0.41232863  0.92895992  1
  O2-  O243  1  0.44826222  0.91690522  0.27049144  1
  O2-  O244  1  0.45733187  0.91908801  0.59980955  1
  O2-  O245  1  0.45629215  0.91739428  0.94007002  1
  O2-  O246  1  0.96228346  0.41530240  0.26840041  1
  O2-  O247  1  0.95461516  0.41650797  0.60383067  1
  O2-  O248  1  0.96222715  0.41546005  0.92823254  1
  O2-  O249  1  0.95522799  0.91678116  0.27239881  1
  O2-  O250  1  0.95973322  0.91597256  0.59615059  1
  O2-  O251  1  0.95066062  0.92344395  0.93497475  1
  O2-  O252  1  0.33165191  0.29685638  0.27336644  1
  O2-  O253  1  0.33571565  0.29303566  0.59094809  1
  O2-  O254  1  0.33160138  0.28639817  0.93512736  1
  O2-  O255  1  0.33348110  0.79481368  0.27066070  1
  O2-  O256  1  0.33357653  0.78825808  0.59892832  1
  O2-  O257  1  0.33500152  0.79948535  0.93927156  1
  O2-  O258  1  0.83480915  0.28862147  0.26613302  1
  O2-  O259  1  0.83115494  0.29954307  0.60625086  1
  O2-  O260  1  0.83091490  0.29338215  0.92923373  1
  O2-  O261  1  0.83090025  0.80265198  0.27604926  1
  O2-  O262  1  0.83343099  0.78895104  0.59454386  1
  O2-  O263  1  0.83501161  0.78521231  0.93301910  1
  O2-  O264  1  0.41796934  0.04414571  0.07045396  1
  O2-  O265  1  0.41380133  0.04347107  0.39930747  1
  O2-  O266  1  0.41623674  0.05308499  0.72511894  1
  O2-  O267  1  0.41762020  0.53827887  0.06017148  1
  O2-  O268  1  0.41677322  0.53935817  0.40428109  1
  O2-  O269  1  0.41346135  0.54402485  0.72860065  1
  O2-  O270  1  0.91535406  0.05326785  0.06328176  1
  O2-  O271  1  0.91713991  0.04408403  0.40184740  1
  O2-  O272  1  0.91718606  0.04663572  0.72769413  1
  O2-  O273  1  0.91576179  0.53681588  0.06464330  1
  O2-  O274  1  0.91713253  0.53841600  0.40441559  1
  O2-  O275  1  0.91826902  0.54669379  0.72945045  1
  O2-  O276  1  0.28979614  0.16674079  0.07326632  1
  O2-  O277  1  0.29571995  0.16453070  0.39905601  1
  O2-  O278  1  0.29265583  0.16886003  0.72174152  1
  O2-  O279  1  0.30950039  0.66697645  0.06082637  1
  O2-  O280  1  0.28835053  0.66614224  0.40169078  1
  O2-  O281  1  0.29367568  0.66202881  0.73128987  1
  O2-  O282  1  0.79216900  0.16830493  0.06125175  1
  O2-  O283  1  0.78592936  0.16737699  0.40186002  1
  O2-  O284  1  0.80039505  0.16683953  0.73061437  1
  O2-  O285  1  0.78643134  0.66238909  0.06808861  1
  O2-  O286  1  0.79142157  0.66825790  0.40308927  1
  O2-  O287  1  0.79710400  0.66547044  0.72907178  1
