# generated using pymatgen
data_Ca2Al2SiO7
_symmetry_space_group_name_H-M   'P 1'
_cell_length_a   15.47197675
_cell_length_b   15.47166805
_cell_length_c   15.29494631
_cell_angle_alpha   89.99891046
_cell_angle_beta   90.00612885
_cell_angle_gamma   90.02592339
_symmetry_Int_Tables_number   1
_chemical_formula_structural   Ca2Al2SiO7
_chemical_formula_sum   'Ca48 Al48 Si24 O168'
_cell_volume   3661.26237559
_cell_formula_units_Z   24
loop_
 _symmetry_equiv_pos_site_id
 _symmetry_equiv_pos_as_xyz
  1  'x, y, z'
loop_
 _atom_type_symbol
 _atom_type_oxidation_number
  Ca2+  2.0
  Al0+  0.0
  Si0+  0.0
  O2-  -2.0
loop_
 _atom_site_type_symbol
 _atom_site_label
 _atom_site_symmetry_multiplicity
 _atom_site_fract_x
 _atom_site_fract_y
 _atom_site_fract_z
 _atom_site_occupancy
  Ca2+  Ca0  1  0.17594383  0.06888546  0.17859984  1
  Ca2+  Ca1  1  0.18021639  0.07106828  0.50500156  1
  Ca2+  Ca2  1  0.17461715  0.07025422  0.83719362  1
  Ca2+  Ca3  1  0.16867864  0.59085569  0.17325741  1
  Ca2+  Ca4  1  0.17981634  0.59685313  0.49852909  1
  Ca2+  Ca5  1  0.17363021  0.59197904  0.83477039  1
  Ca2+  Ca6  1  0.66167741  0.08077628  0.17342951  1
  Ca2+  Ca7  1  0.65547818  0.07252767  0.50070812  1
  Ca2+  Ca8  1  0.65451314  0.08029907  0.83088556  1
  Ca2+  Ca9  1  0.66524498  0.57394624  0.18126981  1
  Ca2+  Ca10  1  0.67347441  0.58496917  0.50624560  1
  Ca2+  Ca11  1  0.66780696  0.57324104  0.83791646  1
  Ca2+  Ca12  1  0.08133845  0.33180030  0.16281190  1
  Ca2+  Ca13  1  0.08257676  0.33160285  0.49385828  1
  Ca2+  Ca14  1  0.08086744  0.33152907  0.82587554  1
  Ca2+  Ca15  1  0.08984297  0.82516659  0.16609002  1
  Ca2+  Ca16  1  0.07825847  0.83449122  0.49051860  1
  Ca2+  Ca17  1  0.08726655  0.83465056  0.83206196  1
  Ca2+  Ca18  1  0.59251425  0.32503997  0.16442294  1
  Ca2+  Ca19  1  0.59578450  0.32371184  0.49632111  1
  Ca2+  Ca20  1  0.59423480  0.32484540  0.82935723  1
  Ca2+  Ca21  1  0.57243457  0.83358653  0.16868435  1
  Ca2+  Ca22  1  0.57488881  0.83324956  0.49047822  1
  Ca2+  Ca23  1  0.56984722  0.83844746  0.82490869  1
  Ca2+  Ca24  1  0.33169780  0.42586766  0.17509890  1
  Ca2+  Ca25  1  0.33840946  0.43193707  0.50149700  1
  Ca2+  Ca26  1  0.33946065  0.42678740  0.83245928  1
  Ca2+  Ca27  1  0.32913398  0.91200867  0.17444960  1
  Ca2+  Ca28  1  0.33261308  0.91812461  0.50462347  1
  Ca2+  Ca29  1  0.33039802  0.91298310  0.83422258  1
  Ca2+  Ca30  1  0.82327892  0.42442511  0.17423866  1
  Ca2+  Ca31  1  0.82273944  0.42991753  0.50057426  1
  Ca2+  Ca32  1  0.82343390  0.42002533  0.83294130  1
  Ca2+  Ca33  1  0.82669728  0.91482379  0.17657988  1
  Ca2+  Ca34  1  0.81723575  0.90304867  0.49867843  1
  Ca2+  Ca35  1  0.82358892  0.91671303  0.83249570  1
  Ca2+  Ca36  1  0.42663077  0.16128004  0.16685877  1
  Ca2+  Ca37  1  0.42236079  0.16199231  0.49468528  1
  Ca2+  Ca38  1  0.42576865  0.16652631  0.82426491  1
  Ca2+  Ca39  1  0.41632586  0.67522232  0.16946764  1
  Ca2+  Ca40  1  0.41735394  0.67473758  0.49210673  1
  Ca2+  Ca41  1  0.41394502  0.67800270  0.82726787  1
  Ca2+  Ca42  1  0.91651200  0.16761300  0.16369459  1
  Ca2+  Ca43  1  0.91595956  0.16932992  0.49526535  1
  Ca2+  Ca44  1  0.91829821  0.16746602  0.82783897  1
  Ca2+  Ca45  1  0.92277380  0.66945030  0.16984398  1
  Ca2+  Ca46  1  0.92103858  0.66629678  0.48822551  1
  Ca2+  Ca47  1  0.92423251  0.66074376  0.82927996  1
  Al0+  Al48  1  0.00033214  -0.00129101  0.00329483  1
  Al0+  Al49  1  -0.00066639  0.00152342  0.33236765  1
  Al0+  Al50  1  0.00039460  -0.00078183  0.66821191  1
  Al0+  Al51  1  0.00023161  0.50012763  -0.00514771  1
  Al0+  Al52  1  -0.00214690  0.49836145  0.33115894  1
  Al0+  Al53  1  -0.00048638  0.49931899  0.66690977  1
  Al0+  Al54  1  0.49963750  0.00111297  -0.00765581  1
  Al0+  Al55  1  0.50085258  0.00186931  0.33064579  1
  Al0+  Al56  1  0.49911668  0.00129373  0.66604413  1
  Al0+  Al57  1  0.50003152  0.49931501  0.00569416  1
  Al0+  Al58  1  0.49759462  0.49576959  0.33875451  1
  Al0+  Al59  1  0.49995844  0.49883789  0.67661819  1
  Al0+  Al60  1  0.25158110  0.25068173  -0.00149195  1
  Al0+  Al61  1  0.25047154  0.24902951  0.33487045  1
  Al0+  Al62  1  0.25117376  0.24944619  0.66809825  1
  Al0+  Al63  1  0.24918872  0.75035684  -0.00398691  1
  Al0+  Al64  1  0.24861723  0.74956652  0.33415680  1
  Al0+  Al65  1  0.24880493  0.74974781  0.67015029  1
  Al0+  Al66  1  0.75116022  0.25052067  -0.00120845  1
  Al0+  Al67  1  0.75124328  0.25056901  0.33148449  1
  Al0+  Al68  1  0.75250117  0.25056040  0.66391605  1
  Al0+  Al69  1  0.75152256  0.75038011  0.00007093  1
  Al0+  Al70  1  0.75074851  0.74896571  0.33147553  1
  Al0+  Al71  1  0.75137233  0.75065786  0.67944757  1
  Al0+  Al72  1  0.67799868  0.93002388  0.68030394  1
  Al0+  Al73  1  0.32259893  0.07101964  0.34784738  1
  Al0+  Al74  1  0.17778012  0.92875559  0.68319201  1
  Al0+  Al75  1  0.43095319  0.81863368  0.98551548  1
  Al0+  Al76  1  0.57052377  0.18167727  0.31903392  1
  Al0+  Al77  1  0.67978230  0.92941975  0.34331625  1
  Al0+  Al78  1  0.42885349  0.81927803  0.65202852  1
  Al0+  Al79  1  0.18036550  0.92907918  0.01670175  1
  Al0+  Al80  1  0.67740798  0.42693757  0.34887544  1
  Al0+  Al81  1  0.07033700  0.67887246  0.31954953  1
  Al0+  Al82  1  0.32028910  0.57124558  0.68150536  1
  Al0+  Al83  1  0.17834390  0.92713407  0.34887527  1
  Al0+  Al84  1  0.32242042  0.07171721  0.68368676  1
  Al0+  Al85  1  0.57072691  0.18181755  0.65024334  1
  Al0+  Al86  1  0.06856127  0.68039384  0.98411626  1
  Al0+  Al87  1  0.42939946  0.82133863  0.31984901  1
  Al0+  Al88  1  0.57184221  0.67510390  0.32248986  1
  Al0+  Al89  1  0.82010543  0.57164878  0.34643964  1
  Al0+  Al90  1  0.82301481  0.57268938  0.68382808  1
  Al0+  Al91  1  0.32005293  0.57075558  0.34544288  1
  Al0+  Al92  1  0.92707994  0.82363543  0.31900634  1
  Al0+  Al93  1  0.57032290  0.18216425  0.98479963  1
  Al0+  Al94  1  0.68053686  0.42958258  0.01641539  1
  Al0+  Al95  1  0.67994000  0.42806330  0.68275569  1
  Si0+  Si96  1  0.82441664  0.57226165  0.01808329  1
  Si0+  Si97  1  0.07229131  0.17752890  0.98511872  1
  Si0+  Si98  1  0.93028382  0.31921110  0.31607196  1
  Si0+  Si99  1  0.82125198  0.07034433  0.01378824  1
  Si0+  Si100  1  0.67710131  0.92986451  0.01435108  1
  Si0+  Si101  1  0.07192844  0.17800043  0.65118189  1
  Si0+  Si102  1  0.31861471  0.57062354  0.01546728  1
  Si0+  Si103  1  0.17629750  0.42673392  0.34776680  1
  Si0+  Si104  1  0.42612666  0.32442677  0.64909419  1
  Si0+  Si105  1  0.92590553  0.82473019  0.98057326  1
  Si0+  Si106  1  0.82255110  0.07244346  0.68174050  1
  Si0+  Si107  1  0.92760898  0.82203861  0.65337647  1
  Si0+  Si108  1  0.42592310  0.32509446  0.98264475  1
  Si0+  Si109  1  0.07283053  0.17925132  0.31758108  1
  Si0+  Si110  1  0.82257806  0.07355800  0.34848335  1
  Si0+  Si111  1  0.93107294  0.32092530  0.64893262  1
  Si0+  Si112  1  0.17721810  0.42740740  0.01306595  1
  Si0+  Si113  1  0.32327207  0.07337858  0.01684739  1
  Si0+  Si114  1  0.17760790  0.42730427  0.68198239  1
  Si0+  Si115  1  0.93130827  0.31909208  0.98318129  1
  Si0+  Si116  1  0.06891584  0.67862484  0.65128770  1
  Si0+  Si117  1  0.57365843  0.67557100  0.98481264  1
  Si0+  Si118  1  0.42407743  0.32174300  0.31642130  1
  Si0+  Si119  1  0.57320830  0.67717181  0.65528442  1
  O2-  O120  1  0.25435338  0.00537249  0.06101804  1
  O2-  O121  1  0.25367563  -0.00396658  0.39731080  1
  O2-  O122  1  0.25190245  -0.00159190  0.73367922  1
  O2-  O123  1  0.24887805  0.49663164  0.05553830  1
  O2-  O124  1  0.24299868  0.49683562  0.39117481  1
  O2-  O125  1  0.24615655  0.49475712  0.72786316  1
  O2-  O126  1  0.75096948  -0.00107260  0.05534091  1
  O2-  O127  1  0.75759072  0.00134589  0.39088623  1
  O2-  O128  1  0.75223487  0.00634074  0.72674513  1
  O2-  O129  1  0.74961653  0.51017870  0.06144272  1
  O2-  O130  1  0.74077284  0.50766382  0.39634171  1
  O2-  O131  1  0.74777673  0.50387313  0.73336055  1
  O2-  O132  1  0.00194422  0.24925607  0.27288725  1
  O2-  O133  1  0.00297734  0.25040426  0.60720757  1
  O2-  O134  1  0.00353457  0.24949651  0.94004710  1
  O2-  O135  1  0.00138926  0.75374876  0.26906797  1
  O2-  O136  1  -0.00357602  0.74882454  0.61166240  1
  O2-  O137  1  -0.00732850  0.75386322  0.93678788  1
  O2-  O138  1  0.49558111  0.25607245  0.27207459  1
  O2-  O139  1  0.49604241  0.25742171  0.60490694  1
  O2-  O140  1  0.49507354  0.25691527  0.93902805  1
  O2-  O141  1  0.50130994  0.74801944  0.27062039  1
  O2-  O142  1  0.50546172  0.74489707  0.60893505  1
  O2-  O143  1  0.50868875  0.74645248  0.93892043  1
  O2-  O144  1  0.06994081  0.18055210  0.09011184  1
  O2-  O145  1  0.07107868  0.18259236  0.42268043  1
  O2-  O146  1  0.06845149  0.18023348  0.75677692  1
  O2-  O147  1  0.06857796  0.67850859  0.09644300  1
  O2-  O148  1  0.06873274  0.67641710  0.43310658  1
  O2-  O149  1  0.06812514  0.67732611  0.75675202  1
  O2-  O150  1  0.57121127  0.18169305  0.09764488  1
  O2-  O151  1  0.57238806  0.18209666  0.43158773  1
  O2-  O152  1  0.57095633  0.18422348  0.76376395  1
  O2-  O153  1  0.57152270  0.67461528  0.09003827  1
  O2-  O154  1  0.57098987  0.67740697  0.43633154  1
  O2-  O155  1  0.57070919  0.67902072  0.76137900  1
  O2-  O156  1  0.17720725  0.42416388  0.24168824  1
  O2-  O157  1  0.17553770  0.42634000  0.57673440  1
  O2-  O158  1  0.17601403  0.42589543  0.90817779  1
  O2-  O159  1  0.17938233  0.92943037  0.23486954  1
  O2-  O160  1  0.17312154  0.93113564  0.57056091  1
  O2-  O161  1  0.17934280  0.93172187  0.90387557  1
  O2-  O162  1  0.68398014  0.42451467  0.23500946  1
  O2-  O163  1  0.68395093  0.42727995  0.57003736  1
  O2-  O164  1  0.68482036  0.42785197  0.90356765  1
  O2-  O165  1  0.67966716  0.93373892  0.22969689  1
  O2-  O166  1  0.67950374  0.92808352  0.56762884  1
  O2-  O167  1  0.67768687  0.93219863  0.90915248  1
  O2-  O168  1  0.42131961  0.32561364  0.08770241  1
  O2-  O169  1  0.41853168  0.32006949  0.42137164  1
  O2-  O170  1  0.42371873  0.32288192  0.75491923  1
  O2-  O171  1  0.43083985  0.81794897  0.09823818  1
  O2-  O172  1  0.42991280  0.82058014  0.43325115  1
  O2-  O173  1  0.42921162  0.81731692  0.76574489  1
  O2-  O174  1  0.93303554  0.31757993  0.08824399  1
  O2-  O175  1  0.93205136  0.31758495  0.42111999  1
  O2-  O176  1  0.93274436  0.31917426  0.75458059  1
  O2-  O177  1  0.92382938  0.82675363  0.08544044  1
  O2-  O178  1  0.92778191  0.82256722  0.43299317  1
  O2-  O179  1  0.92946623  0.82428503  0.75866003  1
  O2-  O180  1  0.31918819  0.07401265  0.23384736  1
  O2-  O181  1  0.31965629  0.07271563  0.57067003  1
  O2-  O182  1  0.32093172  0.07516342  0.91152715  1
  O2-  O183  1  0.31771186  0.56871765  0.23182760  1
  O2-  O184  1  0.31815885  0.57169763  0.56891521  1
  O2-  O185  1  0.31733546  0.56930243  0.91020705  1
  O2-  O186  1  0.82130295  0.07703563  0.24240021  1
  O2-  O187  1  0.82603225  0.07317073  0.57680691  1
  O2-  O188  1  0.82442349  0.07103003  0.90878595  1
  O2-  O189  1  0.82442867  0.56599739  0.23282449  1
  O2-  O190  1  0.82606586  0.57163573  0.57090503  1
  O2-  O191  1  0.82653382  0.56817432  0.91253847  1
  O2-  O192  1  0.04447659  0.08873397  0.26863549  1
  O2-  O193  1  0.04067099  0.08757766  0.60417320  1
  O2-  O194  1  0.04097233  0.08674997  0.93827092  1
  O2-  O195  1  0.04175206  0.57962477  0.26601631  1
  O2-  O196  1  0.04352626  0.58571063  0.60520174  1
  O2-  O197  1  0.04054071  0.58258195  0.92872324  1
  O2-  O198  1  0.54009587  0.08623041  0.26253856  1
  O2-  O199  1  0.54001131  0.08456318  0.59874497  1
  O2-  O200  1  0.54013315  0.08630611  0.92929080  1
  O2-  O201  1  0.54167220  0.57576333  0.27115190  1
  O2-  O202  1  0.54939156  0.58160800  0.61352927  1
  O2-  O203  1  0.54513251  0.58200899  0.93955342  1
  O2-  O204  1  0.16332781  0.20865441  0.26866347  1
  O2-  O205  1  0.16371002  0.20570178  0.60459225  1
  O2-  O206  1  0.16430856  0.20464322  0.93780491  1
  O2-  O207  1  0.16848115  0.70568672  0.26536221  1
  O2-  O208  1  0.16072974  0.70762813  0.60613895  1
  O2-  O209  1  0.16430645  0.71226971  0.92926438  1
  O2-  O210  1  0.66791667  0.21237316  0.26452821  1
  O2-  O211  1  0.66939928  0.21038966  0.59867904  1
  O2-  O212  1  0.66817227  0.21243367  0.93176101  1
  O2-  O213  1  0.67005372  0.69979688  0.26797047  1
  O2-  O214  1  0.66922412  0.70254506  0.61473081  1
  O2-  O215  1  0.66972378  0.69645465  0.94119289  1
  O2-  O216  1  0.08495561  0.45473802  0.05997486  1
  O2-  O217  1  0.08169806  0.44805914  0.39253091  1
  O2-  O218  1  0.08436747  0.45277939  0.72909689  1
  O2-  O219  1  0.08250815  0.95898165  0.06886053  1
  O2-  O220  1  0.07995571  0.96044272  0.39906751  1
  O2-  O221  1  0.08028201  0.96114829  0.73773476  1
  O2-  O222  1  0.58127064  0.45254091  0.06873697  1
  O2-  O223  1  0.57534955  0.43884106  0.39769089  1
  O2-  O224  1  0.58079618  0.44853740  0.73769651  1
  O2-  O225  1  0.58598657  0.96137612  0.05989124  1
  O2-  O226  1  0.58542232  0.96371966  0.39786774  1
  O2-  O227  1  0.58334628  0.96357604  0.73542465  1
  O2-  O228  1  0.20219529  0.33464911  0.06095464  1
  O2-  O229  1  0.20201648  0.33405109  0.39524366  1
  O2-  O230  1  0.20045635  0.33342184  0.72897384  1
  O2-  O231  1  0.21288300  0.83163815  0.06690284  1
  O2-  O232  1  0.20051433  0.82794171  0.40054385  1
  O2-  O233  1  0.20428400  0.83026879  0.73619745  1
  O2-  O234  1  0.71869187  0.33397688  0.06819664  1
  O2-  O235  1  0.71955540  0.33294972  0.40132955  1
  O2-  O236  1  0.71831992  0.33161870  0.73527000  1
  O2-  O237  1  0.70230867  0.83624559  0.05931738  1
  O2-  O238  1  0.70836453  0.83295194  0.39771909  1
  O2-  O239  1  0.70956059  0.83694412  0.74079901  1
  O2-  O240  1  0.44643959  0.41606733  0.27088443  1
  O2-  O241  1  0.45056790  0.42018317  0.60715789  1
  O2-  O242  1  0.45195611  0.41936668  0.93787521  1
  O2-  O243  1  0.45919708  0.91839849  0.26488000  1
  O2-  O244  1  0.45869719  0.91671792  0.60125391  1
  O2-  O245  1  0.45976406  0.91535148  0.93037763  1
  O2-  O246  1  0.95816481  0.40933502  0.26589929  1
  O2-  O247  1  0.96011741  0.41202463  0.60136179  1
  O2-  O248  1  0.95894479  0.40999413  0.93432178  1
  O2-  O249  1  0.94920534  0.92471112  0.26695131  1
  O2-  O250  1  0.95576097  0.91338887  0.60566452  1
  O2-  O251  1  0.95432535  0.91814032  0.93470407  1
  O2-  O252  1  0.33130212  0.29494933  0.26717786  1
  O2-  O253  1  0.33181371  0.29992360  0.60352690  1
  O2-  O254  1  0.33192637  0.30133579  0.93459843  1
  O2-  O255  1  0.33140668  0.79089399  0.26755226  1
  O2-  O256  1  0.33125046  0.78693913  0.60150915  1
  O2-  O257  1  0.33597292  0.78433733  0.93084184  1
  O2-  O258  1  0.84087251  0.28807165  0.26634881  1
  O2-  O259  1  0.84152972  0.29068100  0.60013979  1
  O2-  O260  1  0.84156095  0.28744288  0.93469158  1
  O2-  O261  1  0.83071794  0.79367092  0.26262996  1
  O2-  O262  1  0.83359931  0.79561668  0.61022504  1
  O2-  O263  1  0.83110781  0.80156166  0.93448759  1
  O2-  O264  1  0.41765518  0.04622408  0.05968360  1
  O2-  O265  1  0.42186047  0.04669160  0.39849609  1
  O2-  O266  1  0.42050829  0.04468702  0.73629919  1
  O2-  O267  1  0.41053485  0.54503188  0.06296550  1
  O2-  O268  1  0.41351759  0.53816688  0.40346682  1
  O2-  O269  1  0.41498052  0.54171231  0.74019154  1
  O2-  O270  1  0.91293749  0.04527005  0.06318125  1
  O2-  O271  1  0.91791274  0.05548144  0.39341966  1
  O2-  O272  1  0.91462915  0.04489206  0.73080948  1
  O2-  O273  1  0.91614885  0.53817661  0.06271273  1
  O2-  O274  1  0.91567202  0.53318561  0.40001607  1
  O2-  O275  1  0.91974632  0.53631763  0.73719183  1
  O2-  O276  1  0.29901104  0.16834662  0.06134223  1
  O2-  O277  1  0.29016898  0.16832003  0.40121177  1
  O2-  O278  1  0.29249825  0.17046492  0.73662492  1
  O2-  O279  1  0.28624055  0.66077747  0.06130557  1
  O2-  O280  1  0.28869987  0.66560266  0.40114722  1
  O2-  O281  1  0.28462646  0.66456907  0.73834462  1
  O2-  O282  1  0.79387331  0.16227872  0.06112815  1
  O2-  O283  1  0.79497845  0.16567683  0.39573981  1
  O2-  O284  1  0.80030718  0.16674631  0.72803464  1
  O2-  O285  1  0.80755065  0.66974311  0.05891497  1
  O2-  O286  1  0.80099964  0.67159826  0.39836874  1
  O2-  O287  1  0.80142648  0.67035617  0.74112891  1
