# generated using pymatgen
data_Ca2Al2SiO7
_symmetry_space_group_name_H-M   'P 1'
_cell_length_a   15.46563785
_cell_length_b   15.46495081
_cell_length_c   15.28872996
_cell_angle_alpha   89.97992646
_cell_angle_beta   90.00747614
_cell_angle_gamma   90.03037007
_symmetry_Int_Tables_number   1
_chemical_formula_structural   Ca2Al2SiO7
_chemical_formula_sum   'Ca48 Al48 Si24 O168'
_cell_volume   3656.68624174
_cell_formula_units_Z   24
loop_
 _symmetry_equiv_pos_site_id
 _symmetry_equiv_pos_as_xyz
  1  'x, y, z'
loop_
 _atom_type_symbol
 _atom_type_oxidation_number
  Ca2+  2.0
  Al0+  0.0
  Si0+  0.0
  O2-  -2.0
loop_
 _atom_site_type_symbol
 _atom_site_label
 _atom_site_symmetry_multiplicity
 _atom_site_fract_x
 _atom_site_fract_y
 _atom_site_fract_z
 _atom_site_occupancy
  Ca2+  Ca0  1  0.17412226  0.08335990  0.17239113  1
  Ca2+  Ca1  1  0.17123659  0.07340026  0.50725112  1
  Ca2+  Ca2  1  0.16938817  0.08648080  0.83782114  1
  Ca2+  Ca3  1  0.17314935  0.58698807  0.17003330  1
  Ca2+  Ca4  1  0.17264219  0.58688219  0.50968927  1
  Ca2+  Ca5  1  0.16808939  0.57812039  0.84213552  1
  Ca2+  Ca6  1  0.67496142  0.07820815  0.17110702  1
  Ca2+  Ca7  1  0.66844161  0.06929039  0.50481876  1
  Ca2+  Ca8  1  0.67284619  0.07813513  0.83659602  1
  Ca2+  Ca9  1  0.67156072  0.58767389  0.16924285  1
  Ca2+  Ca10  1  0.67268269  0.58353390  0.50840873  1
  Ca2+  Ca11  1  0.67967491  0.58011384  0.83405218  1
  Ca2+  Ca12  1  0.08921178  0.32629351  0.15721934  1
  Ca2+  Ca13  1  0.09331776  0.32949432  0.50534756  1
  Ca2+  Ca14  1  0.09625483  0.32545148  0.82929921  1
  Ca2+  Ca15  1  0.09157515  0.82400644  0.16685910  1
  Ca2+  Ca16  1  0.08561196  0.82660660  0.49368275  1
  Ca2+  Ca17  1  0.08709947  0.82177269  0.82579905  1
  Ca2+  Ca18  1  0.57205954  0.33022386  0.15718863  1
  Ca2+  Ca19  1  0.58255539  0.33445794  0.49564806  1
  Ca2+  Ca20  1  0.57580557  0.33781930  0.82843104  1
  Ca2+  Ca21  1  0.58415448  0.83065232  0.16804036  1
  Ca2+  Ca22  1  0.58353442  0.83114982  0.49194474  1
  Ca2+  Ca23  1  0.57938231  0.83588704  0.82705858  1
  Ca2+  Ca24  1  0.32949024  0.42181878  0.16381509  1
  Ca2+  Ca25  1  0.32796744  0.43042298  0.50601698  1
  Ca2+  Ca26  1  0.32399081  0.42530901  0.83750258  1
  Ca2+  Ca27  1  0.32628533  0.92812170  0.17399214  1
  Ca2+  Ca28  1  0.32044494  0.92148599  0.50431418  1
  Ca2+  Ca29  1  0.32453473  0.92629969  0.83286371  1
  Ca2+  Ca30  1  0.83868592  0.42603349  0.16623160  1
  Ca2+  Ca31  1  0.82569477  0.42518908  0.51129509  1
  Ca2+  Ca32  1  0.83559468  0.42680398  0.83459913  1
  Ca2+  Ca33  1  0.83342152  0.91664510  0.17168962  1
  Ca2+  Ca34  1  0.82356789  0.90158701  0.50029863  1
  Ca2+  Ca35  1  0.82813500  0.91834067  0.83631700  1
  Ca2+  Ca36  1  0.41030432  0.16973732  0.15647622  1
  Ca2+  Ca37  1  0.40974589  0.16392183  0.49842559  1
  Ca2+  Ca38  1  0.40582508  0.17185615  0.82999636  1
  Ca2+  Ca39  1  0.41993119  0.65866655  0.16339132  1
  Ca2+  Ca40  1  0.42138546  0.66160241  0.49179113  1
  Ca2+  Ca41  1  0.41327787  0.66258425  0.82873505  1
  Ca2+  Ca42  1  0.92256786  0.16708654  0.15569249  1
  Ca2+  Ca43  1  0.92282478  0.16853401  0.49943353  1
  Ca2+  Ca44  1  0.92810773  0.16357455  0.82925094  1
  Ca2+  Ca45  1  0.92734056  0.67279950  0.16194210  1
  Ca2+  Ca46  1  0.92889209  0.66807251  0.49502422  1
  Ca2+  Ca47  1  0.92563333  0.65852390  0.82916214  1
  Al0+  Al48  1  -0.00245043  -0.00183034  -0.00017181  1
  Al0+  Al49  1  -0.00014039  0.00228223  0.33335897  1
  Al0+  Al50  1  -0.00165336  -0.00160566  0.66228356  1
  Al0+  Al51  1  -0.00157938  0.49884952  0.00574031  1
  Al0+  Al52  1  0.00018774  0.49866146  0.33086667  1
  Al0+  Al53  1  0.00006838  0.49837228  0.66708075  1
  Al0+  Al54  1  0.49923276  -0.00174265  0.00271733  1
  Al0+  Al55  1  0.50402396  0.00142328  0.33799704  1
  Al0+  Al56  1  0.50016319  0.00076119  0.67277823  1
  Al0+  Al57  1  0.50004234  0.49897951  -0.00369645  1
  Al0+  Al58  1  0.49962346  0.49831637  0.33047371  1
  Al0+  Al59  1  0.50000500  0.49934907  0.67080412  1
  Al0+  Al60  1  0.25084657  0.25120605  -0.00141698  1
  Al0+  Al61  1  0.25068957  0.25331213  0.33614327  1
  Al0+  Al62  1  0.25179916  0.25257434  0.66368157  1
  Al0+  Al63  1  0.25214360  0.74990994  -0.00137210  1
  Al0+  Al64  1  0.25326873  0.75193887  0.33592901  1
  Al0+  Al65  1  0.25217163  0.75438958  0.66834061  1
  Al0+  Al66  1  0.74874625  0.24803904  0.00286842  1
  Al0+  Al67  1  0.74938688  0.25018192  0.33148734  1
  Al0+  Al68  1  0.74798001  0.24884606  0.66783257  1
  Al0+  Al69  1  0.74889730  0.74814291  0.00275002  1
  Al0+  Al70  1  0.75077942  0.74936852  0.32826158  1
  Al0+  Al71  1  0.74841415  0.74928052  0.67633752  1
  Al0+  Al72  1  0.32178636  0.07434651  0.34786240  1
  Al0+  Al73  1  0.56983130  0.67788667  0.32006067  1
  Al0+  Al74  1  0.17467929  0.92893275  0.68255652  1
  Al0+  Al75  1  0.67922064  0.92870059  0.68076482  1
  Al0+  Al76  1  0.17874286  0.42878713  0.01569897  1
  Al0+  Al77  1  0.07094442  0.67941987  0.98596784  1
  Al0+  Al78  1  0.82080945  0.57050830  0.01704618  1
  Al0+  Al79  1  0.06963655  0.17907638  0.98750620  1
  Al0+  Al80  1  0.67746535  0.42630462  0.68087241  1
  Al0+  Al81  1  0.31857610  0.07044996  0.01282599  1
  Al0+  Al82  1  0.68296574  0.92851031  0.34626683  1
  Al0+  Al83  1  0.07490361  0.67848445  0.31828458  1
  Al0+  Al84  1  0.31895965  0.07109518  0.68203126  1
  Al0+  Al85  1  0.32178818  0.57240125  0.01622648  1
  Al0+  Al86  1  0.82167832  0.57074992  0.68039678  1
  Al0+  Al87  1  0.07196249  0.67860445  0.65448626  1
  Al0+  Al88  1  0.42994506  0.32011071  0.98355954  1
  Al0+  Al89  1  0.32168537  0.56985287  0.34597429  1
  Al0+  Al90  1  0.17896784  0.43055586  0.68073135  1
  Al0+  Al91  1  0.82141127  0.06992252  0.01290096  1
  Al0+  Al92  1  0.17742160  0.92941694  0.34790569  1
  Al0+  Al93  1  0.32117632  0.57406410  0.68036240  1
  Al0+  Al94  1  0.92904460  0.82167720  0.31855256  1
  Al0+  Al95  1  0.07198457  0.17868217  0.65132032  1
  Si0+  Si96  1  0.67930798  0.42871814  0.34558066  1
  Si0+  Si97  1  0.57224065  0.17560360  0.98253167  1
  Si0+  Si98  1  0.57191323  0.17741642  0.65048458  1
  Si0+  Si99  1  0.43025155  0.82502050  0.31697009  1
  Si0+  Si100  1  0.92492074  0.82055657  0.65182575  1
  Si0+  Si101  1  0.17597092  0.42894670  0.35109289  1
  Si0+  Si102  1  0.67738320  0.92742800  0.01828683  1
  Si0+  Si103  1  0.42996697  0.82260867  0.98407563  1
  Si0+  Si104  1  0.17671072  0.92671732  0.01572898  1
  Si0+  Si105  1  0.67745283  0.42783678  0.01748633  1
  Si0+  Si106  1  0.82235612  0.07526211  0.35104977  1
  Si0+  Si107  1  0.82199830  0.07303360  0.68176276  1
  Si0+  Si108  1  0.56951367  0.67970593  0.65359486  1
  Si0+  Si109  1  0.92537098  0.82055159  0.98188081  1
  Si0+  Si110  1  0.43134678  0.32138421  0.64834162  1
  Si0+  Si111  1  0.43021615  0.31956363  0.31774922  1
  Si0+  Si112  1  0.57298470  0.17837477  0.31752081  1
  Si0+  Si113  1  0.82123772  0.57000609  0.34748990  1
  Si0+  Si114  1  0.43098253  0.82421319  0.65108200  1
  Si0+  Si115  1  0.92537216  0.32033505  0.31785744  1
  Si0+  Si116  1  0.92547529  0.32106898  0.65008790  1
  Si0+  Si117  1  0.07106658  0.18233947  0.31923797  1
  Si0+  Si118  1  0.57138206  0.67917003  0.98269570  1
  Si0+  Si119  1  0.92477532  0.32163345  0.98357653  1
  O2-  O120  1  0.24183824  -0.00102868  0.05997812  1
  O2-  O121  1  0.25013395  0.00198474  0.39636543  1
  O2-  O122  1  0.24153793  0.00570865  0.73254590  1
  O2-  O123  1  0.24656436  0.50425952  0.06660212  1
  O2-  O124  1  0.23962672  0.50354496  0.39243253  1
  O2-  O125  1  0.24335102  0.50913275  0.73036250  1
  O2-  O126  1  0.74690165  -0.00420791  0.06089383  1
  O2-  O127  1  0.75937495  0.00104962  0.39445563  1
  O2-  O128  1  0.75543675  0.00207230  0.72547664  1
  O2-  O129  1  0.74663894  0.49451873  0.06383276  1
  O2-  O130  1  0.74978519  0.49891785  0.38911175  1
  O2-  O131  1  0.75198100  0.49548671  0.72960005  1
  O2-  O132  1  -0.00190124  0.25104273  0.27625131  1
  O2-  O133  1  -0.00424618  0.25369646  0.60536673  1
  O2-  O134  1  -0.00581292  0.25353413  0.94031350  1
  O2-  O135  1  0.00465571  0.75323769  0.26874090  1
  O2-  O136  1  -0.00317442  0.75448385  0.60905598  1
  O2-  O137  1  -0.00451354  0.75351238  0.93838536  1
  O2-  O138  1  0.49705839  0.24406459  0.27563621  1
  O2-  O139  1  0.50247218  0.24947864  0.60640073  1
  O2-  O140  1  0.50406150  0.24363981  0.93715789  1
  O2-  O141  1  0.49460575  0.75192896  0.27212768  1
  O2-  O142  1  0.49800881  0.74865326  0.60930140  1
  O2-  O143  1  0.49931342  0.74930875  0.94154584  1
  O2-  O144  1  0.06838850  0.18040563  0.10132556  1
  O2-  O145  1  0.07037549  0.18489193  0.42408383  1
  O2-  O146  1  0.07030124  0.17985621  0.76432651  1
  O2-  O147  1  0.07171918  0.68236093  0.09898156  1
  O2-  O148  1  0.07183022  0.67586100  0.43194269  1
  O2-  O149  1  0.06961202  0.67856661  0.76760069  1
  O2-  O150  1  0.57195190  0.17690891  0.08864401  1
  O2-  O151  1  0.57815335  0.18191209  0.42233577  1
  O2-  O152  1  0.57268655  0.17682234  0.75518746  1
  O2-  O153  1  0.57224849  0.68022446  0.08804726  1
  O2-  O154  1  0.57070399  0.67693037  0.43346935  1
  O2-  O155  1  0.56938739  0.68172447  0.75880474  1
  O2-  O156  1  0.17782503  0.42300046  0.24602156  1
  O2-  O157  1  0.18381885  0.43016735  0.56663954  1
  O2-  O158  1  0.18120467  0.42873785  0.90260178  1
  O2-  O159  1  0.17958651  0.93230987  0.23384685  1
  O2-  O160  1  0.17809944  0.92838424  0.56911458  1
  O2-  O161  1  0.17872577  0.92649057  0.91043368  1
  O2-  O162  1  0.68032764  0.42767683  0.24078058  1
  O2-  O163  1  0.67767189  0.42879642  0.56629560  1
  O2-  O164  1  0.67799060  0.42946256  0.91225351  1
  O2-  O165  1  0.68193129  0.93211358  0.23333521  1
  O2-  O166  1  0.67978760  0.92754595  0.56766314  1
  O2-  O167  1  0.67688510  0.92792488  0.91259159  1
  O2-  O168  1  0.43260450  0.31874643  0.09748879  1
  O2-  O169  1  0.43384390  0.32159852  0.42273469  1
  O2-  O170  1  0.43263175  0.32081093  0.75308452  1
  O2-  O171  1  0.43282287  0.82585272  0.08896734  1
  O2-  O172  1  0.43408990  0.82589306  0.42258896  1
  O2-  O173  1  0.43474766  0.82631801  0.75637173  1
  O2-  O174  1  0.92326365  0.31870158  0.08983217  1
  O2-  O175  1  0.91953012  0.31902312  0.42240544  1
  O2-  O176  1  0.92098964  0.31832338  0.75507528  1
  O2-  O177  1  0.92323082  0.81958977  0.08724826  1
  O2-  O178  1  0.92453564  0.81431703  0.43196797  1
  O2-  O179  1  0.92262901  0.82051260  0.75735629  1
  O2-  O180  1  0.31938863  0.07568213  0.23398666  1
  O2-  O181  1  0.32096840  0.06737489  0.56852913  1
  O2-  O182  1  0.31929792  0.06869227  0.90034464  1
  O2-  O183  1  0.32568668  0.56404465  0.23347775  1
  O2-  O184  1  0.32561947  0.56995606  0.56643886  1
  O2-  O185  1  0.32214067  0.57185127  0.90319845  1
  O2-  O186  1  0.81818472  0.07971811  0.24555494  1
  O2-  O187  1  0.81880499  0.07654853  0.57616137  1
  O2-  O188  1  0.81935073  0.06821993  0.89981410  1
  O2-  O189  1  0.82031698  0.56751383  0.24258111  1
  O2-  O190  1  0.81818627  0.57154052  0.56612292  1
  O2-  O191  1  0.81866973  0.57009283  0.90433053  1
  O2-  O192  1  0.04689327  0.08982328  0.27215656  1
  O2-  O193  1  0.04002303  0.08248164  0.59617717  1
  O2-  O194  1  0.03886568  0.08167518  0.93448260  1
  O2-  O195  1  0.04450981  0.57935492  0.26653365  1
  O2-  O196  1  0.04200526  0.58131922  0.60024701  1
  O2-  O197  1  0.03788296  0.58099876  0.93709583  1
  O2-  O198  1  0.55145999  0.08476262  0.27123198  1
  O2-  O199  1  0.54177935  0.08569816  0.60347255  1
  O2-  O200  1  0.54828327  0.08061837  0.93888417  1
  O2-  O201  1  0.54038362  0.58127965  0.26408964  1
  O2-  O202  1  0.54433815  0.58657955  0.60685415  1
  O2-  O203  1  0.54614629  0.58692706  0.93575026  1
  O2-  O204  1  0.16259880  0.21347629  0.27234993  1
  O2-  O205  1  0.16749617  0.21318782  0.59607600  1
  O2-  O206  1  0.16542031  0.21114688  0.93370689  1
  O2-  O207  1  0.17470356  0.70671359  0.26681813  1
  O2-  O208  1  0.16968090  0.71067728  0.60243491  1
  O2-  O209  1  0.16856634  0.70952728  0.93318270  1
  O2-  O210  1  0.66228467  0.21126754  0.26680727  1
  O2-  O211  1  0.66389842  0.20302800  0.60120798  1
  O2-  O212  1  0.66641664  0.20092056  0.93728190  1
  O2-  O213  1  0.66481999  0.70986998  0.26377785  1
  O2-  O214  1  0.66209879  0.70904342  0.60824287  1
  O2-  O215  1  0.66279437  0.70908691  0.93547894  1
  O2-  O216  1  0.07812919  0.44763915  0.06767758  1
  O2-  O217  1  0.07966291  0.44633277  0.39509337  1
  O2-  O218  1  0.07705864  0.44484954  0.72987814  1
  O2-  O219  1  0.08126145  0.94644866  0.05937712  1
  O2-  O220  1  0.07851599  0.95718818  0.40022544  1
  O2-  O221  1  0.07301391  0.94906146  0.73114796  1
  O2-  O222  1  0.58475042  0.45637300  0.06345077  1
  O2-  O223  1  0.58763113  0.45546936  0.39292456  1
  O2-  O224  1  0.58205339  0.45795616  0.73584311  1
  O2-  O225  1  0.58467834  0.95342426  0.06537445  1
  O2-  O226  1  0.58821506  0.96094464  0.40270917  1
  O2-  O227  1  0.58576696  0.96306315  0.73765768  1
  O2-  O228  1  0.21367839  0.33261925  0.06975033  1
  O2-  O229  1  0.20907487  0.33870394  0.39984313  1
  O2-  O230  1  0.21533134  0.33460679  0.73219992  1
  O2-  O231  1  0.20950477  0.83593744  0.06267566  1
  O2-  O232  1  0.20726523  0.83191707  0.40166042  1
  O2-  O233  1  0.21110128  0.83454138  0.73758142  1
  O2-  O234  1  0.69874683  0.33271459  0.06279136  1
  O2-  O235  1  0.70690016  0.33681434  0.39362917  1
  O2-  O236  1  0.69957040  0.32642210  0.73279921  1
  O2-  O237  1  0.70251140  0.83374594  0.06364353  1
  O2-  O238  1  0.71141749  0.83037789  0.39921055  1
  O2-  O239  1  0.70674367  0.83405616  0.73937020  1
  O2-  O240  1  0.46351461  0.40794703  0.26732596  1
  O2-  O241  1  0.46238554  0.41290536  0.60088697  1
  O2-  O242  1  0.46336378  0.41555900  0.92844498  1
  O2-  O243  1  0.46231911  0.91715497  0.27015140  1
  O2-  O244  1  0.46527039  0.91391158  0.60345519  1
  O2-  O245  1  0.46162944  0.91270240  0.93445193  1
  O2-  O246  1  0.95165681  0.41255563  0.27053456  1
  O2-  O247  1  0.94906667  0.41460815  0.60275786  1
  O2-  O248  1  0.94786832  0.41653257  0.94070338  1
  O2-  O249  1  0.94874498  0.92443140  0.26936469  1
  O2-  O250  1  0.94262278  0.91521655  0.60433857  1
  O2-  O251  1  0.94752866  0.91519582  0.93661728  1
  O2-  O252  1  0.33680013  0.29570097  0.27156467  1
  O2-  O253  1  0.34079100  0.29415112  0.59852147  1
  O2-  O254  1  0.33438993  0.28901723  0.92935367  1
  O2-  O255  1  0.33539547  0.80517212  0.27240238  1
  O2-  O256  1  0.33797211  0.80218353  0.60422756  1
  O2-  O257  1  0.33841917  0.79689582  0.93571357  1
  O2-  O258  1  0.83491605  0.29180906  0.26707345  1
  O2-  O259  1  0.83211757  0.29320064  0.60184332  1
  O2-  O260  1  0.83063569  0.29598156  0.93840106  1
  O2-  O261  1  0.83289639  0.79015466  0.26197684  1
  O2-  O262  1  0.83123289  0.78984578  0.60714042  1
  O2-  O263  1  0.83104016  0.79375052  0.93686585  1
  O2-  O264  1  0.41582273  0.03933707  0.06659656  1
  O2-  O265  1  0.42251109  0.05068468  0.39758518  1
  O2-  O266  1  0.41590387  0.04019003  0.73596301  1
  O2-  O267  1  0.42100730  0.53990911  0.06600387  1
  O2-  O268  1  0.41673584  0.53175661  0.40020835  1
  O2-  O269  1  0.41710050  0.53987973  0.73428125  1
  O2-  O270  1  0.91697845  0.03984308  0.06948082  1
  O2-  O271  1  0.91809926  0.05771295  0.39413497  1
  O2-  O272  1  0.91587617  0.04857295  0.72601489  1
  O2-  O273  1  0.91521563  0.53927580  0.07412024  1
  O2-  O274  1  0.91278872  0.54075081  0.39449070  1
  O2-  O275  1  0.91875234  0.54123067  0.73379764  1
  O2-  O276  1  0.29021962  0.16728901  0.06618016  1
  O2-  O277  1  0.29331216  0.17267366  0.40107681  1
  O2-  O278  1  0.29573812  0.17212432  0.72969032  1
  O2-  O279  1  0.29902101  0.67300638  0.06750010  1
  O2-  O280  1  0.30340807  0.67006148  0.39689165  1
  O2-  O281  1  0.30468244  0.67554574  0.72939308  1
  O2-  O282  1  0.79075064  0.16611376  0.06915289  1
  O2-  O283  1  0.78946211  0.16647530  0.39850432  1
  O2-  O284  1  0.79369114  0.16437301  0.73004868  1
  O2-  O285  1  0.78611932  0.66594429  0.07103060  1
  O2-  O286  1  0.79136840  0.66108447  0.39297174  1
  O2-  O287  1  0.78904077  0.66483135  0.73843078  1
