# generated using pymatgen
data_Ca2Al2SiO7
_symmetry_space_group_name_H-M   'P 1'
_cell_length_a   15.46092524
_cell_length_b   15.46132183
_cell_length_c   15.28538525
_cell_angle_alpha   90.00655419
_cell_angle_beta   90.00729456
_cell_angle_gamma   89.98443446
_symmetry_Int_Tables_number   1
_chemical_formula_structural   Ca2Al2SiO7
_chemical_formula_sum   'Ca48 Al48 Si24 O168'
_cell_volume   3653.91522609
_cell_formula_units_Z   24
loop_
 _symmetry_equiv_pos_site_id
 _symmetry_equiv_pos_as_xyz
  1  'x, y, z'
loop_
 _atom_type_symbol
 _atom_type_oxidation_number
  Ca2+  2.0
  Al0+  0.0
  Si0+  0.0
  O2-  -2.0
loop_
 _atom_site_type_symbol
 _atom_site_label
 _atom_site_symmetry_multiplicity
 _atom_site_fract_x
 _atom_site_fract_y
 _atom_site_fract_z
 _atom_site_occupancy
  Ca2+  Ca0  1  0.17458202  0.09406175  0.16919995  1
  Ca2+  Ca1  1  0.16969786  0.08671250  0.50414875  1
  Ca2+  Ca2  1  0.16511643  0.08592895  0.83813628  1
  Ca2+  Ca3  1  0.17157781  0.58684064  0.16551188  1
  Ca2+  Ca4  1  0.17131001  0.57305777  0.51127707  1
  Ca2+  Ca5  1  0.17199289  0.57585156  0.84027803  1
  Ca2+  Ca6  1  0.67027545  0.07509485  0.17450002  1
  Ca2+  Ca7  1  0.65812876  0.07301890  0.50748914  1
  Ca2+  Ca8  1  0.65913737  0.07961121  0.83529390  1
  Ca2+  Ca9  1  0.65892197  0.58162553  0.16536823  1
  Ca2+  Ca10  1  0.67104211  0.58011304  0.50839445  1
  Ca2+  Ca11  1  0.67013079  0.57148489  0.83736616  1
  Ca2+  Ca12  1  0.07735471  0.32271101  0.15874349  1
  Ca2+  Ca13  1  0.08433580  0.32643892  0.50029220  1
  Ca2+  Ca14  1  0.08047210  0.32566259  0.82406600  1
  Ca2+  Ca15  1  0.07595838  0.82922279  0.15501171  1
  Ca2+  Ca16  1  0.08497868  0.83583565  0.50009136  1
  Ca2+  Ca17  1  0.08325235  0.83012382  0.83145283  1
  Ca2+  Ca18  1  0.57265902  0.33675558  0.15887104  1
  Ca2+  Ca19  1  0.57408220  0.33615721  0.49966104  1
  Ca2+  Ca20  1  0.57550316  0.33574900  0.82599330  1
  Ca2+  Ca21  1  0.58317701  0.82511689  0.16621030  1
  Ca2+  Ca22  1  0.58320812  0.83136424  0.49062106  1
  Ca2+  Ca23  1  0.58529375  0.82723659  0.82993328  1
  Ca2+  Ca24  1  0.33988973  0.41898604  0.16575533  1
  Ca2+  Ca25  1  0.33226786  0.41173938  0.50469798  1
  Ca2+  Ca26  1  0.33152747  0.41252364  0.83961432  1
  Ca2+  Ca27  1  0.33689061  0.93059398  0.17369685  1
  Ca2+  Ca28  1  0.33307006  0.92406585  0.50510145  1
  Ca2+  Ca29  1  0.32636705  0.92702218  0.83939401  1
  Ca2+  Ca30  1  0.82653955  0.40981249  0.16509706  1
  Ca2+  Ca31  1  0.82931331  0.42417183  0.51544705  1
  Ca2+  Ca32  1  0.82461537  0.40539532  0.83670203  1
  Ca2+  Ca33  1  0.83049098  0.91255709  0.17052542  1
  Ca2+  Ca34  1  0.81967263  0.91750463  0.50665616  1
  Ca2+  Ca35  1  0.83015136  0.91649654  0.83576558  1
  Ca2+  Ca36  1  0.40922824  0.17476383  0.16315126  1
  Ca2+  Ca37  1  0.41652785  0.17569096  0.49871273  1
  Ca2+  Ca38  1  0.41738086  0.17619443  0.82856518  1
  Ca2+  Ca39  1  0.42511159  0.66950202  0.16039234  1
  Ca2+  Ca40  1  0.42499297  0.67683002  0.48931533  1
  Ca2+  Ca41  1  0.42207809  0.65879771  0.83415608  1
  Ca2+  Ca42  1  0.92908847  0.16655008  0.15756705  1
  Ca2+  Ca43  1  0.92721221  0.16816451  0.50078368  1
  Ca2+  Ca44  1  0.92488478  0.17746138  0.82834167  1
  Ca2+  Ca45  1  0.92356242  0.67392117  0.15647530  1
  Ca2+  Ca46  1  0.91497581  0.66365746  0.50011363  1
  Ca2+  Ca47  1  0.91528940  0.66883704  0.83339942  1
  Al0+  Al48  1  -0.00192573  -0.00092123  -0.00690041  1
  Al0+  Al49  1  0.00073991  0.00010543  0.32944265  1
  Al0+  Al50  1  -0.00099877  -0.00213705  0.66570754  1
  Al0+  Al51  1  -0.00246898  0.50061055  -0.00441309  1
  Al0+  Al52  1  -0.00057930  0.49889361  0.33290296  1
  Al0+  Al53  1  0.00306936  0.50231279  0.67135487  1
  Al0+  Al54  1  0.49863967  -0.00175392  0.00706940  1
  Al0+  Al55  1  0.49911219  0.00117795  0.33893827  1
  Al0+  Al56  1  0.49836076  -0.00033042  0.67031765  1
  Al0+  Al57  1  0.49961992  0.50004108  0.00000982  1
  Al0+  Al58  1  0.49992929  0.50030920  0.32833826  1
  Al0+  Al59  1  0.50280376  0.50265532  0.66336063  1
  Al0+  Al60  1  0.25011060  0.25016293  -0.00234228  1
  Al0+  Al61  1  0.24949012  0.25044054  0.33016906  1
  Al0+  Al62  1  0.25116008  0.25086533  0.66352576  1
  Al0+  Al63  1  0.25019664  0.75063192  0.00144368  1
  Al0+  Al64  1  0.25095558  0.75073162  0.33029859  1
  Al0+  Al65  1  0.24985659  0.75211125  0.67001795  1
  Al0+  Al66  1  0.74914957  0.24633541  0.00533158  1
  Al0+  Al67  1  0.75006179  0.25043760  0.33680292  1
  Al0+  Al68  1  0.75025041  0.24821380  0.66110080  1
  Al0+  Al69  1  0.74879153  0.74749555  -0.00714896  1
  Al0+  Al70  1  0.75131568  0.74861306  0.33361404  1
  Al0+  Al71  1  0.75073590  0.75090061  0.67412890  1
  Al0+  Al72  1  0.67706954  0.93067865  0.68257989  1
  Al0+  Al73  1  0.92806668  0.82041879  0.98280917  1
  Al0+  Al74  1  0.57240518  0.68013320  0.31835091  1
  Al0+  Al75  1  0.68157168  0.92947462  0.34633636  1
  Al0+  Al76  1  0.67916339  0.42702744  0.68049639  1
  Al0+  Al77  1  0.31915638  0.07276240  0.34937682  1
  Al0+  Al78  1  0.07176973  0.18070034  0.98368670  1
  Al0+  Al79  1  0.42740374  0.82448783  0.31804153  1
  Al0+  Al80  1  0.07434931  0.67821639  0.98351550  1
  Al0+  Al81  1  0.43057652  0.32359641  0.65114282  1
  Al0+  Al82  1  0.92485287  0.32054160  0.98643520  1
  Al0+  Al83  1  0.31937906  0.07177517  0.01419630  1
  Al0+  Al84  1  0.43129771  0.31983092  0.98676137  1
  Al0+  Al85  1  0.17787480  0.92894983  0.68071002  1
  Al0+  Al86  1  0.57123895  0.17598395  0.65260845  1
  Al0+  Al87  1  0.32060975  0.57078576  0.01438316  1
  Al0+  Al88  1  0.18231523  0.42796700  0.67972863  1
  Al0+  Al89  1  0.07091226  0.17738305  0.65010452  1
  Al0+  Al90  1  0.06911751  0.17955067  0.31860410  1
  Al0+  Al91  1  0.56841708  0.67923765  0.98343673  1
  Al0+  Al92  1  0.82293903  0.57175443  0.68369544  1
  Al0+  Al93  1  0.67973199  0.42783452  0.01486396  1
  Al0+  Al94  1  0.92900441  0.32430472  0.65090581  1
  Al0+  Al95  1  0.43036111  0.31928499  0.31741221  1
  Si0+  Si96  1  0.32211451  0.57233624  0.34768333  1
  Si0+  Si97  1  0.17650745  0.92635638  0.34843420  1
  Si0+  Si98  1  0.92662219  0.32406552  0.31703977  1
  Si0+  Si99  1  0.42771407  0.82041669  0.65375191  1
  Si0+  Si100  1  0.57205838  0.17430721  0.98789577  1
  Si0+  Si101  1  0.82268963  0.07107193  0.68301216  1
  Si0+  Si102  1  0.82469835  0.07273567  0.35078062  1
  Si0+  Si103  1  0.82214415  0.56899421  0.34679040  1
  Si0+  Si104  1  0.17602185  0.92901422  0.01703575  1
  Si0+  Si105  1  0.57236900  0.68209262  0.65163982  1
  Si0+  Si106  1  0.07180217  0.67596945  0.32081577  1
  Si0+  Si107  1  0.17885801  0.43161537  0.34662779  1
  Si0+  Si108  1  0.57422621  0.17740797  0.31718941  1
  Si0+  Si109  1  0.42855235  0.82466615  0.98283717  1
  Si0+  Si110  1  0.93066672  0.81897522  0.32119159  1
  Si0+  Si111  1  0.82088534  0.06858690  0.01529659  1
  Si0+  Si112  1  0.07351517  0.68081801  0.65098832  1
  Si0+  Si113  1  0.17608586  0.42813185  0.01719593  1
  Si0+  Si114  1  0.82103414  0.57318549  0.01843516  1
  Si0+  Si115  1  0.32280679  0.57379906  0.68069608  1
  Si0+  Si116  1  0.92797421  0.81927990  0.64958585  1
  Si0+  Si117  1  0.67913219  0.92592005  0.01624020  1
  Si0+  Si118  1  0.32019861  0.07202165  0.68410497  1
  Si0+  Si119  1  0.67710234  0.42889506  0.34848328  1
  O2-  O120  1  0.24326396  -0.00183447  0.06207184  1
  O2-  O121  1  0.24615108  -0.00610062  0.39277479  1
  O2-  O122  1  0.24732276  0.00744558  0.72771153  1
  O2-  O123  1  0.24284255  0.49897269  0.06235920  1
  O2-  O124  1  0.24937691  0.50337008  0.38966681  1
  O2-  O125  1  0.26019335  0.50002000  0.72473433  1
  O2-  O126  1  0.75072652  -0.00358788  0.05801180  1
  O2-  O127  1  0.75272199  0.00720669  0.39461252  1
  O2-  O128  1  0.74827383  0.00878535  0.72864479  1
  O2-  O129  1  0.75612803  0.50114341  0.06339671  1
  O2-  O130  1  0.75143324  0.49769813  0.38865849  1
  O2-  O131  1  0.75635773  0.49347333  0.73115982  1
  O2-  O132  1  -0.00943272  0.25101918  0.27361980  1
  O2-  O133  1  0.00075200  0.25191463  0.60029058  1
  O2-  O134  1  0.00244161  0.25585977  0.93578408  1
  O2-  O135  1  0.00506072  0.75137421  0.27977519  1
  O2-  O136  1  -0.00023227  0.74878022  0.60704951  1
  O2-  O137  1  0.00186674  0.74985042  0.93353473  1
  O2-  O138  1  0.50726689  0.24633352  0.27120896  1
  O2-  O139  1  0.50380857  0.25203280  0.60177122  1
  O2-  O140  1  0.50558163  0.24397816  0.94305032  1
  O2-  O141  1  0.49930624  0.75173439  0.26906250  1
  O2-  O142  1  0.50072570  0.75235374  0.60986057  1
  O2-  O143  1  0.49330928  0.75361765  0.93642541  1
  O2-  O144  1  0.07007281  0.18081021  0.09783553  1
  O2-  O145  1  0.06878746  0.18045192  0.43131851  1
  O2-  O146  1  0.06922441  0.17723835  0.76306871  1
  O2-  O147  1  0.07210958  0.68162089  0.09861806  1
  O2-  O148  1  0.07025800  0.67348707  0.42593299  1
  O2-  O149  1  0.07700954  0.68447555  0.75510679  1
  O2-  O150  1  0.57218467  0.17348054  0.09374343  1
  O2-  O151  1  0.57438992  0.17934103  0.42243829  1
  O2-  O152  1  0.56509976  0.17228547  0.76636257  1
  O2-  O153  1  0.56884120  0.68223374  0.09656913  1
  O2-  O154  1  0.57244708  0.68111766  0.43249000  1
  O2-  O155  1  0.57043091  0.68158347  0.75650921  1
  O2-  O156  1  0.17557060  0.43488543  0.24182253  1
  O2-  O157  1  0.18232110  0.43128870  0.56552927  1
  O2-  O158  1  0.17955054  0.42763884  0.91182090  1
  O2-  O159  1  0.17340975  0.92506885  0.24322584  1
  O2-  O160  1  0.18266949  0.92511315  0.56734810  1
  O2-  O161  1  0.17792783  0.92930147  0.91137048  1
  O2-  O162  1  0.67763906  0.42869783  0.24340522  1
  O2-  O163  1  0.67663773  0.43473568  0.56621320  1
  O2-  O164  1  0.67923019  0.42763551  0.90242062  1
  O2-  O165  1  0.68661702  0.92801647  0.23298339  1
  O2-  O166  1  0.67946462  0.92719906  0.56925570  1
  O2-  O167  1  0.67746291  0.92832229  0.91124754  1
  O2-  O168  1  0.43192565  0.31924157  0.10019844  1
  O2-  O169  1  0.43076746  0.32132682  0.43016716  1
  O2-  O170  1  0.42986092  0.32291601  0.76449534  1
  O2-  O171  1  0.43283427  0.82646698  0.08824135  1
  O2-  O172  1  0.42654343  0.82087626  0.43236273  1
  O2-  O173  1  0.42756412  0.81846530  0.75870739  1
  O2-  O174  1  0.92506856  0.31476117  0.10082496  1
  O2-  O175  1  0.92950461  0.32919170  0.42196342  1
  O2-  O176  1  0.93049950  0.32141777  0.76406484  1
  O2-  O177  1  0.92805033  0.81928208  0.09769043  1
  O2-  O178  1  0.92931877  0.81741865  0.42627061  1
  O2-  O179  1  0.92740176  0.81896942  0.75400441  1
  O2-  O180  1  0.31629066  0.07359899  0.23625417  1
  O2-  O181  1  0.32131365  0.06932319  0.57829087  1
  O2-  O182  1  0.32161297  0.06897207  0.90135147  1
  O2-  O183  1  0.32089838  0.57233343  0.24283884  1
  O2-  O184  1  0.31863587  0.57781282  0.57459019  1
  O2-  O185  1  0.32126216  0.56779552  0.90122000  1
  O2-  O186  1  0.82513601  0.07011558  0.24489340  1
  O2-  O187  1  0.82552137  0.06380161  0.57724332  1
  O2-  O188  1  0.81882188  0.06913292  0.91064139  1
  O2-  O189  1  0.82605555  0.56944765  0.24225769  1
  O2-  O190  1  0.81830270  0.57531136  0.56869753  1
  O2-  O191  1  0.81726417  0.57684471  0.91366633  1
  O2-  O192  1  0.04167285  0.08204145  0.26361350  1
  O2-  O193  1  0.04025767  0.07859274  0.59735566  1
  O2-  O194  1  0.04192826  0.08261133  0.93255683  1
  O2-  O195  1  0.03965749  0.58690500  0.27080993  1
  O2-  O196  1  0.04856669  0.58853407  0.60337309  1
  O2-  O197  1  0.04816789  0.57930442  0.93223431  1
  O2-  O198  1  0.54947019  0.08303977  0.27336989  1
  O2-  O199  1  0.53731539  0.07822022  0.59910808  1
  O2-  O200  1  0.54548001  0.08045507  0.94287400  1
  O2-  O201  1  0.54270503  0.58284972  0.26482468  1
  O2-  O202  1  0.54665274  0.59115345  0.60177685  1
  O2-  O203  1  0.53593086  0.58365590  0.92997926  1
  O2-  O204  1  0.16318349  0.21560051  0.26434958  1
  O2-  O205  1  0.16977929  0.20556149  0.59826514  1
  O2-  O206  1  0.17004942  0.20647625  0.93111124  1
  O2-  O207  1  0.16471128  0.69904712  0.27392445  1
  O2-  O208  1  0.16390594  0.71243160  0.60151093  1
  O2-  O209  1  0.17293960  0.70668109  0.93130027  1
  O2-  O210  1  0.66994245  0.19994270  0.27253225  1
  O2-  O211  1  0.67205310  0.19272405  0.60016813  1
  O2-  O212  1  0.66640605  0.19615666  0.94340050  1
  O2-  O213  1  0.67109005  0.70840876  0.26522713  1
  O2-  O214  1  0.66431727  0.71249316  0.60621109  1
  O2-  O215  1  0.66355098  0.71004503  0.92842923  1
  O2-  O216  1  0.08060572  0.45114457  0.06155162  1
  O2-  O217  1  0.08725815  0.45950467  0.39563365  1
  O2-  O218  1  0.08824170  0.46192884  0.73499580  1
  O2-  O219  1  0.08021324  0.95211218  0.06021202  1
  O2-  O220  1  0.08259379  0.95254244  0.39484088  1
  O2-  O221  1  0.07874558  0.95230050  0.73227076  1
  O2-  O222  1  0.58473278  0.46362321  0.06916631  1
  O2-  O223  1  0.58615092  0.46060555  0.39515674  1
  O2-  O224  1  0.58219819  0.46266690  0.73299273  1
  O2-  O225  1  0.58828439  0.95327893  0.06570995  1
  O2-  O226  1  0.58423721  0.95611734  0.40064997  1
  O2-  O227  1  0.57975543  0.95670860  0.73776778  1
  O2-  O228  1  0.20521151  0.33567520  0.06365527  1
  O2-  O229  1  0.20904795  0.34052479  0.39283036  1
  O2-  O230  1  0.21025392  0.33098963  0.73350526  1
  O2-  O231  1  0.20058340  0.83519315  0.06314601  1
  O2-  O232  1  0.19927672  0.83119611  0.39426925  1
  O2-  O233  1  0.21283809  0.83479535  0.73727795  1
  O2-  O234  1  0.70826058  0.33067167  0.07143595  1
  O2-  O235  1  0.70026171  0.33567380  0.39560546  1
  O2-  O236  1  0.69969004  0.32494136  0.72893584  1
  O2-  O237  1  0.70902843  0.83380874  0.06135946  1
  O2-  O238  1  0.71630137  0.83348358  0.40079677  1
  O2-  O239  1  0.71244243  0.83668538  0.73785026  1
  O2-  O240  1  0.46004493  0.41642252  0.26386638  1
  O2-  O241  1  0.45741088  0.42295860  0.59687489  1
  O2-  O242  1  0.46174180  0.41563998  0.93338976  1
  O2-  O243  1  0.45654815  0.92343371  0.26760620  1
  O2-  O244  1  0.45336966  0.91293563  0.60765956  1
  O2-  O245  1  0.45842268  0.91680738  0.93600438  1
  O2-  O246  1  0.95623753  0.41560325  0.26796248  1
  O2-  O247  1  0.95865250  0.42449976  0.60062831  1
  O2-  O248  1  0.94022992  0.42279064  0.93889897  1
  O2-  O249  1  0.95415008  0.91105123  0.27214477  1
  O2-  O250  1  0.95530273  0.91008832  0.60042394  1
  O2-  O251  1  0.95276605  0.91840814  0.92849852  1
  O2-  O252  1  0.33396276  0.28875954  0.26381537  1
  O2-  O253  1  0.33318727  0.29331324  0.59702717  1
  O2-  O254  1  0.33480094  0.29030346  0.93365564  1
  O2-  O255  1  0.32875710  0.79732179  0.26423237  1
  O2-  O256  1  0.33715435  0.79066306  0.60467301  1
  O2-  O257  1  0.33283928  0.80357895  0.94067832  1
  O2-  O258  1  0.83046428  0.30241491  0.27445886  1
  O2-  O259  1  0.83039332  0.29791346  0.59674935  1
  O2-  O260  1  0.82856083  0.28384480  0.93471954  1
  O2-  O261  1  0.84139644  0.78735046  0.27150534  1
  O2-  O262  1  0.83610616  0.78901348  0.60271653  1
  O2-  O263  1  0.83097576  0.79092944  0.92888874  1
  O2-  O264  1  0.41503283  0.03952146  0.07109523  1
  O2-  O265  1  0.41618268  0.04514276  0.40413499  1
  O2-  O266  1  0.41068717  0.04061865  0.73243562  1
  O2-  O267  1  0.41557011  0.53726672  0.06989853  1
  O2-  O268  1  0.41375851  0.54297537  0.39464467  1
  O2-  O269  1  0.41899931  0.55432152  0.72257997  1
  O2-  O270  1  0.91290251  0.03936500  0.06260448  1
  O2-  O271  1  0.91708864  0.04228772  0.39651299  1
  O2-  O272  1  0.91269052  0.03742801  0.73112424  1
  O2-  O273  1  0.91732866  0.55364895  0.06252345  1
  O2-  O274  1  0.91376326  0.54199621  0.39672909  1
  O2-  O275  1  0.92478563  0.55566348  0.73254789  1
  O2-  O276  1  0.28846766  0.16860674  0.06846670  1
  O2-  O277  1  0.28442471  0.16870403  0.40265490  1
  O2-  O278  1  0.29851761  0.16697708  0.72746486  1
  O2-  O279  1  0.29309366  0.66908644  0.06887980  1
  O2-  O280  1  0.29644608  0.66528017  0.39476022  1
  O2-  O281  1  0.29223449  0.66427986  0.72968212  1
  O2-  O282  1  0.79286816  0.15758746  0.06824298  1
  O2-  O283  1  0.80418853  0.16821238  0.39544717  1
  O2-  O284  1  0.80489965  0.16736611  0.72479651  1
  O2-  O285  1  0.79033122  0.66595448  0.06508429  1
  O2-  O286  1  0.79488856  0.66059142  0.39533503  1
  O2-  O287  1  0.78931243  0.66741288  0.73820325  1
