# generated using pymatgen
data_Ca2Al2SiO7
_symmetry_space_group_name_H-M   'P 1'
_cell_length_a   15.46020896
_cell_length_b   15.46172895
_cell_length_c   15.28555577
_cell_angle_alpha   89.98380360
_cell_angle_beta   90.00479022
_cell_angle_gamma   90.00997519
_symmetry_Int_Tables_number   1
_chemical_formula_structural   Ca2Al2SiO7
_chemical_formula_sum   'Ca48 Al48 Si24 O168'
_cell_volume   3653.88288689
_cell_formula_units_Z   24
loop_
 _symmetry_equiv_pos_site_id
 _symmetry_equiv_pos_as_xyz
  1  'x, y, z'
loop_
 _atom_type_symbol
 _atom_type_oxidation_number
  Ca2+  2.0
  Al0+  0.0
  Si0+  0.0
  O2-  -2.0
loop_
 _atom_site_type_symbol
 _atom_site_label
 _atom_site_symmetry_multiplicity
 _atom_site_fract_x
 _atom_site_fract_y
 _atom_site_fract_z
 _atom_site_occupancy
  Ca2+  Ca0  1  0.17574665  0.07736292  0.17282757  1
  Ca2+  Ca1  1  0.17073255  0.07123719  0.51278817  1
  Ca2+  Ca2  1  0.17347354  0.08360184  0.83176804  1
  Ca2+  Ca3  1  0.17076195  0.57874503  0.17539142  1
  Ca2+  Ca4  1  0.15418873  0.57518734  0.50433017  1
  Ca2+  Ca5  1  0.16805530  0.57996001  0.83329599  1
  Ca2+  Ca6  1  0.67138270  0.08969197  0.16989132  1
  Ca2+  Ca7  1  0.67362302  0.08330439  0.50860818  1
  Ca2+  Ca8  1  0.66834036  0.07647757  0.83866217  1
  Ca2+  Ca9  1  0.67429064  0.57980271  0.17356742  1
  Ca2+  Ca10  1  0.67641870  0.58986967  0.50836891  1
  Ca2+  Ca11  1  0.67221546  0.59095903  0.83303597  1
  Ca2+  Ca12  1  0.08247970  0.33556998  0.16687265  1
  Ca2+  Ca13  1  0.08899945  0.32954051  0.50091771  1
  Ca2+  Ca14  1  0.08380342  0.32728139  0.82392957  1
  Ca2+  Ca15  1  0.08740128  0.83009638  0.16768829  1
  Ca2+  Ca16  1  0.08347481  0.82925231  0.49609883  1
  Ca2+  Ca17  1  0.07590870  0.83045975  0.81891890  1
  Ca2+  Ca18  1  0.57966582  0.32160025  0.15823227  1
  Ca2+  Ca19  1  0.58449749  0.32021379  0.49760804  1
  Ca2+  Ca20  1  0.57616149  0.32083744  0.82895047  1
  Ca2+  Ca21  1  0.58009376  0.83597226  0.16512042  1
  Ca2+  Ca22  1  0.58016642  0.83528323  0.50045993  1
  Ca2+  Ca23  1  0.58927280  0.83324369  0.82474749  1
  Ca2+  Ca24  1  0.33391626  0.41992449  0.16764747  1
  Ca2+  Ca25  1  0.32138765  0.41633274  0.50623558  1
  Ca2+  Ca26  1  0.33189843  0.41925680  0.83838663  1
  Ca2+  Ca27  1  0.33327284  0.92034337  0.17164521  1
  Ca2+  Ca28  1  0.32472928  0.91450011  0.50419398  1
  Ca2+  Ca29  1  0.33154659  0.92830619  0.83182634  1
  Ca2+  Ca30  1  0.83128799  0.42079911  0.17542848  1
  Ca2+  Ca31  1  0.83618807  0.43008335  0.50335302  1
  Ca2+  Ca32  1  0.83374044  0.42315107  0.83077613  1
  Ca2+  Ca33  1  0.82550916  0.92816279  0.16845980  1
  Ca2+  Ca34  1  0.83008443  0.92468053  0.51058220  1
  Ca2+  Ca35  1  0.82604484  0.92282612  0.83270483  1
  Ca2+  Ca36  1  0.42713519  0.16807042  0.15581392  1
  Ca2+  Ca37  1  0.42863923  0.15425424  0.49931527  1
  Ca2+  Ca38  1  0.42189904  0.15948841  0.82878649  1
  Ca2+  Ca39  1  0.40999107  0.67403927  0.16261667  1
  Ca2+  Ca40  1  0.42215975  0.67352726  0.49577804  1
  Ca2+  Ca41  1  0.42199383  0.66717940  0.82727246  1
  Ca2+  Ca42  1  0.91531564  0.16051970  0.16369730  1
  Ca2+  Ca43  1  0.92104674  0.15739362  0.49888747  1
  Ca2+  Ca44  1  0.91928247  0.16170348  0.82442413  1
  Ca2+  Ca45  1  0.92275509  0.66323038  0.16681638  1
  Ca2+  Ca46  1  0.92047832  0.67069260  0.49986819  1
  Ca2+  Ca47  1  0.91993426  0.67573957  0.81763375  1
  Al0+  Al48  1  -0.00194313  -0.00206978  0.00285397  1
  Al0+  Al49  1  0.00031701  -0.00137851  0.33675847  1
  Al0+  Al50  1  -0.00015529  0.00020075  0.66520878  1
  Al0+  Al51  1  0.00103852  0.49919517  -0.00145774  1
  Al0+  Al52  1  0.00017860  0.49999542  0.33526179  1
  Al0+  Al53  1  -0.00073968  0.49980757  0.67383360  1
  Al0+  Al54  1  0.49812502  -0.00262963  0.00338523  1
  Al0+  Al55  1  0.50157670  -0.00062645  0.32269174  1
  Al0+  Al56  1  0.49968769  -0.00069361  0.66813352  1
  Al0+  Al57  1  0.49989823  0.50040143  0.00164335  1
  Al0+  Al58  1  0.50077649  0.49880862  0.33406166  1
  Al0+  Al59  1  0.50011082  0.49914889  0.65980256  1
  Al0+  Al60  1  0.24804962  0.25056021  0.00251114  1
  Al0+  Al61  1  0.25124704  0.25053713  0.33596574  1
  Al0+  Al62  1  0.24849069  0.25187991  0.67022496  1
  Al0+  Al63  1  0.25037055  0.74727517  0.00058459  1
  Al0+  Al64  1  0.25057537  0.74951679  0.32787570  1
  Al0+  Al65  1  0.24977898  0.74781048  0.66695192  1
  Al0+  Al66  1  0.75077016  0.25175423  -0.00208476  1
  Al0+  Al67  1  0.75161732  0.25080337  0.33363417  1
  Al0+  Al68  1  0.74930148  0.25372937  0.66539033  1
  Al0+  Al69  1  0.75130329  0.75173870  0.00629631  1
  Al0+  Al70  1  0.75085850  0.75194697  0.33437770  1
  Al0+  Al71  1  0.75090258  0.75081576  0.66530853  1
  Al0+  Al72  1  0.57128781  0.67836385  0.65397286  1
  Al0+  Al73  1  0.32174908  0.57031333  0.01366948  1
  Al0+  Al74  1  0.06813683  0.67860858  0.31812566  1
  Al0+  Al75  1  0.32086007  0.07085470  0.67973442  1
  Al0+  Al76  1  0.18099389  0.92812420  0.34601979  1
  Al0+  Al77  1  0.82132367  0.07474937  0.68065994  1
  Al0+  Al78  1  0.82055388  0.07297994  0.01516770  1
  Al0+  Al79  1  0.42990853  0.81838725  0.31853685  1
  Al0+  Al80  1  0.81999481  0.57173498  0.34693514  1
  Al0+  Al81  1  0.42736044  0.32240717  0.98482010  1
  Al0+  Al82  1  0.67903885  0.93007999  0.67949337  1
  Al0+  Al83  1  0.92904288  0.82264384  0.65059439  1
  Al0+  Al84  1  0.17914818  0.43046615  0.68222820  1
  Al0+  Al85  1  0.57034211  0.17815966  0.65304725  1
  Al0+  Al86  1  0.31925621  0.07160719  0.01482559  1
  Al0+  Al87  1  0.81882365  0.57049219  0.68093065  1
  Al0+  Al88  1  0.17760160  0.92549166  0.68127615  1
  Al0+  Al89  1  0.81989286  0.07181379  0.34855771  1
  Al0+  Al90  1  0.07074397  0.17997106  0.65362280  1
  Al0+  Al91  1  0.57158941  0.18115288  0.31853599  1
  Al0+  Al92  1  0.18043026  0.42922399  0.34764761  1
  Al0+  Al93  1  0.57083283  0.17727443  0.98238412  1
  Al0+  Al94  1  0.67769248  0.92766941  0.01734911  1
  Al0+  Al95  1  0.07201331  0.67751485  0.65239903  1
  Si0+  Si96  1  0.93206561  0.32010442  0.31937301  1
  Si0+  Si97  1  0.57264151  0.68018416  0.98746512  1
  Si0+  Si98  1  0.17659434  0.42877891  0.01826636  1
  Si0+  Si99  1  0.57432843  0.67653665  0.31584366  1
  Si0+  Si100  1  0.32536013  0.57126236  0.68158147  1
  Si0+  Si101  1  0.67791533  0.42780178  0.35020010  1
  Si0+  Si102  1  0.67503416  0.42832700  0.68396059  1
  Si0+  Si103  1  0.67986121  0.43029887  0.01408497  1
  Si0+  Si104  1  0.92921218  0.81914057  0.98584334  1
  Si0+  Si105  1  0.67621873  0.92931262  0.35026297  1
  Si0+  Si106  1  0.92896724  0.32385448  0.98472666  1
  Si0+  Si107  1  0.42744234  0.82178512  0.65135036  1
  Si0+  Si108  1  0.92753373  0.32331584  0.64953560  1
  Si0+  Si109  1  0.06893269  0.17807440  0.98779245  1
  Si0+  Si110  1  0.17741732  0.92697964  0.01629692  1
  Si0+  Si111  1  0.82230739  0.57105086  0.01522364  1
  Si0+  Si112  1  0.07264002  0.17675760  0.31872665  1
  Si0+  Si113  1  0.42584565  0.32335475  0.31647975  1
  Si0+  Si114  1  0.07127025  0.67783131  0.98419595  1
  Si0+  Si115  1  0.42701654  0.81960434  0.98332472  1
  Si0+  Si116  1  0.92696930  0.82431753  0.31313539  1
  Si0+  Si117  1  0.42681733  0.32222053  0.64845197  1
  Si0+  Si118  1  0.32324660  0.57272119  0.35039144  1
  Si0+  Si119  1  0.32370359  0.07151824  0.34819564  1
  O2-  O120  1  0.24523199  -0.00411069  0.06134729  1
  O2-  O121  1  0.25362904  0.00476276  0.39210269  1
  O2-  O122  1  0.24749339  -0.00002211  0.73022719  1
  O2-  O123  1  0.24747762  0.49550477  0.06123690  1
  O2-  O124  1  0.25638532  0.50270238  0.39440501  1
  O2-  O125  1  0.25497737  0.50489438  0.72665997  1
  O2-  O126  1  0.74373461  0.00635449  0.06583152  1
  O2-  O127  1  0.74527023  -0.00288812  0.39376773  1
  O2-  O128  1  0.74751323  0.00489078  0.73029829  1
  O2-  O129  1  0.75223784  0.49975815  0.05778658  1
  O2-  O130  1  0.73977086  0.50283512  0.39343818  1
  O2-  O131  1  0.74155476  0.49892625  0.72917181  1
  O2-  O132  1  0.00117946  0.24760527  0.27575296  1
  O2-  O133  1  -0.00776533  0.25082254  0.60557920  1
  O2-  O134  1  -0.00355906  0.24835794  0.94587695  1
  O2-  O135  1  -0.00518830  0.75395548  0.26872339  1
  O2-  O136  1  0.00463128  0.75317716  0.60192328  1
  O2-  O137  1  0.00095242  0.74907439  0.94309979  1
  O2-  O138  1  0.49534406  0.25537044  0.27310200  1
  O2-  O139  1  0.49374315  0.25127701  0.60526655  1
  O2-  O140  1  0.49429545  0.24626367  0.93403044  1
  O2-  O141  1  0.50370158  0.74198922  0.27038484  1
  O2-  O142  1  0.49589091  0.75207907  0.60790664  1
  O2-  O143  1  0.50247401  0.75142177  0.94387504  1
  O2-  O144  1  0.06826886  0.17954405  0.09343046  1
  O2-  O145  1  0.07296297  0.17756206  0.42330081  1
  O2-  O146  1  0.07122484  0.18318155  0.76740949  1
  O2-  O147  1  0.06966595  0.67592216  0.08950334  1
  O2-  O148  1  0.06568272  0.67709876  0.43019923  1
  O2-  O149  1  0.06876953  0.67736407  0.76687019  1
  O2-  O150  1  0.57227693  0.18276914  0.09642167  1
  O2-  O151  1  0.57100565  0.18118717  0.43163771  1
  O2-  O152  1  0.56962719  0.17918248  0.76566973  1
  O2-  O153  1  0.57301548  0.67985674  0.09262651  1
  O2-  O154  1  0.57416581  0.67723671  0.42111487  1
  O2-  O155  1  0.56940949  0.67814998  0.76782485  1
  O2-  O156  1  0.17977925  0.43045950  0.23422639  1
  O2-  O157  1  0.17964967  0.43077253  0.56901715  1
  O2-  O158  1  0.17230317  0.43110655  0.91317614  1
  O2-  O159  1  0.18212154  0.93097397  0.23220414  1
  O2-  O160  1  0.18144235  0.92505744  0.56755020  1
  O2-  O161  1  0.17666361  0.92672993  0.91122984  1
  O2-  O162  1  0.68086327  0.42743524  0.24396806  1
  O2-  O163  1  0.67668661  0.42822963  0.57831039  1
  O2-  O164  1  0.68106897  0.43266909  0.90933889  1
  O2-  O165  1  0.67755764  0.92920494  0.24463049  1
  O2-  O166  1  0.67788002  0.93114708  0.56575297  1
  O2-  O167  1  0.68318320  0.92152481  0.90462515  1
  O2-  O168  1  0.43185560  0.32329636  0.09875182  1
  O2-  O169  1  0.42499578  0.32472939  0.42169381  1
  O2-  O170  1  0.42934757  0.32608788  0.75384406  1
  O2-  O171  1  0.42407000  0.81623364  0.08845198  1
  O2-  O172  1  0.43102891  0.81740989  0.43150623  1
  O2-  O173  1  0.42726000  0.82048114  0.75716279  1
  O2-  O174  1  0.93116090  0.33079399  0.08991216  1
  O2-  O175  1  0.93259713  0.32185623  0.42386357  1
  O2-  O176  1  0.92969780  0.32483915  0.75568463  1
  O2-  O177  1  0.93006212  0.81727993  0.09104342  1
  O2-  O178  1  0.92656459  0.82467182  0.41801483  1
  O2-  O179  1  0.92791431  0.81884572  0.76517455  1
  O2-  O180  1  0.32081279  0.07159058  0.24229144  1
  O2-  O181  1  0.32182881  0.06760546  0.56582998  1
  O2-  O182  1  0.31712761  0.07033563  0.90223908  1
  O2-  O183  1  0.32224886  0.57104322  0.24441794  1
  O2-  O184  1  0.32879630  0.56900475  0.57624326  1
  O2-  O185  1  0.32041392  0.57144768  0.90079836  1
  O2-  O186  1  0.81928281  0.07242735  0.23530002  1
  O2-  O187  1  0.81864839  0.07345881  0.56688459  1
  O2-  O188  1  0.82497993  0.07038350  0.90263831  1
  O2-  O189  1  0.81976683  0.56662796  0.23273852  1
  O2-  O190  1  0.81883651  0.56829416  0.56797367  1
  O2-  O191  1  0.82196587  0.57165285  0.91050527  1
  O2-  O192  1  0.04435204  0.08545388  0.27034998  1
  O2-  O193  1  0.04436995  0.08310112  0.59876309  1
  O2-  O194  1  0.04278313  0.08531229  0.94168102  1
  O2-  O195  1  0.03492521  0.58228576  0.26272341  1
  O2-  O196  1  0.03697792  0.57965193  0.60264838  1
  O2-  O197  1  0.04327835  0.58565090  0.93750297  1
  O2-  O198  1  0.54351632  0.08538656  0.26197656  1
  O2-  O199  1  0.53938011  0.08159823  0.59864923  1
  O2-  O200  1  0.54419363  0.07594475  0.93560151  1
  O2-  O201  1  0.55300998  0.58030959  0.27192620  1
  O2-  O202  1  0.54344567  0.58229775  0.59642768  1
  O2-  O203  1  0.54532446  0.58846098  0.94041534  1
  O2-  O204  1  0.16468379  0.20618510  0.27144655  1
  O2-  O205  1  0.16604627  0.21516139  0.59929952  1
  O2-  O206  1  0.15985801  0.20748876  0.94042145  1
  O2-  O207  1  0.16522035  0.70779930  0.26334758  1
  O2-  O208  1  0.17306185  0.69709566  0.60120470  1
  O2-  O209  1  0.16392655  0.70357507  0.93824392  1
  O2-  O210  1  0.66784303  0.21618531  0.26513250  1
  O2-  O211  1  0.66581271  0.21388713  0.59880247  1
  O2-  O212  1  0.66920550  0.21050458  0.93179133  1
  O2-  O213  1  0.66761128  0.70394089  0.26892127  1
  O2-  O214  1  0.66635751  0.71000137  0.59905587  1
  O2-  O215  1  0.66586946  0.70736368  0.94179774  1
  O2-  O216  1  0.08375610  0.45823486  0.06583960  1
  O2-  O217  1  0.08433550  0.46081023  0.40074106  1
  O2-  O218  1  0.08405581  0.46042898  0.73943540  1
  O2-  O219  1  0.08402488  0.95138208  0.06361452  1
  O2-  O220  1  0.08398506  0.95592526  0.39888024  1
  O2-  O221  1  0.07934304  0.95390323  0.73296631  1
  O2-  O222  1  0.58988723  0.45980143  0.06392519  1
  O2-  O223  1  0.58174706  0.44504830  0.39422954  1
  O2-  O224  1  0.58041039  0.45228129  0.72785516  1
  O2-  O225  1  0.57630249  0.94611096  0.06722324  1
  O2-  O226  1  0.58159008  0.95508023  0.39306747  1
  O2-  O227  1  0.58009618  0.95341973  0.73318660  1
  O2-  O228  1  0.19783309  0.33469694  0.06470371  1
  O2-  O229  1  0.20884250  0.33181373  0.40200712  1
  O2-  O230  1  0.20946872  0.33526387  0.73834444  1
  O2-  O231  1  0.20488464  0.83314441  0.06146093  1
  O2-  O232  1  0.21319090  0.83120235  0.39731673  1
  O2-  O233  1  0.20590760  0.82707350  0.73494262  1
  O2-  O234  1  0.70836577  0.33937569  0.06261547  1
  O2-  O235  1  0.71142535  0.33803352  0.39793014  1
  O2-  O236  1  0.70408044  0.33711559  0.73233745  1
  O2-  O237  1  0.71270844  0.83201158  0.07484573  1
  O2-  O238  1  0.69937535  0.83429084  0.39427475  1
  O2-  O239  1  0.70945930  0.83240716  0.73275631  1
  O2-  O240  1  0.45056029  0.41815619  0.27067376  1
  O2-  O241  1  0.45405817  0.41382119  0.59833524  1
  O2-  O242  1  0.45997459  0.42039967  0.93234026  1
  O2-  O243  1  0.46076759  0.91324827  0.26036198  1
  O2-  O244  1  0.45406501  0.91384773  0.60356642  1
  O2-  O245  1  0.45005201  0.91267461  0.93791457  1
  O2-  O246  1  0.96210700  0.41019893  0.26886902  1
  O2-  O247  1  0.95943854  0.41528194  0.60434938  1
  O2-  O248  1  0.96072427  0.41356789  0.93391386  1
  O2-  O249  1  0.95636304  0.91697941  0.26624863  1
  O2-  O250  1  0.95358849  0.92119556  0.59755743  1
  O2-  O251  1  0.95596846  0.91138964  0.93917941  1
  O2-  O252  1  0.33215623  0.29826159  0.26947440  1
  O2-  O253  1  0.33212194  0.29887596  0.60491200  1
  O2-  O254  1  0.32483866  0.30149502  0.93728484  1
  O2-  O255  1  0.33497391  0.78761043  0.26038714  1
  O2-  O256  1  0.33474060  0.79475898  0.60434536  1
  O2-  O257  1  0.33693471  0.78690919  0.93509335  1
  O2-  O258  1  0.83994294  0.29474582  0.27055149  1
  O2-  O259  1  0.83215111  0.30655702  0.60394436  1
  O2-  O260  1  0.83617863  0.30257651  0.93727574  1
  O2-  O261  1  0.83266609  0.79857980  0.26744588  1
  O2-  O262  1  0.83291685  0.78948753  0.59651824  1
  O2-  O263  1  0.83774728  0.78849688  0.93985380  1
  O2-  O264  1  0.41503964  0.04011084  0.06937883  1
  O2-  O265  1  0.41797326  0.04246171  0.38981102  1
  O2-  O266  1  0.41686244  0.03890706  0.73495736  1
  O2-  O267  1  0.41846907  0.54226636  0.06982199  1
  O2-  O268  1  0.41882265  0.55040040  0.39468226  1
  O2-  O269  1  0.41839233  0.54309785  0.72838674  1
  O2-  O270  1  0.91743728  0.03875903  0.07051212  1
  O2-  O271  1  0.91746980  0.04191920  0.39980048  1
  O2-  O272  1  0.91976438  0.04592766  0.73193611  1
  O2-  O273  1  0.91448694  0.54131470  0.06146087  1
  O2-  O274  1  0.91341775  0.53393510  0.40029052  1
  O2-  O275  1  0.91221246  0.53628392  0.73892273  1
  O2-  O276  1  0.28792857  0.16792320  0.07001314  1
  O2-  O277  1  0.30214570  0.16597406  0.39327785  1
  O2-  O278  1  0.29372163  0.16915204  0.73270617  1
  O2-  O279  1  0.28836117  0.66571449  0.06952747  1
  O2-  O280  1  0.29713506  0.66617442  0.39406383  1
  O2-  O281  1  0.30255376  0.66500543  0.72808230  1
  O2-  O282  1  0.79956297  0.17509941  0.06555743  1
  O2-  O283  1  0.79242431  0.16987694  0.40079411  1
  O2-  O284  1  0.79843038  0.17598973  0.73023363  1
  O2-  O285  1  0.79458415  0.66122511  0.06504157  1
  O2-  O286  1  0.79458205  0.67025603  0.39870605  1
  O2-  O287  1  0.78805580  0.66634571  0.73552615  1
