# generated using pymatgen
data_Ca2Al2SiO7
_symmetry_space_group_name_H-M   'P 1'
_cell_length_a   15.45726450
_cell_length_b   15.45567729
_cell_length_c   15.28191397
_cell_angle_alpha   89.99010426
_cell_angle_beta   89.99130885
_cell_angle_gamma   90.01247981
_symmetry_Int_Tables_number   1
_chemical_formula_structural   Ca2Al2SiO7
_chemical_formula_sum   'Ca48 Al48 Si24 O168'
_cell_volume   3650.88714476
_cell_formula_units_Z   24
loop_
 _symmetry_equiv_pos_site_id
 _symmetry_equiv_pos_as_xyz
  1  'x, y, z'
loop_
 _atom_type_symbol
 _atom_type_oxidation_number
  Ca2+  2.0
  Al0+  0.0
  Si0+  0.0
  O2-  -2.0
loop_
 _atom_site_type_symbol
 _atom_site_label
 _atom_site_symmetry_multiplicity
 _atom_site_fract_x
 _atom_site_fract_y
 _atom_site_fract_z
 _atom_site_occupancy
  Ca2+  Ca0  1  0.17208488  0.08175268  0.17499019  1
  Ca2+  Ca1  1  0.17439833  0.08452501  0.50022320  1
  Ca2+  Ca2  1  0.17951534  0.08767225  0.83959478  1
  Ca2+  Ca3  1  0.17910173  0.58517299  0.16958410  1
  Ca2+  Ca4  1  0.17515147  0.57989878  0.51130046  1
  Ca2+  Ca5  1  0.17025266  0.58256612  0.83064379  1
  Ca2+  Ca6  1  0.66074817  0.07919666  0.16223460  1
  Ca2+  Ca7  1  0.66091632  0.07834260  0.50980154  1
  Ca2+  Ca8  1  0.65867437  0.07601539  0.83828057  1
  Ca2+  Ca9  1  0.67606529  0.58131550  0.16733558  1
  Ca2+  Ca10  1  0.67867374  0.58188701  0.50538609  1
  Ca2+  Ca11  1  0.67802549  0.57768103  0.84293224  1
  Ca2+  Ca12  1  0.08864099  0.31937907  0.16333644  1
  Ca2+  Ca13  1  0.08399150  0.33377913  0.49958014  1
  Ca2+  Ca14  1  0.08198008  0.33437997  0.82782912  1
  Ca2+  Ca15  1  0.07828050  0.83568925  0.15950743  1
  Ca2+  Ca16  1  0.08903657  0.82749851  0.49685640  1
  Ca2+  Ca17  1  0.07556494  0.82546807  0.82880958  1
  Ca2+  Ca18  1  0.57881681  0.32969161  0.15968100  1
  Ca2+  Ca19  1  0.57577757  0.32731844  0.49521349  1
  Ca2+  Ca20  1  0.59047299  0.32224329  0.83018672  1
  Ca2+  Ca21  1  0.57676803  0.83195320  0.15598962  1
  Ca2+  Ca22  1  0.57809048  0.83455899  0.50386785  1
  Ca2+  Ca23  1  0.57409510  0.84028749  0.82891779  1
  Ca2+  Ca24  1  0.34045371  0.42673075  0.17237490  1
  Ca2+  Ca25  1  0.33049339  0.42342529  0.50566240  1
  Ca2+  Ca26  1  0.33061640  0.42760617  0.83642369  1
  Ca2+  Ca27  1  0.33239342  0.92871745  0.16994010  1
  Ca2+  Ca28  1  0.33109417  0.92589641  0.50506935  1
  Ca2+  Ca29  1  0.34055339  0.92374592  0.83735016  1
  Ca2+  Ca30  1  0.82858072  0.42341791  0.16718187  1
  Ca2+  Ca31  1  0.84037105  0.42416547  0.50781862  1
  Ca2+  Ca32  1  0.83465300  0.42371635  0.83791398  1
  Ca2+  Ca33  1  0.82856320  0.91138620  0.16527599  1
  Ca2+  Ca34  1  0.82452788  0.92097395  0.50689746  1
  Ca2+  Ca35  1  0.81989475  0.91038225  0.83972154  1
  Ca2+  Ca36  1  0.41298637  0.17140728  0.16003164  1
  Ca2+  Ca37  1  0.41375331  0.16817178  0.49773725  1
  Ca2+  Ca38  1  0.42533602  0.15792782  0.82904328  1
  Ca2+  Ca39  1  0.41182456  0.67228351  0.15735011  1
  Ca2+  Ca40  1  0.40812841  0.67061223  0.49744177  1
  Ca2+  Ca41  1  0.40788099  0.67724619  0.82805944  1
  Ca2+  Ca42  1  0.93258856  0.16071808  0.15961821  1
  Ca2+  Ca43  1  0.92164843  0.17668958  0.49432063  1
  Ca2+  Ca44  1  0.92421094  0.17364272  0.82786252  1
  Ca2+  Ca45  1  0.91416306  0.66882656  0.16010502  1
  Ca2+  Ca46  1  0.92245614  0.65848147  0.49945007  1
  Ca2+  Ca47  1  0.91573403  0.66497058  0.82688998  1
  Al0+  Al48  1  -0.00062684  -0.00154723  -0.01338206  1
  Al0+  Al49  1  -0.00230467  -0.00136096  0.33475755  1
  Al0+  Al50  1  -0.00021340  0.00024915  0.66527728  1
  Al0+  Al51  1  0.00210059  0.49870368  0.00673872  1
  Al0+  Al52  1  0.00009388  0.50101430  0.33195198  1
  Al0+  Al53  1  0.00097676  0.50019684  0.66649152  1
  Al0+  Al54  1  0.49896590  0.00036739  0.00320369  1
  Al0+  Al55  1  0.49986390  -0.00114968  0.33621289  1
  Al0+  Al56  1  0.49959198  -0.00116534  0.66346547  1
  Al0+  Al57  1  0.50071630  0.50025740  0.00643905  1
  Al0+  Al58  1  0.50281976  0.50020244  0.33416989  1
  Al0+  Al59  1  0.50169884  0.50043320  0.67038240  1
  Al0+  Al60  1  0.25146839  0.25094793  -0.00211220  1
  Al0+  Al61  1  0.25101170  0.25122433  0.32852880  1
  Al0+  Al62  1  0.25125606  0.24990816  0.67492082  1
  Al0+  Al63  1  0.24802375  0.75083746  -0.00142998  1
  Al0+  Al64  1  0.24914491  0.75113689  0.33673889  1
  Al0+  Al65  1  0.24829111  0.75224649  0.66059638  1
  Al0+  Al66  1  0.75098616  0.24890482  0.00153490  1
  Al0+  Al67  1  0.74887786  0.24967784  0.33065694  1
  Al0+  Al68  1  0.75192867  0.24897824  0.65526730  1
  Al0+  Al69  1  0.74899240  0.75011191  0.00444989  1
  Al0+  Al70  1  0.74968270  0.74879071  0.33835445  1
  Al0+  Al71  1  0.74779085  0.75103196  0.67309796  1
  Al0+  Al72  1  0.06816395  0.68094160  0.65218506  1
  Al0+  Al73  1  0.82063488  0.56981150  0.34914630  1
  Al0+  Al74  1  0.32277074  0.57137628  0.34711831  1
  Al0+  Al75  1  0.82264270  0.57104547  0.01624619  1
  Al0+  Al76  1  0.32325441  0.57418981  0.68168135  1
  Al0+  Al77  1  0.82007604  0.56906031  0.68045890  1
  Al0+  Al78  1  0.93153725  0.32030882  0.65330806  1
  Al0+  Al79  1  0.17948256  0.42928871  0.68160418  1
  Al0+  Al80  1  0.32036825  0.07027692  0.01403049  1
  Al0+  Al81  1  0.68016633  0.93200109  0.68100901  1
  Al0+  Al82  1  0.17577940  0.92971849  0.34788021  1
  Al0+  Al83  1  0.56959470  0.18066279  0.98725380  1
  Al0+  Al84  1  0.92684270  0.81887557  0.98568657  1
  Al0+  Al85  1  0.06886736  0.17931111  0.32078356  1
  Al0+  Al86  1  0.07357768  0.17829426  0.98399257  1
  Al0+  Al87  1  0.43033873  0.32150132  0.32001238  1
  Al0+  Al88  1  0.67897963  0.42506367  0.01522370  1
  Al0+  Al89  1  0.31928877  0.57263380  0.01330207  1
  Al0+  Al90  1  0.42935090  0.81961568  0.65098612  1
  Al0+  Al91  1  0.67863158  0.93056155  0.01460662  1
  Al0+  Al92  1  0.42893441  0.81995513  0.98770708  1
  Al0+  Al93  1  0.56919431  0.17941590  0.65243453  1
  Al0+  Al94  1  0.31929401  0.06891708  0.68126422  1
  Al0+  Al95  1  0.32130152  0.07293992  0.34872253  1
  Si0+  Si96  1  0.17529572  0.92898127  0.01309266  1
  Si0+  Si97  1  0.07181634  0.67625423  0.98412142  1
  Si0+  Si98  1  0.57379439  0.67642300  0.65114216  1
  Si0+  Si99  1  0.07535297  0.17700551  0.64963346  1
  Si0+  Si100  1  0.57179746  0.67681496  0.98461646  1
  Si0+  Si101  1  0.67929181  0.92913763  0.34907552  1
  Si0+  Si102  1  0.92418952  0.82252372  0.64874612  1
  Si0+  Si103  1  0.57241597  0.17533780  0.31499062  1
  Si0+  Si104  1  0.67809146  0.42456584  0.68089828  1
  Si0+  Si105  1  0.42717087  0.32432837  0.65227784  1
  Si0+  Si106  1  0.92693590  0.81947288  0.31969354  1
  Si0+  Si107  1  0.17891899  0.42854620  0.34798261  1
  Si0+  Si108  1  0.17878339  0.42705028  0.01947331  1
  Si0+  Si109  1  0.42868784  0.82026054  0.31760816  1
  Si0+  Si110  1  0.92966366  0.32173756  0.98526121  1
  Si0+  Si111  1  0.92664113  0.32399455  0.31386871  1
  Si0+  Si112  1  0.17507997  0.92719688  0.68461847  1
  Si0+  Si113  1  0.82106731  0.07154896  0.34695494  1
  Si0+  Si114  1  0.82441241  0.07100579  0.01484452  1
  Si0+  Si115  1  0.42831969  0.32566105  0.98157779  1
  Si0+  Si116  1  0.57304871  0.68081401  0.31886812  1
  Si0+  Si117  1  0.07174553  0.67932667  0.31716028  1
  Si0+  Si118  1  0.82377551  0.07439495  0.68211101  1
  Si0+  Si119  1  0.67908592  0.42601953  0.35207216  1
  O2-  O120  1  0.24157455  -0.00113390  0.05892266  1
  O2-  O121  1  0.24848816  0.00108121  0.39773841  1
  O2-  O122  1  0.24172146  -0.00265245  0.72880810  1
  O2-  O123  1  0.24803257  0.49586137  0.06255096  1
  O2-  O124  1  0.24728168  0.49722409  0.39245867  1
  O2-  O125  1  0.25319010  0.50010936  0.73077962  1
  O2-  O126  1  0.75556504  0.00331427  0.06145635  1
  O2-  O127  1  0.74558535  0.00539329  0.38960452  1
  O2-  O128  1  0.75695050  0.00487724  0.72718666  1
  O2-  O129  1  0.74994864  0.49877634  0.06490377  1
  O2-  O130  1  0.75153086  0.49046090  0.39650585  1
  O2-  O131  1  0.74403923  0.49536441  0.72561478  1
  O2-  O132  1  -0.00610837  0.25327230  0.27116511  1
  O2-  O133  1  0.00530729  0.24455296  0.60584451  1
  O2-  O134  1  -0.00124550  0.25419357  0.93998305  1
  O2-  O135  1  -0.00010462  0.75061815  0.27665639  1
  O2-  O136  1  -0.00611996  0.75604208  0.60301899  1
  O2-  O137  1  -0.00168637  0.74044840  0.94085927  1
  O2-  O138  1  0.50280086  0.24382432  0.27312938  1
  O2-  O139  1  0.49636058  0.25634307  0.60705208  1
  O2-  O140  1  0.49773204  0.25712208  0.93847615  1
  O2-  O141  1  0.49811745  0.74740448  0.27559966  1
  O2-  O142  1  0.50000188  0.73937274  0.60534755  1
  O2-  O143  1  0.50099609  0.74282979  0.94019911  1
  O2-  O144  1  0.07183354  0.17715864  0.09764680  1
  O2-  O145  1  0.06626301  0.18129144  0.43378801  1
  O2-  O146  1  0.07331698  0.17711652  0.75512631  1
  O2-  O147  1  0.07411853  0.67949878  0.09019297  1
  O2-  O148  1  0.07084329  0.67816666  0.42205557  1
  O2-  O149  1  0.06607031  0.68183036  0.76536935  1
  O2-  O150  1  0.56640028  0.18027615  0.10057404  1
  O2-  O151  1  0.57474357  0.17546093  0.42059721  1
  O2-  O152  1  0.56977852  0.17903674  0.76543354  1
  O2-  O153  1  0.57158834  0.68000095  0.09099084  1
  O2-  O154  1  0.57619814  0.68439744  0.42385171  1
  O2-  O155  1  0.57724289  0.67863293  0.75625561  1
  O2-  O156  1  0.17878753  0.43049997  0.24232101  1
  O2-  O157  1  0.18049949  0.42954762  0.56743345  1
  O2-  O158  1  0.17670758  0.42821102  0.91416359  1
  O2-  O159  1  0.17469330  0.92976735  0.23396814  1
  O2-  O160  1  0.17548371  0.92833833  0.57886899  1
  O2-  O161  1  0.17664522  0.92821039  0.90770171  1
  O2-  O162  1  0.67948240  0.42707946  0.24669866  1
  O2-  O163  1  0.67853100  0.42603997  0.57501205  1
  O2-  O164  1  0.68232152  0.42489300  0.90137702  1
  O2-  O165  1  0.67971137  0.92707858  0.24413183  1
  O2-  O166  1  0.68141908  0.93295563  0.56694503  1
  O2-  O167  1  0.67806910  0.93230202  0.90195412  1
  O2-  O168  1  0.42825496  0.32473033  0.08765072  1
  O2-  O169  1  0.43242630  0.32222375  0.43330080  1
  O2-  O170  1  0.42845317  0.32504815  0.75757100  1
  O2-  O171  1  0.43017438  0.81952299  0.10152915  1
  O2-  O172  1  0.43110951  0.82087451  0.42263153  1
  O2-  O173  1  0.43194511  0.82156894  0.76406236  1
  O2-  O174  1  0.93106635  0.32025823  0.09102554  1
  O2-  O175  1  0.92722955  0.32391161  0.41957479  1
  O2-  O176  1  0.93094874  0.31870073  0.76646572  1
  O2-  O177  1  0.92943275  0.82007540  0.09973314  1
  O2-  O178  1  0.92439345  0.81851293  0.42454508  1
  O2-  O179  1  0.92441846  0.82061617  0.75420477  1
  O2-  O180  1  0.32170416  0.07063895  0.23505557  1
  O2-  O181  1  0.31802026  0.06962952  0.56812267  1
  O2-  O182  1  0.32236050  0.06718589  0.90104871  1
  O2-  O183  1  0.32072863  0.57288486  0.23379277  1
  O2-  O184  1  0.32091271  0.57168558  0.56774136  1
  O2-  O185  1  0.31638266  0.57381330  0.90080779  1
  O2-  O186  1  0.82356192  0.06850084  0.24204031  1
  O2-  O187  1  0.82306599  0.07247446  0.57578903  1
  O2-  O188  1  0.82356663  0.07155004  0.90951154  1
  O2-  O189  1  0.81774245  0.57245984  0.23657828  1
  O2-  O190  1  0.81953448  0.56795732  0.56698543  1
  O2-  O191  1  0.82265352  0.56935891  0.90271793  1
  O2-  O192  1  0.03535207  0.08244924  0.26745549  1
  O2-  O193  1  0.05106861  0.08249817  0.60403669  1
  O2-  O194  1  0.04267483  0.08407827  0.92627968  1
  O2-  O195  1  0.04445785  0.58771747  0.26872323  1
  O2-  O196  1  0.03706972  0.58504122  0.59713429  1
  O2-  O197  1  0.05086660  0.58008038  0.94194104  1
  O2-  O198  1  0.54870667  0.08000018  0.27116500  1
  O2-  O199  1  0.53566793  0.08483843  0.59639414  1
  O2-  O200  1  0.53585853  0.08448386  0.93454970  1
  O2-  O201  1  0.55160177  0.58686362  0.27355161  1
  O2-  O202  1  0.55609446  0.58020258  0.60623703  1
  O2-  O203  1  0.55088050  0.58127628  0.94136971  1
  O2-  O204  1  0.16479326  0.20988314  0.26534675  1
  O2-  O205  1  0.16897024  0.20513725  0.60542231  1
  O2-  O206  1  0.16953264  0.21081083  0.93022605  1
  O2-  O207  1  0.16325060  0.70865293  0.26943003  1
  O2-  O208  1  0.16348540  0.71175927  0.59521060  1
  O2-  O209  1  0.16211058  0.70718952  0.93495915  1
  O2-  O210  1  0.66646978  0.20027388  0.26837397  1
  O2-  O211  1  0.66585741  0.20563976  0.59490136  1
  O2-  O212  1  0.66900861  0.20599545  0.93500032  1
  O2-  O213  1  0.66287373  0.71437756  0.27013032  1
  O2-  O214  1  0.66479847  0.71011082  0.60261774  1
  O2-  O215  1  0.66504377  0.70411451  0.93984124  1
  O2-  O216  1  0.08609582  0.45053250  0.06855289  1
  O2-  O217  1  0.08445381  0.45342896  0.39264942  1
  O2-  O218  1  0.08298424  0.46140918  0.73560248  1
  O2-  O219  1  0.07991635  0.95316700  0.05639561  1
  O2-  O220  1  0.07674993  0.95464651  0.40210613  1
  O2-  O221  1  0.07932728  0.94883347  0.72885526  1
  O2-  O222  1  0.58111762  0.45258075  0.07006627  1
  O2-  O223  1  0.58781977  0.45643906  0.39953929  1
  O2-  O224  1  0.58408881  0.44485302  0.72781450  1
  O2-  O225  1  0.58465661  0.96424107  0.07181233  1
  O2-  O226  1  0.58682093  0.95306124  0.39699849  1
  O2-  O227  1  0.58432922  0.96535941  0.73299841  1
  O2-  O228  1  0.20583199  0.33351934  0.06453918  1
  O2-  O229  1  0.20418343  0.33520890  0.39356400  1
  O2-  O230  1  0.20422569  0.33145687  0.73703504  1
  O2-  O231  1  0.20021896  0.83569422  0.06016300  1
  O2-  O232  1  0.20539592  0.83202260  0.40125335  1
  O2-  O233  1  0.20145101  0.83370540  0.72884981  1
  O2-  O234  1  0.70866807  0.32786447  0.07125661  1
  O2-  O235  1  0.69971679  0.32982761  0.39575205  1
  O2-  O236  1  0.70792220  0.33079019  0.72361148  1
  O2-  O237  1  0.70810349  0.83443186  0.07051104  1
  O2-  O238  1  0.71235546  0.84017789  0.39850232  1
  O2-  O239  1  0.70790286  0.83586155  0.73668575  1
  O2-  O240  1  0.46475374  0.41771395  0.26546003  1
  O2-  O241  1  0.45206881  0.41841302  0.60551693  1
  O2-  O242  1  0.45317683  0.42034008  0.93769282  1
  O2-  O243  1  0.45950324  0.91202082  0.27129832  1
  O2-  O244  1  0.46707039  0.91274077  0.59431943  1
  O2-  O245  1  0.46414813  0.91519744  0.93486997  1
  O2-  O246  1  0.95324110  0.41738249  0.26784274  1
  O2-  O247  1  0.96420287  0.41538501  0.59754946  1
  O2-  O248  1  0.95619930  0.41618069  0.94092120  1
  O2-  O249  1  0.95110705  0.91203793  0.27208883  1
  O2-  O250  1  0.94714578  0.91811122  0.60415009  1
  O2-  O251  1  0.95640380  0.91269667  0.92600708  1
  O2-  O252  1  0.33387069  0.29542260  0.26336618  1
  O2-  O253  1  0.33356601  0.29616716  0.60745034  1
  O2-  O254  1  0.33462361  0.30107177  0.93636922  1
  O2-  O255  1  0.33576756  0.79428457  0.27172463  1
  O2-  O256  1  0.33208217  0.79480100  0.59534987  1
  O2-  O257  1  0.33146046  0.79223930  0.93381956  1
  O2-  O258  1  0.83180027  0.29966605  0.26967221  1
  O2-  O259  1  0.83721517  0.29084986  0.59259091  1
  O2-  O260  1  0.83643598  0.29606473  0.93924494  1
  O2-  O261  1  0.83578054  0.78842558  0.27183833  1
  O2-  O262  1  0.83000272  0.79664612  0.60394410  1
  O2-  O263  1  0.82885779  0.79005612  0.93367212  1
  O2-  O264  1  0.41383801  0.03587596  0.07093300  1
  O2-  O265  1  0.41994296  0.04302844  0.40122394  1
  O2-  O266  1  0.41517419  0.03317139  0.73247168  1
  O2-  O267  1  0.41693176  0.54648508  0.06782573  1
  O2-  O268  1  0.42079169  0.54370154  0.39938045  1
  O2-  O269  1  0.42333066  0.55089900  0.73371782  1
  O2-  O270  1  0.91811565  0.04099785  0.05891660  1
  O2-  O271  1  0.90922262  0.03987921  0.39853689  1
  O2-  O272  1  0.91873593  0.05211872  0.72694566  1
  O2-  O273  1  0.92101571  0.54385202  0.07081135  1
  O2-  O274  1  0.91979226  0.54255077  0.39999895  1
  O2-  O275  1  0.91566460  0.53713432  0.73356058  1
  O2-  O276  1  0.29334287  0.16937908  0.06455725  1
  O2-  O277  1  0.29283471  0.17229481  0.39929760  1
  O2-  O278  1  0.29420425  0.16560422  0.73733617  1
  O2-  O279  1  0.28507717  0.66844746  0.06841782  1
  O2-  O280  1  0.29090303  0.66754175  0.40012783  1
  O2-  O281  1  0.28986775  0.67284129  0.73046042  1
  O2-  O282  1  0.80124669  0.16398539  0.06299727  1
  O2-  O283  1  0.79787062  0.16581561  0.39228259  1
  O2-  O284  1  0.79766825  0.16864879  0.72514848  1
  O2-  O285  1  0.79169105  0.66819375  0.07059661  1
  O2-  O286  1  0.78589518  0.66474384  0.40448948  1
  O2-  O287  1  0.79111113  0.66605092  0.73372076  1
