# generated using pymatgen
data_Ca2Al2SiO7
_symmetry_space_group_name_H-M   'P 1'
_cell_length_a   15.47708216
_cell_length_b   15.47293434
_cell_length_c   15.29535400
_cell_angle_alpha   89.99841788
_cell_angle_beta   90.01287860
_cell_angle_gamma   89.97489003
_symmetry_Int_Tables_number   1
_chemical_formula_structural   Ca2Al2SiO7
_chemical_formula_sum   'Ca48 Al48 Si24 O168'
_cell_volume   3662.86785412
_cell_formula_units_Z   24
loop_
 _symmetry_equiv_pos_site_id
 _symmetry_equiv_pos_as_xyz
  1  'x, y, z'
loop_
 _atom_type_symbol
 _atom_type_oxidation_number
  Ca2+  2.0
  Al0+  0.0
  Si0+  0.0
  O2-  -2.0
loop_
 _atom_site_type_symbol
 _atom_site_label
 _atom_site_symmetry_multiplicity
 _atom_site_fract_x
 _atom_site_fract_y
 _atom_site_fract_z
 _atom_site_occupancy
  Ca2+  Ca0  1  0.17447849  0.07909993  0.17351912  1
  Ca2+  Ca1  1  0.17787469  0.08370275  0.50115631  1
  Ca2+  Ca2  1  0.16971649  0.07498537  0.84026556  1
  Ca2+  Ca3  1  0.16874534  0.57702099  0.17189203  1
  Ca2+  Ca4  1  0.17546090  0.57935756  0.50702545  1
  Ca2+  Ca5  1  0.17280148  0.58917593  0.83449982  1
  Ca2+  Ca6  1  0.66771774  0.08538949  0.17817096  1
  Ca2+  Ca7  1  0.66444607  0.07949204  0.50766346  1
  Ca2+  Ca8  1  0.66152696  0.08483485  0.83109122  1
  Ca2+  Ca9  1  0.66105327  0.57893651  0.17466045  1
  Ca2+  Ca10  1  0.65130556  0.57714357  0.50225089  1
  Ca2+  Ca11  1  0.65999112  0.58294601  0.83820376  1
  Ca2+  Ca12  1  0.07782341  0.33532079  0.16359763  1
  Ca2+  Ca13  1  0.07617956  0.33941217  0.49683169  1
  Ca2+  Ca14  1  0.06840546  0.33813743  0.82970613  1
  Ca2+  Ca15  1  0.08389796  0.82974637  0.15761001  1
  Ca2+  Ca16  1  0.08440048  0.82717183  0.49865098  1
  Ca2+  Ca17  1  0.09089876  0.82452461  0.82863076  1
  Ca2+  Ca18  1  0.57806900  0.32488648  0.16433528  1
  Ca2+  Ca19  1  0.57425298  0.32522153  0.49429562  1
  Ca2+  Ca20  1  0.57497496  0.32189889  0.82910268  1
  Ca2+  Ca21  1  0.58413779  0.82942406  0.16766950  1
  Ca2+  Ca22  1  0.58344465  0.82939760  0.49218031  1
  Ca2+  Ca23  1  0.58181389  0.82341695  0.82199859  1
  Ca2+  Ca24  1  0.33307764  0.41305544  0.17704709  1
  Ca2+  Ca25  1  0.33344886  0.41572380  0.50748367  1
  Ca2+  Ca26  1  0.34561183  0.42212718  0.83476183  1
  Ca2+  Ca27  1  0.33225348  0.91966425  0.17233514  1
  Ca2+  Ca28  1  0.34579358  0.91834740  0.50076348  1
  Ca2+  Ca29  1  0.33189007  0.91261759  0.83564633  1
  Ca2+  Ca30  1  0.82568752  0.41718556  0.17286371  1
  Ca2+  Ca31  1  0.82395869  0.41345325  0.50326177  1
  Ca2+  Ca32  1  0.83472371  0.41310982  0.83602227  1
  Ca2+  Ca33  1  0.82449340  0.92579940  0.17833608  1
  Ca2+  Ca34  1  0.81829704  0.92690071  0.50442551  1
  Ca2+  Ca35  1  0.82659527  0.92114583  0.83174110  1
  Ca2+  Ca36  1  0.42303312  0.17229999  0.16614819  1
  Ca2+  Ca37  1  0.42605078  0.16892654  0.49062274  1
  Ca2+  Ca38  1  0.42450248  0.17453181  0.82717516  1
  Ca2+  Ca39  1  0.42922728  0.66903735  0.16797035  1
  Ca2+  Ca40  1  0.42306833  0.67698578  0.50012644  1
  Ca2+  Ca41  1  0.42486511  0.66999202  0.82386218  1
  Ca2+  Ca42  1  0.91298345  0.17135758  0.16323083  1
  Ca2+  Ca43  1  0.91167023  0.16256073  0.50054098  1
  Ca2+  Ca44  1  0.91223519  0.17526448  0.82637360  1
  Ca2+  Ca45  1  0.92379001  0.66826726  0.16009549  1
  Ca2+  Ca46  1  0.92353153  0.66379865  0.49941297  1
  Ca2+  Ca47  1  0.93192452  0.66542316  0.82741866  1
  Al0+  Al48  1  -0.00138207  -0.00011190  0.00521633  1
  Al0+  Al49  1  0.00031970  -0.00055541  0.33632485  1
  Al0+  Al50  1  -0.00121206  -0.00011500  0.67144200  1
  Al0+  Al51  1  0.00083007  0.50205677  -0.00630106  1
  Al0+  Al52  1  0.00166651  0.49941200  0.33598986  1
  Al0+  Al53  1  -0.00029115  0.49895334  0.65840945  1
  Al0+  Al54  1  0.49972393  -0.00037455  -0.00157685  1
  Al0+  Al55  1  0.49887879  -0.00095036  0.33138979  1
  Al0+  Al56  1  0.49900221  -0.00020844  0.66951119  1
  Al0+  Al57  1  0.50048297  0.50126930  -0.00223014  1
  Al0+  Al58  1  0.49881819  0.50228641  0.33223098  1
  Al0+  Al59  1  0.49823799  0.50017822  0.66731319  1
  Al0+  Al60  1  0.24825795  0.25106905  -0.00324170  1
  Al0+  Al61  1  0.24626246  0.24844320  0.33909238  1
  Al0+  Al62  1  0.24467528  0.24945257  0.66944930  1
  Al0+  Al63  1  0.25038488  0.74847622  0.00355853  1
  Al0+  Al64  1  0.24965584  0.74803944  0.32861254  1
  Al0+  Al65  1  0.25160073  0.74628669  0.66178076  1
  Al0+  Al66  1  0.74884472  0.25130681  -0.00624402  1
  Al0+  Al67  1  0.75158300  0.25427377  0.33768865  1
  Al0+  Al68  1  0.75029518  0.25160786  0.66394905  1
  Al0+  Al69  1  0.75251601  0.75071597  -0.00226942  1
  Al0+  Al70  1  0.75495819  0.75097883  0.33260175  1
  Al0+  Al71  1  0.75330993  0.74820940  0.66777817  1
  Al0+  Al72  1  0.82201956  0.07385487  0.34788944  1
  Al0+  Al73  1  0.57276391  0.68093948  0.98677295  1
  Al0+  Al74  1  0.42539386  0.32069598  0.32073096  1
  Al0+  Al75  1  0.42945413  0.82077439  0.65362050  1
  Al0+  Al76  1  0.92995645  0.31952130  0.64992017  1
  Al0+  Al77  1  0.17946708  0.42869348  0.34716128  1
  Al0+  Al78  1  0.67657290  0.92734751  0.68357264  1
  Al0+  Al79  1  0.57100469  0.17724190  0.98480563  1
  Al0+  Al80  1  0.93020762  0.32003761  0.98848618  1
  Al0+  Al81  1  0.42594109  0.32187139  0.98599382  1
  Al0+  Al82  1  0.31996633  0.06882044  0.34584004  1
  Al0+  Al83  1  0.67754860  0.43207395  0.34663109  1
  Al0+  Al84  1  0.07154411  0.68004375  0.65069923  1
  Al0+  Al85  1  0.81954170  0.07235895  0.68487700  1
  Al0+  Al86  1  0.57304180  0.17980833  0.31973821  1
  Al0+  Al87  1  0.56943355  0.17935739  0.65074053  1
  Al0+  Al88  1  0.42809674  0.82225288  0.31595958  1
  Al0+  Al89  1  0.07148607  0.68141713  0.98629727  1
  Al0+  Al90  1  0.18002373  0.92833972  0.01338583  1
  Al0+  Al91  1  0.31968891  0.56805664  0.68152034  1
  Al0+  Al92  1  0.57471948  0.67862867  0.65240599  1
  Al0+  Al93  1  0.67836796  0.92894857  0.34662449  1
  Al0+  Al94  1  0.57429645  0.67989194  0.31827867  1
  Al0+  Al95  1  0.42594356  0.32095841  0.65217933  1
  Si0+  Si96  1  0.17991720  0.92814058  0.67946777  1
  Si0+  Si97  1  0.92854197  0.82451703  0.98252599  1
  Si0+  Si98  1  0.67955377  0.43162781  0.68345086  1
  Si0+  Si99  1  0.32197732  0.07382599  0.01632929  1
  Si0+  Si100  1  0.67924337  0.92713469  0.01484125  1
  Si0+  Si101  1  0.82527781  0.56988212  0.68247232  1
  Si0+  Si102  1  0.32152051  0.57297865  0.35026771  1
  Si0+  Si103  1  0.32185528  0.56909676  0.01697860  1
  Si0+  Si104  1  0.82365773  0.57113833  0.01326522  1
  Si0+  Si105  1  0.42820331  0.82067679  0.98467754  1
  Si0+  Si106  1  0.07080510  0.17397906  0.64978096  1
  Si0+  Si107  1  0.32048116  0.07285830  0.68312257  1
  Si0+  Si108  1  0.17768706  0.92522197  0.35018947  1
  Si0+  Si109  1  0.81832917  0.07315357  0.01482825  1
  Si0+  Si110  1  0.07154757  0.17561336  0.98474647  1
  Si0+  Si111  1  0.92879256  0.82340141  0.64903429  1
  Si0+  Si112  1  0.17485308  0.42764471  0.68598500  1
  Si0+  Si113  1  0.82439743  0.57210299  0.34931559  1
  Si0+  Si114  1  0.67996983  0.43072758  0.01402664  1
  Si0+  Si115  1  0.06999055  0.67776937  0.31674091  1
  Si0+  Si116  1  0.06973081  0.17713611  0.31885637  1
  Si0+  Si117  1  0.93218233  0.82218841  0.31768977  1
  Si0+  Si118  1  0.93048414  0.32271043  0.31804619  1
  Si0+  Si119  1  0.17612594  0.43012719  0.01331838  1
  O2-  O120  1  0.25269310  0.00463358  0.05981790  1
  O2-  O121  1  0.24963141  -0.01036598  0.39410450  1
  O2-  O122  1  0.25029371  -0.00098175  0.72295643  1
  O2-  O123  1  0.25284836  0.49420367  0.05672831  1
  O2-  O124  1  0.25793491  0.49872958  0.39315044  1
  O2-  O125  1  0.24785893  0.49076397  0.73108237  1
  O2-  O126  1  0.74676715  0.00247475  0.05629294  1
  O2-  O127  1  0.74375716  0.00781309  0.39565669  1
  O2-  O128  1  0.74628959  0.00177749  0.73518073  1
  O2-  O129  1  0.75020540  0.50350303  0.05613112  1
  O2-  O130  1  0.74947827  0.51075907  0.39303794  1
  O2-  O131  1  0.74957340  0.50472868  0.72580370  1
  O2-  O132  1  -0.00253920  0.24739553  0.27678451  1
  O2-  O133  1  0.00340995  0.24326421  0.60476104  1
  O2-  O134  1  0.00363266  0.24473853  0.94067003  1
  O2-  O135  1  0.00213009  0.75080064  0.27378193  1
  O2-  O136  1  -0.00296931  0.75447833  0.60387922  1
  O2-  O137  1  0.00037588  0.75897792  0.93861652  1
  O2-  O138  1  0.49982442  0.25149072  0.27025599  1
  O2-  O139  1  0.49378183  0.24700423  0.60103654  1
  O2-  O140  1  0.49493082  0.24657704  0.93781621  1
  O2-  O141  1  0.50387300  0.75315684  0.26755946  1
  O2-  O142  1  0.50959497  0.75749111  0.60462188  1
  O2-  O143  1  0.50065307  0.75708531  0.94010749  1
  O2-  O144  1  0.07104179  0.17605914  0.09047296  1
  O2-  O145  1  0.06974566  0.17557225  0.42360396  1
  O2-  O146  1  0.07077517  0.17298429  0.75559883  1
  O2-  O147  1  0.06790197  0.67941958  0.09961084  1
  O2-  O148  1  0.06855226  0.67785050  0.42157597  1
  O2-  O149  1  0.07128843  0.68202978  0.76405346  1
  O2-  O150  1  0.57495221  0.17959477  0.09813346  1
  O2-  O151  1  0.57185629  0.18073613  0.43263053  1
  O2-  O152  1  0.56802508  0.18194783  0.76461507  1
  O2-  O153  1  0.57274637  0.67978717  0.09941217  1
  O2-  O154  1  0.57283341  0.68013906  0.43113160  1
  O2-  O155  1  0.57099864  0.67779444  0.76656669  1
  O2-  O156  1  0.17427189  0.43250059  0.23335465  1
  O2-  O157  1  0.17320548  0.43038773  0.58049330  1
  O2-  O158  1  0.17092439  0.43424681  0.90889846  1
  O2-  O159  1  0.17459012  0.92769859  0.24447376  1
  O2-  O160  1  0.17781717  0.93003733  0.57458377  1
  O2-  O161  1  0.18188754  0.92812516  0.89986873  1
  O2-  O162  1  0.68211260  0.43087501  0.23276154  1
  O2-  O163  1  0.68055806  0.43250058  0.57848113  1
  O2-  O164  1  0.68175850  0.43170187  0.90888790  1
  O2-  O165  1  0.68432113  0.92699235  0.23222335  1
  O2-  O166  1  0.67929189  0.92630323  0.57053094  1
  O2-  O167  1  0.68255728  0.92377935  0.91032486  1
  O2-  O168  1  0.42631152  0.32200493  0.09941593  1
  O2-  O169  1  0.42504009  0.31812496  0.43369934  1
  O2-  O170  1  0.43046155  0.31988723  0.76592628  1
  O2-  O171  1  0.42774687  0.81905459  0.08990707  1
  O2-  O172  1  0.42467774  0.81793662  0.42882707  1
  O2-  O173  1  0.42501203  0.81588877  0.76765002  1
  O2-  O174  1  0.93064766  0.32013530  0.10178876  1
  O2-  O175  1  0.93366382  0.32700026  0.42250273  1
  O2-  O176  1  0.93221302  0.32125669  0.76350499  1
  O2-  O177  1  0.92846094  0.82190901  0.08834047  1
  O2-  O178  1  0.93512975  0.82110991  0.42238301  1
  O2-  O179  1  0.93157426  0.82258463  0.75491373  1
  O2-  O180  1  0.31425681  0.07042965  0.23255215  1
  O2-  O181  1  0.31813018  0.07495617  0.57833776  1
  O2-  O182  1  0.31958176  0.07295425  0.91060447  1
  O2-  O183  1  0.31739536  0.57438705  0.24405566  1
  O2-  O184  1  0.31586184  0.56872135  0.56884225  1
  O2-  O185  1  0.32090438  0.57107098  0.91204497  1
  O2-  O186  1  0.82523758  0.07075467  0.23339681  1
  O2-  O187  1  0.82151217  0.06884310  0.57191544  1
  O2-  O188  1  0.82060600  0.07280357  0.91031021  1
  O2-  O189  1  0.83009136  0.56795105  0.24329697  1
  O2-  O190  1  0.83036947  0.56599704  0.57776733  1
  O2-  O191  1  0.82610910  0.56921061  0.90841421  1
  O2-  O192  1  0.04330226  0.08498749  0.27041226  1
  O2-  O193  1  0.04499941  0.08072977  0.60352510  1
  O2-  O194  1  0.04520499  0.08183813  0.93954785  1
  O2-  O195  1  0.03804188  0.58699070  0.26926592  1
  O2-  O196  1  0.03851806  0.58524022  0.59586745  1
  O2-  O197  1  0.03754460  0.58775027  0.92955179  1
  O2-  O198  1  0.54612190  0.08109658  0.26748973  1
  O2-  O199  1  0.54465931  0.07872165  0.60304610  1
  O2-  O200  1  0.54588354  0.07763457  0.93251389  1
  O2-  O201  1  0.54191713  0.58283029  0.26380640  1
  O2-  O202  1  0.53796527  0.58291987  0.60119420  1
  O2-  O203  1  0.54067697  0.58506165  0.93340166  1
  O2-  O204  1  0.15953471  0.20733884  0.26992455  1
  O2-  O205  1  0.16442263  0.19910627  0.60426932  1
  O2-  O206  1  0.16470632  0.19877337  0.93746836  1
  O2-  O207  1  0.16171831  0.70193207  0.26829753  1
  O2-  O208  1  0.16549692  0.71185808  0.59439543  1
  O2-  O209  1  0.16890928  0.71060367  0.93366330  1
  O2-  O210  1  0.67239547  0.21106939  0.26862784  1
  O2-  O211  1  0.66724906  0.21019724  0.60037791  1
  O2-  O212  1  0.66657903  0.21052855  0.92943212  1
  O2-  O213  1  0.67575312  0.70315895  0.26737235  1
  O2-  O214  1  0.67775697  0.69368764  0.60457729  1
  O2-  O215  1  0.67128584  0.70645345  0.93393799  1
  O2-  O216  1  0.08680647  0.46464355  0.06284664  1
  O2-  O217  1  0.08522840  0.46520701  0.40297974  1
  O2-  O218  1  0.08251452  0.46114593  0.73042343  1
  O2-  O219  1  0.08203918  0.95595618  0.06811621  1
  O2-  O220  1  0.08623131  0.95439873  0.39811824  1
  O2-  O221  1  0.08875778  0.95442520  0.72947732  1
  O2-  O222  1  0.58846792  0.45884597  0.06129608  1
  O2-  O223  1  0.58060420  0.46086403  0.40077426  1
  O2-  O224  1  0.58811454  0.45883335  0.73149646  1
  O2-  O225  1  0.58475124  0.94937413  0.05914777  1
  O2-  O226  1  0.57704904  0.94679820  0.39508000  1
  O2-  O227  1  0.57740488  0.95252828  0.73782575  1
  O2-  O228  1  0.19493173  0.33462385  0.05775203  1
  O2-  O229  1  0.19991459  0.33103148  0.40257520  1
  O2-  O230  1  0.18966794  0.33099014  0.73040629  1
  O2-  O231  1  0.20991760  0.83208515  0.06931531  1
  O2-  O232  1  0.19822013  0.82901983  0.39246451  1
  O2-  O233  1  0.20932526  0.83605123  0.72523902  1
  O2-  O234  1  0.71115112  0.33939257  0.06031525  1
  O2-  O235  1  0.71353781  0.33921420  0.40356054  1
  O2-  O236  1  0.71145575  0.34102357  0.73032165  1
  O2-  O237  1  0.71224041  0.83701700  0.06342700  1
  O2-  O238  1  0.71603025  0.83287624  0.39932740  1
  O2-  O239  1  0.71089873  0.82877069  0.73588172  1
  O2-  O240  1  0.44939972  0.42119855  0.27049582  1
  O2-  O241  1  0.45606238  0.41879993  0.60137966  1
  O2-  O242  1  0.45936014  0.41879553  0.93380030  1
  O2-  O243  1  0.45119095  0.92106240  0.26195707  1
  O2-  O244  1  0.44652025  0.92287089  0.60621144  1
  O2-  O245  1  0.44642228  0.91635460  0.94048131  1
  O2-  O246  1  0.96376694  0.41263929  0.26919760  1
  O2-  O247  1  0.96295214  0.41379732  0.59356032  1
  O2-  O248  1  0.96240227  0.41516401  0.93227918  1
  O2-  O249  1  0.96139640  0.91327996  0.26899777  1
  O2-  O250  1  0.95690281  0.91638013  0.60425457  1
  O2-  O251  1  0.95088110  0.91950606  0.93881067  1
  O2-  O252  1  0.32571709  0.29076138  0.26975288  1
  O2-  O253  1  0.32250358  0.29987848  0.60743449  1
  O2-  O254  1  0.32548665  0.30099091  0.93299774  1
  O2-  O255  1  0.32949408  0.79080677  0.26210838  1
  O2-  O256  1  0.33504601  0.78585959  0.59734924  1
  O2-  O257  1  0.33586491  0.79011749  0.93950299  1
  O2-  O258  1  0.83796329  0.29959351  0.27085726  1
  O2-  O259  1  0.83321655  0.29231886  0.59650715  1
  O2-  O260  1  0.83503479  0.29158562  0.93193196  1
  O2-  O261  1  0.84183158  0.79503951  0.26755188  1
  O2-  O262  1  0.83652969  0.79599015  0.60295902  1
  O2-  O263  1  0.83729669  0.79548452  0.93477985  1
  O2-  O264  1  0.41574343  0.04778979  0.06164592  1
  O2-  O265  1  0.41669992  0.04176400  0.39980801  1
  O2-  O266  1  0.41116021  0.04693305  0.73272871  1
  O2-  O267  1  0.41415023  0.54323945  0.06443883  1
  O2-  O268  1  0.41666710  0.55528605  0.39398584  1
  O2-  O269  1  0.41636102  0.53943479  0.73794404  1
  O2-  O270  1  0.91050879  0.04667565  0.06333431  1
  O2-  O271  1  0.91855480  0.03896800  0.40155459  1
  O2-  O272  1  0.91849081  0.04228038  0.73878156  1
  O2-  O273  1  0.91432181  0.54033633  0.06211063  1
  O2-  O274  1  0.91456492  0.53916452  0.39833563  1
  O2-  O275  1  0.91530353  0.53540533  0.73072487  1
  O2-  O276  1  0.29465150  0.16757629  0.06150373  1
  O2-  O277  1  0.28220809  0.16127802  0.40305610  1
  O2-  O278  1  0.28809142  0.16243702  0.73337204  1
  O2-  O279  1  0.28953140  0.65861917  0.06581311  1
  O2-  O280  1  0.28706184  0.66378096  0.39647854  1
  O2-  O281  1  0.28350875  0.66390427  0.73529764  1
  O2-  O282  1  0.79125929  0.16596803  0.06113602  1
  O2-  O283  1  0.80551712  0.17530236  0.39732280  1
  O2-  O284  1  0.79358993  0.17310983  0.73480431  1
  O2-  O285  1  0.80104004  0.66495256  0.05971162  1
  O2-  O286  1  0.81011206  0.66867611  0.39202823  1
  O2-  O287  1  0.80756314  0.66417451  0.72903279  1
