# generated using pymatgen
data_Ca2Al2SiO7
_symmetry_space_group_name_H-M   'P 1'
_cell_length_a   15.47943160
_cell_length_b   15.47476070
_cell_length_c   15.29768859
_cell_angle_alpha   90.01264005
_cell_angle_beta   89.99570760
_cell_angle_gamma   90.00578103
_symmetry_Int_Tables_number   1
_chemical_formula_structural   Ca2Al2SiO7
_chemical_formula_sum   'Ca48 Al48 Si24 O168'
_cell_volume   3664.41585365
_cell_formula_units_Z   24
loop_
 _symmetry_equiv_pos_site_id
 _symmetry_equiv_pos_as_xyz
  1  'x, y, z'
loop_
 _atom_type_symbol
 _atom_type_oxidation_number
  Ca2+  2.0
  Al0+  0.0
  Si0+  0.0
  O2-  -2.0
loop_
 _atom_site_type_symbol
 _atom_site_label
 _atom_site_symmetry_multiplicity
 _atom_site_fract_x
 _atom_site_fract_y
 _atom_site_fract_z
 _atom_site_occupancy
  Ca2+  Ca0  1  0.17878298  0.07415408  0.17452735  1
  Ca2+  Ca1  1  0.17680525  0.08294979  0.49943838  1
  Ca2+  Ca2  1  0.17891775  0.08845973  0.83534724  1
  Ca2+  Ca3  1  0.17294644  0.57466469  0.17827189  1
  Ca2+  Ca4  1  0.17101278  0.58096734  0.49265711  1
  Ca2+  Ca5  1  0.17252113  0.57335487  0.84029304  1
  Ca2+  Ca6  1  0.67171606  0.07656463  0.17992848  1
  Ca2+  Ca7  1  0.66004716  0.07393157  0.50330281  1
  Ca2+  Ca8  1  0.65234817  0.07731489  0.82946297  1
  Ca2+  Ca9  1  0.66665614  0.58422488  0.18004708  1
  Ca2+  Ca10  1  0.65859224  0.57734781  0.49557007  1
  Ca2+  Ca11  1  0.66486090  0.58487513  0.83828115  1
  Ca2+  Ca12  1  0.08117721  0.34212415  0.16836489  1
  Ca2+  Ca13  1  0.07950411  0.32964495  0.49101659  1
  Ca2+  Ca14  1  0.08618154  0.32765368  0.82754900  1
  Ca2+  Ca15  1  0.09256266  0.82723997  0.17164361  1
  Ca2+  Ca16  1  0.08371495  0.82952355  0.48610619  1
  Ca2+  Ca17  1  0.08016980  0.83351035  0.82822284  1
  Ca2+  Ca18  1  0.56964043  0.33895435  0.16697038  1
  Ca2+  Ca19  1  0.57536269  0.32820965  0.49188288  1
  Ca2+  Ca20  1  0.56863037  0.32454711  0.82581328  1
  Ca2+  Ca21  1  0.57789115  0.82704274  0.16657865  1
  Ca2+  Ca22  1  0.57737914  0.83448161  0.49233048  1
  Ca2+  Ca23  1  0.57506782  0.83239536  0.82985904  1
  Ca2+  Ca24  1  0.32701295  0.41724343  0.17776705  1
  Ca2+  Ca25  1  0.34330945  0.42240537  0.49897643  1
  Ca2+  Ca26  1  0.32997990  0.40844952  0.84161036  1
  Ca2+  Ca27  1  0.33890561  0.92309109  0.17595083  1
  Ca2+  Ca28  1  0.34049386  0.92479160  0.50383811  1
  Ca2+  Ca29  1  0.34718611  0.92836498  0.83468776  1
  Ca2+  Ca30  1  0.82390916  0.42103700  0.18175160  1
  Ca2+  Ca31  1  0.83065658  0.41679282  0.49182425  1
  Ca2+  Ca32  1  0.82913240  0.41740619  0.83655276  1
  Ca2+  Ca33  1  0.82591735  0.92313798  0.17879283  1
  Ca2+  Ca34  1  0.82018980  0.91875522  0.49804204  1
  Ca2+  Ca35  1  0.82462492  0.91827815  0.83416422  1
  Ca2+  Ca36  1  0.40263967  0.17441430  0.16773231  1
  Ca2+  Ca37  1  0.41152674  0.17348868  0.49722678  1
  Ca2+  Ca38  1  0.41088690  0.17373389  0.82582634  1
  Ca2+  Ca39  1  0.42092179  0.67463379  0.16679579  1
  Ca2+  Ca40  1  0.41722725  0.67920537  0.48628605  1
  Ca2+  Ca41  1  0.41894380  0.67875288  0.83149825  1
  Ca2+  Ca42  1  0.91340465  0.17079817  0.16901345  1
  Ca2+  Ca43  1  0.92384276  0.16509293  0.48972625  1
  Ca2+  Ca44  1  0.92832583  0.16663361  0.82468811  1
  Ca2+  Ca45  1  0.92208873  0.65868947  0.17212283  1
  Ca2+  Ca46  1  0.92333560  0.66305064  0.48916486  1
  Ca2+  Ca47  1  0.91933897  0.66809762  0.82985598  1
  Al0+  Al48  1  0.00035365  -0.00020140  -0.00104503  1
  Al0+  Al49  1  0.00124281  -0.00071107  0.33708000  1
  Al0+  Al50  1  -0.00136755  -0.00095303  0.66186991  1
  Al0+  Al51  1  -0.00133176  0.49955790  0.00017522  1
  Al0+  Al52  1  -0.00063881  0.49885919  0.33257279  1
  Al0+  Al53  1  0.00040117  0.50091031  0.67004610  1
  Al0+  Al54  1  0.50190465  0.00048963  0.00505625  1
  Al0+  Al55  1  0.50064807  0.00189883  0.33690667  1
  Al0+  Al56  1  0.49969344  -0.00026411  0.67015648  1
  Al0+  Al57  1  0.49962160  0.49971979  -0.00870584  1
  Al0+  Al58  1  0.49958322  0.49935948  0.33387021  1
  Al0+  Al59  1  0.50073792  0.50181162  0.66943692  1
  Al0+  Al60  1  0.24707181  0.24808681  0.00547531  1
  Al0+  Al61  1  0.24668939  0.24722394  0.33536073  1
  Al0+  Al62  1  0.24675660  0.25050642  0.66117063  1
  Al0+  Al63  1  0.24887793  0.74969697  -0.00766014  1
  Al0+  Al64  1  0.24912380  0.74781503  0.32939747  1
  Al0+  Al65  1  0.24924288  0.74831959  0.66584770  1
  Al0+  Al66  1  0.75120830  0.25154704  -0.00225873  1
  Al0+  Al67  1  0.75232434  0.25123510  0.33598295  1
  Al0+  Al68  1  0.75064160  0.25182195  0.66676722  1
  Al0+  Al69  1  0.75264242  0.75064391  -0.00342479  1
  Al0+  Al70  1  0.75273347  0.75112106  0.33768817  1
  Al0+  Al71  1  0.75164502  0.75011452  0.67266067  1
  Al0+  Al72  1  0.32241129  0.56983538  0.34663738  1
  Al0+  Al73  1  0.42676853  0.31772951  0.98848139  1
  Al0+  Al74  1  0.82104216  0.57141643  0.34784488  1
  Al0+  Al75  1  0.82220674  0.07294782  0.34794214  1
  Al0+  Al76  1  0.92967972  0.31951364  0.31889057  1
  Al0+  Al77  1  0.18094014  0.92635431  0.34682062  1
  Al0+  Al78  1  0.42975804  0.81933526  0.65274687  1
  Al0+  Al79  1  0.42741468  0.32235629  0.65098741  1
  Al0+  Al80  1  0.17802069  0.42828809  0.34930949  1
  Al0+  Al81  1  0.32180561  0.07058484  0.35048293  1
  Al0+  Al82  1  0.17933978  0.42915570  0.01380756  1
  Al0+  Al83  1  0.67620401  0.42875557  0.34790483  1
  Al0+  Al84  1  0.32129120  0.06870372  0.01381102  1
  Al0+  Al85  1  0.42846874  0.82350981  0.98425622  1
  Al0+  Al86  1  0.06953246  0.17838019  0.65141620  1
  Al0+  Al87  1  0.42848750  0.82387089  0.31894675  1
  Al0+  Al88  1  0.57117414  0.17880709  0.65205021  1
  Al0+  Al89  1  0.67971890  0.92995435  0.68330936  1
  Al0+  Al90  1  0.07095310  0.67800710  0.31903523  1
  Al0+  Al91  1  0.31760502  0.07055322  0.68119028  1
  Al0+  Al92  1  0.42776119  0.31923375  0.31959484  1
  Al0+  Al93  1  0.57257143  0.67944307  0.32129718  1
  Al0+  Al94  1  0.57356234  0.67942147  0.98439744  1
  Al0+  Al95  1  0.67855766  0.92920224  0.34786259  1
  Si0+  Si96  1  0.67720360  0.42824591  0.68502603  1
  Si0+  Si97  1  0.57482528  0.67899594  0.65045569  1
  Si0+  Si98  1  0.92807111  0.32210569  0.98314055  1
  Si0+  Si99  1  0.17473070  0.92659354  0.01407968  1
  Si0+  Si100  1  0.82369250  0.07334086  0.68415077  1
  Si0+  Si101  1  0.92803522  0.81972078  0.65124479  1
  Si0+  Si102  1  0.32243971  0.57321183  0.68374029  1
  Si0+  Si103  1  0.67918544  0.42972955  0.01245020  1
  Si0+  Si104  1  0.17594522  0.92507904  0.68312106  1
  Si0+  Si105  1  0.06959772  0.67864989  0.65236328  1
  Si0+  Si106  1  0.82040336  0.57183489  0.01451355  1
  Si0+  Si107  1  0.92854819  0.32451162  0.65076782  1
  Si0+  Si108  1  0.32258628  0.57333052  0.01457553  1
  Si0+  Si109  1  0.17932408  0.43198722  0.68163583  1
  Si0+  Si110  1  0.92941602  0.82279423  0.31631561  1
  Si0+  Si111  1  0.68167961  0.92963389  0.01529012  1
  Si0+  Si112  1  0.93034408  0.82218744  0.98374337  1
  Si0+  Si113  1  0.82181272  0.56882922  0.68418746  1
  Si0+  Si114  1  0.06804592  0.17861764  0.98575283  1
  Si0+  Si115  1  0.57667500  0.17964613  0.98569081  1
  Si0+  Si116  1  0.06952087  0.67662989  0.98292480  1
  Si0+  Si117  1  0.57313947  0.17866030  0.31743944  1
  Si0+  Si118  1  0.82412278  0.07150873  0.01292889  1
  Si0+  Si119  1  0.07102423  0.17545881  0.31269592  1
  O2-  O120  1  0.25103076  -0.01284054  0.05570893  1
  O2-  O121  1  0.25471100  -0.00649027  0.39947927  1
  O2-  O122  1  0.24351057  -0.00611632  0.72864129  1
  O2-  O123  1  0.25573405  0.50268552  0.05789971  1
  O2-  O124  1  0.25419086  0.49520865  0.39964383  1
  O2-  O125  1  0.25527132  0.49729707  0.72502334  1
  O2-  O126  1  0.74964693  0.00482740  0.05483948  1
  O2-  O127  1  0.74730273  0.00486073  0.39765866  1
  O2-  O128  1  0.75197823  0.00875300  0.73055912  1
  O2-  O129  1  0.74481026  0.50578275  0.05442345  1
  O2-  O130  1  0.74588130  0.50354005  0.39833866  1
  O2-  O131  1  0.74937808  0.49960728  0.72684565  1
  O2-  O132  1  0.00285402  0.24510584  0.26864590  1
  O2-  O133  1  -0.00952594  0.25001991  0.60800262  1
  O2-  O134  1  -0.00108987  0.25121058  0.94152101  1
  O2-  O135  1  -0.00218403  0.75430665  0.27114611  1
  O2-  O136  1  0.00389994  0.75402187  0.61065072  1
  O2-  O137  1  0.00197152  0.75142154  0.94097341  1
  O2-  O138  1  0.50302839  0.24509046  0.27192434  1
  O2-  O139  1  0.50025047  0.25109764  0.60187901  1
  O2-  O140  1  0.50264341  0.24350983  0.94296566  1
  O2-  O141  1  0.50100653  0.75106777  0.27065856  1
  O2-  O142  1  0.50444269  0.74486219  0.60702178  1
  O2-  O143  1  0.50027044  0.75024623  0.93469720  1
  O2-  O144  1  0.06347337  0.17580101  0.08975685  1
  O2-  O145  1  0.06881446  0.17547724  0.41829368  1
  O2-  O146  1  0.06967648  0.18175128  0.76581718  1
  O2-  O147  1  0.06771528  0.67421929  0.08704860  1
  O2-  O148  1  0.06739036  0.67842530  0.43253297  1
  O2-  O149  1  0.06589955  0.67732288  0.75823975  1
  O2-  O150  1  0.58677248  0.18398699  0.09007221  1
  O2-  O151  1  0.57338144  0.18018286  0.42279449  1
  O2-  O152  1  0.56833507  0.18160109  0.76662412  1
  O2-  O153  1  0.57893821  0.68103394  0.09682645  1
  O2-  O154  1  0.57095959  0.68094516  0.43508233  1
  O2-  O155  1  0.57501689  0.68021134  0.75649650  1
  O2-  O156  1  0.17876823  0.43213495  0.23529857  1
  O2-  O157  1  0.17226473  0.43687915  0.57805227  1
  O2-  O158  1  0.17813729  0.42975122  0.89971142  1
  O2-  O159  1  0.17981574  0.92951174  0.23255898  1
  O2-  O160  1  0.17570876  0.92259489  0.57853904  1
  O2-  O161  1  0.16534228  0.93132432  0.90882498  1
  O2-  O162  1  0.67777006  0.42860035  0.23355093  1
  O2-  O163  1  0.67627970  0.42873535  0.58092095  1
  O2-  O164  1  0.68462803  0.42844460  0.90706672  1
  O2-  O165  1  0.68231733  0.92952981  0.23340923  1
  O2-  O166  1  0.68352410  0.92614281  0.57154977  1
  O2-  O167  1  0.68338504  0.92984550  0.90991235  1
  O2-  O168  1  0.42707759  0.31858175  0.10095910  1
  O2-  O169  1  0.42990585  0.31931583  0.43221045  1
  O2-  O170  1  0.42647695  0.32065353  0.76550721  1
  O2-  O171  1  0.42984713  0.82311273  0.09693630  1
  O2-  O172  1  0.42947215  0.82274899  0.43263144  1
  O2-  O173  1  0.43130674  0.81807358  0.76623106  1
  O2-  O174  1  0.92519142  0.32295428  0.08723493  1
  O2-  O175  1  0.93284634  0.31981459  0.43205965  1
  O2-  O176  1  0.93192349  0.32694745  0.75736192  1
  O2-  O177  1  0.92847562  0.82404108  0.08776536  1
  O2-  O178  1  0.93079025  0.82223470  0.42202680  1
  O2-  O179  1  0.92845744  0.81782072  0.75732493  1
  O2-  O180  1  0.31801815  0.07131220  0.23647023  1
  O2-  O181  1  0.31630449  0.07104125  0.56936887  1
  O2-  O182  1  0.31796104  0.07178534  0.90040595  1
  O2-  O183  1  0.32075518  0.56995609  0.23265717  1
  O2-  O184  1  0.32094178  0.57586644  0.57951074  1
  O2-  O185  1  0.31805007  0.57308175  0.90822352  1
  O2-  O186  1  0.82048454  0.07047472  0.23298236  1
  O2-  O187  1  0.82644158  0.07022453  0.57973749  1
  O2-  O188  1  0.82895086  0.06896203  0.90801701  1
  O2-  O189  1  0.82112533  0.56835402  0.23357269  1
  O2-  O190  1  0.82654179  0.56837477  0.58053251  1
  O2-  O191  1  0.82374793  0.56953175  0.90876825  1
  O2-  O192  1  0.04309206  0.08217427  0.26702451  1
  O2-  O193  1  0.04151289  0.08101532  0.59824984  1
  O2-  O194  1  0.03824257  0.08828115  0.93531839  1
  O2-  O195  1  0.03528925  0.58393611  0.26331902  1
  O2-  O196  1  0.03506358  0.58892900  0.60636699  1
  O2-  O197  1  0.03537047  0.58722304  0.93294722  1
  O2-  O198  1  0.55043337  0.08440761  0.27185072  1
  O2-  O199  1  0.54551248  0.07909009  0.60355664  1
  O2-  O200  1  0.55410205  0.08356491  0.94450150  1
  O2-  O201  1  0.54599447  0.58056143  0.26871152  1
  O2-  O202  1  0.55226382  0.58340131  0.60899864  1
  O2-  O203  1  0.54775348  0.58088069  0.92876488  1
  O2-  O204  1  0.16408310  0.20092429  0.26677820  1
  O2-  O205  1  0.16217405  0.21298050  0.59528313  1
  O2-  O206  1  0.15930883  0.20778459  0.93870809  1
  O2-  O207  1  0.16555348  0.70652122  0.26037846  1
  O2-  O208  1  0.16290659  0.69965452  0.60706521  1
  O2-  O209  1  0.16118962  0.69975926  0.93271047  1
  O2-  O210  1  0.66734450  0.20401239  0.27256505  1
  O2-  O211  1  0.67217465  0.20407125  0.60330044  1
  O2-  O212  1  0.66745578  0.20828867  0.93344091  1
  O2-  O213  1  0.67281540  0.70665346  0.27070462  1
  O2-  O214  1  0.66967297  0.70432018  0.60835287  1
  O2-  O215  1  0.67261226  0.70841686  0.92981163  1
  O2-  O216  1  0.08178542  0.46187765  0.06482735  1
  O2-  O217  1  0.08212273  0.46262331  0.40210578  1
  O2-  O218  1  0.08988178  0.46502159  0.73351101  1
  O2-  O219  1  0.08431734  0.95830155  0.06362929  1
  O2-  O220  1  0.08324212  0.95598844  0.40049265  1
  O2-  O221  1  0.08030373  0.94988376  0.72722110  1
  O2-  O222  1  0.58438433  0.45152910  0.05515617  1
  O2-  O223  1  0.57935553  0.45523236  0.40340785  1
  O2-  O224  1  0.58671279  0.45764740  0.73523170  1
  O2-  O225  1  0.59022122  0.95321264  0.06359394  1
  O2-  O226  1  0.58152467  0.95664251  0.40209254  1
  O2-  O227  1  0.58399705  0.95993682  0.73998600  1
  O2-  O228  1  0.20386168  0.33216420  0.06787894  1
  O2-  O229  1  0.19662752  0.32710231  0.39766452  1
  O2-  O230  1  0.20244508  0.33814701  0.72703439  1
  O2-  O231  1  0.19196334  0.82846916  0.05314960  1
  O2-  O232  1  0.19895294  0.82493939  0.39589623  1
  O2-  O233  1  0.19911789  0.83043766  0.73006686  1
  O2-  O234  1  0.71284459  0.33996911  0.05958363  1
  O2-  O235  1  0.71048076  0.33339283  0.40225043  1
  O2-  O236  1  0.70653232  0.33721149  0.73423454  1
  O2-  O237  1  0.71632164  0.83921109  0.06012872  1
  O2-  O238  1  0.71192989  0.83409662  0.40318008  1
  O2-  O239  1  0.71700012  0.83522420  0.73968086  1
  O2-  O240  1  0.45806310  0.41598721  0.26574795  1
  O2-  O241  1  0.45659392  0.42296580  0.60381569  1
  O2-  O242  1  0.45458096  0.41412016  0.93179673  1
  O2-  O243  1  0.45802997  0.92270442  0.26748540  1
  O2-  O244  1  0.46022165  0.91665216  0.60314889  1
  O2-  O245  1  0.46199012  0.92214470  0.93325195  1
  O2-  O246  1  0.96133315  0.41501366  0.26319151  1
  O2-  O247  1  0.96119802  0.41617836  0.60593333  1
  O2-  O248  1  0.95615145  0.41381297  0.93453057  1
  O2-  O249  1  0.95548779  0.91608874  0.26960064  1
  O2-  O250  1  0.94850563  0.91273537  0.60493017  1
  O2-  O251  1  0.95851357  0.91324428  0.93376350  1
  O2-  O252  1  0.32994478  0.28751458  0.26776002  1
  O2-  O253  1  0.32866089  0.29731152  0.59961674  1
  O2-  O254  1  0.32942991  0.28545072  0.93545683  1
  O2-  O255  1  0.33085656  0.79462788  0.26557046  1
  O2-  O256  1  0.33170269  0.78919354  0.60203698  1
  O2-  O257  1  0.32895033  0.79810095  0.92952335  1
  O2-  O258  1  0.83276055  0.29055726  0.26297582  1
  O2-  O259  1  0.83213777  0.30807247  0.60921333  1
  O2-  O260  1  0.83752750  0.29377874  0.93246503  1
  O2-  O261  1  0.83656333  0.79687395  0.26962650  1
  O2-  O262  1  0.83847434  0.78529044  0.60553850  1
  O2-  O263  1  0.84086194  0.79204500  0.93252596  1
  O2-  O264  1  0.41981816  0.04650132  0.06775813  1
  O2-  O265  1  0.42170433  0.05031965  0.40177631  1
  O2-  O266  1  0.41436052  0.04097470  0.73604531  1
  O2-  O267  1  0.41845107  0.55080514  0.05517847  1
  O2-  O268  1  0.41973063  0.54451943  0.40193617  1
  O2-  O269  1  0.41581281  0.55118462  0.73117166  1
  O2-  O270  1  0.91361135  0.04019935  0.06224295  1
  O2-  O271  1  0.91862399  0.04103796  0.40125590  1
  O2-  O272  1  0.91602349  0.04165799  0.73196716  1
  O2-  O273  1  0.91056676  0.53969639  0.06153583  1
  O2-  O274  1  0.91657222  0.53652299  0.40179773  1
  O2-  O275  1  0.91225746  0.53881692  0.73578591  1
  O2-  O276  1  0.28215498  0.16131818  0.06936879  1
  O2-  O277  1  0.28611569  0.16606230  0.40367240  1
  O2-  O278  1  0.28240148  0.16807539  0.73332958  1
  O2-  O279  1  0.29411296  0.66721895  0.05766665  1
  O2-  O280  1  0.28837977  0.66627951  0.39936204  1
  O2-  O281  1  0.28763480  0.66191063  0.73413844  1
  O2-  O282  1  0.80006024  0.16597297  0.05661957  1
  O2-  O283  1  0.80243052  0.17257658  0.39972810  1
  O2-  O284  1  0.80539045  0.16991169  0.72851103  1
  O2-  O285  1  0.80024112  0.66634021  0.05878840  1
  O2-  O286  1  0.80304862  0.67130402  0.40064936  1
  O2-  O287  1  0.79594664  0.66066637  0.73382572  1
