# generated using pymatgen
data_Ca2Al2SiO7
_symmetry_space_group_name_H-M   'P 1'
_cell_length_a   15.47453746
_cell_length_b   15.47174708
_cell_length_c   15.29589885
_cell_angle_alpha   90.01063181
_cell_angle_beta   90.00509121
_cell_angle_gamma   90.00485812
_symmetry_Int_Tables_number   1
_chemical_formula_structural   Ca2Al2SiO7
_chemical_formula_sum   'Ca48 Al48 Si24 O168'
_cell_volume   3662.11540596
_cell_formula_units_Z   24
loop_
 _symmetry_equiv_pos_site_id
 _symmetry_equiv_pos_as_xyz
  1  'x, y, z'
loop_
 _atom_type_symbol
 _atom_type_oxidation_number
  Ca2+  2.0
  Al0+  0.0
  Si0+  0.0
  O2-  -2.0
loop_
 _atom_site_type_symbol
 _atom_site_label
 _atom_site_symmetry_multiplicity
 _atom_site_fract_x
 _atom_site_fract_y
 _atom_site_fract_z
 _atom_site_occupancy
  Ca2+  Ca0  1  0.17461834  0.07405376  0.17037585  1
  Ca2+  Ca1  1  0.17545908  0.08539365  0.50039187  1
  Ca2+  Ca2  1  0.17078085  0.07354258  0.84324611  1
  Ca2+  Ca3  1  0.16586183  0.59051272  0.17076281  1
  Ca2+  Ca4  1  0.16738739  0.58684008  0.49876109  1
  Ca2+  Ca5  1  0.16974624  0.58718332  0.84265595  1
  Ca2+  Ca6  1  0.66612269  0.07508983  0.17280429  1
  Ca2+  Ca7  1  0.66621116  0.08032446  0.49405055  1
  Ca2+  Ca8  1  0.67260135  0.07759335  0.84687559  1
  Ca2+  Ca9  1  0.67319134  0.57893430  0.17552421  1
  Ca2+  Ca10  1  0.65885147  0.57782106  0.50212357  1
  Ca2+  Ca11  1  0.66429696  0.57520094  0.83895701  1
  Ca2+  Ca12  1  0.07924333  0.32945908  0.16359864  1
  Ca2+  Ca13  1  0.07920347  0.33168142  0.49384037  1
  Ca2+  Ca14  1  0.07848669  0.33124175  0.83278147  1
  Ca2+  Ca15  1  0.07242865  0.82654354  0.16009254  1
  Ca2+  Ca16  1  0.06978187  0.82851939  0.49097685  1
  Ca2+  Ca17  1  0.07288783  0.83247059  0.83562474  1
  Ca2+  Ca18  1  0.58814218  0.32463448  0.16149194  1
  Ca2+  Ca19  1  0.57773576  0.33439933  0.48940845  1
  Ca2+  Ca20  1  0.58212569  0.33485161  0.83150581  1
  Ca2+  Ca21  1  0.58763947  0.83401528  0.16205118  1
  Ca2+  Ca22  1  0.59052615  0.82214307  0.49224161  1
  Ca2+  Ca23  1  0.58552600  0.83077323  0.83350342  1
  Ca2+  Ca24  1  0.33448775  0.40799073  0.16930685  1
  Ca2+  Ca25  1  0.33850407  0.41363776  0.50332773  1
  Ca2+  Ca26  1  0.33779902  0.41357923  0.83649005  1
  Ca2+  Ca27  1  0.32882762  0.91305210  0.17208188  1
  Ca2+  Ca28  1  0.33754558  0.92554783  0.49937875  1
  Ca2+  Ca29  1  0.32698908  0.91205059  0.84727947  1
  Ca2+  Ca30  1  0.82153254  0.42660220  0.17011574  1
  Ca2+  Ca31  1  0.81702040  0.42327388  0.49987461  1
  Ca2+  Ca32  1  0.81872877  0.42446123  0.84431718  1
  Ca2+  Ca33  1  0.82967992  0.92144123  0.16977435  1
  Ca2+  Ca34  1  0.83214731  0.91177321  0.49493583  1
  Ca2+  Ca35  1  0.83187640  0.91823592  0.84323238  1
  Ca2+  Ca36  1  0.42853096  0.17126701  0.16375323  1
  Ca2+  Ca37  1  0.42279194  0.17643551  0.48749946  1
  Ca2+  Ca38  1  0.42712804  0.17522033  0.83392286  1
  Ca2+  Ca39  1  0.42671137  0.67162236  0.16441341  1
  Ca2+  Ca40  1  0.43019884  0.66579568  0.49604218  1
  Ca2+  Ca41  1  0.42323752  0.67408096  0.83332929  1
  Ca2+  Ca42  1  0.90791703  0.16250352  0.16226246  1
  Ca2+  Ca43  1  0.91490858  0.16607917  0.49231021  1
  Ca2+  Ca44  1  0.91468898  0.16240775  0.83339661  1
  Ca2+  Ca45  1  0.91667581  0.67124036  0.16027869  1
  Ca2+  Ca46  1  0.91640824  0.67520102  0.48759140  1
  Ca2+  Ca47  1  0.90648501  0.67861943  0.83473223  1
  Al0+  Al48  1  0.00329397  -0.00238284  0.00422717  1
  Al0+  Al49  1  0.00121972  -0.00102156  0.33396222  1
  Al0+  Al50  1  0.00237044  -0.00079421  0.66196630  1
  Al0+  Al51  1  0.00289418  0.49790018  -0.00065789  1
  Al0+  Al52  1  0.00094451  0.49784272  0.33496265  1
  Al0+  Al53  1  0.00049639  0.49986587  0.66748174  1
  Al0+  Al54  1  0.49982857  0.00261158  -0.00645309  1
  Al0+  Al55  1  0.49844951  0.00191941  0.34063832  1
  Al0+  Al56  1  0.50066115  0.00250322  0.66887171  1
  Al0+  Al57  1  0.49674156  0.49944004  0.00107422  1
  Al0+  Al58  1  0.49560659  0.50272134  0.32841630  1
  Al0+  Al59  1  0.49797998  0.50065652  0.66557582  1
  Al0+  Al60  1  0.25002998  0.24994380  -0.00443771  1
  Al0+  Al61  1  0.24871616  0.24957494  0.33497171  1
  Al0+  Al62  1  0.25041731  0.25021354  0.66627169  1
  Al0+  Al63  1  0.25025818  0.74836196  -0.00136800  1
  Al0+  Al64  1  0.24797854  0.74857303  0.33537343  1
  Al0+  Al65  1  0.24926300  0.75091757  0.66715618  1
  Al0+  Al66  1  0.75134242  0.25098597  -0.00033986  1
  Al0+  Al67  1  0.74941479  0.25045066  0.33772373  1
  Al0+  Al68  1  0.75057002  0.24982910  0.67024980  1
  Al0+  Al69  1  0.75136796  0.75019511  0.00083955  1
  Al0+  Al70  1  0.75122657  0.75133780  0.33077912  1
  Al0+  Al71  1  0.75023811  0.75117416  0.65871751  1
  Al0+  Al72  1  0.42699064  0.32197668  0.31764396  1
  Al0+  Al73  1  0.92815083  0.82231402  0.31441194  1
  Al0+  Al74  1  0.82255096  0.57141643  0.34817109  1
  Al0+  Al75  1  0.82234051  0.07114310  0.34934169  1
  Al0+  Al76  1  0.67746998  0.43024602  0.68087015  1
  Al0+  Al77  1  0.57223788  0.17931852  0.31825086  1
  Al0+  Al78  1  0.82242449  0.57097044  0.01338368  1
  Al0+  Al79  1  0.07110326  0.67675729  0.98376852  1
  Al0+  Al80  1  0.42829613  0.32118765  0.98319746  1
  Al0+  Al81  1  0.42995403  0.82166167  0.98989940  1
  Al0+  Al82  1  0.93062123  0.82098003  0.65071796  1
  Al0+  Al83  1  0.67632774  0.92915843  0.01280513  1
  Al0+  Al84  1  0.92876857  0.82107960  0.98398063  1
  Al0+  Al85  1  0.43084149  0.31874093  0.65187491  1
  Al0+  Al86  1  0.07047265  0.67691551  0.31842698  1
  Al0+  Al87  1  0.82292311  0.07043514  0.01265539  1
  Al0+  Al88  1  0.67573450  0.43142553  0.34795787  1
  Al0+  Al89  1  0.31978107  0.07149092  0.34677838  1
  Al0+  Al90  1  0.18151812  0.92622762  0.01471448  1
  Al0+  Al91  1  0.57484902  0.17970732  0.98359368  1
  Al0+  Al92  1  0.56810887  0.68177617  0.65464096  1
  Al0+  Al93  1  0.57109409  0.68008422  0.31904288  1
  Al0+  Al94  1  0.67761479  0.92833951  0.34918479  1
  Al0+  Al95  1  0.67525368  0.42971737  0.01564521  1
  Si0+  Si96  1  0.07165860  0.17826058  0.98558174  1
  Si0+  Si97  1  0.42507971  0.82487435  0.65071326  1
  Si0+  Si98  1  0.31950392  0.57067234  0.01603941  1
  Si0+  Si99  1  0.31916197  0.57304133  0.34965041  1
  Si0+  Si100  1  0.82322991  0.06963601  0.68067481  1
  Si0+  Si101  1  0.93032139  0.32063889  0.98507557  1
  Si0+  Si102  1  0.17955466  0.42750722  0.34911590  1
  Si0+  Si103  1  0.17965377  0.42650011  0.01515932  1
  Si0+  Si104  1  0.17924651  0.92666409  0.35273707  1
  Si0+  Si105  1  0.31908885  0.57098745  0.68243422  1
  Si0+  Si106  1  0.18054369  0.93088219  0.68210069  1
  Si0+  Si107  1  0.42762922  0.82274198  0.32095263  1
  Si0+  Si108  1  0.82240079  0.57337373  0.68196532  1
  Si0+  Si109  1  0.07413214  0.67663771  0.64976026  1
  Si0+  Si110  1  0.32124250  0.07295406  0.68428263  1
  Si0+  Si111  1  0.17768324  0.42761157  0.68294042  1
  Si0+  Si112  1  0.92928473  0.31925806  0.31924398  1
  Si0+  Si113  1  0.67955500  0.92816895  0.68118406  1
  Si0+  Si114  1  0.57256710  0.67816697  0.98500690  1
  Si0+  Si115  1  0.57498649  0.17693920  0.64836260  1
  Si0+  Si116  1  0.07007922  0.18029179  0.65177336  1
  Si0+  Si117  1  0.07168953  0.17871586  0.31885083  1
  Si0+  Si118  1  0.92816001  0.32188623  0.65205348  1
  Si0+  Si119  1  0.32115299  0.07318935  0.01503633  1
  O2-  O120  1  0.25982353  -0.00180937  0.05959095  1
  O2-  O121  1  0.24759903  -0.00439450  0.39737314  1
  O2-  O122  1  0.25573616  -0.00328201  0.72628680  1
  O2-  O123  1  0.25000825  0.49734022  0.05706336  1
  O2-  O124  1  0.25005775  0.49899627  0.39097526  1
  O2-  O125  1  0.24595200  0.50129172  0.72452200  1
  O2-  O126  1  0.74803820  0.00189327  0.06167097  1
  O2-  O127  1  0.75125048  -0.00081058  0.40039977  1
  O2-  O128  1  0.75007084  0.00079796  0.72184614  1
  O2-  O129  1  0.74509827  0.50480059  0.06302300  1
  O2-  O130  1  0.74466056  0.50620526  0.39941051  1
  O2-  O131  1  0.75417778  0.50414900  0.72591313  1
  O2-  O132  1  -0.00447773  0.24333114  0.27651615  1
  O2-  O133  1  -0.00107599  0.25050953  0.60887040  1
  O2-  O134  1  -0.00311627  0.24475155  0.94239726  1
  O2-  O135  1  -0.00317744  0.74525786  0.26795439  1
  O2-  O136  1  0.00236295  0.74160145  0.60678122  1
  O2-  O137  1  -0.00285192  0.74544450  0.93267026  1
  O2-  O138  1  0.50328055  0.25487303  0.26908803  1
  O2-  O139  1  0.50663659  0.24629788  0.60513014  1
  O2-  O140  1  0.50506347  0.25466067  0.93359767  1
  O2-  O141  1  0.50029539  0.76001993  0.27554364  1
  O2-  O142  1  0.49601067  0.75933662  0.60705957  1
  O2-  O143  1  0.50794565  0.75150784  0.94127351  1
  O2-  O144  1  0.07605978  0.18244741  0.09025701  1
  O2-  O145  1  0.07399053  0.18321196  0.42460767  1
  O2-  O146  1  0.07001911  0.17989198  0.75691379  1
  O2-  O147  1  0.07218776  0.67735588  0.09652170  1
  O2-  O148  1  0.07271979  0.67920402  0.43274362  1
  O2-  O149  1  0.07873524  0.67730635  0.75460636  1
  O2-  O150  1  0.57290402  0.17817114  0.09650713  1
  O2-  O151  1  0.56934554  0.18032383  0.43255418  1
  O2-  O152  1  0.57392521  0.17529446  0.75361272  1
  O2-  O153  1  0.56904686  0.67653546  0.09012053  1
  O2-  O154  1  0.56567639  0.67810498  0.43255731  1
  O2-  O155  1  0.56572158  0.68295197  0.76781113  1
  O2-  O156  1  0.17925708  0.42346991  0.24434381  1
  O2-  O157  1  0.17652180  0.42521954  0.57806770  1
  O2-  O158  1  0.17946678  0.42465545  0.90974273  1
  O2-  O159  1  0.18157961  0.92640936  0.24752810  1
  O2-  O160  1  0.18107942  0.93401930  0.57730439  1
  O2-  O161  1  0.18116011  0.93025983  0.90060819  1
  O2-  O162  1  0.67929874  0.43028818  0.23509962  1
  O2-  O163  1  0.67734328  0.43023147  0.56822913  1
  O2-  O164  1  0.67717515  0.43174540  0.90117294  1
  O2-  O165  1  0.67405344  0.93108454  0.23646688  1
  O2-  O166  1  0.67838248  0.92804082  0.57673111  1
  O2-  O167  1  0.67874411  0.92957726  0.89802079  1
  O2-  O168  1  0.42022152  0.31559131  0.09532980  1
  O2-  O169  1  0.42518025  0.31912615  0.43175071  1
  O2-  O170  1  0.42843141  0.31684902  0.76439956  1
  O2-  O171  1  0.42627332  0.81717135  0.10256869  1
  O2-  O172  1  0.42539043  0.81852356  0.42701689  1
  O2-  O173  1  0.42188202  0.82276077  0.75613563  1
  O2-  O174  1  0.93471409  0.32169088  0.08993228  1
  O2-  O175  1  0.93438877  0.31939914  0.42494368  1
  O2-  O176  1  0.93111652  0.32080668  0.75710667  1
  O2-  O177  1  0.93181817  0.82391193  0.09613618  1
  O2-  O178  1  0.93356191  0.82239258  0.42889102  1
  O2-  O179  1  0.93202551  0.82431551  0.76334256  1
  O2-  O180  1  0.31535553  0.07059668  0.23420111  1
  O2-  O181  1  0.31792815  0.07401241  0.57936775  1
  O2-  O182  1  0.31516132  0.07396758  0.90877000  1
  O2-  O183  1  0.31697217  0.57753450  0.24511940  1
  O2-  O184  1  0.31738128  0.57097396  0.57743610  1
  O2-  O185  1  0.31844741  0.57143851  0.91039209  1
  O2-  O186  1  0.82350263  0.07082342  0.23671140  1
  O2-  O187  1  0.82527207  0.07112740  0.57630989  1
  O2-  O188  1  0.82432210  0.06806418  0.89791781  1
  O2-  O189  1  0.82502592  0.56547232  0.23520056  1
  O2-  O190  1  0.82402935  0.57074288  0.57684690  1
  O2-  O191  1  0.82140644  0.56788770  0.89884662  1
  O2-  O192  1  0.05291452  0.08454383  0.27421734  1
  O2-  O193  1  0.04446488  0.08931467  0.60231121  1
  O2-  O194  1  0.04755357  0.08580581  0.93806294  1
  O2-  O195  1  0.05102176  0.57467973  0.26988517  1
  O2-  O196  1  0.05389427  0.58021740  0.60625900  1
  O2-  O197  1  0.05121024  0.57504478  0.93249637  1
  O2-  O198  1  0.53756108  0.08105264  0.26933616  1
  O2-  O199  1  0.54771380  0.08292982  0.60344042  1
  O2-  O200  1  0.54292730  0.08381157  0.92604566  1
  O2-  O201  1  0.53301870  0.58776719  0.26264383  1
  O2-  O202  1  0.53151357  0.58750660  0.60004573  1
  O2-  O203  1  0.53901132  0.58710668  0.93804005  1
  O2-  O204  1  0.15947200  0.21404324  0.26970226  1
  O2-  O205  1  0.16109470  0.21055746  0.60409075  1
  O2-  O206  1  0.15957565  0.21126455  0.93312921  1
  O2-  O207  1  0.16918955  0.70768778  0.26727072  1
  O2-  O208  1  0.16698650  0.70525049  0.60254579  1
  O2-  O209  1  0.16859908  0.70874548  0.93015252  1
  O2-  O210  1  0.67245458  0.20454374  0.26854122  1
  O2-  O211  1  0.67012592  0.20065861  0.60521473  1
  O2-  O212  1  0.67388125  0.20623760  0.92947708  1
  O2-  O213  1  0.66848975  0.70498057  0.26667553  1
  O2-  O214  1  0.66422254  0.70882263  0.59872084  1
  O2-  O215  1  0.66659682  0.69874908  0.93848912  1
  O2-  O216  1  0.08838038  0.45146036  0.06410120  1
  O2-  O217  1  0.08880190  0.45400753  0.39968171  1
  O2-  O218  1  0.08480106  0.45161270  0.73093483  1
  O2-  O219  1  0.08888487  0.96215392  0.07064504  1
  O2-  O220  1  0.08699843  0.95526405  0.39919934  1
  O2-  O221  1  0.09047410  0.96503919  0.72920166  1
  O2-  O222  1  0.57475032  0.45151026  0.06563334  1
  O2-  O223  1  0.57502036  0.45943299  0.39748260  1
  O2-  O224  1  0.58113179  0.46356274  0.73396546  1
  O2-  O225  1  0.57616445  0.95576632  0.06267143  1
  O2-  O226  1  0.57976771  0.95576599  0.40571676  1
  O2-  O227  1  0.58614991  0.95366370  0.72806081  1
  O2-  O228  1  0.20772701  0.33456625  0.06259757  1
  O2-  O229  1  0.20707534  0.33705393  0.40010235  1
  O2-  O230  1  0.20718215  0.33624835  0.73113084  1
  O2-  O231  1  0.21210820  0.83012465  0.06804556  1
  O2-  O232  1  0.20563591  0.83390607  0.40067796  1
  O2-  O233  1  0.20354605  0.83708037  0.72805532  1
  O2-  O234  1  0.70981741  0.33268463  0.06548855  1
  O2-  O235  1  0.70832279  0.33478129  0.40250824  1
  O2-  O236  1  0.70908483  0.33304908  0.73417064  1
  O2-  O237  1  0.70184714  0.82994126  0.06337758  1
  O2-  O238  1  0.70723081  0.83000538  0.40205069  1
  O2-  O239  1  0.70855945  0.83622588  0.72724770  1
  O2-  O240  1  0.44312949  0.42337039  0.26816587  1
  O2-  O241  1  0.45601736  0.41747355  0.60033982  1
  O2-  O242  1  0.44968286  0.42262212  0.93230208  1
  O2-  O243  1  0.44462588  0.91904183  0.27938040  1
  O2-  O244  1  0.44797354  0.92078848  0.60834847  1
  O2-  O245  1  0.45114427  0.91880979  0.93227087  1
  O2-  O246  1  0.96498814  0.40742752  0.27112220  1
  O2-  O247  1  0.95812881  0.41294116  0.60444757  1
  O2-  O248  1  0.96593634  0.40798094  0.93412027  1
  O2-  O249  1  0.96270773  0.92004962  0.26438961  1
  O2-  O250  1  0.96741319  0.91551158  0.59581853  1
  O2-  O251  1  0.96489232  0.91856474  0.93142001  1
  O2-  O252  1  0.32864042  0.28877449  0.26719475  1
  O2-  O253  1  0.33229681  0.28864326  0.59982487  1
  O2-  O254  1  0.33061301  0.28889162  0.92754063  1
  O2-  O255  1  0.33546703  0.79141401  0.27554612  1
  O2-  O256  1  0.33217033  0.79770506  0.60372548  1
  O2-  O257  1  0.33659732  0.78416467  0.93229863  1
  O2-  O258  1  0.83683950  0.29575941  0.27345349  1
  O2-  O259  1  0.83676547  0.29320332  0.60515955  1
  O2-  O260  1  0.83873065  0.29764677  0.93569808  1
  O2-  O261  1  0.82846623  0.80098729  0.26418519  1
  O2-  O262  1  0.83396234  0.79406233  0.59606434  1
  O2-  O263  1  0.82957006  0.79436152  0.92949569  1
  O2-  O264  1  0.41734872  0.05567322  0.05542512  1
  O2-  O265  1  0.41370047  0.04337450  0.40704996  1
  O2-  O266  1  0.41549360  0.05142220  0.72960051  1
  O2-  O267  1  0.41078020  0.54520925  0.06436583  1
  O2-  O268  1  0.41039712  0.54627159  0.39805471  1
  O2-  O269  1  0.40892764  0.54117905  0.73126191  1
  O2-  O270  1  0.92153730  0.04455613  0.06553700  1
  O2-  O271  1  0.92327137  0.04581138  0.40162681  1
  O2-  O272  1  0.91616059  0.04118648  0.72650397  1
  O2-  O273  1  0.91992981  0.53616585  0.06398231  1
  O2-  O274  1  0.91924370  0.53629540  0.40289581  1
  O2-  O275  1  0.91711303  0.54895430  0.72724025  1
  O2-  O276  1  0.28502570  0.16316098  0.06093243  1
  O2-  O277  1  0.28202018  0.16536435  0.40387107  1
  O2-  O278  1  0.28598438  0.16218950  0.73191054  1
  O2-  O279  1  0.28898848  0.66030270  0.06463134  1
  O2-  O280  1  0.28832039  0.66203089  0.40211942  1
  O2-  O281  1  0.29293207  0.66400709  0.72977894  1
  O2-  O282  1  0.80234873  0.17187615  0.06110373  1
  O2-  O283  1  0.79594301  0.16990205  0.40409535  1
  O2-  O284  1  0.79961320  0.16261697  0.72850771  1
  O2-  O285  1  0.80124783  0.67104661  0.06347276  1
  O2-  O286  1  0.80143585  0.67262169  0.39634106  1
  O2-  O287  1  0.79493123  0.66777499  0.72513046  1
