# generated using pymatgen
data_Ca2Al2SiO7
_symmetry_space_group_name_H-M   'P 1'
_cell_length_a   15.45951001
_cell_length_b   15.46161509
_cell_length_c   15.28513364
_cell_angle_alpha   90.00773827
_cell_angle_beta   89.99803610
_cell_angle_gamma   90.00024934
_symmetry_Int_Tables_number   1
_chemical_formula_structural   Ca2Al2SiO7
_chemical_formula_sum   'Ca48 Al48 Si24 O168'
_cell_volume   3653.59007025
_cell_formula_units_Z   24
loop_
 _symmetry_equiv_pos_site_id
 _symmetry_equiv_pos_as_xyz
  1  'x, y, z'
loop_
 _atom_type_symbol
 _atom_type_oxidation_number
  Ca2+  2.0
  Al0+  0.0
  Si0+  0.0
  O2-  -2.0
loop_
 _atom_site_type_symbol
 _atom_site_label
 _atom_site_symmetry_multiplicity
 _atom_site_fract_x
 _atom_site_fract_y
 _atom_site_fract_z
 _atom_site_occupancy
  Ca2+  Ca0  1  0.15844311  0.08000008  0.16617781  1
  Ca2+  Ca1  1  0.16486990  0.08064290  0.50582324  1
  Ca2+  Ca2  1  0.15797659  0.07353330  0.83635312  1
  Ca2+  Ca3  1  0.17591166  0.58344819  0.17330150  1
  Ca2+  Ca4  1  0.17145866  0.58044688  0.50023572  1
  Ca2+  Ca5  1  0.17491745  0.58899949  0.84368382  1
  Ca2+  Ca6  1  0.67359396  0.07295324  0.16899608  1
  Ca2+  Ca7  1  0.66562047  0.06912076  0.50490453  1
  Ca2+  Ca8  1  0.67348378  0.06923764  0.84407864  1
  Ca2+  Ca9  1  0.67273280  0.58014424  0.16947757  1
  Ca2+  Ca10  1  0.67657465  0.59210998  0.50346873  1
  Ca2+  Ca11  1  0.67135368  0.58706362  0.83469232  1
  Ca2+  Ca12  1  0.09239860  0.32320312  0.16420947  1
  Ca2+  Ca13  1  0.09042809  0.32256231  0.49226478  1
  Ca2+  Ca14  1  0.08462110  0.31892785  0.82944077  1
  Ca2+  Ca15  1  0.07223396  0.83019950  0.15551145  1
  Ca2+  Ca16  1  0.06996809  0.83826955  0.49685226  1
  Ca2+  Ca17  1  0.07526721  0.83612114  0.83247571  1
  Ca2+  Ca18  1  0.57376346  0.34283125  0.15898396  1
  Ca2+  Ca19  1  0.57719675  0.33009293  0.49268492  1
  Ca2+  Ca20  1  0.58095892  0.33853125  0.83492714  1
  Ca2+  Ca21  1  0.58067119  0.83810888  0.16646101  1
  Ca2+  Ca22  1  0.57950459  0.83332325  0.49596853  1
  Ca2+  Ca23  1  0.58237255  0.83165209  0.82254174  1
  Ca2+  Ca24  1  0.33383752  0.42550201  0.17377486  1
  Ca2+  Ca25  1  0.33225900  0.41751397  0.49544748  1
  Ca2+  Ca26  1  0.33444507  0.42458801  0.84333693  1
  Ca2+  Ca27  1  0.32403211  0.91316252  0.17171416  1
  Ca2+  Ca28  1  0.32812726  0.91055558  0.50767251  1
  Ca2+  Ca29  1  0.32020301  0.90876727  0.83625585  1
  Ca2+  Ca30  1  0.82920558  0.42131994  0.17257844  1
  Ca2+  Ca31  1  0.83883766  0.43247238  0.50446555  1
  Ca2+  Ca32  1  0.82708146  0.42378243  0.83876855  1
  Ca2+  Ca33  1  0.82927901  0.91166883  0.16732425  1
  Ca2+  Ca34  1  0.82374622  0.90506951  0.50385163  1
  Ca2+  Ca35  1  0.82744861  0.91290303  0.83988276  1
  Ca2+  Ca36  1  0.41715641  0.18106436  0.16225077  1
  Ca2+  Ca37  1  0.41749664  0.17124884  0.49151218  1
  Ca2+  Ca38  1  0.41485284  0.17412570  0.83338836  1
  Ca2+  Ca39  1  0.41045403  0.66786002  0.16352549  1
  Ca2+  Ca40  1  0.42034783  0.67676732  0.49648877  1
  Ca2+  Ca41  1  0.42376639  0.67103643  0.82718378  1
  Ca2+  Ca42  1  0.92577618  0.16224695  0.15917603  1
  Ca2+  Ca43  1  0.93044164  0.16352467  0.49557576  1
  Ca2+  Ca44  1  0.92418929  0.15660266  0.83348652  1
  Ca2+  Ca45  1  0.91856025  0.67416449  0.16196570  1
  Ca2+  Ca46  1  0.90885494  0.67444353  0.49569923  1
  Ca2+  Ca47  1  0.91564324  0.67743480  0.82846509  1
  Al0+  Al48  1  -0.00061692  -0.00061362  -0.00020266  1
  Al0+  Al49  1  -0.00101179  -0.00050118  0.32518654  1
  Al0+  Al50  1  0.00061071  -0.00029186  0.66051433  1
  Al0+  Al51  1  0.00227226  0.49827828  -0.00336299  1
  Al0+  Al52  1  0.00091585  0.49804456  0.34193631  1
  Al0+  Al53  1  0.00066458  0.49962026  0.67393851  1
  Al0+  Al54  1  0.49866122  0.00246826  0.00295402  1
  Al0+  Al55  1  0.49981561  -0.00050458  0.33186567  1
  Al0+  Al56  1  0.49819293  0.00300437  0.66865349  1
  Al0+  Al57  1  0.49929412  0.50238636  0.00225772  1
  Al0+  Al58  1  0.50071690  0.50117297  0.33545625  1
  Al0+  Al59  1  0.50039391  0.50018515  0.66064088  1
  Al0+  Al60  1  0.25083646  0.25045140  -0.01106077  1
  Al0+  Al61  1  0.25215971  0.24893031  0.32787476  1
  Al0+  Al62  1  0.25008257  0.25002714  0.66372158  1
  Al0+  Al63  1  0.24962083  0.75098440  0.00569453  1
  Al0+  Al64  1  0.25024880  0.74985089  0.33629600  1
  Al0+  Al65  1  0.24943314  0.74895211  0.66822440  1
  Al0+  Al66  1  0.74871319  0.24946340  0.00811473  1
  Al0+  Al67  1  0.75266491  0.24739741  0.33526194  1
  Al0+  Al68  1  0.75020724  0.25175763  0.66479775  1
  Al0+  Al69  1  0.74825160  0.74922148  0.00099806  1
  Al0+  Al70  1  0.74821450  0.75012788  0.33470109  1
  Al0+  Al71  1  0.75017825  0.74882823  0.66893228  1
  Al0+  Al72  1  0.93065282  0.81893014  0.65252876  1
  Al0+  Al73  1  0.82034730  0.56976757  0.34593799  1
  Al0+  Al74  1  0.57136624  0.67925719  0.65092066  1
  Al0+  Al75  1  0.67921142  0.93113572  0.34887021  1
  Al0+  Al76  1  0.43282912  0.32102138  0.31893247  1
  Al0+  Al77  1  0.06899166  0.18050333  0.65134776  1
  Al0+  Al78  1  0.31954461  0.57086328  0.01284582  1
  Al0+  Al79  1  0.07362600  0.67758586  0.98660985  1
  Al0+  Al80  1  0.67835175  0.93025627  0.67997984  1
  Al0+  Al81  1  0.18024955  0.93108441  0.01446724  1
  Al0+  Al82  1  0.92780970  0.81861588  0.98373775  1
  Al0+  Al83  1  0.06915314  0.18019221  0.98416525  1
  Al0+  Al84  1  0.82177268  0.06971908  0.01522936  1
  Al0+  Al85  1  0.42763934  0.82124184  0.31840146  1
  Al0+  Al86  1  0.42726944  0.82295791  0.65381600  1
  Al0+  Al87  1  0.67942018  0.43064094  0.01245309  1
  Al0+  Al88  1  0.07073192  0.18002900  0.31735524  1
  Al0+  Al89  1  0.82085443  0.57113683  0.68272777  1
  Al0+  Al90  1  0.92776944  0.81828494  0.31853942  1
  Al0+  Al91  1  0.18126182  0.42665179  0.34789739  1
  Al0+  Al92  1  0.67613022  0.92576245  0.01637279  1
  Al0+  Al93  1  0.17872723  0.92933298  0.67914107  1
  Al0+  Al94  1  0.43137568  0.32274895  0.98502392  1
  Al0+  Al95  1  0.32301127  0.57359431  0.35235997  1
  Si0+  Si96  1  0.42810640  0.82382758  0.98703599  1
  Si0+  Si97  1  0.57243194  0.17928651  0.65262934  1
  Si0+  Si98  1  0.82496987  0.07147147  0.35197724  1
  Si0+  Si99  1  0.32188194  0.07544288  0.01675017  1
  Si0+  Si100  1  0.82163760  0.07382257  0.68055532  1
  Si0+  Si101  1  0.31991621  0.06966667  0.34614799  1
  Si0+  Si102  1  0.32174905  0.07536929  0.68377038  1
  Si0+  Si103  1  0.57270253  0.17800375  0.98323249  1
  Si0+  Si104  1  0.07222329  0.67566958  0.31981720  1
  Si0+  Si105  1  0.18058628  0.42649472  0.68358253  1
  Si0+  Si106  1  0.32121979  0.56895711  0.68205035  1
  Si0+  Si107  1  0.17847255  0.42504787  0.01381084  1
  Si0+  Si108  1  0.57436096  0.17667561  0.31621478  1
  Si0+  Si109  1  0.42957267  0.32103228  0.65010492  1
  Si0+  Si110  1  0.57147121  0.67948375  0.31505523  1
  Si0+  Si111  1  0.92792569  0.32382328  0.31765647  1
  Si0+  Si112  1  0.92358749  0.32308649  0.98383482  1
  Si0+  Si113  1  0.67647378  0.42647558  0.68219852  1
  Si0+  Si114  1  0.67791953  0.42570776  0.35053611  1
  Si0+  Si115  1  0.17712955  0.92950761  0.34787856  1
  Si0+  Si116  1  0.92716214  0.32474180  0.65008785  1
  Si0+  Si117  1  0.82428721  0.57146902  0.01617500  1
  Si0+  Si118  1  0.56895072  0.68028069  0.98673141  1
  Si0+  Si119  1  0.07349237  0.67481288  0.65017616  1
  O2-  O120  1  0.25473922  0.00612707  0.06192553  1
  O2-  O121  1  0.25052630  -0.00178876  0.39020553  1
  O2-  O122  1  0.25634240  0.00252717  0.72545811  1
  O2-  O123  1  0.24178641  0.49829933  0.05761571  1
  O2-  O124  1  0.25029825  0.50059704  0.40048073  1
  O2-  O125  1  0.24884639  0.49992647  0.72584572  1
  O2-  O126  1  0.75063290  -0.00374659  0.06456510  1
  O2-  O127  1  0.75479120  0.00489274  0.39642507  1
  O2-  O128  1  0.75252483  0.00613572  0.72509301  1
  O2-  O129  1  0.75884609  0.49943630  0.05994916  1
  O2-  O130  1  0.74803732  0.49239183  0.39435569  1
  O2-  O131  1  0.74527029  0.49501352  0.72579215  1
  O2-  O132  1  -0.00423560  0.25545290  0.27219727  1
  O2-  O133  1  -0.00512454  0.25578568  0.60474395  1
  O2-  O134  1  -0.00755985  0.25447793  0.93908751  1
  O2-  O135  1  0.00350578  0.74333496  0.27474447  1
  O2-  O136  1  0.00480737  0.74295230  0.60556988  1
  O2-  O137  1  -0.00081884  0.74539503  0.93425140  1
  O2-  O138  1  0.51281587  0.25181815  0.27207079  1
  O2-  O139  1  0.50088902  0.24967549  0.60939844  1
  O2-  O140  1  0.50552485  0.24772010  0.93724416  1
  O2-  O141  1  0.49904053  0.74395707  0.27033891  1
  O2-  O142  1  0.50183702  0.75458482  0.60238695  1
  O2-  O143  1  0.50357916  0.75729669  0.94578160  1
  O2-  O144  1  0.07089452  0.18292218  0.09712478  1
  O2-  O145  1  0.07090199  0.17949722  0.43069978  1
  O2-  O146  1  0.06840485  0.18090999  0.76415697  1
  O2-  O147  1  0.07318863  0.67905431  0.10044944  1
  O2-  O148  1  0.07215896  0.67770401  0.42566333  1
  O2-  O149  1  0.07438094  0.67510695  0.75552915  1
  O2-  O150  1  0.56981833  0.17796219  0.08866771  1
  O2-  O151  1  0.57055846  0.17644840  0.42249620  1
  O2-  O152  1  0.57271361  0.18097316  0.75738047  1
  O2-  O153  1  0.56807102  0.67711292  0.09174109  1
  O2-  O154  1  0.57282900  0.68244707  0.42051820  1
  O2-  O155  1  0.56798823  0.67645293  0.76511514  1
  O2-  O156  1  0.18345701  0.42630797  0.23436410  1
  O2-  O157  1  0.18319669  0.42419388  0.57869456  1
  O2-  O158  1  0.18259710  0.42361733  0.90783454  1
  O2-  O159  1  0.17758089  0.93067124  0.24277345  1
  O2-  O160  1  0.17859851  0.93243907  0.56560266  1
  O2-  O161  1  0.18122698  0.93127326  0.90116215  1
  O2-  O162  1  0.67782768  0.42743677  0.24485645  1
  O2-  O163  1  0.67636843  0.42295643  0.57685547  1
  O2-  O164  1  0.67888595  0.43425918  0.89910340  1
  O2-  O165  1  0.67875440  0.93253463  0.23624482  1
  O2-  O166  1  0.67793835  0.93185072  0.56675232  1
  O2-  O167  1  0.67433235  0.92708959  0.90253746  1
  O2-  O168  1  0.43201374  0.32228704  0.09780324  1
  O2-  O169  1  0.43286740  0.31600566  0.43271895  1
  O2-  O170  1  0.42982132  0.32258200  0.75513816  1
  O2-  O171  1  0.42717679  0.82171330  0.09224812  1
  O2-  O172  1  0.42861572  0.82306160  0.43122415  1
  O2-  O173  1  0.42630335  0.81868635  0.76783037  1
  O2-  O174  1  0.92432724  0.32448835  0.08939242  1
  O2-  O175  1  0.92757795  0.32207666  0.42331558  1
  O2-  O176  1  0.92698494  0.32470806  0.75552944  1
  O2-  O177  1  0.92773569  0.81570773  0.09747376  1
  O2-  O178  1  0.92868492  0.81845663  0.43195601  1
  O2-  O179  1  0.93050781  0.81984584  0.76514117  1
  O2-  O180  1  0.31903273  0.06962532  0.24120133  1
  O2-  O181  1  0.32085226  0.08054187  0.57800987  1
  O2-  O182  1  0.32269650  0.07480364  0.91111284  1
  O2-  O183  1  0.32142561  0.57273411  0.23877073  1
  O2-  O184  1  0.32076464  0.56712304  0.57737932  1
  O2-  O185  1  0.32208844  0.56935541  0.89907905  1
  O2-  O186  1  0.82433385  0.07237176  0.24679081  1
  O2-  O187  1  0.81909413  0.07574489  0.57496914  1
  O2-  O188  1  0.81913067  0.06965505  0.90102080  1
  O2-  O189  1  0.81842853  0.56779391  0.23271254  1
  O2-  O190  1  0.82015849  0.56964978  0.56949189  1
  O2-  O191  1  0.82099454  0.57192175  0.91064151  1
  O2-  O192  1  0.03894025  0.08471859  0.26208693  1
  O2-  O193  1  0.03885302  0.08539525  0.59469950  1
  O2-  O194  1  0.03761931  0.08368331  0.93090016  1
  O2-  O195  1  0.04861669  0.58035513  0.27665139  1
  O2-  O196  1  0.04929466  0.57939637  0.60680579  1
  O2-  O197  1  0.05465991  0.57605641  0.93468405  1
  O2-  O198  1  0.54141989  0.08683970  0.26828291  1
  O2-  O199  1  0.54348146  0.08870798  0.60350574  1
  O2-  O200  1  0.54418063  0.08521683  0.93593640  1
  O2-  O201  1  0.55120159  0.58331336  0.27219352  1
  O2-  O202  1  0.54265589  0.58149225  0.59599367  1
  O2-  O203  1  0.53526091  0.59185287  0.93674352  1
  O2-  O204  1  0.16711012  0.20981532  0.26292557  1
  O2-  O205  1  0.16644877  0.21195248  0.59828875  1
  O2-  O206  1  0.16450336  0.21060031  0.92692447  1
  O2-  O207  1  0.16605949  0.70159472  0.27505365  1
  O2-  O208  1  0.16720409  0.69962405  0.60439888  1
  O2-  O209  1  0.17136548  0.71085829  0.93389919  1
  O2-  O210  1  0.67151796  0.19415418  0.27470234  1
  O2-  O211  1  0.66343473  0.20692243  0.60271062  1
  O2-  O212  1  0.66684137  0.20337545  0.93882868  1
  O2-  O213  1  0.66285970  0.70896156  0.26720288  1
  O2-  O214  1  0.67002395  0.70664004  0.59965604  1
  O2-  O215  1  0.66208454  0.70225255  0.93921673  1
  O2-  O216  1  0.08202256  0.44166427  0.05746861  1
  O2-  O217  1  0.08247187  0.44906866  0.40364692  1
  O2-  O218  1  0.08758050  0.44848627  0.73063880  1
  O2-  O219  1  0.08417556  0.96203603  0.06803444  1
  O2-  O220  1  0.08558274  0.96113928  0.39338790  1
  O2-  O221  1  0.08274618  0.96434496  0.73192781  1
  O2-  O222  1  0.58593122  0.46784667  0.06798481  1
  O2-  O223  1  0.58505137  0.45160837  0.39736381  1
  O2-  O224  1  0.58198312  0.45258267  0.72666505  1
  O2-  O225  1  0.57795172  0.95748541  0.06880988  1
  O2-  O226  1  0.58230489  0.96428054  0.40207677  1
  O2-  O227  1  0.58101540  0.96083889  0.73341714  1
  O2-  O228  1  0.21049445  0.33294685  0.05876183  1
  O2-  O229  1  0.21603104  0.32902871  0.40077671  1
  O2-  O230  1  0.21251486  0.33584525  0.73124812  1
  O2-  O231  1  0.21207221  0.83644665  0.07116721  1
  O2-  O232  1  0.20197563  0.83745236  0.39541953  1
  O2-  O233  1  0.20746289  0.83197450  0.73372608  1
  O2-  O234  1  0.70129634  0.33328090  0.06861022  1
  O2-  O235  1  0.69990521  0.33002969  0.39505535  1
  O2-  O236  1  0.70206214  0.33320692  0.73015224  1
  O2-  O237  1  0.70211183  0.82672603  0.06910256  1
  O2-  O238  1  0.70958050  0.83417972  0.40157587  1
  O2-  O239  1  0.70876217  0.83388849  0.73300850  1
  O2-  O240  1  0.45957413  0.41978413  0.26733398  1
  O2-  O241  1  0.45701351  0.41143783  0.60038153  1
  O2-  O242  1  0.46505858  0.41872384  0.93083056  1
  O2-  O243  1  0.45928536  0.91758800  0.26412700  1
  O2-  O244  1  0.44822718  0.92492930  0.60442649  1
  O2-  O245  1  0.44889324  0.91811516  0.94146790  1
  O2-  O246  1  0.95241695  0.41812595  0.27288132  1
  O2-  O247  1  0.95535039  0.41843260  0.60553273  1
  O2-  O248  1  0.94815959  0.41645082  0.93611616  1
  O2-  O249  1  0.95841548  0.91404390  0.26388200  1
  O2-  O250  1  0.96106506  0.91446620  0.59610054  1
  O2-  O251  1  0.95763911  0.91701266  0.93294740  1
  O2-  O252  1  0.33922003  0.28509132  0.26377871  1
  O2-  O253  1  0.33854528  0.29155202  0.60250091  1
  O2-  O254  1  0.33709900  0.29159168  0.92645081  1
  O2-  O255  1  0.32926002  0.79249729  0.26612204  1
  O2-  O256  1  0.32993116  0.79019319  0.60042966  1
  O2-  O257  1  0.33806822  0.79081101  0.94018808  1
  O2-  O258  1  0.83296866  0.29951442  0.27252834  1
  O2-  O259  1  0.83274966  0.30244148  0.60337275  1
  O2-  O260  1  0.82905178  0.29800955  0.93922552  1
  O2-  O261  1  0.83130633  0.78631677  0.26580942  1
  O2-  O262  1  0.83415066  0.78599260  0.60019164  1
  O2-  O263  1  0.82805478  0.79037507  0.93232159  1
  O2-  O264  1  0.41585365  0.05391896  0.06368777  1
  O2-  O265  1  0.41242163  0.04511268  0.39402815  1
  O2-  O266  1  0.41652074  0.05653854  0.73010057  1
  O2-  O267  1  0.41400719  0.53761137  0.06844838  1
  O2-  O268  1  0.42171079  0.54406690  0.40422851  1
  O2-  O269  1  0.41340387  0.53813924  0.72746323  1
  O2-  O270  1  0.91971706  0.04251943  0.06847557  1
  O2-  O271  1  0.91858835  0.04297103  0.39636589  1
  O2-  O272  1  0.91557676  0.04641822  0.72372835  1
  O2-  O273  1  0.91970620  0.54901955  0.05975150  1
  O2-  O274  1  0.91613826  0.54219873  0.40367944  1
  O2-  O275  1  0.91730036  0.54141998  0.73821211  1
  O2-  O276  1  0.29399948  0.16980947  0.05982884  1
  O2-  O277  1  0.29133552  0.16076318  0.39452289  1
  O2-  O278  1  0.29218134  0.16766073  0.73151050  1
  O2-  O279  1  0.29116067  0.66644357  0.06925417  1
  O2-  O280  1  0.29312570  0.67148964  0.40633705  1
  O2-  O281  1  0.29523187  0.66096154  0.72970286  1
  O2-  O282  1  0.79428599  0.16752007  0.07084710  1
  O2-  O283  1  0.80374118  0.16656794  0.39839940  1
  O2-  O284  1  0.79846791  0.16860594  0.72637581  1
  O2-  O285  1  0.79299148  0.66255257  0.06310527  1
  O2-  O286  1  0.78480634  0.66433588  0.40073208  1
  O2-  O287  1  0.78709522  0.66520550  0.73877758  1
