# generated using pymatgen
data_Ca2Al2SiO7
_symmetry_space_group_name_H-M   'P 1'
_cell_length_a   15.46085300
_cell_length_b   15.45948104
_cell_length_c   15.28518003
_cell_angle_alpha   89.98871413
_cell_angle_beta   90.00357208
_cell_angle_gamma   89.98959253
_symmetry_Int_Tables_number   1
_chemical_formula_structural   Ca2Al2SiO7
_chemical_formula_sum   'Ca48 Al48 Si24 O168'
_cell_volume   3653.41412839
_cell_formula_units_Z   24
loop_
 _symmetry_equiv_pos_site_id
 _symmetry_equiv_pos_as_xyz
  1  'x, y, z'
loop_
 _atom_type_symbol
 _atom_type_oxidation_number
  Ca2+  2.0
  Al0+  0.0
  Si0+  0.0
  O2-  -2.0
loop_
 _atom_site_type_symbol
 _atom_site_label
 _atom_site_symmetry_multiplicity
 _atom_site_fract_x
 _atom_site_fract_y
 _atom_site_fract_z
 _atom_site_occupancy
  Ca2+  Ca0  1  0.16541146  0.07692282  0.17076723  1
  Ca2+  Ca1  1  0.17260737  0.08182554  0.50837854  1
  Ca2+  Ca2  1  0.17623497  0.07382865  0.83851050  1
  Ca2+  Ca3  1  0.15805945  0.57380668  0.16839896  1
  Ca2+  Ca4  1  0.16340525  0.57953234  0.50378318  1
  Ca2+  Ca5  1  0.16428373  0.58372701  0.84053650  1
  Ca2+  Ca6  1  0.66448025  0.08525604  0.17069513  1
  Ca2+  Ca7  1  0.66751966  0.08388602  0.50821644  1
  Ca2+  Ca8  1  0.66696332  0.08612143  0.83442847  1
  Ca2+  Ca9  1  0.67323545  0.58168671  0.17237174  1
  Ca2+  Ca10  1  0.67567466  0.58758594  0.50582936  1
  Ca2+  Ca11  1  0.67226628  0.58717270  0.84237188  1
  Ca2+  Ca12  1  0.09093464  0.33138541  0.16451357  1
  Ca2+  Ca13  1  0.08340238  0.32645490  0.49160207  1
  Ca2+  Ca14  1  0.08309577  0.33627254  0.83083506  1
  Ca2+  Ca15  1  0.07157182  0.82719781  0.15600881  1
  Ca2+  Ca16  1  0.07184077  0.82840555  0.49745579  1
  Ca2+  Ca17  1  0.07745897  0.82430451  0.83081323  1
  Ca2+  Ca18  1  0.59766256  0.32746993  0.16197654  1
  Ca2+  Ca19  1  0.58689429  0.32356046  0.49602671  1
  Ca2+  Ca20  1  0.58449575  0.32698838  0.82733059  1
  Ca2+  Ca21  1  0.57660906  0.82731183  0.16217937  1
  Ca2+  Ca22  1  0.57567176  0.83162035  0.50096675  1
  Ca2+  Ca23  1  0.58208353  0.82010843  0.82740279  1
  Ca2+  Ca24  1  0.32372176  0.41756225  0.16925432  1
  Ca2+  Ca25  1  0.32698617  0.40831984  0.50353034  1
  Ca2+  Ca26  1  0.32921074  0.41466140  0.83675789  1
  Ca2+  Ca27  1  0.32628376  0.91123135  0.17130751  1
  Ca2+  Ca28  1  0.33875481  0.91996418  0.50964064  1
  Ca2+  Ca29  1  0.33415437  0.91766911  0.83626580  1
  Ca2+  Ca30  1  0.82502572  0.43141105  0.17095589  1
  Ca2+  Ca31  1  0.82795991  0.42815122  0.50274629  1
  Ca2+  Ca32  1  0.82681416  0.43196325  0.84029828  1
  Ca2+  Ca33  1  0.83516268  0.91201040  0.16960433  1
  Ca2+  Ca34  1  0.83800187  0.92028762  0.50762998  1
  Ca2+  Ca35  1  0.84145430  0.91889017  0.83298035  1
  Ca2+  Ca36  1  0.42993511  0.17095400  0.16245674  1
  Ca2+  Ca37  1  0.42458841  0.16735493  0.49978267  1
  Ca2+  Ca38  1  0.42569135  0.17127227  0.82447678  1
  Ca2+  Ca39  1  0.42071211  0.66898205  0.16269951  1
  Ca2+  Ca40  1  0.41936684  0.67703647  0.49882987  1
  Ca2+  Ca41  1  0.42864564  0.66733160  0.82509093  1
  Ca2+  Ca42  1  0.92327147  0.17006042  0.16491475  1
  Ca2+  Ca43  1  0.92079809  0.16552072  0.49378576  1
  Ca2+  Ca44  1  0.91592807  0.16900170  0.82732288  1
  Ca2+  Ca45  1  0.91232364  0.67200865  0.15869410  1
  Ca2+  Ca46  1  0.91245849  0.67075971  0.49946521  1
  Ca2+  Ca47  1  0.92102070  0.66931225  0.82667739  1
  Al0+  Al48  1  0.00233802  0.00099601  0.00091608  1
  Al0+  Al49  1  0.00091278  -0.00121183  0.32569563  1
  Al0+  Al50  1  0.00088034  -0.00064311  0.66966725  1
  Al0+  Al51  1  -0.00069023  0.49942155  0.00570022  1
  Al0+  Al52  1  -0.00056892  0.49899967  0.34317803  1
  Al0+  Al53  1  -0.00217564  0.49874719  0.66710820  1
  Al0+  Al54  1  0.50196736  0.00347984  -0.00290008  1
  Al0+  Al55  1  0.49936199  0.00074684  0.32461573  1
  Al0+  Al56  1  0.50103733  0.00091516  0.66778950  1
  Al0+  Al57  1  0.49836830  0.49792114  0.00110742  1
  Al0+  Al58  1  0.49814383  0.49904568  0.33782277  1
  Al0+  Al59  1  0.49709066  0.49783983  0.65791344  1
  Al0+  Al60  1  0.25232060  0.24908894  0.00378366  1
  Al0+  Al61  1  0.25207363  0.24798961  0.33197424  1
  Al0+  Al62  1  0.25068604  0.24729346  0.67023198  1
  Al0+  Al63  1  0.24782573  0.75166663  0.00245409  1
  Al0+  Al64  1  0.24721085  0.74960736  0.33052838  1
  Al0+  Al65  1  0.24816291  0.74661147  0.66056838  1
  Al0+  Al66  1  0.75321196  0.24973222  -0.00149263  1
  Al0+  Al67  1  0.75258548  0.25051032  0.33241273  1
  Al0+  Al68  1  0.75138955  0.25046264  0.66719143  1
  Al0+  Al69  1  0.74816472  0.75545977  -0.00364596  1
  Al0+  Al70  1  0.74827991  0.75228268  0.33444185  1
  Al0+  Al71  1  0.75109060  0.75182148  0.66440782  1
  Al0+  Al72  1  0.92803520  0.81972422  0.31854570  1
  Al0+  Al73  1  0.92766936  0.82323710  0.98285625  1
  Al0+  Al74  1  0.17895094  0.42915411  0.01276264  1
  Al0+  Al75  1  0.07028477  0.67511895  0.65007696  1
  Al0+  Al76  1  0.67758323  0.42809243  0.01285491  1
  Al0+  Al77  1  0.18010058  0.92916492  0.01504825  1
  Al0+  Al78  1  0.42591635  0.32013864  0.65098382  1
  Al0+  Al79  1  0.57286990  0.18047602  0.65125652  1
  Al0+  Al80  1  0.57365128  0.18101776  0.98422942  1
  Al0+  Al81  1  0.81913600  0.57214594  0.68257826  1
  Al0+  Al82  1  0.18131084  0.42787247  0.34899940  1
  Al0+  Al83  1  0.81879625  0.57512515  0.01411053  1
  Al0+  Al84  1  0.42770891  0.82127541  0.31869643  1
  Al0+  Al85  1  0.57308787  0.67702582  0.65104071  1
  Al0+  Al86  1  0.07283744  0.17919758  0.31979221  1
  Al0+  Al87  1  0.67765479  0.42641695  0.35030682  1
  Al0+  Al88  1  0.57216993  0.18186543  0.31856710  1
  Al0+  Al89  1  0.56877799  0.67823745  0.98921970  1
  Al0+  Al90  1  0.42839875  0.82070751  0.65474236  1
  Al0+  Al91  1  0.82246183  0.07198206  0.67943591  1
  Al0+  Al92  1  0.32235222  0.06982001  0.68095893  1
  Al0+  Al93  1  0.81892119  0.57408996  0.35082930  1
  Al0+  Al94  1  0.06969047  0.67649586  0.98649082  1
  Al0+  Al95  1  0.93069228  0.82241958  0.65088473  1
  Si0+  Si96  1  0.67663740  0.93167624  0.34695971  1
  Si0+  Si97  1  0.42621559  0.32084380  0.98390405  1
  Si0+  Si98  1  0.17745653  0.92876687  0.34908012  1
  Si0+  Si99  1  0.17908886  0.42792883  0.68148302  1
  Si0+  Si100  1  0.07011912  0.67587248  0.31644951  1
  Si0+  Si101  1  0.82270278  0.07162507  0.01632490  1
  Si0+  Si102  1  0.32249260  0.57326542  0.01560280  1
  Si0+  Si103  1  0.93005171  0.32256583  0.31630936  1
  Si0+  Si104  1  0.32064728  0.57124545  0.68037648  1
  Si0+  Si105  1  0.07074597  0.17941306  0.65499032  1
  Si0+  Si106  1  0.92941157  0.32056371  0.65197054  1
  Si0+  Si107  1  0.42721754  0.32268396  0.31503748  1
  Si0+  Si108  1  0.07385397  0.17946015  0.98390876  1
  Si0+  Si109  1  0.17847043  0.92560393  0.68266630  1
  Si0+  Si110  1  0.67814049  0.92934184  0.68415746  1
  Si0+  Si111  1  0.67614448  0.42856703  0.68216970  1
  Si0+  Si112  1  0.67780683  0.93201460  0.01543263  1
  Si0+  Si113  1  0.57050465  0.67796930  0.31765115  1
  Si0+  Si114  1  0.32375568  0.07117607  0.01964013  1
  Si0+  Si115  1  0.32138014  0.06764156  0.34774615  1
  Si0+  Si116  1  0.82255042  0.06937121  0.34562493  1
  Si0+  Si117  1  0.32120528  0.57446302  0.35175084  1
  Si0+  Si118  1  0.42674259  0.82264893  0.98486362  1
  Si0+  Si119  1  0.93129237  0.31962460  0.98539297  1
  O2-  O120  1  0.25730305  0.00068668  0.06426002  1
  O2-  O121  1  0.25089247  -0.00320026  0.39204431  1
  O2-  O122  1  0.25172420  -0.00961492  0.72631264  1
  O2-  O123  1  0.25068992  0.50687572  0.05919995  1
  O2-  O124  1  0.25497227  0.50297498  0.39634107  1
  O2-  O125  1  0.24922387  0.50002399  0.72273420  1
  O2-  O126  1  0.75118004  0.00110107  0.05813939  1
  O2-  O127  1  0.74975943  0.00105737  0.38859588  1
  O2-  O128  1  0.74780187  -0.00172280  0.72744328  1
  O2-  O129  1  0.74315136  0.50585810  0.06296554  1
  O2-  O130  1  0.74469092  0.50307280  0.39995959  1
  O2-  O131  1  0.73817839  0.50278361  0.72717485  1
  O2-  O132  1  0.00141294  0.25633362  0.27143642  1
  O2-  O133  1  -0.00084187  0.24783982  0.61028714  1
  O2-  O134  1  0.00518628  0.25183970  0.94120400  1
  O2-  O135  1  -0.00119906  0.74146851  0.27253200  1
  O2-  O136  1  -0.00117989  0.74747081  0.60023796  1
  O2-  O137  1  -0.00376315  0.74649444  0.93577497  1
  O2-  O138  1  0.50318215  0.26192640  0.27093833  1
  O2-  O139  1  0.50118685  0.25204892  0.60053199  1
  O2-  O140  1  0.50011587  0.25762459  0.94046753  1
  O2-  O141  1  0.49901153  0.74351088  0.27252560  1
  O2-  O142  1  0.49998899  0.74946164  0.60305240  1
  O2-  O143  1  0.49156972  0.75045066  0.94176387  1
  O2-  O144  1  0.07257075  0.17961289  0.08916049  1
  O2-  O145  1  0.07073828  0.17795181  0.43339120  1
  O2-  O146  1  0.07051770  0.18215717  0.76031704  1
  O2-  O147  1  0.06899153  0.67722502  0.10022464  1
  O2-  O148  1  0.07259828  0.67901503  0.42185887  1
  O2-  O149  1  0.07120565  0.67379977  0.76344331  1
  O2-  O150  1  0.57245153  0.18031565  0.09755854  1
  O2-  O151  1  0.57019485  0.17755622  0.43098298  1
  O2-  O152  1  0.57288784  0.18297243  0.76486494  1
  O2-  O153  1  0.56693805  0.68163967  0.10259516  1
  O2-  O154  1  0.57060586  0.68195591  0.42290293  1
  O2-  O155  1  0.57083494  0.67753159  0.76508655  1
  O2-  O156  1  0.18314271  0.42809284  0.23587399  1
  O2-  O157  1  0.17996774  0.42504861  0.57648532  1
  O2-  O158  1  0.18189330  0.42586624  0.89953299  1
  O2-  O159  1  0.17828730  0.93140590  0.24395976  1
  O2-  O160  1  0.17603340  0.93057880  0.57676856  1
  O2-  O161  1  0.18184918  0.93235179  0.90201166  1
  O2-  O162  1  0.68275641  0.42642501  0.23677985  1
  O2-  O163  1  0.68182007  0.42544815  0.57686365  1
  O2-  O164  1  0.68116973  0.42640198  0.89924224  1
  O2-  O165  1  0.67633030  0.93280387  0.24148753  1
  O2-  O166  1  0.67663373  0.93143536  0.57811622  1
  O2-  O167  1  0.67450779  0.93387964  0.91088706  1
  O2-  O168  1  0.42073840  0.31717584  0.08922604  1
  O2-  O169  1  0.42202954  0.31581256  0.41999397  1
  O2-  O170  1  0.42312816  0.31815962  0.76470561  1
  O2-  O171  1  0.42898310  0.82274451  0.09080677  1
  O2-  O172  1  0.43043546  0.82371175  0.43136247  1
  O2-  O173  1  0.42878026  0.81770634  0.76854463  1
  O2-  O174  1  0.93143689  0.31540350  0.09033747  1
  O2-  O175  1  0.93056203  0.31816327  0.42223094  1
  O2-  O176  1  0.93191630  0.32057942  0.75743417  1
  O2-  O177  1  0.92951303  0.82417406  0.09673524  1
  O2-  O178  1  0.93139096  0.82531003  0.43096032  1
  O2-  O179  1  0.93508847  0.82485705  0.76381900  1
  O2-  O180  1  0.32028130  0.06621196  0.24257968  1
  O2-  O181  1  0.31823233  0.07098418  0.56736418  1
  O2-  O182  1  0.32193896  0.07185589  0.91406287  1
  O2-  O183  1  0.32034488  0.57491423  0.24593336  1
  O2-  O184  1  0.31850196  0.57217024  0.57551091  1
  O2-  O185  1  0.32399904  0.57162340  0.90994561  1
  O2-  O186  1  0.82267036  0.06888990  0.24022729  1
  O2-  O187  1  0.82448888  0.07118838  0.56597557  1
  O2-  O188  1  0.82333438  0.07295788  0.91132964  1
  O2-  O189  1  0.81793852  0.57512931  0.23713467  1
  O2-  O190  1  0.82072186  0.56832518  0.56973588  1
  O2-  O191  1  0.81988812  0.57170101  0.90049827  1
  O2-  O192  1  0.03876338  0.08545485  0.26227114  1
  O2-  O193  1  0.04557914  0.08720750  0.60805493  1
  O2-  O194  1  0.04383450  0.08900894  0.93642106  1
  O2-  O195  1  0.04763295  0.57930788  0.27570763  1
  O2-  O196  1  0.04147318  0.57627798  0.59780446  1
  O2-  O197  1  0.04629911  0.57563169  0.93596514  1
  O2-  O198  1  0.53649912  0.08788438  0.26175127  1
  O2-  O199  1  0.54510399  0.08135793  0.60070465  1
  O2-  O200  1  0.54142986  0.08501565  0.92995211  1
  O2-  O201  1  0.54757047  0.58235889  0.27443262  1
  O2-  O202  1  0.54559951  0.57954868  0.59710868  1
  O2-  O203  1  0.54131345  0.58042584  0.93580467  1
  O2-  O204  1  0.16957209  0.20746626  0.26462835  1
  O2-  O205  1  0.16135139  0.20868905  0.60685285  1
  O2-  O206  1  0.16680279  0.20573290  0.93832037  1
  O2-  O207  1  0.16271833  0.70275207  0.26914898  1
  O2-  O208  1  0.16816480  0.70118018  0.59519047  1
  O2-  O209  1  0.16912580  0.70656847  0.93519543  1
  O2-  O210  1  0.67137731  0.20677218  0.26570025  1
  O2-  O211  1  0.67216171  0.20780913  0.59881281  1
  O2-  O212  1  0.67178260  0.20798355  0.93165386  1
  O2-  O213  1  0.66203837  0.70879464  0.27096005  1
  O2-  O214  1  0.66953121  0.70925359  0.59782363  1
  O2-  O215  1  0.66235023  0.71443332  0.93362962  1
  O2-  O216  1  0.08264102  0.45425843  0.07008739  1
  O2-  O217  1  0.08435199  0.45373809  0.40458759  1
  O2-  O218  1  0.08668458  0.45389307  0.72838549  1
  O2-  O219  1  0.08536462  0.96562657  0.07018880  1
  O2-  O220  1  0.08664982  0.96148289  0.39526706  1
  O2-  O221  1  0.08858253  0.95798827  0.73174025  1
  O2-  O222  1  0.57587133  0.44518868  0.06397930  1
  O2-  O223  1  0.57514482  0.44443419  0.39886460  1
  O2-  O224  1  0.57820001  0.44539385  0.72225415  1
  O2-  O225  1  0.58694639  0.96256397  0.06470308  1
  O2-  O226  1  0.58545691  0.96296588  0.39337403  1
  O2-  O227  1  0.58579931  0.95512558  0.73255286  1
  O2-  O228  1  0.21242007  0.33301327  0.06799316  1
  O2-  O229  1  0.21305568  0.32989582  0.40129893  1
  O2-  O230  1  0.20739853  0.33685528  0.73066067  1
  O2-  O231  1  0.20689773  0.83257329  0.07182324  1
  O2-  O232  1  0.20106465  0.83505991  0.39396659  1
  O2-  O233  1  0.20031818  0.82987962  0.72535034  1
  O2-  O234  1  0.71567334  0.33181902  0.06562028  1
  O2-  O235  1  0.71271701  0.32904723  0.40291042  1
  O2-  O236  1  0.70891558  0.33737359  0.72951002  1
  O2-  O237  1  0.70321694  0.84054177  0.06452349  1
  O2-  O238  1  0.70104524  0.83984557  0.39476625  1
  O2-  O239  1  0.70429783  0.83603886  0.72994479  1
  O2-  O240  1  0.44174335  0.42048152  0.27385373  1
  O2-  O241  1  0.44453731  0.41921903  0.59636792  1
  O2-  O242  1  0.44391124  0.41656176  0.93979820  1
  O2-  O243  1  0.46071039  0.91502514  0.26063973  1
  O2-  O244  1  0.45718499  0.91917650  0.60243702  1
  O2-  O245  1  0.45561237  0.91585341  0.94013958  1
  O2-  O246  1  0.95437865  0.41752841  0.27378978  1
  O2-  O247  1  0.95965370  0.40992837  0.60263122  1
  O2-  O248  1  0.95758431  0.41192718  0.93914060  1
  O2-  O249  1  0.96198692  0.91428567  0.26194313  1
  O2-  O250  1  0.96268097  0.92092217  0.59808056  1
  O2-  O251  1  0.96173462  0.92166642  0.93255945  1
  O2-  O252  1  0.33755849  0.28841598  0.26553479  1
  O2-  O253  1  0.32856668  0.28535772  0.59806906  1
  O2-  O254  1  0.33517580  0.28859935  0.93536112  1
  O2-  O255  1  0.32975403  0.79220814  0.26559581  1
  O2-  O256  1  0.33074799  0.79383045  0.59955563  1
  O2-  O257  1  0.33142742  0.80280277  0.94143922  1
  O2-  O258  1  0.83905109  0.29261582  0.26809468  1
  O2-  O259  1  0.83865348  0.29306190  0.60378679  1
  O2-  O260  1  0.84273451  0.28730551  0.93496939  1
  O2-  O261  1  0.82862196  0.79526698  0.26657402  1
  O2-  O262  1  0.83069365  0.80034249  0.59977005  1
  O2-  O263  1  0.82680243  0.80518352  0.93200489  1
  O2-  O264  1  0.41888249  0.04792094  0.06375858  1
  O2-  O265  1  0.41364807  0.03882990  0.39342254  1
  O2-  O266  1  0.41946539  0.04347998  0.73595012  1
  O2-  O267  1  0.41342151  0.54419857  0.06570782  1
  O2-  O268  1  0.41582309  0.55366489  0.39721833  1
  O2-  O269  1  0.41292717  0.54279906  0.72721721  1
  O2-  O270  1  0.91485204  0.04527051  0.06406279  1
  O2-  O271  1  0.91444717  0.03948707  0.39208511  1
  O2-  O272  1  0.91900587  0.04264117  0.73600803  1
  O2-  O273  1  0.91500043  0.54145769  0.06861244  1
  O2-  O274  1  0.91644759  0.54375588  0.40470882  1
  O2-  O275  1  0.91422100  0.53335103  0.73572311  1
  O2-  O276  1  0.29496926  0.16317781  0.06703198  1
  O2-  O277  1  0.29353678  0.15948274  0.39427015  1
  O2-  O278  1  0.28518617  0.16306179  0.73835294  1
  O2-  O279  1  0.30092442  0.66776921  0.06143809  1
  O2-  O280  1  0.29132941  0.66729407  0.39786556  1
  O2-  O281  1  0.29313002  0.66271924  0.72892992  1
  O2-  O282  1  0.79518658  0.16302015  0.06455708  1
  O2-  O283  1  0.79925633  0.16235945  0.39214000  1
  O2-  O284  1  0.79392526  0.16907039  0.73496716  1
  O2-  O285  1  0.79227965  0.67554675  0.06383669  1
  O2-  O286  1  0.78989205  0.67315512  0.40333263  1
  O2-  O287  1  0.79494446  0.67174747  0.73284753  1
