# generated using pymatgen
data_Ca2Al2SiO7
_symmetry_space_group_name_H-M   'P 1'
_cell_length_a   15.46153182
_cell_length_b   15.46078687
_cell_length_c   15.28695736
_cell_angle_alpha   90.00130800
_cell_angle_beta   90.00492549
_cell_angle_gamma   90.00725281
_symmetry_Int_Tables_number   1
_chemical_formula_structural   Ca2Al2SiO7
_chemical_formula_sum   'Ca48 Al48 Si24 O168'
_cell_volume   3654.30810461
_cell_formula_units_Z   24
loop_
 _symmetry_equiv_pos_site_id
 _symmetry_equiv_pos_as_xyz
  1  'x, y, z'
loop_
 _atom_type_symbol
 _atom_type_oxidation_number
  Ca2+  2.0
  Al0+  0.0
  Si0+  0.0
  O2-  -2.0
loop_
 _atom_site_type_symbol
 _atom_site_label
 _atom_site_symmetry_multiplicity
 _atom_site_fract_x
 _atom_site_fract_y
 _atom_site_fract_z
 _atom_site_occupancy
  Ca2+  Ca0  1  0.17132301  0.07809387  0.17558924  1
  Ca2+  Ca1  1  0.18100976  0.08320654  0.50295740  1
  Ca2+  Ca2  1  0.17396540  0.07063046  0.83709417  1
  Ca2+  Ca3  1  0.16818074  0.57437883  0.17289504  1
  Ca2+  Ca4  1  0.17378788  0.57923570  0.49531625  1
  Ca2+  Ca5  1  0.16736790  0.58101053  0.84276162  1
  Ca2+  Ca6  1  0.67111482  0.07822960  0.18012846  1
  Ca2+  Ca7  1  0.65749936  0.08202273  0.49909799  1
  Ca2+  Ca8  1  0.66277725  0.08437013  0.83421486  1
  Ca2+  Ca9  1  0.66817056  0.58382207  0.18041899  1
  Ca2+  Ca10  1  0.66510858  0.57521249  0.50230650  1
  Ca2+  Ca11  1  0.66839238  0.58341830  0.83504930  1
  Ca2+  Ca12  1  0.08303269  0.33228039  0.16324744  1
  Ca2+  Ca13  1  0.08360604  0.32732011  0.48798193  1
  Ca2+  Ca14  1  0.07624134  0.34114215  0.83347855  1
  Ca2+  Ca15  1  0.08497657  0.82656412  0.15901204  1
  Ca2+  Ca16  1  0.08186282  0.83777806  0.49705898  1
  Ca2+  Ca17  1  0.09307861  0.83071284  0.83132793  1
  Ca2+  Ca18  1  0.58112924  0.33455044  0.17030925  1
  Ca2+  Ca19  1  0.58412210  0.32678967  0.49125915  1
  Ca2+  Ca20  1  0.58371686  0.32736591  0.82442580  1
  Ca2+  Ca21  1  0.57623012  0.82611747  0.16630550  1
  Ca2+  Ca22  1  0.57352075  0.83070987  0.48810045  1
  Ca2+  Ca23  1  0.57154204  0.82991735  0.83010307  1
  Ca2+  Ca24  1  0.32505214  0.42017806  0.17972332  1
  Ca2+  Ca25  1  0.33651348  0.41710651  0.49532483  1
  Ca2+  Ca26  1  0.32584929  0.41902949  0.84136663  1
  Ca2+  Ca27  1  0.33478500  0.91571150  0.17124261  1
  Ca2+  Ca28  1  0.34062899  0.92574991  0.50427024  1
  Ca2+  Ca29  1  0.33331881  0.91539199  0.83446104  1
  Ca2+  Ca30  1  0.82860058  0.42159395  0.17582438  1
  Ca2+  Ca31  1  0.82027046  0.42512770  0.50087180  1
  Ca2+  Ca32  1  0.82877371  0.41746925  0.83474289  1
  Ca2+  Ca33  1  0.82429897  0.92078050  0.17883100  1
  Ca2+  Ca34  1  0.82456531  0.92140222  0.49534748  1
  Ca2+  Ca35  1  0.83088051  0.92006061  0.83714220  1
  Ca2+  Ca36  1  0.41651841  0.16862665  0.17441982  1
  Ca2+  Ca37  1  0.42236596  0.16730391  0.48953568  1
  Ca2+  Ca38  1  0.42038586  0.16616347  0.82483199  1
  Ca2+  Ca39  1  0.42297426  0.67062737  0.16490694  1
  Ca2+  Ca40  1  0.41735802  0.67731135  0.48822466  1
  Ca2+  Ca41  1  0.41613560  0.67790923  0.83118496  1
  Ca2+  Ca42  1  0.92059870  0.17007415  0.16591317  1
  Ca2+  Ca43  1  0.92602438  0.16257220  0.48877136  1
  Ca2+  Ca44  1  0.91784699  0.17475383  0.83071950  1
  Ca2+  Ca45  1  0.92016677  0.66351606  0.16297915  1
  Ca2+  Ca46  1  0.91307330  0.66076941  0.49661197  1
  Ca2+  Ca47  1  0.92391438  0.66230083  0.83069343  1
  Al0+  Al48  1  0.00176084  0.00147808  0.00307077  1
  Al0+  Al49  1  -0.00110633  -0.00070872  0.33027121  1
  Al0+  Al50  1  0.00005387  -0.00124292  0.67077063  1
  Al0+  Al51  1  -0.00136924  0.49940302  -0.00449019  1
  Al0+  Al52  1  -0.00008295  0.49896880  0.34091810  1
  Al0+  Al53  1  -0.00114745  0.50135319  0.66722729  1
  Al0+  Al54  1  0.50136593  0.00040769  -0.00243828  1
  Al0+  Al55  1  0.49887089  0.00011779  0.33112380  1
  Al0+  Al56  1  0.50052062  0.00068934  0.66506188  1
  Al0+  Al57  1  0.50126593  0.49840663  -0.00525716  1
  Al0+  Al58  1  0.49850310  0.50034229  0.33421449  1
  Al0+  Al59  1  0.49934086  0.49948604  0.67316161  1
  Al0+  Al60  1  0.25024689  0.24824141  0.00232329  1
  Al0+  Al61  1  0.24876873  0.24639042  0.33180837  1
  Al0+  Al62  1  0.24922016  0.24950305  0.67269266  1
  Al0+  Al63  1  0.25055393  0.75071906  -0.00342392  1
  Al0+  Al64  1  0.24711349  0.74809803  0.33248593  1
  Al0+  Al65  1  0.24871109  0.74840804  0.66340003  1
  Al0+  Al66  1  0.75138250  0.25146919  -0.00397421  1
  Al0+  Al67  1  0.75331545  0.25111600  0.33615803  1
  Al0+  Al68  1  0.75043994  0.25106071  0.66552906  1
  Al0+  Al69  1  0.75020935  0.75047727  -0.00383275  1
  Al0+  Al70  1  0.75070970  0.75274565  0.33795043  1
  Al0+  Al71  1  0.75242235  0.75031977  0.67170807  1
  Al0+  Al72  1  0.42595183  0.82185753  0.31767273  1
  Al0+  Al73  1  0.67733230  0.93082882  0.34788378  1
  Al0+  Al74  1  0.17781066  0.42956279  0.01346900  1
  Al0+  Al75  1  0.32133707  0.57243049  0.34696406  1
  Al0+  Al76  1  0.82131562  0.57312600  0.34668145  1
  Al0+  Al77  1  0.18049337  0.92823377  0.01553555  1
  Al0+  Al78  1  0.17864780  0.92832820  0.68119018  1
  Al0+  Al79  1  0.42999179  0.82171966  0.98349407  1
  Al0+  Al80  1  0.31986842  0.06836618  0.34536847  1
  Al0+  Al81  1  0.57243449  0.67880696  0.32191639  1
  Al0+  Al82  1  0.57378293  0.17975085  0.31748343  1
  Al0+  Al83  1  0.93018306  0.31940622  0.98586496  1
  Al0+  Al84  1  0.82259770  0.07218466  0.34699440  1
  Al0+  Al85  1  0.42813493  0.32140217  0.31912544  1
  Al0+  Al86  1  0.06896563  0.68023582  0.98751271  1
  Al0+  Al87  1  0.67838122  0.42825229  0.68430487  1
  Al0+  Al88  1  0.32338595  0.07124349  0.68281903  1
  Al0+  Al89  1  0.07126890  0.17718449  0.31957054  1
  Al0+  Al90  1  0.42878628  0.81869807  0.65079587  1
  Al0+  Al91  1  0.57365958  0.67637173  0.98327327  1
  Al0+  Al92  1  0.57056344  0.18100287  0.65277975  1
  Al0+  Al93  1  0.17942863  0.42684378  0.34822634  1
  Al0+  Al94  1  0.67634204  0.42856153  0.34641003  1
  Al0+  Al95  1  0.82116282  0.57172389  0.68596609  1
  Si0+  Si96  1  0.57129826  0.18140112  0.98550298  1
  Si0+  Si97  1  0.32343424  0.57105619  0.01529890  1
  Si0+  Si98  1  0.07389249  0.17632138  0.98095775  1
  Si0+  Si99  1  0.92919931  0.82093762  0.31877364  1
  Si0+  Si100  1  0.67927338  0.92991110  0.68287984  1
  Si0+  Si101  1  0.67890369  0.42760458  0.01486503  1
  Si0+  Si102  1  0.06979988  0.67821625  0.64909265  1
  Si0+  Si103  1  0.32476934  0.07157760  0.01880538  1
  Si0+  Si104  1  0.82265078  0.07099660  0.68265749  1
  Si0+  Si105  1  0.68001011  0.92968230  0.01359961  1
  Si0+  Si106  1  0.93033609  0.32341953  0.31807997  1
  Si0+  Si107  1  0.82037000  0.07317979  0.01335138  1
  Si0+  Si108  1  0.31992560  0.57130605  0.68245091  1
  Si0+  Si109  1  0.81957886  0.57086107  0.01389828  1
  Si0+  Si110  1  0.06900408  0.67699259  0.31924866  1
  Si0+  Si111  1  0.17656405  0.92580692  0.34816564  1
  Si0+  Si112  1  0.93028739  0.32207732  0.64934910  1
  Si0+  Si113  1  0.92809199  0.82277652  0.65116186  1
  Si0+  Si114  1  0.57326784  0.67790008  0.65068603  1
  Si0+  Si115  1  0.06960246  0.17873382  0.65361528  1
  Si0+  Si116  1  0.42704645  0.32066362  0.98477286  1
  Si0+  Si117  1  0.17833642  0.42883270  0.68212908  1
  Si0+  Si118  1  0.42466944  0.32355489  0.65214327  1
  Si0+  Si119  1  0.92798294  0.82474927  0.98353460  1
  O2-  O120  1  0.25515310  0.00286654  0.06114302  1
  O2-  O121  1  0.24808081  -0.00936301  0.39205749  1
  O2-  O122  1  0.25287326  -0.00267489  0.73216694  1
  O2-  O123  1  0.25472045  0.50196190  0.05890265  1
  O2-  O124  1  0.25361324  0.49638854  0.39826459  1
  O2-  O125  1  0.25158956  0.49721272  0.72450877  1
  O2-  O126  1  0.75416814  -0.00198397  0.05461388  1
  O2-  O127  1  0.74512721  0.00742040  0.39859099  1
  O2-  O128  1  0.74959363  0.00230354  0.72571762  1
  O2-  O129  1  0.74378238  0.50498723  0.05538952  1
  O2-  O130  1  0.74480611  0.50517955  0.39480448  1
  O2-  O131  1  0.74800115  0.50158581  0.73674937  1
  O2-  O132  1  -0.00249771  0.25332922  0.27359605  1
  O2-  O133  1  0.00136210  0.25082852  0.60857186  1
  O2-  O134  1  0.00681524  0.24694743  0.93662667  1
  O2-  O135  1  -0.00189447  0.74800055  0.27711943  1
  O2-  O136  1  -0.00121559  0.75086966  0.60946270  1
  O2-  O137  1  -0.00211900  0.75796931  0.93827568  1
  O2-  O138  1  0.50351733  0.25332489  0.26697680  1
  O2-  O139  1  0.49463544  0.25592755  0.60977143  1
  O2-  O140  1  0.49845006  0.25003102  0.94259345  1
  O2-  O141  1  0.49827703  0.74819689  0.27085403  1
  O2-  O142  1  0.50438352  0.74461064  0.60533143  1
  O2-  O143  1  0.50054666  0.74758622  0.93383488  1
  O2-  O144  1  0.07163316  0.17495032  0.08614797  1
  O2-  O145  1  0.06993171  0.17699278  0.43343974  1
  O2-  O146  1  0.06639061  0.18017211  0.75883867  1
  O2-  O147  1  0.06498978  0.67895401  0.10047916  1
  O2-  O148  1  0.06905210  0.67802001  0.42452384  1
  O2-  O149  1  0.07005051  0.67656905  0.75440471  1
  O2-  O150  1  0.57458252  0.18211912  0.08967979  1
  O2-  O151  1  0.57033788  0.18025166  0.43093785  1
  O2-  O152  1  0.57054414  0.18182244  0.76713163  1
  O2-  O153  1  0.57664519  0.67734703  0.09620082  1
  O2-  O154  1  0.57258353  0.68185995  0.43576649  1
  O2-  O155  1  0.57166881  0.68080837  0.75649935  1
  O2-  O156  1  0.17631493  0.43099733  0.23455054  1
  O2-  O157  1  0.17697286  0.42799696  0.57769202  1
  O2-  O158  1  0.17940854  0.43225283  0.89942919  1
  O2-  O159  1  0.17483359  0.92684888  0.24249636  1
  O2-  O160  1  0.17313931  0.93265589  0.56820110  1
  O2-  O161  1  0.17963296  0.93048515  0.90260522  1
  O2-  O162  1  0.68112102  0.42833211  0.23194828  1
  O2-  O163  1  0.67955970  0.42773149  0.57158344  1
  O2-  O164  1  0.68179845  0.42357334  0.90999260  1
  O2-  O165  1  0.68234025  0.92896424  0.23367395  1
  O2-  O166  1  0.68078037  0.92934118  0.57849314  1
  O2-  O167  1  0.68073529  0.93258170  0.90783756  1
  O2-  O168  1  0.42702769  0.32241976  0.08901955  1
  O2-  O169  1  0.42667298  0.31773715  0.43281568  1
  O2-  O170  1  0.42351055  0.32228530  0.75857695  1
  O2-  O171  1  0.43261111  0.82314201  0.09629397  1
  O2-  O172  1  0.42653004  0.82110647  0.43153902  1
  O2-  O173  1  0.42973627  0.81707769  0.76409493  1
  O2-  O174  1  0.92791663  0.31691378  0.09829869  1
  O2-  O175  1  0.93343023  0.32398566  0.42378413  1
  O2-  O176  1  0.93162023  0.32106638  0.75506387  1
  O2-  O177  1  0.92589537  0.82314211  0.08888492  1
  O2-  O178  1  0.93153473  0.82401670  0.42398290  1
  O2-  O179  1  0.92799441  0.82488069  0.75637333  1
  O2-  O180  1  0.31712240  0.06851358  0.23212357  1
  O2-  O181  1  0.32130076  0.07365597  0.56979473  1
  O2-  O182  1  0.32518050  0.07305469  0.91309361  1
  O2-  O183  1  0.31605459  0.57408023  0.23323817  1
  O2-  O184  1  0.31861850  0.57205093  0.57788917  1
  O2-  O185  1  0.32119857  0.56821384  0.90875665  1
  O2-  O186  1  0.82414347  0.06675550  0.23279187  1
  O2-  O187  1  0.82730450  0.06854214  0.57853322  1
  O2-  O188  1  0.81804814  0.07350524  0.90756026  1
  O2-  O189  1  0.82482270  0.57023956  0.23241594  1
  O2-  O190  1  0.82253717  0.56959679  0.57322140  1
  O2-  O191  1  0.82079899  0.56883402  0.90896324  1
  O2-  O192  1  0.03740079  0.08227645  0.26312936  1
  O2-  O193  1  0.03881112  0.08729438  0.60781409  1
  O2-  O194  1  0.04436849  0.08380075  0.93397000  1
  O2-  O195  1  0.03995792  0.58502466  0.27304587  1
  O2-  O196  1  0.03963220  0.58711504  0.60141954  1
  O2-  O197  1  0.03507868  0.58599424  0.92995912  1
  O2-  O198  1  0.54353136  0.08207401  0.26416018  1
  O2-  O199  1  0.54243385  0.08376117  0.60032928  1
  O2-  O200  1  0.54565498  0.08914009  0.93730954  1
  O2-  O201  1  0.54800469  0.57982367  0.26905280  1
  O2-  O202  1  0.54852555  0.58178466  0.61028361  1
  O2-  O203  1  0.54764618  0.57714057  0.92920591  1
  O2-  O204  1  0.16590332  0.20611846  0.26267536  1
  O2-  O205  1  0.16299354  0.20556303  0.60928972  1
  O2-  O206  1  0.16877668  0.19959412  0.93648226  1
  O2-  O207  1  0.15936999  0.70413161  0.26956304  1
  O2-  O208  1  0.16090653  0.70453154  0.60048625  1
  O2-  O209  1  0.16603461  0.70699585  0.93215108  1
  O2-  O210  1  0.67489254  0.20454290  0.26726577  1
  O2-  O211  1  0.66870398  0.20873461  0.60049597  1
  O2-  O212  1  0.66167438  0.21107275  0.93528076  1
  O2-  O213  1  0.67112770  0.71009461  0.26950852  1
  O2-  O214  1  0.66876487  0.70341176  0.60936726  1
  O2-  O215  1  0.67151732  0.70722866  0.92878063  1
  O2-  O216  1  0.08068618  0.46164012  0.06484004  1
  O2-  O217  1  0.08404306  0.45890914  0.40488650  1
  O2-  O218  1  0.08756508  0.46096845  0.72933335  1
  O2-  O219  1  0.08225538  0.95737557  0.06865988  1
  O2-  O220  1  0.08363337  0.95451452  0.39350267  1
  O2-  O221  1  0.08092607  0.95791688  0.73723541  1
  O2-  O222  1  0.58383428  0.44818575  0.05806683  1
  O2-  O223  1  0.57734499  0.45042909  0.39975661  1
  O2-  O224  1  0.57858138  0.45208992  0.73845044  1
  O2-  O225  1  0.58967279  0.96079316  0.06032132  1
  O2-  O226  1  0.57884140  0.95606983  0.40020970  1
  O2-  O227  1  0.58872719  0.95920412  0.73144306  1
  O2-  O228  1  0.20455468  0.33059241  0.06408407  1
  O2-  O229  1  0.20476238  0.32767300  0.39945864  1
  O2-  O230  1  0.20167139  0.33704760  0.73222427  1
  O2-  O231  1  0.20799286  0.82983808  0.06736440  1
  O2-  O232  1  0.19505443  0.83074775  0.39341410  1
  O2-  O233  1  0.20438834  0.82746432  0.73087303  1
  O2-  O234  1  0.71339124  0.33782523  0.06197888  1
  O2-  O235  1  0.70984167  0.33274403  0.40129457  1
  O2-  O236  1  0.71216441  0.33028944  0.73747470  1
  O2-  O237  1  0.70690876  0.83708298  0.05924754  1
  O2-  O238  1  0.71266087  0.83671139  0.40461599  1
  O2-  O239  1  0.70968885  0.83977956  0.73238810  1
  O2-  O240  1  0.45027885  0.42130019  0.26633288  1
  O2-  O241  1  0.44824731  0.41898305  0.60924338  1
  O2-  O242  1  0.45356235  0.41155216  0.93443222  1
  O2-  O243  1  0.45505913  0.91901182  0.26402377  1
  O2-  O244  1  0.46067492  0.91621760  0.60081970  1
  O2-  O245  1  0.46247458  0.91958772  0.92941368  1
  O2-  O246  1  0.95854232  0.41637353  0.27151654  1
  O2-  O247  1  0.95948549  0.41387608  0.60386305  1
  O2-  O248  1  0.96031380  0.41470490  0.92854207  1
  O2-  O249  1  0.95820414  0.91040336  0.26745912  1
  O2-  O250  1  0.95745792  0.91419634  0.60348251  1
  O2-  O251  1  0.95113295  0.91998849  0.93879958  1
  O2-  O252  1  0.33162998  0.28779648  0.26465068  1
  O2-  O253  1  0.33001680  0.29868032  0.60806248  1
  O2-  O254  1  0.33525280  0.29224511  0.93637831  1
  O2-  O255  1  0.32644014  0.79329182  0.26640998  1
  O2-  O256  1  0.33177959  0.78800678  0.59808171  1
  O2-  O257  1  0.33163587  0.79401461  0.92979383  1
  O2-  O258  1  0.83678415  0.30016894  0.27153744  1
  O2-  O259  1  0.83848693  0.29427198  0.60399513  1
  O2-  O260  1  0.83564874  0.28502968  0.92770543  1
  O2-  O261  1  0.83737153  0.79561902  0.27078397  1
  O2-  O262  1  0.83595583  0.79525222  0.60437190  1
  O2-  O263  1  0.83533593  0.79897073  0.93518011  1
  O2-  O264  1  0.41906240  0.04576688  0.06311859  1
  O2-  O265  1  0.41677661  0.04155042  0.39930753  1
  O2-  O266  1  0.42212958  0.04330268  0.73603706  1
  O2-  O267  1  0.41798351  0.54476880  0.05824073  1
  O2-  O268  1  0.41956991  0.54933969  0.40122982  1
  O2-  O269  1  0.41172339  0.54773104  0.73212598  1
  O2-  O270  1  0.91424207  0.05164407  0.05858719  1
  O2-  O271  1  0.91809182  0.03479290  0.40147120  1
  O2-  O272  1  0.91174298  0.04018707  0.73449180  1
  O2-  O273  1  0.90983028  0.53816604  0.06052803  1
  O2-  O274  1  0.91653710  0.54063510  0.40374118  1
  O2-  O275  1  0.92007416  0.53998735  0.73793597  1
  O2-  O276  1  0.29901209  0.16535599  0.06411681  1
  O2-  O277  1  0.28575854  0.16267042  0.40072562  1
  O2-  O278  1  0.29262681  0.16883398  0.73840171  1
  O2-  O279  1  0.29856550  0.66530532  0.05781881  1
  O2-  O280  1  0.28434381  0.66742433  0.40295548  1
  O2-  O281  1  0.28641217  0.66079446  0.73074016  1
  O2-  O282  1  0.78810759  0.16331541  0.06047726  1
  O2-  O283  1  0.80735103  0.17289483  0.39820319  1
  O2-  O284  1  0.79615274  0.16366675  0.72912351  1
  O2-  O285  1  0.79909980  0.66596968  0.05830135  1
  O2-  O286  1  0.80145959  0.67286184  0.39950315  1
  O2-  O287  1  0.79839676  0.67205894  0.73903864  1
