# generated using pymatgen
data_Ca2Al2SiO7
_symmetry_space_group_name_H-M   'P 1'
_cell_length_a   15.45715267
_cell_length_b   15.45720428
_cell_length_c   15.28315363
_cell_angle_alpha   89.99512646
_cell_angle_beta   90.00471510
_cell_angle_gamma   90.00807539
_symmetry_Int_Tables_number   1
_chemical_formula_structural   Ca2Al2SiO7
_chemical_formula_sum   'Ca48 Al48 Si24 O168'
_cell_volume   3651.51773457
_cell_formula_units_Z   24
loop_
 _symmetry_equiv_pos_site_id
 _symmetry_equiv_pos_as_xyz
  1  'x, y, z'
loop_
 _atom_type_symbol
 _atom_type_oxidation_number
  Ca2+  2.0
  Al0+  0.0
  Si0+  0.0
  O2-  -2.0
loop_
 _atom_site_type_symbol
 _atom_site_label
 _atom_site_symmetry_multiplicity
 _atom_site_fract_x
 _atom_site_fract_y
 _atom_site_fract_z
 _atom_site_occupancy
  Ca2+  Ca0  1  0.15803509  0.07623402  0.16510838  1
  Ca2+  Ca1  1  0.17301470  0.08490158  0.50991134  1
  Ca2+  Ca2  1  0.16918810  0.08623204  0.83948505  1
  Ca2+  Ca3  1  0.16021165  0.57530411  0.16907402  1
  Ca2+  Ca4  1  0.15770576  0.57828518  0.50070311  1
  Ca2+  Ca5  1  0.16955009  0.57986982  0.84332134  1
  Ca2+  Ca6  1  0.67364483  0.08028882  0.16919857  1
  Ca2+  Ca7  1  0.67654962  0.07702806  0.50552988  1
  Ca2+  Ca8  1  0.67521022  0.07816414  0.83949092  1
  Ca2+  Ca9  1  0.67655344  0.58121319  0.17311562  1
  Ca2+  Ca10  1  0.67554171  0.57973685  0.50525091  1
  Ca2+  Ca11  1  0.66346062  0.57401623  0.83454460  1
  Ca2+  Ca12  1  0.08104640  0.33179561  0.16265158  1
  Ca2+  Ca13  1  0.07329529  0.32741904  0.49603478  1
  Ca2+  Ca14  1  0.08100008  0.32362536  0.82693799  1
  Ca2+  Ca15  1  0.08618243  0.82263890  0.15836099  1
  Ca2+  Ca16  1  0.08452942  0.81922982  0.49521727  1
  Ca2+  Ca17  1  0.09383989  0.82312660  0.83085317  1
  Ca2+  Ca18  1  0.58435493  0.32427035  0.15796086  1
  Ca2+  Ca19  1  0.57961084  0.33791325  0.50075468  1
  Ca2+  Ca20  1  0.57904009  0.32825325  0.82524710  1
  Ca2+  Ca21  1  0.58069644  0.84435219  0.16517780  1
  Ca2+  Ca22  1  0.57526139  0.85066633  0.49808012  1
  Ca2+  Ca23  1  0.58186571  0.83824501  0.82770049  1
  Ca2+  Ca24  1  0.31916663  0.42082840  0.16828642  1
  Ca2+  Ca25  1  0.32548137  0.41384139  0.50649625  1
  Ca2+  Ca26  1  0.32871946  0.42212162  0.84191300  1
  Ca2+  Ca27  1  0.32865149  0.91382005  0.16738191  1
  Ca2+  Ca28  1  0.33737251  0.91959011  0.50646807  1
  Ca2+  Ca29  1  0.33054279  0.92030553  0.83352855  1
  Ca2+  Ca30  1  0.83928819  0.42098540  0.17504570  1
  Ca2+  Ca31  1  0.83718013  0.41690222  0.50339403  1
  Ca2+  Ca32  1  0.83221988  0.40939408  0.82861476  1
  Ca2+  Ca33  1  0.82531648  0.92869673  0.17505806  1
  Ca2+  Ca34  1  0.82643756  0.92652395  0.50925048  1
  Ca2+  Ca35  1  0.82781107  0.92679799  0.84113872  1
  Ca2+  Ca36  1  0.42559378  0.16738290  0.15962929  1
  Ca2+  Ca37  1  0.41434723  0.16981757  0.50082931  1
  Ca2+  Ca38  1  0.42130858  0.16731405  0.82567957  1
  Ca2+  Ca39  1  0.41456938  0.67094250  0.16365430  1
  Ca2+  Ca40  1  0.42118527  0.68083490  0.49487653  1
  Ca2+  Ca41  1  0.41428771  0.67248358  0.82709077  1
  Ca2+  Ca42  1  0.91307647  0.17022000  0.16093514  1
  Ca2+  Ca43  1  0.90741714  0.17334351  0.49913315  1
  Ca2+  Ca44  1  0.92489621  0.16236887  0.82723628  1
  Ca2+  Ca45  1  0.92551725  0.66306165  0.16388830  1
  Ca2+  Ca46  1  0.92521628  0.66083541  0.49403392  1
  Ca2+  Ca47  1  0.93038077  0.66866564  0.82826942  1
  Al0+  Al48  1  -0.00046345  0.00119424  0.00478996  1
  Al0+  Al49  1  0.00083974  -0.00089201  0.34019200  1
  Al0+  Al50  1  0.00213563  -0.00461129  0.66640750  1
  Al0+  Al51  1  -0.00042123  0.50040238  -0.00347319  1
  Al0+  Al52  1  0.00016860  0.49709361  0.33364196  1
  Al0+  Al53  1  0.00064836  0.49779806  0.66193456  1
  Al0+  Al54  1  0.50018046  0.00083200  -0.00286455  1
  Al0+  Al55  1  0.49827945  0.00191699  0.32994438  1
  Al0+  Al56  1  0.49862068  0.00112013  0.67042697  1
  Al0+  Al57  1  0.49991462  0.50277996  0.00571152  1
  Al0+  Al58  1  0.49710568  0.50243377  0.33036843  1
  Al0+  Al59  1  0.50031966  0.50099737  0.66514423  1
  Al0+  Al60  1  0.24931979  0.25244760  0.00230265  1
  Al0+  Al61  1  0.24859664  0.25063897  0.33535719  1
  Al0+  Al62  1  0.25053801  0.24971534  0.66470125  1
  Al0+  Al63  1  0.25203272  0.75112178  0.00267644  1
  Al0+  Al64  1  0.25193272  0.74918504  0.32473538  1
  Al0+  Al65  1  0.25269761  0.74871893  0.65608078  1
  Al0+  Al66  1  0.74811275  0.24969284  -0.00281090  1
  Al0+  Al67  1  0.74888435  0.25040258  0.33169649  1
  Al0+  Al68  1  0.75020656  0.25039112  0.67071934  1
  Al0+  Al69  1  0.74799671  0.74973854  0.00219030  1
  Al0+  Al70  1  0.74891193  0.74929816  0.34284622  1
  Al0+  Al71  1  0.75177544  0.74797685  0.67188913  1
  Al0+  Al72  1  0.31860827  0.07212360  0.68035283  1
  Al0+  Al73  1  0.17691546  0.42874628  0.01420096  1
  Al0+  Al74  1  0.67812161  0.43072763  0.67991207  1
  Al0+  Al75  1  0.57023302  0.17903628  0.98411736  1
  Al0+  Al76  1  0.07143867  0.67919237  0.65217710  1
  Al0+  Al77  1  0.43282898  0.82128984  0.65367079  1
  Al0+  Al78  1  0.43214574  0.82225094  0.31642607  1
  Al0+  Al79  1  0.32198458  0.57291214  0.01578059  1
  Al0+  Al80  1  0.82156732  0.07268368  0.01656038  1
  Al0+  Al81  1  0.82122734  0.56935402  0.34661341  1
  Al0+  Al82  1  0.07231417  0.17482898  0.65193134  1
  Al0+  Al83  1  0.92844772  0.31791596  0.65104213  1
  Al0+  Al84  1  0.82248089  0.07304022  0.35036593  1
  Al0+  Al85  1  0.17994253  0.92992260  0.01227113  1
  Al0+  Al86  1  0.92922147  0.31739992  0.31867665  1
  Al0+  Al87  1  0.07112995  0.68007063  0.98567399  1
  Al0+  Al88  1  0.06850467  0.67941191  0.31687708  1
  Al0+  Al89  1  0.67687185  0.93045120  0.34951741  1
  Al0+  Al90  1  0.67765087  0.92815974  0.01656526  1
  Al0+  Al91  1  0.17985752  0.42948964  0.35004757  1
  Al0+  Al92  1  0.67840398  0.92853977  0.68372153  1
  Al0+  Al93  1  0.82393853  0.07128602  0.68415148  1
  Al0+  Al94  1  0.42918740  0.32296033  0.65394349  1
  Al0+  Al95  1  0.07068153  0.17849221  0.98803457  1
  Si0+  Si96  1  0.92642132  0.82348176  0.31871312  1
  Si0+  Si97  1  0.92702045  0.32312461  0.98236187  1
  Si0+  Si98  1  0.57284999  0.67769296  0.98480302  1
  Si0+  Si99  1  0.42995972  0.82037173  0.98342491  1
  Si0+  Si100  1  0.56808127  0.18247766  0.31883818  1
  Si0+  Si101  1  0.07442742  0.17604692  0.31682297  1
  Si0+  Si102  1  0.67474516  0.42783408  0.34752643  1
  Si0+  Si103  1  0.18048305  0.92380301  0.68003894  1
  Si0+  Si104  1  0.57411723  0.67699223  0.65078709  1
  Si0+  Si105  1  0.32204266  0.57336496  0.35248585  1
  Si0+  Si106  1  0.82547598  0.57051145  0.68566336  1
  Si0+  Si107  1  0.42510797  0.32349789  0.31700092  1
  Si0+  Si108  1  0.57391257  0.67640841  0.31614471  1
  Si0+  Si109  1  0.17889715  0.42948997  0.68136791  1
  Si0+  Si110  1  0.18006118  0.92566815  0.34808555  1
  Si0+  Si111  1  0.32225160  0.07344511  0.01618062  1
  Si0+  Si112  1  0.31945233  0.07037988  0.34647158  1
  Si0+  Si113  1  0.32023880  0.57139115  0.67850936  1
  Si0+  Si114  1  0.42921142  0.32380346  0.98535553  1
  Si0+  Si115  1  0.82048039  0.57058916  0.01292894  1
  Si0+  Si116  1  0.92594880  0.82023237  0.65037874  1
  Si0+  Si117  1  0.57088196  0.17915021  0.64953686  1
  Si0+  Si118  1  0.92654302  0.82141794  0.98579393  1
  Si0+  Si119  1  0.67850139  0.42940302  0.01447367  1
  O2-  O120  1  0.25110006  0.00781220  0.06097063  1
  O2-  O121  1  0.24719290  0.00083395  0.38898335  1
  O2-  O122  1  0.24115923  -0.00076039  0.72496273  1
  O2-  O123  1  0.24767190  0.50259301  0.06432112  1
  O2-  O124  1  0.25504087  0.50411054  0.39784503  1
  O2-  O125  1  0.25027845  0.50072012  0.72256678  1
  O2-  O126  1  0.75008921  -0.00048494  0.06567087  1
  O2-  O127  1  0.75397480  -0.00319906  0.39874188  1
  O2-  O128  1  0.75229088  -0.00176516  0.73335260  1
  O2-  O129  1  0.75189805  0.49751234  0.05630733  1
  O2-  O130  1  0.74250031  0.49726566  0.39111939  1
  O2-  O131  1  0.75379432  0.50400123  0.72873198  1
  O2-  O132  1  0.00091221  0.23944845  0.27296199  1
  O2-  O133  1  -0.00355485  0.24209228  0.60084645  1
  O2-  O134  1  -0.00449178  0.25291309  0.94144304  1
  O2-  O135  1  -0.00578251  0.75548997  0.27111005  1
  O2-  O136  1  -0.00534092  0.75161011  0.60559086  1
  O2-  O137  1  -0.00184551  0.75650882  0.93901413  1
  O2-  O138  1  0.50004703  0.25675637  0.27553309  1
  O2-  O139  1  0.50351965  0.24920800  0.60427188  1
  O2-  O140  1  0.49447195  0.25372905  0.93900824  1
  O2-  O141  1  0.50886292  0.74833571  0.27116202  1
  O2-  O142  1  0.51323515  0.75239336  0.60665411  1
  O2-  O143  1  0.50260965  0.74968011  0.94305885  1
  O2-  O144  1  0.07012076  0.17968418  0.10129757  1
  O2-  O145  1  0.08039505  0.17931336  0.42182136  1
  O2-  O146  1  0.07468904  0.17956262  0.76565129  1
  O2-  O147  1  0.06780649  0.67877342  0.09861310  1
  O2-  O148  1  0.06847151  0.68040693  0.43016313  1
  O2-  O149  1  0.07385311  0.68007798  0.76550073  1
  O2-  O150  1  0.56885933  0.18169976  0.09808873  1
  O2-  O151  1  0.56541336  0.18264879  0.42370634  1
  O2-  O152  1  0.56787491  0.18056000  0.75517417  1
  O2-  O153  1  0.57412915  0.67446132  0.08956269  1
  O2-  O154  1  0.56973329  0.66949641  0.42117230  1
  O2-  O155  1  0.56881914  0.67281010  0.75655751  1
  O2-  O156  1  0.18117432  0.42882792  0.23713501  1
  O2-  O157  1  0.17965422  0.43092298  0.57610516  1
  O2-  O158  1  0.17903799  0.42949681  0.90021891  1
  O2-  O159  1  0.18082742  0.92581932  0.24280627  1
  O2-  O160  1  0.18557363  0.92102366  0.57422603  1
  O2-  O161  1  0.18502904  0.92654810  0.89939357  1
  O2-  O162  1  0.67483219  0.42820073  0.24145147  1
  O2-  O163  1  0.67535803  0.43513516  0.56686410  1
  O2-  O164  1  0.67527789  0.43210259  0.90962640  1
  O2-  O165  1  0.67604971  0.93519201  0.23607902  1
  O2-  O166  1  0.67815657  0.93265358  0.57021478  1
  O2-  O167  1  0.67886066  0.92736042  0.90344722  1
  O2-  O168  1  0.43272925  0.32236714  0.09141900  1
  O2-  O169  1  0.42456796  0.32211659  0.42215161  1
  O2-  O170  1  0.43033462  0.32393402  0.76697100  1
  O2-  O171  1  0.43045747  0.82064474  0.08860363  1
  O2-  O172  1  0.43203231  0.82304778  0.42948625  1
  O2-  O173  1  0.42843152  0.81687984  0.76668951  1
  O2-  O174  1  0.92625642  0.32549464  0.08813415  1
  O2-  O175  1  0.92919630  0.31815026  0.43116464  1
  O2-  O176  1  0.93297276  0.32204054  0.76460322  1
  O2-  O177  1  0.92602319  0.81623699  0.09138307  1
  O2-  O178  1  0.93088891  0.82199946  0.42425049  1
  O2-  O179  1  0.92600032  0.81784824  0.75608849  1
  O2-  O180  1  0.32054082  0.07052597  0.24133321  1
  O2-  O181  1  0.32001029  0.07048565  0.56654364  1
  O2-  O182  1  0.32280286  0.07214228  0.91070015  1
  O2-  O183  1  0.32290473  0.57132722  0.24705779  1
  O2-  O184  1  0.31989310  0.57078650  0.57355369  1
  O2-  O185  1  0.32318633  0.57166250  0.90138155  1
  O2-  O186  1  0.81954057  0.07473580  0.23695493  1
  O2-  O187  1  0.81954952  0.07124418  0.57055064  1
  O2-  O188  1  0.82135367  0.07165714  0.90340317  1
  O2-  O189  1  0.82080516  0.56689448  0.23276010  1
  O2-  O190  1  0.82542838  0.56991804  0.57998318  1
  O2-  O191  1  0.81870321  0.57106414  0.90806676  1
  O2-  O192  1  0.05430841  0.07860449  0.27607206  1
  O2-  O193  1  0.05552392  0.07213327  0.60279415  1
  O2-  O194  1  0.04390186  0.08014193  0.93487295  1
  O2-  O195  1  0.03530644  0.58276568  0.26522127  1
  O2-  O196  1  0.04014982  0.58300968  0.59822864  1
  O2-  O197  1  0.03861438  0.58449610  0.93034080  1
  O2-  O198  1  0.53487845  0.09363285  0.26906996  1
  O2-  O199  1  0.54134140  0.08682725  0.60398102  1
  O2-  O200  1  0.53863646  0.08333602  0.92942638  1
  O2-  O201  1  0.54509608  0.58445859  0.26587491  1
  O2-  O202  1  0.54162540  0.58756496  0.60069189  1
  O2-  O203  1  0.54282190  0.58597849  0.93707968  1
  O2-  O204  1  0.16634469  0.20608984  0.26871302  1
  O2-  O205  1  0.16891899  0.20855008  0.59792817  1
  O2-  O206  1  0.16902020  0.20866689  0.93565989  1
  O2-  O207  1  0.16552068  0.70923390  0.26342204  1
  O2-  O208  1  0.16577715  0.71054745  0.59404872  1
  O2-  O209  1  0.16924686  0.71114769  0.93451699  1
  O2-  O210  1  0.65936393  0.20887509  0.26971766  1
  O2-  O211  1  0.66454268  0.20514474  0.60531162  1
  O2-  O212  1  0.66525684  0.21219589  0.92918704  1
  O2-  O213  1  0.67021774  0.69742876  0.27373227  1
  O2-  O214  1  0.67187334  0.69275970  0.60999817  1
  O2-  O215  1  0.66448084  0.70304927  0.93552873  1
  O2-  O216  1  0.07793859  0.45793077  0.06601431  1
  O2-  O217  1  0.08415712  0.46147448  0.40358589  1
  O2-  O218  1  0.08734928  0.45797471  0.72789592  1
  O2-  O219  1  0.08340380  0.95588325  0.06885240  1
  O2-  O220  1  0.08748857  0.94663018  0.39668777  1
  O2-  O221  1  0.08401363  0.93665188  0.72359237  1
  O2-  O222  1  0.58883857  0.45905560  0.06518608  1
  O2-  O223  1  0.57955437  0.45241214  0.39164837  1
  O2-  O224  1  0.58242118  0.46452901  0.73576679  1
  O2-  O225  1  0.57838571  0.95885724  0.06666521  1
  O2-  O226  1  0.57945485  0.96744395  0.40004132  1
  O2-  O227  1  0.57998910  0.95762916  0.73567543  1
  O2-  O228  1  0.20731782  0.33218740  0.07077795  1
  O2-  O229  1  0.21265677  0.33310796  0.40390673  1
  O2-  O230  1  0.20809207  0.33815872  0.72758136  1
  O2-  O231  1  0.21513513  0.83621034  0.06918235  1
  O2-  O232  1  0.21346711  0.83494339  0.39387387  1
  O2-  O233  1  0.21621961  0.83292122  0.72654623  1
  O2-  O234  1  0.70346024  0.33689498  0.06085981  1
  O2-  O235  1  0.69929997  0.33471077  0.39339832  1
  O2-  O236  1  0.70592057  0.33446242  0.73548742  1
  O2-  O237  1  0.70197383  0.82784954  0.06869899  1
  O2-  O238  1  0.69358119  0.82887383  0.40025894  1
  O2-  O239  1  0.70107686  0.82670519  0.73365062  1
  O2-  O240  1  0.44776908  0.41703282  0.27050138  1
  O2-  O241  1  0.46003863  0.41875544  0.59738191  1
  O2-  O242  1  0.45764226  0.41771957  0.94122056  1
  O2-  O243  1  0.46015717  0.91936060  0.26098772  1
  O2-  O244  1  0.45875396  0.91976651  0.60013469  1
  O2-  O245  1  0.45568189  0.91260030  0.93614004  1
  O2-  O246  1  0.96375165  0.41273134  0.26443946  1
  O2-  O247  1  0.95993609  0.41531754  0.59709659  1
  O2-  O248  1  0.95206047  0.41608133  0.93455163  1
  O2-  O249  1  0.95202342  0.91806238  0.27402584  1
  O2-  O250  1  0.95082783  0.91326200  0.60353052  1
  O2-  O251  1  0.94919325  0.91656436  0.94318096  1
  O2-  O252  1  0.33555531  0.29007658  0.26878832  1
  O2-  O253  1  0.33417471  0.29083746  0.59803031  1
  O2-  O254  1  0.33390208  0.30278935  0.94178392  1
  O2-  O255  1  0.33707594  0.78912936  0.26051381  1
  O2-  O256  1  0.34043525  0.78556476  0.59430064  1
  O2-  O257  1  0.33933444  0.79062160  0.93547786  1
  O2-  O258  1  0.83020485  0.29328064  0.26427192  1
  O2-  O259  1  0.82706186  0.29634944  0.60018383  1
  O2-  O260  1  0.83246537  0.29950501  0.93738453  1
  O2-  O261  1  0.83074960  0.79862929  0.27683648  1
  O2-  O262  1  0.83212011  0.79436588  0.60426277  1
  O2-  O263  1  0.83414902  0.79161461  0.93865755  1
  O2-  O264  1  0.41426311  0.04307451  0.06279572  1
  O2-  O265  1  0.41016234  0.04127584  0.39442980  1
  O2-  O266  1  0.41344714  0.03969481  0.73604824  1
  O2-  O267  1  0.41958940  0.54439193  0.07196751  1
  O2-  O268  1  0.41704984  0.54961289  0.39721226  1
  O2-  O269  1  0.41227756  0.54555383  0.72634417  1
  O2-  O270  1  0.91958217  0.04699096  0.07096083  1
  O2-  O271  1  0.92269451  0.05006822  0.40269506  1
  O2-  O272  1  0.92402342  0.04156698  0.73397205  1
  O2-  O273  1  0.91239744  0.54372591  0.06001889  1
  O2-  O274  1  0.91519467  0.53403512  0.40156798  1
  O2-  O275  1  0.91795307  0.54044869  0.73172226  1
  O2-  O276  1  0.30258743  0.16846701  0.06168375  1
  O2-  O277  1  0.29386948  0.16251564  0.39463430  1
  O2-  O278  1  0.29176760  0.16952673  0.73504252  1
  O2-  O279  1  0.29695727  0.67131180  0.06884884  1
  O2-  O280  1  0.29574894  0.66817584  0.39516407  1
  O2-  O281  1  0.29123925  0.66330777  0.72503761  1
  O2-  O282  1  0.78940491  0.17170282  0.06728012  1
  O2-  O283  1  0.78667996  0.17034006  0.40153229  1
  O2-  O284  1  0.79655919  0.17015694  0.73570263  1
  O2-  O285  1  0.79040168  0.66041399  0.06261846  1
  O2-  O286  1  0.79465991  0.66508953  0.40460333  1
  O2-  O287  1  0.80369794  0.66446545  0.73236685  1
