# generated using pymatgen
data_Ca2Al2SiO7
_symmetry_space_group_name_H-M   'P 1'
_cell_length_a   15.46362336
_cell_length_b   15.46550701
_cell_length_c   15.28913192
_cell_angle_alpha   90.00997489
_cell_angle_beta   90.01346845
_cell_angle_gamma   90.00940336
_symmetry_Int_Tables_number   1
_chemical_formula_structural   Ca2Al2SiO7
_chemical_formula_sum   'Ca48 Al48 Si24 O168'
_cell_volume   3656.43812911
_cell_formula_units_Z   24
loop_
 _symmetry_equiv_pos_site_id
 _symmetry_equiv_pos_as_xyz
  1  'x, y, z'
loop_
 _atom_type_symbol
 _atom_type_oxidation_number
  Ca2+  2.0
  Al0+  0.0
  Si0+  0.0
  O2-  -2.0
loop_
 _atom_site_type_symbol
 _atom_site_label
 _atom_site_symmetry_multiplicity
 _atom_site_fract_x
 _atom_site_fract_y
 _atom_site_fract_z
 _atom_site_occupancy
  Ca2+  Ca0  1  0.17149903  0.09320094  0.16518954  1
  Ca2+  Ca1  1  0.16575894  0.08904754  0.50347107  1
  Ca2+  Ca2  1  0.17237182  0.08406195  0.84304773  1
  Ca2+  Ca3  1  0.16736782  0.56588556  0.17086612  1
  Ca2+  Ca4  1  0.17389504  0.57374620  0.50574575  1
  Ca2+  Ca5  1  0.17719045  0.57802662  0.83907538  1
  Ca2+  Ca6  1  0.67785866  0.09168583  0.16690449  1
  Ca2+  Ca7  1  0.67100957  0.08262389  0.50916861  1
  Ca2+  Ca8  1  0.66254660  0.07630619  0.84259937  1
  Ca2+  Ca9  1  0.66961835  0.57066329  0.17105903  1
  Ca2+  Ca10  1  0.66258586  0.57469116  0.50374155  1
  Ca2+  Ca11  1  0.65518017  0.57124257  0.83231021  1
  Ca2+  Ca12  1  0.08499767  0.32673532  0.15987754  1
  Ca2+  Ca13  1  0.08629953  0.32308421  0.49280777  1
  Ca2+  Ca14  1  0.08650852  0.32310200  0.83213925  1
  Ca2+  Ca15  1  0.08318864  0.83263615  0.15930544  1
  Ca2+  Ca16  1  0.07492763  0.83114568  0.49790672  1
  Ca2+  Ca17  1  0.07667203  0.83996800  0.82729416  1
  Ca2+  Ca18  1  0.57651626  0.33556858  0.15775522  1
  Ca2+  Ca19  1  0.57425772  0.34505211  0.49890193  1
  Ca2+  Ca20  1  0.58049570  0.32503646  0.82725730  1
  Ca2+  Ca21  1  0.58888555  0.83073959  0.16081137  1
  Ca2+  Ca22  1  0.58399810  0.83102702  0.50373724  1
  Ca2+  Ca23  1  0.58393754  0.83045385  0.82078139  1
  Ca2+  Ca24  1  0.32444521  0.39961789  0.16812524  1
  Ca2+  Ca25  1  0.33272641  0.41146523  0.50555423  1
  Ca2+  Ca26  1  0.33764201  0.41536473  0.83590065  1
  Ca2+  Ca27  1  0.33003264  0.92745328  0.16419566  1
  Ca2+  Ca28  1  0.33265537  0.91733598  0.50863406  1
  Ca2+  Ca29  1  0.33118124  0.92405966  0.84242889  1
  Ca2+  Ca30  1  0.81936365  0.41541458  0.17389501  1
  Ca2+  Ca31  1  0.82026082  0.41859679  0.50438815  1
  Ca2+  Ca32  1  0.81882042  0.41215006  0.83675822  1
  Ca2+  Ca33  1  0.82916812  0.92922960  0.16471165  1
  Ca2+  Ca34  1  0.82984241  0.92157575  0.50633311  1
  Ca2+  Ca35  1  0.82349387  0.91949095  0.83707356  1
  Ca2+  Ca36  1  0.42360233  0.17662237  0.15672398  1
  Ca2+  Ca37  1  0.42756863  0.17714918  0.49959327  1
  Ca2+  Ca38  1  0.42460022  0.17265787  0.83145967  1
  Ca2+  Ca39  1  0.41685021  0.67030384  0.16340589  1
  Ca2+  Ca40  1  0.41901095  0.66479930  0.50601302  1
  Ca2+  Ca41  1  0.42020904  0.67405225  0.82141210  1
  Ca2+  Ca42  1  0.92450300  0.15683057  0.16264186  1
  Ca2+  Ca43  1  0.92698333  0.16189736  0.49502703  1
  Ca2+  Ca44  1  0.92876134  0.15476915  0.83336069  1
  Ca2+  Ca45  1  0.91372577  0.66384066  0.16340904  1
  Ca2+  Ca46  1  0.90499981  0.67291736  0.49687056  1
  Ca2+  Ca47  1  0.91860195  0.67516751  0.82538604  1
  Al0+  Al48  1  -0.00166343  -0.00264258  0.00161167  1
  Al0+  Al49  1  -0.00027345  -0.00205644  0.33203036  1
  Al0+  Al50  1  0.00060913  -0.00157763  0.65704077  1
  Al0+  Al51  1  0.00241207  0.50089165  -0.00020729  1
  Al0+  Al52  1  0.00106567  0.50055513  0.34208407  1
  Al0+  Al53  1  0.00038383  0.49822660  0.66818898  1
  Al0+  Al54  1  0.49792083  -0.00139098  0.00714802  1
  Al0+  Al55  1  0.49845023  0.00047502  0.33169763  1
  Al0+  Al56  1  0.49950575  0.00113597  0.66278014  1
  Al0+  Al57  1  0.50026643  0.50357260  0.00143577  1
  Al0+  Al58  1  0.49766480  0.50369702  0.32927751  1
  Al0+  Al59  1  0.49840894  0.50168814  0.66822659  1
  Al0+  Al60  1  0.24997831  0.25072228  -0.00162186  1
  Al0+  Al61  1  0.25151131  0.24808177  0.33206690  1
  Al0+  Al62  1  0.25012407  0.24785593  0.66037476  1
  Al0+  Al63  1  0.24973797  0.74854691  0.00378478  1
  Al0+  Al64  1  0.24825117  0.75067024  0.33163439  1
  Al0+  Al65  1  0.24802864  0.74837548  0.66691857  1
  Al0+  Al66  1  0.75072796  0.25043824  0.00524042  1
  Al0+  Al67  1  0.75110899  0.24920756  0.34532510  1
  Al0+  Al68  1  0.75504396  0.24930066  0.67001788  1
  Al0+  Al69  1  0.75111243  0.75050690  0.00163321  1
  Al0+  Al70  1  0.74847728  0.75178117  0.33188319  1
  Al0+  Al71  1  0.75053623  0.75132331  0.66111283  1
  Al0+  Al72  1  0.42629124  0.82278369  0.65330656  1
  Al0+  Al73  1  0.06867331  0.17913926  0.98665748  1
  Al0+  Al74  1  0.67678796  0.92679060  0.01428647  1
  Al0+  Al75  1  0.82205192  0.06932384  0.34967108  1
  Al0+  Al76  1  0.57386177  0.17795955  0.98749721  1
  Al0+  Al77  1  0.17795363  0.92788086  0.01375028  1
  Al0+  Al78  1  0.57545725  0.17759950  0.65324154  1
  Al0+  Al79  1  0.93004562  0.81866903  0.65164640  1
  Al0+  Al80  1  0.31915038  0.57031516  0.68090090  1
  Al0+  Al81  1  0.57071316  0.67921621  0.65110986  1
  Al0+  Al82  1  0.43154863  0.32059248  0.65209873  1
  Al0+  Al83  1  0.67600363  0.42962120  0.34931776  1
  Al0+  Al84  1  0.82092997  0.57279396  0.34785298  1
  Al0+  Al85  1  0.67839912  0.42954184  0.01276171  1
  Al0+  Al86  1  0.06892193  0.17942868  0.31705208  1
  Al0+  Al87  1  0.43189271  0.32163626  0.31888868  1
  Al0+  Al88  1  0.18184565  0.42661169  0.34824031  1
  Al0+  Al89  1  0.06922219  0.18049290  0.65273350  1
  Al0+  Al90  1  0.18021053  0.42921225  0.01204856  1
  Al0+  Al91  1  0.42958368  0.32295744  0.98396305  1
  Al0+  Al92  1  0.32075119  0.07280157  0.01529693  1
  Al0+  Al93  1  0.82071982  0.07139243  0.01333674  1
  Al0+  Al94  1  0.67917826  0.93147694  0.67864681  1
  Al0+  Al95  1  0.67921081  0.42908306  0.68230741  1
  Si0+  Si96  1  0.82603281  0.07048331  0.68329999  1
  Si0+  Si97  1  0.92765845  0.32532168  0.64923498  1
  Si0+  Si98  1  0.57218040  0.68218840  0.98544462  1
  Si0+  Si99  1  0.42603271  0.82329764  0.31592757  1
  Si0+  Si100  1  0.82295526  0.57309983  0.68375917  1
  Si0+  Si101  1  0.17838347  0.42434989  0.68404733  1
  Si0+  Si102  1  0.56988653  0.68204857  0.31554848  1
  Si0+  Si103  1  0.32006898  0.07081725  0.67979593  1
  Si0+  Si104  1  0.32244541  0.57260373  0.01839206  1
  Si0+  Si105  1  0.32055225  0.06969066  0.35074984  1
  Si0+  Si106  1  0.92737846  0.32373581  0.31894463  1
  Si0+  Si107  1  0.92780851  0.32580252  0.98444073  1
  Si0+  Si108  1  0.67607415  0.92900923  0.35085233  1
  Si0+  Si109  1  0.17955328  0.92747392  0.34990992  1
  Si0+  Si110  1  0.92972826  0.81890788  0.98462548  1
  Si0+  Si111  1  0.42680687  0.81992526  0.98715671  1
  Si0+  Si112  1  0.32011224  0.57612804  0.35024758  1
  Si0+  Si113  1  0.92857079  0.81936671  0.31469771  1
  Si0+  Si114  1  0.07211233  0.67502413  0.64944103  1
  Si0+  Si115  1  0.57422624  0.17670248  0.31781173  1
  Si0+  Si116  1  0.07173553  0.67834702  0.31727459  1
  Si0+  Si117  1  0.82321905  0.57211969  0.01328601  1
  Si0+  Si118  1  0.07233749  0.67726686  0.98447992  1
  Si0+  Si119  1  0.17786820  0.92911386  0.67845776  1
  O2-  O120  1  0.24572874  0.00253993  0.06556420  1
  O2-  O121  1  0.24967751  -0.00185533  0.39325215  1
  O2-  O122  1  0.25190330  -0.00414461  0.72055872  1
  O2-  O123  1  0.25803098  0.49962650  0.06120013  1
  O2-  O124  1  0.25713988  0.50180766  0.39319290  1
  O2-  O125  1  0.24582860  0.49434033  0.72774087  1
  O2-  O126  1  0.74277597  0.00483071  0.06311536  1
  O2-  O127  1  0.74225530  -0.00049442  0.39514065  1
  O2-  O128  1  0.75006381  0.00938152  0.72616818  1
  O2-  O129  1  0.75739563  0.50126704  0.05729807  1
  O2-  O130  1  0.75065414  0.50014003  0.39836465  1
  O2-  O131  1  0.75521523  0.50434940  0.72861484  1
  O2-  O132  1  -0.00616717  0.25450139  0.27153961  1
  O2-  O133  1  -0.00348734  0.25646813  0.60573663  1
  O2-  O134  1  -0.00649979  0.25366836  0.94022982  1
  O2-  O135  1  -0.00321726  0.74483016  0.27346320  1
  O2-  O136  1  0.00040419  0.73977423  0.60392005  1
  O2-  O137  1  0.00292798  0.74974270  0.94234682  1
  O2-  O138  1  0.51138692  0.25090379  0.27422291  1
  O2-  O139  1  0.50915721  0.25440894  0.60188885  1
  O2-  O140  1  0.50337989  0.25122014  0.93682254  1
  O2-  O141  1  0.49871412  0.75384934  0.27400185  1
  O2-  O142  1  0.49901588  0.75247991  0.60140922  1
  O2-  O143  1  0.50259406  0.75491902  0.94452552  1
  O2-  O144  1  0.06763124  0.18081086  0.09965916  1
  O2-  O145  1  0.06900902  0.17899266  0.43029645  1
  O2-  O146  1  0.06980247  0.17801548  0.76575581  1
  O2-  O147  1  0.07035781  0.67618541  0.08972653  1
  O2-  O148  1  0.07618394  0.68332519  0.42197299  1
  O2-  O149  1  0.07193594  0.67743278  0.75521532  1
  O2-  O150  1  0.57382941  0.18154441  0.10146042  1
  O2-  O151  1  0.56925709  0.17068090  0.42288878  1
  O2-  O152  1  0.57107850  0.17505249  0.76651476  1
  O2-  O153  1  0.57174629  0.68249108  0.09100912  1
  O2-  O154  1  0.57030934  0.68246763  0.42013604  1
  O2-  O155  1  0.56940992  0.68089094  0.76515294  1
  O2-  O156  1  0.18152345  0.42806135  0.23505301  1
  O2-  O157  1  0.17904928  0.42516364  0.57826011  1
  O2-  O158  1  0.17728078  0.43368486  0.89931824  1
  O2-  O159  1  0.18133217  0.92393155  0.24525705  1
  O2-  O160  1  0.17723805  0.93021141  0.57295474  1
  O2-  O161  1  0.18010687  0.92644885  0.89972833  1
  O2-  O162  1  0.67618458  0.43207341  0.23545838  1
  O2-  O163  1  0.67930710  0.43271999  0.56952031  1
  O2-  O164  1  0.67734972  0.43191146  0.89981662  1
  O2-  O165  1  0.67778180  0.92689705  0.24538341  1
  O2-  O166  1  0.68244786  0.93129664  0.56529016  1
  O2-  O167  1  0.68070482  0.92082602  0.90102481  1
  O2-  O168  1  0.43078655  0.32131632  0.09786578  1
  O2-  O169  1  0.43097391  0.31988850  0.43181617  1
  O2-  O170  1  0.42915448  0.31767386  0.76513689  1
  O2-  O171  1  0.42440933  0.81483238  0.09265169  1
  O2-  O172  1  0.42371718  0.82349753  0.42051240  1
  O2-  O173  1  0.42502536  0.82170590  0.76705015  1
  O2-  O174  1  0.93087802  0.33086746  0.08988634  1
  O2-  O175  1  0.93089344  0.32216631  0.42449302  1
  O2-  O176  1  0.92860417  0.32797921  0.75480637  1
  O2-  O177  1  0.92919045  0.81567905  0.08986145  1
  O2-  O178  1  0.93044702  0.81934878  0.41980430  1
  O2-  O179  1  0.93317373  0.81973576  0.76498381  1
  O2-  O180  1  0.32014364  0.06805755  0.24592088  1
  O2-  O181  1  0.31731226  0.07084287  0.57429449  1
  O2-  O182  1  0.32029453  0.06985838  0.90128072  1
  O2-  O183  1  0.31600021  0.58293259  0.24491841  1
  O2-  O184  1  0.31557308  0.57146852  0.56771041  1
  O2-  O185  1  0.31963887  0.57765087  0.91315896  1
  O2-  O186  1  0.82414128  0.06578800  0.23682773  1
  O2-  O187  1  0.82902929  0.06554465  0.57760264  1
  O2-  O188  1  0.82600961  0.06459557  0.90024300  1
  O2-  O189  1  0.81814081  0.57283633  0.23378850  1
  O2-  O190  1  0.82303695  0.57116581  0.57837299  1
  O2-  O191  1  0.82319727  0.57513778  0.90798397  1
  O2-  O192  1  0.03937679  0.08086216  0.26572824  1
  O2-  O193  1  0.03850345  0.08524727  0.59525744  1
  O2-  O194  1  0.03859613  0.08077070  0.93444108  1
  O2-  O195  1  0.04685192  0.58441034  0.27257676  1
  O2-  O196  1  0.05168657  0.57935273  0.60555711  1
  O2-  O197  1  0.04415546  0.58734462  0.93378970  1
  O2-  O198  1  0.54376295  0.08478945  0.26966375  1
  O2-  O199  1  0.54154234  0.08284220  0.59635317  1
  O2-  O200  1  0.54361818  0.07716589  0.93952298  1
  O2-  O201  1  0.54075690  0.59207585  0.26522945  1
  O2-  O202  1  0.53762118  0.58309921  0.59723693  1
  O2-  O203  1  0.54200855  0.59152694  0.93807211  1
  O2-  O204  1  0.16668377  0.20985470  0.26610123  1
  O2-  O205  1  0.16475535  0.20978699  0.59580150  1
  O2-  O206  1  0.16484741  0.20997020  0.93255430  1
  O2-  O207  1  0.16104285  0.71104825  0.26712514  1
  O2-  O208  1  0.16319654  0.70474851  0.60124393  1
  O2-  O209  1  0.16508790  0.70432029  0.93865053  1
  O2-  O210  1  0.67191516  0.19693721  0.27897447  1
  O2-  O211  1  0.67828792  0.19707078  0.60635298  1
  O2-  O212  1  0.67427136  0.20208332  0.93650655  1
  O2-  O213  1  0.66101539  0.71149934  0.26679780  1
  O2-  O214  1  0.66842509  0.70657400  0.59674952  1
  O2-  O215  1  0.66470115  0.70762647  0.93876023  1
  O2-  O216  1  0.08522106  0.46455651  0.06783107  1
  O2-  O217  1  0.08645961  0.45797392  0.40398394  1
  O2-  O218  1  0.08358617  0.44778686  0.72872046  1
  O2-  O219  1  0.07826975  0.94912013  0.06584693  1
  O2-  O220  1  0.08706396  0.95435218  0.39580933  1
  O2-  O221  1  0.08699046  0.96095829  0.72502915  1
  O2-  O222  1  0.58458771  0.46717901  0.06818245  1
  O2-  O223  1  0.57823603  0.46593871  0.39919364  1
  O2-  O224  1  0.58326171  0.46235712  0.73518721  1
  O2-  O225  1  0.57646270  0.94306490  0.06703678  1
  O2-  O226  1  0.58004456  0.95009716  0.39397308  1
  O2-  O227  1  0.58000087  0.95644786  0.73043199  1
  O2-  O228  1  0.20721901  0.33261617  0.06665971  1
  O2-  O229  1  0.21386849  0.33039750  0.40205063  1
  O2-  O230  1  0.20639565  0.33079493  0.72828717  1
  O2-  O231  1  0.20839385  0.83027486  0.06899257  1
  O2-  O232  1  0.20763934  0.83580173  0.39804794  1
  O2-  O233  1  0.19810700  0.83542132  0.72492786  1
  O2-  O234  1  0.70650365  0.33417290  0.06928285  1
  O2-  O235  1  0.69999083  0.33127796  0.40387807  1
  O2-  O236  1  0.71245795  0.33248425  0.73583271  1
  O2-  O237  1  0.71437281  0.83164493  0.07064019  1
  O2-  O238  1  0.70481258  0.83607086  0.39593247  1
  O2-  O239  1  0.71294867  0.83416800  0.73008234  1
  O2-  O240  1  0.45285200  0.42136089  0.26571688  1
  O2-  O241  1  0.45426192  0.42081607  0.60084869  1
  O2-  O242  1  0.45490600  0.42445084  0.93561899  1
  O2-  O243  1  0.45239714  0.91528085  0.26795083  1
  O2-  O244  1  0.45253344  0.92007357  0.59779473  1
  O2-  O245  1  0.44657472  0.91460282  0.94388780  1
  O2-  O246  1  0.95268876  0.41877181  0.27543595  1
  O2-  O247  1  0.95183687  0.41907137  0.60209854  1
  O2-  O248  1  0.95633605  0.41775178  0.93549109  1
  O2-  O249  1  0.96215334  0.90865184  0.26686938  1
  O2-  O250  1  0.96628257  0.91103105  0.59276343  1
  O2-  O251  1  0.95639271  0.90979467  0.93603953  1
  O2-  O252  1  0.33718044  0.28326420  0.26612811  1
  O2-  O253  1  0.33501827  0.28712407  0.59761784  1
  O2-  O254  1  0.33089366  0.29519638  0.93212597  1
  O2-  O255  1  0.33498710  0.79260001  0.26791183  1
  O2-  O256  1  0.32773337  0.79261962  0.59976256  1
  O2-  O257  1  0.33656255  0.78748455  0.93902723  1
  O2-  O258  1  0.83133249  0.29930719  0.27724457  1
  O2-  O259  1  0.83458476  0.29964979  0.60309280  1
  O2-  O260  1  0.83299163  0.30210654  0.94113083  1
  O2-  O261  1  0.83564910  0.79481218  0.26774282  1
  O2-  O262  1  0.83467086  0.79109328  0.59420322  1
  O2-  O263  1  0.83906604  0.78804078  0.93628184  1
  O2-  O264  1  0.41561443  0.04104732  0.07357983  1
  O2-  O265  1  0.41245656  0.04054884  0.39727491  1
  O2-  O266  1  0.41218674  0.04565294  0.72650259  1
  O2-  O267  1  0.41741775  0.55404317  0.06391002  1
  O2-  O268  1  0.41626197  0.55659081  0.39157538  1
  O2-  O269  1  0.41574924  0.54428024  0.73602537  1
  O2-  O270  1  0.91514234  0.03369881  0.06942124  1
  O2-  O271  1  0.91724520  0.03101963  0.40277811  1
  O2-  O272  1  0.91712879  0.03380185  0.72817337  1
  O2-  O273  1  0.91796794  0.55089308  0.05897067  1
  O2-  O274  1  0.92080037  0.55305180  0.40149413  1
  O2-  O275  1  0.91817956  0.55013237  0.72927235  1
  O2-  O276  1  0.29143592  0.17038028  0.06852777  1
  O2-  O277  1  0.29072198  0.16006135  0.39844321  1
  O2-  O278  1  0.28671387  0.16050078  0.72714797  1
  O2-  O279  1  0.29140918  0.66319394  0.06804791  1
  O2-  O280  1  0.28859003  0.66736859  0.39844029  1
  O2-  O281  1  0.28556616  0.66643238  0.73627114  1
  O2-  O282  1  0.80126498  0.17071217  0.06883038  1
  O2-  O283  1  0.79992015  0.16643668  0.40614966  1
  O2-  O284  1  0.81431155  0.16726170  0.72632868  1
  O2-  O285  1  0.79506155  0.66378911  0.06218792  1
  O2-  O286  1  0.79006445  0.67194622  0.39856960  1
  O2-  O287  1  0.79865493  0.66797120  0.72708296  1
