# generated using pymatgen
data_Ca2Al2SiO7
_symmetry_space_group_name_H-M   'P 1'
_cell_length_a   15.45969106
_cell_length_b   15.45909942
_cell_length_c   15.28445416
_cell_angle_alpha   89.99972644
_cell_angle_beta   90.00228653
_cell_angle_gamma   90.00202321
_symmetry_Int_Tables_number   1
_chemical_formula_structural   Ca2Al2SiO7
_chemical_formula_sum   'Ca48 Al48 Si24 O168'
_cell_volume   3652.87603472
_cell_formula_units_Z   24
loop_
 _symmetry_equiv_pos_site_id
 _symmetry_equiv_pos_as_xyz
  1  'x, y, z'
loop_
 _atom_type_symbol
 _atom_type_oxidation_number
  Ca2+  2.0
  Al0+  0.0
  Si0+  0.0
  O2-  -2.0
loop_
 _atom_site_type_symbol
 _atom_site_label
 _atom_site_symmetry_multiplicity
 _atom_site_fract_x
 _atom_site_fract_y
 _atom_site_fract_z
 _atom_site_occupancy
  Ca2+  Ca0  1  0.17010594  0.08543198  0.16742830  1
  Ca2+  Ca1  1  0.17405002  0.09231198  0.50367622  1
  Ca2+  Ca2  1  0.17083094  0.08468456  0.83982519  1
  Ca2+  Ca3  1  0.16599310  0.57534749  0.17668152  1
  Ca2+  Ca4  1  0.16321376  0.57461738  0.50854281  1
  Ca2+  Ca5  1  0.16404491  0.58226647  0.83174346  1
  Ca2+  Ca6  1  0.66976817  0.07565655  0.17396888  1
  Ca2+  Ca7  1  0.67288989  0.07114175  0.50977469  1
  Ca2+  Ca8  1  0.67567479  0.08108737  0.83066787  1
  Ca2+  Ca9  1  0.66786491  0.58596927  0.17216600  1
  Ca2+  Ca10  1  0.67016328  0.58052419  0.50950596  1
  Ca2+  Ca11  1  0.67285348  0.57989000  0.82942564  1
  Ca2+  Ca12  1  0.08599512  0.32277472  0.16306293  1
  Ca2+  Ca13  1  0.09338545  0.32680031  0.49723032  1
  Ca2+  Ca14  1  0.08617324  0.32219401  0.82882928  1
  Ca2+  Ca15  1  0.08443306  0.82938654  0.15844413  1
  Ca2+  Ca16  1  0.07951769  0.82070116  0.49912929  1
  Ca2+  Ca17  1  0.07582214  0.83459513  0.82470977  1
  Ca2+  Ca18  1  0.56751300  0.33194766  0.16028105  1
  Ca2+  Ca19  1  0.57686703  0.33548707  0.49523809  1
  Ca2+  Ca20  1  0.57806435  0.33501142  0.82917958  1
  Ca2+  Ca21  1  0.58027980  0.83211252  0.16534957  1
  Ca2+  Ca22  1  0.58783553  0.83174422  0.49471666  1
  Ca2+  Ca23  1  0.57555596  0.84037661  0.82908195  1
  Ca2+  Ca24  1  0.32899476  0.40980174  0.17363380  1
  Ca2+  Ca25  1  0.32382633  0.42006228  0.50566474  1
  Ca2+  Ca26  1  0.32837811  0.42025025  0.83205537  1
  Ca2+  Ca27  1  0.33215194  0.92625432  0.16670738  1
  Ca2+  Ca28  1  0.33295316  0.93078561  0.50621377  1
  Ca2+  Ca29  1  0.32550325  0.92608656  0.84389272  1
  Ca2+  Ca30  1  0.83610893  0.41549220  0.16857190  1
  Ca2+  Ca31  1  0.82600271  0.42437905  0.51338209  1
  Ca2+  Ca32  1  0.83686927  0.41944534  0.83627616  1
  Ca2+  Ca33  1  0.83076737  0.91349997  0.17026648  1
  Ca2+  Ca34  1  0.82449077  0.91550980  0.50929922  1
  Ca2+  Ca35  1  0.83657656  0.91383173  0.83320812  1
  Ca2+  Ca36  1  0.40596858  0.17302981  0.16439634  1
  Ca2+  Ca37  1  0.41080794  0.17075064  0.49394023  1
  Ca2+  Ca38  1  0.40772823  0.16893104  0.83044019  1
  Ca2+  Ca39  1  0.42440010  0.67297008  0.16120815  1
  Ca2+  Ca40  1  0.42192814  0.66430797  0.49570669  1
  Ca2+  Ca41  1  0.41138562  0.67379930  0.82757404  1
  Ca2+  Ca42  1  0.93000826  0.17087641  0.15726408  1
  Ca2+  Ca43  1  0.92803869  0.16135196  0.49898299  1
  Ca2+  Ca44  1  0.92882094  0.16449179  0.82517649  1
  Ca2+  Ca45  1  0.92460289  0.67256376  0.16318485  1
  Ca2+  Ca46  1  0.92220849  0.66425803  0.50151644  1
  Ca2+  Ca47  1  0.92081509  0.67679329  0.82365995  1
  Al0+  Al48  1  0.00011525  -0.00145225  -0.00194136  1
  Al0+  Al49  1  0.00090414  -0.00044700  0.32915224  1
  Al0+  Al50  1  -0.00038011  -0.00010786  0.65692680  1
  Al0+  Al51  1  -0.00037333  0.50042655  0.00056036  1
  Al0+  Al52  1  -0.00040450  0.50038685  0.33381683  1
  Al0+  Al53  1  -0.00110851  0.49836901  0.67290292  1
  Al0+  Al54  1  0.50142792  -0.00030731  0.00111296  1
  Al0+  Al55  1  0.50072617  0.00057401  0.34140547  1
  Al0+  Al56  1  0.49994367  0.00264457  0.67286369  1
  Al0+  Al57  1  0.50181101  0.49867316  -0.00384933  1
  Al0+  Al58  1  0.50018122  0.50118663  0.32356504  1
  Al0+  Al59  1  0.49791691  0.50135115  0.67363476  1
  Al0+  Al60  1  0.25118227  0.25213565  -0.00514509  1
  Al0+  Al61  1  0.24888499  0.25076556  0.33280956  1
  Al0+  Al62  1  0.25026688  0.25259683  0.66990713  1
  Al0+  Al63  1  0.25309342  0.74930549  0.00108138  1
  Al0+  Al64  1  0.25055324  0.75109681  0.32878705  1
  Al0+  Al65  1  0.25035403  0.75131031  0.66263203  1
  Al0+  Al66  1  0.74845790  0.25096945  0.00035859  1
  Al0+  Al67  1  0.74953397  0.24983210  0.33396822  1
  Al0+  Al68  1  0.74769526  0.24704359  0.67235551  1
  Al0+  Al69  1  0.75231064  0.74741011  -0.00179551  1
  Al0+  Al70  1  0.74938604  0.74915519  0.33274845  1
  Al0+  Al71  1  0.74662921  0.74876797  0.67201782  1
  Al0+  Al72  1  0.67879335  0.92753025  0.68419463  1
  Al0+  Al73  1  0.82133848  0.57046448  0.68306248  1
  Al0+  Al74  1  0.31928530  0.07185914  0.68073697  1
  Al0+  Al75  1  0.17704070  0.92763633  0.01444284  1
  Al0+  Al76  1  0.32037523  0.57365977  0.68046027  1
  Al0+  Al77  1  0.17796788  0.42929685  0.68363446  1
  Al0+  Al78  1  0.07205078  0.67693000  0.65217443  1
  Al0+  Al79  1  0.07204818  0.18083307  0.65067468  1
  Al0+  Al80  1  0.92722251  0.32222864  0.98511795  1
  Al0+  Al81  1  0.82401768  0.06908286  0.68116335  1
  Al0+  Al82  1  0.43075551  0.82096772  0.98644404  1
  Al0+  Al83  1  0.67697035  0.42705852  0.68156793  1
  Al0+  Al84  1  0.92989261  0.81975220  0.98702440  1
  Al0+  Al85  1  0.07031359  0.17974360  0.31875828  1
  Al0+  Al86  1  0.07173901  0.67754930  0.31923457  1
  Al0+  Al87  1  0.43048118  0.31919646  0.32153964  1
  Al0+  Al88  1  0.17968069  0.43086296  0.34583817  1
  Al0+  Al89  1  0.57097466  0.68025705  0.32074238  1
  Al0+  Al90  1  0.42951062  0.32047511  0.98306540  1
  Al0+  Al91  1  0.92602335  0.82060846  0.64943410  1
  Al0+  Al92  1  0.32114065  0.07255950  0.01634883  1
  Al0+  Al93  1  0.07046750  0.17981667  0.98362004  1
  Al0+  Al94  1  0.31766158  0.06984593  0.34730181  1
  Al0+  Al95  1  0.68126242  0.92910507  0.34626746  1
  Si0+  Si96  1  0.82054783  0.57046438  0.01838746  1
  Si0+  Si97  1  0.42915609  0.82466105  0.65093064  1
  Si0+  Si98  1  0.92825641  0.81963239  0.31689065  1
  Si0+  Si99  1  0.57125779  0.17805438  0.65089419  1
  Si0+  Si100  1  0.18013746  0.43184310  0.01610089  1
  Si0+  Si101  1  0.67659777  0.42899579  0.34522283  1
  Si0+  Si102  1  0.57330919  0.17673575  0.98287153  1
  Si0+  Si103  1  0.92479466  0.32070118  0.65091321  1
  Si0+  Si104  1  0.43090068  0.32174067  0.65115557  1
  Si0+  Si105  1  0.56743488  0.67911345  0.65315583  1
  Si0+  Si106  1  0.57370200  0.17648033  0.31850600  1
  Si0+  Si107  1  0.68042907  0.92710467  0.01607967  1
  Si0+  Si108  1  0.17542396  0.92467583  0.35116393  1
  Si0+  Si109  1  0.92467425  0.32286993  0.31914530  1
  Si0+  Si110  1  0.42844458  0.82591850  0.31775394  1
  Si0+  Si111  1  0.07405950  0.67753885  0.98482735  1
  Si0+  Si112  1  0.32394811  0.57412171  0.34629995  1
  Si0+  Si113  1  0.17851273  0.92774526  0.67907398  1
  Si0+  Si114  1  0.82427920  0.07351254  0.34853536  1
  Si0+  Si115  1  0.57317023  0.67780773  0.98055823  1
  Si0+  Si116  1  0.32447083  0.57136076  0.01669531  1
  Si0+  Si117  1  0.67804065  0.42868174  0.01833578  1
  Si0+  Si118  1  0.81970007  0.56950115  0.34732402  1
  Si0+  Si119  1  0.82101543  0.07174931  0.01544233  1
  O2-  O120  1  0.24804019  0.00079083  0.06533763  1
  O2-  O121  1  0.24377524  -0.00565550  0.39461902  1
  O2-  O122  1  0.24414436  -0.00219893  0.72537330  1
  O2-  O123  1  0.25197458  0.50208026  0.05935198  1
  O2-  O124  1  0.25176609  0.50956767  0.39030191  1
  O2-  O125  1  0.24535292  0.50643389  0.73251906  1
  O2-  O126  1  0.75109360  -0.00105623  0.05807405  1
  O2-  O127  1  0.75530078  0.00459908  0.39159860  1
  O2-  O128  1  0.75569492  -0.00553009  0.73344536  1
  O2-  O129  1  0.75065524  0.49810606  0.06143740  1
  O2-  O130  1  0.75026766  0.49615135  0.38808389  1
  O2-  O131  1  0.75357723  0.49349385  0.73273059  1
  O2-  O132  1  -0.00852871  0.25215971  0.27541539  1
  O2-  O133  1  -0.00501405  0.25477737  0.60470921  1
  O2-  O134  1  -0.00366005  0.24961887  0.93347680  1
  O2-  O135  1  0.00149554  0.75607902  0.27189175  1
  O2-  O136  1  -0.00251480  0.74654988  0.60159335  1
  O2-  O137  1  0.01002241  0.75066242  0.94192856  1
  O2-  O138  1  0.50535796  0.24474193  0.27343836  1
  O2-  O139  1  0.50204001  0.25099733  0.60856773  1
  O2-  O140  1  0.50163363  0.24236344  0.93837484  1
  O2-  O141  1  0.49561813  0.75446027  0.27469115  1
  O2-  O142  1  0.49919464  0.75204909  0.60928473  1
  O2-  O143  1  0.50448974  0.74644025  0.93702444  1
  O2-  O144  1  0.07042926  0.18262292  0.09773216  1
  O2-  O145  1  0.07106408  0.18235984  0.43165535  1
  O2-  O146  1  0.07307005  0.18098061  0.76331618  1
  O2-  O147  1  0.07038199  0.67516290  0.09095870  1
  O2-  O148  1  0.06804424  0.67489094  0.43153307  1
  O2-  O149  1  0.07304308  0.68208560  0.76592346  1
  O2-  O150  1  0.57684610  0.17957001  0.08884598  1
  O2-  O151  1  0.57539402  0.17889302  0.42388879  1
  O2-  O152  1  0.57007902  0.17696057  0.75590587  1
  O2-  O153  1  0.57326555  0.67861045  0.08677694  1
  O2-  O154  1  0.57104537  0.67839642  0.43377469  1
  O2-  O155  1  0.56491922  0.67849056  0.75809540  1
  O2-  O156  1  0.18141976  0.43051165  0.23215696  1
  O2-  O157  1  0.18313712  0.42730194  0.56968596  1
  O2-  O158  1  0.17972060  0.43400440  0.91153684  1
  O2-  O159  1  0.17595707  0.92345803  0.24568161  1
  O2-  O160  1  0.18363992  0.92645285  0.57328848  1
  O2-  O161  1  0.17849695  0.92666363  0.90083959  1
  O2-  O162  1  0.67720658  0.43035485  0.24000715  1
  O2-  O163  1  0.67515654  0.43128229  0.56693854  1
  O2-  O164  1  0.67659959  0.43029885  0.91385155  1
  O2-  O165  1  0.68285160  0.92958748  0.23240637  1
  O2-  O166  1  0.67693957  0.92963457  0.57030731  1
  O2-  O167  1  0.68028732  0.92685103  0.91164305  1
  O2-  O168  1  0.43062002  0.32210638  0.09658273  1
  O2-  O169  1  0.43300509  0.32093441  0.43461414  1
  O2-  O170  1  0.43218896  0.32087829  0.75622143  1
  O2-  O171  1  0.43460593  0.81942656  0.09991937  1
  O2-  O172  1  0.42944075  0.82618697  0.42339400  1
  O2-  O173  1  0.42992757  0.82429101  0.75602422  1
  O2-  O174  1  0.92893499  0.32093788  0.09945019  1
  O2-  O175  1  0.92011313  0.32416493  0.42418649  1
  O2-  O176  1  0.92486323  0.31763641  0.75627809  1
  O2-  O177  1  0.92556111  0.81483390  0.10047803  1
  O2-  O178  1  0.92547083  0.81627308  0.42178351  1
  O2-  O179  1  0.92915282  0.81990037  0.76317112  1
  O2-  O180  1  0.31792459  0.06973643  0.23457556  1
  O2-  O181  1  0.32035333  0.07199594  0.56718283  1
  O2-  O182  1  0.32006587  0.07047489  0.90291014  1
  O2-  O183  1  0.32473794  0.57213179  0.24035260  1
  O2-  O184  1  0.32647941  0.56930720  0.56671484  1
  O2-  O185  1  0.32419220  0.57132938  0.91198396  1
  O2-  O186  1  0.82221021  0.07394021  0.24249089  1
  O2-  O187  1  0.81921234  0.07017249  0.56716010  1
  O2-  O188  1  0.81918522  0.07229665  0.91096603  1
  O2-  O189  1  0.81877755  0.56971653  0.24176279  1
  O2-  O190  1  0.81720227  0.56993942  0.56851081  1
  O2-  O191  1  0.81907619  0.57144428  0.91409302  1
  O2-  O192  1  0.04396962  0.08176943  0.26430688  1
  O2-  O193  1  0.04447427  0.08455101  0.59405772  1
  O2-  O194  1  0.04426184  0.08031573  0.93346697  1
  O2-  O195  1  0.03638161  0.58259120  0.26343011  1
  O2-  O196  1  0.04430307  0.57615011  0.60289873  1
  O2-  O197  1  0.04256899  0.58620611  0.93869478  1
  O2-  O198  1  0.54818928  0.08222438  0.27403418  1
  O2-  O199  1  0.54034333  0.08706668  0.60313713  1
  O2-  O200  1  0.55287251  0.08170373  0.93883646  1
  O2-  O201  1  0.54202330  0.58600164  0.26043420  1
  O2-  O202  1  0.53759110  0.58759172  0.60531721  1
  O2-  O203  1  0.54839540  0.58403007  0.93589072  1
  O2-  O204  1  0.16435583  0.21585863  0.26388229  1
  O2-  O205  1  0.16860377  0.21682122  0.59814239  1
  O2-  O206  1  0.16742170  0.21164107  0.93103303  1
  O2-  O207  1  0.17007290  0.70284229  0.26498522  1
  O2-  O208  1  0.16988824  0.70631351  0.59661302  1
  O2-  O209  1  0.17021369  0.69531781  0.94256957  1
  O2-  O210  1  0.66742196  0.20071279  0.27074269  1
  O2-  O211  1  0.66368053  0.20301691  0.60297731  1
  O2-  O212  1  0.66487047  0.20683737  0.93541248  1
  O2-  O213  1  0.66648711  0.71183556  0.26375079  1
  O2-  O214  1  0.66007133  0.70389855  0.60652461  1
  O2-  O215  1  0.66697033  0.70296529  0.93619917  1
  O2-  O216  1  0.08803978  0.45941565  0.06411340  1
  O2-  O217  1  0.08183010  0.45815777  0.39915309  1
  O2-  O218  1  0.07846405  0.44889661  0.73671697  1
  O2-  O219  1  0.07754870  0.95288274  0.06817696  1
  O2-  O220  1  0.08056148  0.94889208  0.39477370  1
  O2-  O221  1  0.08287595  0.95057050  0.71994487  1
  O2-  O222  1  0.58682858  0.46008900  0.06597476  1
  O2-  O223  1  0.58563489  0.46073148  0.39159885  1
  O2-  O224  1  0.58232581  0.46196866  0.73760990  1
  O2-  O225  1  0.58924456  0.95487242  0.06479437  1
  O2-  O226  1  0.58550575  0.95723442  0.40276200  1
  O2-  O227  1  0.58334422  0.96368594  0.73831979  1
  O2-  O228  1  0.20986870  0.33971930  0.06132908  1
  O2-  O229  1  0.21472157  0.33657738  0.40033450  1
  O2-  O230  1  0.21554588  0.33540453  0.73891930  1
  O2-  O231  1  0.20782221  0.82878526  0.06764590  1
  O2-  O232  1  0.20203219  0.83059745  0.39641697  1
  O2-  O233  1  0.20523261  0.83549769  0.72633551  1
  O2-  O234  1  0.70257641  0.33611563  0.06653530  1
  O2-  O235  1  0.69863345  0.33529928  0.39209881  1
  O2-  O236  1  0.69607926  0.32681877  0.73344048  1
  O2-  O237  1  0.70969752  0.83455117  0.06240730  1
  O2-  O238  1  0.71199933  0.83221068  0.39999363  1
  O2-  O239  1  0.69786628  0.82795025  0.73709339  1
  O2-  O240  1  0.46081735  0.41400188  0.26304083  1
  O2-  O241  1  0.45948275  0.41428303  0.60565852  1
  O2-  O242  1  0.46450830  0.41589529  0.92931100  1
  O2-  O243  1  0.45936577  0.91797293  0.27154290  1
  O2-  O244  1  0.46022919  0.91624141  0.60468665  1
  O2-  O245  1  0.46226634  0.91742497  0.93276327  1
  O2-  O246  1  0.95160150  0.41570979  0.27212504  1
  O2-  O247  1  0.94659841  0.41652730  0.60818454  1
  O2-  O248  1  0.95483080  0.42179675  0.93493574  1
  O2-  O249  1  0.94736764  0.91522312  0.27205383  1
  O2-  O250  1  0.95317324  0.91751807  0.59313956  1
  O2-  O251  1  0.95293511  0.91764658  0.93368512  1
  O2-  O252  1  0.33527655  0.28683397  0.26639542  1
  O2-  O253  1  0.33937536  0.29271173  0.60467783  1
  O2-  O254  1  0.33334993  0.29418894  0.92776573  1
  O2-  O255  1  0.33481463  0.80345804  0.27058655  1
  O2-  O256  1  0.33810391  0.79905861  0.60151168  1
  O2-  O257  1  0.33441406  0.78965718  0.93228908  1
  O2-  O258  1  0.83033167  0.30009366  0.27096373  1
  O2-  O259  1  0.82998855  0.29510833  0.60598364  1
  O2-  O260  1  0.82597986  0.29996641  0.93627406  1
  O2-  O261  1  0.83700063  0.78803905  0.26864450  1
  O2-  O262  1  0.82523235  0.79114349  0.60125183  1
  O2-  O263  1  0.83530728  0.78396779  0.93220031  1
  O2-  O264  1  0.42113390  0.04414102  0.06780061  1
  O2-  O265  1  0.41515001  0.04265485  0.40252887  1
  O2-  O266  1  0.41518584  0.04262977  0.73537447  1
  O2-  O267  1  0.41725168  0.54213057  0.06212581  1
  O2-  O268  1  0.41739406  0.54460776  0.39084097  1
  O2-  O269  1  0.41532051  0.54223074  0.73841429  1
  O2-  O270  1  0.91256382  0.04414006  0.06305938  1
  O2-  O271  1  0.91832079  0.04795076  0.39289561  1
  O2-  O272  1  0.92431084  0.04357246  0.73065960  1
  O2-  O273  1  0.91288138  0.54369224  0.06659732  1
  O2-  O274  1  0.91110633  0.54329322  0.39530389  1
  O2-  O275  1  0.91951464  0.54764906  0.73768073  1
  O2-  O276  1  0.29257121  0.17304128  0.06571973  1
  O2-  O277  1  0.28585201  0.16627427  0.40079180  1
  O2-  O278  1  0.29013978  0.16817180  0.73400933  1
  O2-  O279  1  0.30072377  0.66366766  0.06496513  1
  O2-  O280  1  0.30516289  0.67019761  0.38977397  1
  O2-  O281  1  0.29654236  0.67421798  0.73147994  1
  O2-  O282  1  0.79111067  0.16298049  0.06401988  1
  O2-  O283  1  0.79953081  0.16740501  0.39476093  1
  O2-  O284  1  0.79116250  0.16487911  0.73665006  1
  O2-  O285  1  0.78960864  0.66109594  0.06752120  1
  O2-  O286  1  0.78872945  0.65979090  0.39453041  1
  O2-  O287  1  0.78597952  0.66516679  0.73830231  1
