# generated using pymatgen
data_Ca2Al2SiO7
_symmetry_space_group_name_H-M   'P 1'
_cell_length_a   15.45747364
_cell_length_b   15.45742051
_cell_length_c   15.28313391
_cell_angle_alpha   90.01159796
_cell_angle_beta   90.00115354
_cell_angle_gamma   90.01520249
_symmetry_Int_Tables_number   1
_chemical_formula_structural   Ca2Al2SiO7
_chemical_formula_sum   'Ca48 Al48 Si24 O168'
_cell_volume   3651.63978926
_cell_formula_units_Z   24
loop_
 _symmetry_equiv_pos_site_id
 _symmetry_equiv_pos_as_xyz
  1  'x, y, z'
loop_
 _atom_type_symbol
 _atom_type_oxidation_number
  Ca2+  2.0
  Al0+  0.0
  Si0+  0.0
  O2-  -2.0
loop_
 _atom_site_type_symbol
 _atom_site_label
 _atom_site_symmetry_multiplicity
 _atom_site_fract_x
 _atom_site_fract_y
 _atom_site_fract_z
 _atom_site_occupancy
  Ca2+  Ca0  1  0.17527732  0.08415182  0.16434794  1
  Ca2+  Ca1  1  0.16832846  0.07782074  0.50793426  1
  Ca2+  Ca2  1  0.17323887  0.07533578  0.83864491  1
  Ca2+  Ca3  1  0.16912166  0.57740213  0.17031768  1
  Ca2+  Ca4  1  0.17423345  0.57564134  0.50489813  1
  Ca2+  Ca5  1  0.16804525  0.57733942  0.83593650  1
  Ca2+  Ca6  1  0.66410861  0.07379905  0.16236294  1
  Ca2+  Ca7  1  0.67157299  0.08122545  0.50609364  1
  Ca2+  Ca8  1  0.67433861  0.08493064  0.84190676  1
  Ca2+  Ca9  1  0.66955209  0.57274494  0.17379740  1
  Ca2+  Ca10  1  0.67064485  0.57148719  0.50168564  1
  Ca2+  Ca11  1  0.66071516  0.57114815  0.83623776  1
  Ca2+  Ca12  1  0.07854571  0.34369066  0.16311599  1
  Ca2+  Ca13  1  0.08059551  0.34003731  0.49325271  1
  Ca2+  Ca14  1  0.08573742  0.33480229  0.83067306  1
  Ca2+  Ca15  1  0.07393270  0.82114803  0.15278269  1
  Ca2+  Ca16  1  0.07730041  0.83659388  0.50013804  1
  Ca2+  Ca17  1  0.07687460  0.83269022  0.82768028  1
  Ca2+  Ca18  1  0.57994004  0.33210309  0.15437176  1
  Ca2+  Ca19  1  0.59333284  0.33010141  0.49841401  1
  Ca2+  Ca20  1  0.58707011  0.32553048  0.82920808  1
  Ca2+  Ca21  1  0.58439246  0.83382584  0.15752659  1
  Ca2+  Ca22  1  0.57791721  0.83402495  0.49610748  1
  Ca2+  Ca23  1  0.57271878  0.84186107  0.83113112  1
  Ca2+  Ca24  1  0.32411578  0.41672931  0.17174451  1
  Ca2+  Ca25  1  0.32576525  0.42697857  0.50761636  1
  Ca2+  Ca26  1  0.32509959  0.41576930  0.84038665  1
  Ca2+  Ca27  1  0.34447623  0.92436393  0.16391371  1
  Ca2+  Ca28  1  0.32621691  0.91428405  0.50924551  1
  Ca2+  Ca29  1  0.33461270  0.91607455  0.83827674  1
  Ca2+  Ca30  1  0.82365608  0.41881118  0.17378300  1
  Ca2+  Ca31  1  0.82951756  0.41673840  0.50015270  1
  Ca2+  Ca32  1  0.81992913  0.41373735  0.83862228  1
  Ca2+  Ca33  1  0.82448196  0.91500387  0.16652224  1
  Ca2+  Ca34  1  0.82855384  0.92057776  0.50843643  1
  Ca2+  Ca35  1  0.83428589  0.92483059  0.84160853  1
  Ca2+  Ca36  1  0.42255215  0.17394119  0.15211270  1
  Ca2+  Ca37  1  0.42576242  0.16806135  0.49875228  1
  Ca2+  Ca38  1  0.42828131  0.16662975  0.83429892  1
  Ca2+  Ca39  1  0.41554969  0.67149464  0.16109610  1
  Ca2+  Ca40  1  0.40892664  0.66599433  0.50092047  1
  Ca2+  Ca41  1  0.41230490  0.67573707  0.82781246  1
  Ca2+  Ca42  1  0.91497410  0.17178291  0.16392894  1
  Ca2+  Ca43  1  0.91693946  0.17191599  0.49685625  1
  Ca2+  Ca44  1  0.91278706  0.16227576  0.82813428  1
  Ca2+  Ca45  1  0.92021919  0.66513241  0.15683008  1
  Ca2+  Ca46  1  0.91327716  0.66854300  0.49547318  1
  Ca2+  Ca47  1  0.91995130  0.67845911  0.83153973  1
  Al0+  Al48  1  0.00031910  0.00176300  0.00348320  1
  Al0+  Al49  1  0.00056183  0.00086635  0.32900266  1
  Al0+  Al50  1  0.00042306  0.00045714  0.66823345  1
  Al0+  Al51  1  0.00054956  0.49929493  -0.00372933  1
  Al0+  Al52  1  -0.00065867  0.50084940  0.33492470  1
  Al0+  Al53  1  -0.00039484  0.50149689  0.66942598  1
  Al0+  Al54  1  0.50110461  0.00115050  -0.00056070  1
  Al0+  Al55  1  0.50044088  0.00044329  0.33749256  1
  Al0+  Al56  1  0.50044277  0.00051869  0.65458558  1
  Al0+  Al57  1  0.49653848  0.50066008  0.00037855  1
  Al0+  Al58  1  0.49979061  0.50084748  0.33982656  1
  Al0+  Al59  1  0.49966326  0.50089414  0.67336032  1
  Al0+  Al60  1  0.24869177  0.24993093  0.00457360  1
  Al0+  Al61  1  0.25167629  0.24778158  0.33749150  1
  Al0+  Al62  1  0.25163948  0.24933543  0.66773296  1
  Al0+  Al63  1  0.24893518  0.74791485  -0.00744991  1
  Al0+  Al64  1  0.24877048  0.75226540  0.33315868  1
  Al0+  Al65  1  0.24794740  0.74960890  0.66879113  1
  Al0+  Al66  1  0.75087303  0.24954172  0.00602144  1
  Al0+  Al67  1  0.75213250  0.24679277  0.32935585  1
  Al0+  Al68  1  0.75111983  0.24912203  0.66814477  1
  Al0+  Al69  1  0.75075193  0.74938958  -0.00341850  1
  Al0+  Al70  1  0.74662252  0.75081954  0.34054962  1
  Al0+  Al71  1  0.74820691  0.75012012  0.66170715  1
  Al0+  Al72  1  0.93111804  0.32108346  0.31932324  1
  Al0+  Al73  1  0.81930134  0.06899421  0.67865847  1
  Al0+  Al74  1  0.32072683  0.57148381  0.68515639  1
  Al0+  Al75  1  0.43133758  0.82094546  0.98768444  1
  Al0+  Al76  1  0.68196609  0.42930838  0.68106585  1
  Al0+  Al77  1  0.17894836  0.42926698  0.01511824  1
  Al0+  Al78  1  0.67683975  0.42953134  0.01357223  1
  Al0+  Al79  1  0.42577582  0.32296904  0.98573303  1
  Al0+  Al80  1  0.07081937  0.67624257  0.98246195  1
  Al0+  Al81  1  0.67884793  0.42531136  0.34765270  1
  Al0+  Al82  1  0.32087079  0.57425308  0.34770161  1
  Al0+  Al83  1  0.57247593  0.18129512  0.65099721  1
  Al0+  Al84  1  0.32092320  0.06881402  0.01176487  1
  Al0+  Al85  1  0.42845511  0.81936720  0.65087565  1
  Al0+  Al86  1  0.82429223  0.07212660  0.01826018  1
  Al0+  Al87  1  0.17932153  0.93044342  0.67992210  1
  Al0+  Al88  1  0.67929082  0.92805609  0.01188580  1
  Al0+  Al89  1  0.82127727  0.57170583  0.34704807  1
  Al0+  Al90  1  0.92896450  0.82251980  0.65115789  1
  Al0+  Al91  1  0.17913412  0.42805244  0.34824278  1
  Al0+  Al92  1  0.17775470  0.42726892  0.68336195  1
  Al0+  Al93  1  0.57212753  0.18128581  0.98558505  1
  Al0+  Al94  1  0.92762614  0.82268639  0.98521527  1
  Al0+  Al95  1  0.67837995  0.92998374  0.34920680  1
  Si0+  Si96  1  0.67595725  0.92736086  0.68162739  1
  Si0+  Si97  1  0.82120732  0.57022331  0.01308377  1
  Si0+  Si98  1  0.57317016  0.67620643  0.98411738  1
  Si0+  Si99  1  0.82229139  0.57536461  0.68491131  1
  Si0+  Si100  1  0.07023849  0.68132765  0.31935636  1
  Si0+  Si101  1  0.57066020  0.17778653  0.31700428  1
  Si0+  Si102  1  0.32077265  0.57446533  0.01723379  1
  Si0+  Si103  1  0.07511030  0.17649135  0.31528231  1
  Si0+  Si104  1  0.32511316  0.07132061  0.68228159  1
  Si0+  Si105  1  0.32201418  0.07039933  0.35004022  1
  Si0+  Si106  1  0.42778276  0.32305224  0.64941377  1
  Si0+  Si107  1  0.93005042  0.32109342  0.65358703  1
  Si0+  Si108  1  0.82414056  0.06976805  0.35061233  1
  Si0+  Si109  1  0.17826333  0.92582230  0.01685547  1
  Si0+  Si110  1  0.17837079  0.93063096  0.34598919  1
  Si0+  Si111  1  0.57177025  0.67491015  0.64753239  1
  Si0+  Si112  1  0.42935575  0.32107673  0.32076396  1
  Si0+  Si113  1  0.06966192  0.67785184  0.64661119  1
  Si0+  Si114  1  0.07188295  0.17899318  0.98526607  1
  Si0+  Si115  1  0.07259518  0.17914122  0.65344424  1
  Si0+  Si116  1  0.92944005  0.31969032  0.98465160  1
  Si0+  Si117  1  0.42832321  0.82161973  0.31795974  1
  Si0+  Si118  1  0.57058811  0.67922334  0.31946261  1
  Si0+  Si119  1  0.92623241  0.82197374  0.31864565  1
  O2-  O120  1  0.24950963  -0.00844375  0.06190727  1
  O2-  O121  1  0.24822222  0.00165927  0.39020589  1
  O2-  O122  1  0.25743337  0.00172953  0.72582083  1
  O2-  O123  1  0.25449778  0.50336674  0.06104406  1
  O2-  O124  1  0.25187812  0.49923237  0.39726828  1
  O2-  O125  1  0.25130695  0.49658499  0.73403132  1
  O2-  O126  1  0.75332564  -0.00303424  0.06445707  1
  O2-  O127  1  0.75621453  0.00134226  0.39551222  1
  O2-  O128  1  0.74662314  -0.00700076  0.72550760  1
  O2-  O129  1  0.74959839  0.50621519  0.05936833  1
  O2-  O130  1  0.75250369  0.49629736  0.39679247  1
  O2-  O131  1  0.75378342  0.50657955  0.72855889  1
  O2-  O132  1  0.00984415  0.24916817  0.27275891  1
  O2-  O133  1  0.00670815  0.25520619  0.61181205  1
  O2-  O134  1  -0.00131721  0.24707247  0.94225484  1
  O2-  O135  1  -0.00496735  0.74859474  0.27707784  1
  O2-  O136  1  -0.00013447  0.74543600  0.60124654  1
  O2-  O137  1  0.00204231  0.75310565  0.93526139  1
  O2-  O138  1  0.50367739  0.25379032  0.27727730  1
  O2-  O139  1  0.49824981  0.25676156  0.60321667  1
  O2-  O140  1  0.50247701  0.25588975  0.93580007  1
  O2-  O141  1  0.49822245  0.74934103  0.27685123  1
  O2-  O142  1  0.50294885  0.74449338  0.60343629  1
  O2-  O143  1  0.50642702  0.74712488  0.94047681  1
  O2-  O144  1  0.07343889  0.17996811  0.09047322  1
  O2-  O145  1  0.07367274  0.17092798  0.42091069  1
  O2-  O146  1  0.07167460  0.17716123  0.75838592  1
  O2-  O147  1  0.06882321  0.67618690  0.09727719  1
  O2-  O148  1  0.07251481  0.68561328  0.42421261  1
  O2-  O149  1  0.06772302  0.67804783  0.75180192  1
  O2-  O150  1  0.56863851  0.18098090  0.09988472  1
  O2-  O151  1  0.56878150  0.17638766  0.42240377  1
  O2-  O152  1  0.57298406  0.18069076  0.76337578  1
  O2-  O153  1  0.57233292  0.67572910  0.09024866  1
  O2-  O154  1  0.57106249  0.68103843  0.42424578  1
  O2-  O155  1  0.57330582  0.67529788  0.75298203  1
  O2-  O156  1  0.18014184  0.42973227  0.23473774  1
  O2-  O157  1  0.17717654  0.42826735  0.56967179  1
  O2-  O158  1  0.17866314  0.42872335  0.90249006  1
  O2-  O159  1  0.17914081  0.93081963  0.24123986  1
  O2-  O160  1  0.17893190  0.93418979  0.56573909  1
  O2-  O161  1  0.17748712  0.92975275  0.91135792  1
  O2-  O162  1  0.67750709  0.42811089  0.23417903  1
  O2-  O163  1  0.68625264  0.42805413  0.56799491  1
  O2-  O164  1  0.68019777  0.42868952  0.90038609  1
  O2-  O165  1  0.67629752  0.92999344  0.23651841  1
  O2-  O166  1  0.67721431  0.93009075  0.57550741  1
  O2-  O167  1  0.67745477  0.93087225  0.89861310  1
  O2-  O168  1  0.42580765  0.32044265  0.10038423  1
  O2-  O169  1  0.42776680  0.31677922  0.42582576  1
  O2-  O170  1  0.42619434  0.31937798  0.75448046  1
  O2-  O171  1  0.43231596  0.81955767  0.10167859  1
  O2-  O172  1  0.42724109  0.82254928  0.42285776  1
  O2-  O173  1  0.43094555  0.82168040  0.76369374  1
  O2-  O174  1  0.93136081  0.32112053  0.08981905  1
  O2-  O175  1  0.93109903  0.31710182  0.43301698  1
  O2-  O176  1  0.92820257  0.31832750  0.75871979  1
  O2-  O177  1  0.92813055  0.81840136  0.09981190  1
  O2-  O178  1  0.93019476  0.82482994  0.42378375  1
  O2-  O179  1  0.93195437  0.82336873  0.76356017  1
  O2-  O180  1  0.32402094  0.07027255  0.24504996  1
  O2-  O181  1  0.32198752  0.07142442  0.57583473  1
  O2-  O182  1  0.31871419  0.06745977  0.89890421  1
  O2-  O183  1  0.31852089  0.57734666  0.23427325  1
  O2-  O184  1  0.31738655  0.57048209  0.57116324  1
  O2-  O185  1  0.31976921  0.57598175  0.91223163  1
  O2-  O186  1  0.82577554  0.06812936  0.24564315  1
  O2-  O187  1  0.81913519  0.06983558  0.56510410  1
  O2-  O188  1  0.82398354  0.07269086  0.90453329  1
  O2-  O189  1  0.81884171  0.57282552  0.23326907  1
  O2-  O190  1  0.82263430  0.57348614  0.57912614  1
  O2-  O191  1  0.82075842  0.56714433  0.90760705  1
  O2-  O192  1  0.04629022  0.08481067  0.26558066  1
  O2-  O193  1  0.03985921  0.09029167  0.60270461  1
  O2-  O194  1  0.04738871  0.08604341  0.93851548  1
  O2-  O195  1  0.04599857  0.58843237  0.27299302  1
  O2-  O196  1  0.04389399  0.58350150  0.60081872  1
  O2-  O197  1  0.03847511  0.58021229  0.92732023  1
  O2-  O198  1  0.53570126  0.08743840  0.27081394  1
  O2-  O199  1  0.54087397  0.08676465  0.59208630  1
  O2-  O200  1  0.54031071  0.08439601  0.93247892  1
  O2-  O201  1  0.54432419  0.58637328  0.27259042  1
  O2-  O202  1  0.54507808  0.58113211  0.60174566  1
  O2-  O203  1  0.54427304  0.58419276  0.93675307  1
  O2-  O204  1  0.17131992  0.19729680  0.27193572  1
  O2-  O205  1  0.16631670  0.20028438  0.60527038  1
  O2-  O206  1  0.16210988  0.20886176  0.93671965  1
  O2-  O207  1  0.15983039  0.71424850  0.26958289  1
  O2-  O208  1  0.16279577  0.70593952  0.60151843  1
  O2-  O209  1  0.16874827  0.70192041  0.92858813  1
  O2-  O210  1  0.66472519  0.19718570  0.27155604  1
  O2-  O211  1  0.66902482  0.21359218  0.59609793  1
  O2-  O212  1  0.67223692  0.20802825  0.93551123  1
  O2-  O213  1  0.66186638  0.70915949  0.27169165  1
  O2-  O214  1  0.66514343  0.69979400  0.59975312  1
  O2-  O215  1  0.66729245  0.69651418  0.93732742  1
  O2-  O216  1  0.08144722  0.46177853  0.06697149  1
  O2-  O217  1  0.08111693  0.45723585  0.40012620  1
  O2-  O218  1  0.07856708  0.45559396  0.73496923  1
  O2-  O219  1  0.08678090  0.95490109  0.06516010  1
  O2-  O220  1  0.08604813  0.95826677  0.39332579  1
  O2-  O221  1  0.08586195  0.96621200  0.73526817  1
  O2-  O222  1  0.57889189  0.45804386  0.06628283  1
  O2-  O223  1  0.58183604  0.45448120  0.40242872  1
  O2-  O224  1  0.58448286  0.45634204  0.73417690  1
  O2-  O225  1  0.58273735  0.95950877  0.06779277  1
  O2-  O226  1  0.58298242  0.96362362  0.40450285  1
  O2-  O227  1  0.58161412  0.95612650  0.72306086  1
  O2-  O228  1  0.20669867  0.33284137  0.07086164  1
  O2-  O229  1  0.20433004  0.32780469  0.39990448  1
  O2-  O230  1  0.20359835  0.32658059  0.73342772  1
  O2-  O231  1  0.20085113  0.83024345  0.05943124  1
  O2-  O232  1  0.20673019  0.84028148  0.39512457  1
  O2-  O233  1  0.20487343  0.83332347  0.73275748  1
  O2-  O234  1  0.71036693  0.33520094  0.06900009  1
  O2-  O235  1  0.70821273  0.32563284  0.39754892  1
  O2-  O236  1  0.71725138  0.33465970  0.73523060  1
  O2-  O237  1  0.70496912  0.82780158  0.06472064  1
  O2-  O238  1  0.70447060  0.83377182  0.40526604  1
  O2-  O239  1  0.69577300  0.83119845  0.72360192  1
  O2-  O240  1  0.45173276  0.41547934  0.27632966  1
  O2-  O241  1  0.45149900  0.41846588  0.60683780  1
  O2-  O242  1  0.44638985  0.42372422  0.93524157  1
  O2-  O243  1  0.45888869  0.91404060  0.27267529  1
  O2-  O244  1  0.45745151  0.91509297  0.59259382  1
  O2-  O245  1  0.46075297  0.91707117  0.93276535  1
  O2-  O246  1  0.95812357  0.41918882  0.26546211  1
  O2-  O247  1  0.95265033  0.41509478  0.60738948  1
  O2-  O248  1  0.95799839  0.40987043  0.93511435  1
  O2-  O249  1  0.95655062  0.91268787  0.27019855  1
  O2-  O250  1  0.96466671  0.91807025  0.59630658  1
  O2-  O251  1  0.95603258  0.92288735  0.93641354  1
  O2-  O252  1  0.33818419  0.28911691  0.27340708  1
  O2-  O253  1  0.33489023  0.29435469  0.60152620  1
  O2-  O254  1  0.32869942  0.28853031  0.93410498  1
  O2-  O255  1  0.33569581  0.79712302  0.27014082  1
  O2-  O256  1  0.33009343  0.78958665  0.59823126  1
  O2-  O257  1  0.33442558  0.79266159  0.93347909  1
  O2-  O258  1  0.83605157  0.28665762  0.26326147  1
  O2-  O259  1  0.84160409  0.28703674  0.60387515  1
  O2-  O260  1  0.83719179  0.29209489  0.93880164  1
  O2-  O261  1  0.83209719  0.79665594  0.27572464  1
  O2-  O262  1  0.83051290  0.79532954  0.59756279  1
  O2-  O263  1  0.83042249  0.79419432  0.92980627  1
  O2-  O264  1  0.41633926  0.03901687  0.06869166  1
  O2-  O265  1  0.41153484  0.03964931  0.39969327  1
  O2-  O266  1  0.41960693  0.04476132  0.72406431  1
  O2-  O267  1  0.41533503  0.55316730  0.06326410  1
  O2-  O268  1  0.41926217  0.54958794  0.40171243  1
  O2-  O269  1  0.42069538  0.55007506  0.73676710  1
  O2-  O270  1  0.92362904  0.04802927  0.07235838  1
  O2-  O271  1  0.91909882  0.04550207  0.39578903  1
  O2-  O272  1  0.91626184  0.04096419  0.73228002  1
  O2-  O273  1  0.91334611  0.54042922  0.05958541  1
  O2-  O274  1  0.91978055  0.54729035  0.40117668  1
  O2-  O275  1  0.91588986  0.55069335  0.73021343  1
  O2-  O276  1  0.28575889  0.16246262  0.06943675  1
  O2-  O277  1  0.29655729  0.16139423  0.40002302  1
  O2-  O278  1  0.29942850  0.16438676  0.72783985  1
  O2-  O279  1  0.29233577  0.66756593  0.06392232  1
  O2-  O280  1  0.28933508  0.67244143  0.40066601  1
  O2-  O281  1  0.28949567  0.66919416  0.73651149  1
  O2-  O282  1  0.79396274  0.16884212  0.07309591  1
  O2-  O283  1  0.79765537  0.16338462  0.39540701  1
  O2-  O284  1  0.78920332  0.16463874  0.73369653  1
  O2-  O285  1  0.80143094  0.66559522  0.05765982  1
  O2-  O286  1  0.79042466  0.66793935  0.40313478  1
  O2-  O287  1  0.79593508  0.66969352  0.72881575  1
