# generated using pymatgen
data_Ca2Al2SiO7
_symmetry_space_group_name_H-M   'P 1'
_cell_length_a   15.46012622
_cell_length_b   15.45928347
_cell_length_c   15.28477536
_cell_angle_alpha   90.00407927
_cell_angle_beta   89.99500156
_cell_angle_gamma   90.00181378
_symmetry_Int_Tables_number   1
_chemical_formula_structural   Ca2Al2SiO7
_chemical_formula_sum   'Ca48 Al48 Si24 O168'
_cell_volume   3653.09909721
_cell_formula_units_Z   24
loop_
 _symmetry_equiv_pos_site_id
 _symmetry_equiv_pos_as_xyz
  1  'x, y, z'
loop_
 _atom_type_symbol
 _atom_type_oxidation_number
  Ca2+  2.0
  Al0+  0.0
  Si0+  0.0
  O2-  -2.0
loop_
 _atom_site_type_symbol
 _atom_site_label
 _atom_site_symmetry_multiplicity
 _atom_site_fract_x
 _atom_site_fract_y
 _atom_site_fract_z
 _atom_site_occupancy
  Ca2+  Ca0  1  0.16722270  0.08338865  0.16667747  1
  Ca2+  Ca1  1  0.17279728  0.07788458  0.51355954  1
  Ca2+  Ca2  1  0.16277095  0.08342251  0.83457282  1
  Ca2+  Ca3  1  0.17724142  0.58094539  0.16769117  1
  Ca2+  Ca4  1  0.17908244  0.58245530  0.50793284  1
  Ca2+  Ca5  1  0.17352828  0.57307068  0.84009634  1
  Ca2+  Ca6  1  0.65957126  0.07892038  0.17308156  1
  Ca2+  Ca7  1  0.66133451  0.07616033  0.50052428  1
  Ca2+  Ca8  1  0.66857033  0.08298304  0.83970834  1
  Ca2+  Ca9  1  0.67071067  0.58702946  0.16330836  1
  Ca2+  Ca10  1  0.67363697  0.57908665  0.50465205  1
  Ca2+  Ca11  1  0.66998265  0.57339842  0.84311768  1
  Ca2+  Ca12  1  0.08640528  0.32872832  0.15690192  1
  Ca2+  Ca13  1  0.08614530  0.33520655  0.50446330  1
  Ca2+  Ca14  1  0.08745663  0.32992131  0.82574725  1
  Ca2+  Ca15  1  0.07002012  0.82916108  0.16011732  1
  Ca2+  Ca16  1  0.07506210  0.83797873  0.49854447  1
  Ca2+  Ca17  1  0.07448786  0.83288447  0.82642460  1
  Ca2+  Ca18  1  0.58258236  0.32529851  0.15585086  1
  Ca2+  Ca19  1  0.58592692  0.32729427  0.49713962  1
  Ca2+  Ca20  1  0.58151741  0.34130219  0.83213484  1
  Ca2+  Ca21  1  0.57410702  0.82878167  0.16026082  1
  Ca2+  Ca22  1  0.57522370  0.83289018  0.48975698  1
  Ca2+  Ca23  1  0.57602458  0.82403289  0.83670786  1
  Ca2+  Ca24  1  0.33794718  0.42391656  0.16319879  1
  Ca2+  Ca25  1  0.33062245  0.42897031  0.50946117  1
  Ca2+  Ca26  1  0.32660617  0.42172605  0.84145530  1
  Ca2+  Ca27  1  0.33768156  0.91217390  0.17087053  1
  Ca2+  Ca28  1  0.32791649  0.92115510  0.50969822  1
  Ca2+  Ca29  1  0.33015568  0.92127800  0.83461093  1
  Ca2+  Ca30  1  0.82891920  0.42907433  0.16890269  1
  Ca2+  Ca31  1  0.83053276  0.41959871  0.50724708  1
  Ca2+  Ca32  1  0.82555567  0.41524252  0.84097175  1
  Ca2+  Ca33  1  0.82654075  0.91266366  0.17303776  1
  Ca2+  Ca34  1  0.83059189  0.91125725  0.50080656  1
  Ca2+  Ca35  1  0.83827981  0.91499884  0.83869149  1
  Ca2+  Ca36  1  0.42858880  0.17290832  0.15727622  1
  Ca2+  Ca37  1  0.41880843  0.16651206  0.49464100  1
  Ca2+  Ca38  1  0.41825247  0.17309425  0.83417138  1
  Ca2+  Ca39  1  0.41541308  0.67264599  0.15747787  1
  Ca2+  Ca40  1  0.41267256  0.66888856  0.49340042  1
  Ca2+  Ca41  1  0.41739850  0.65633525  0.83362231  1
  Ca2+  Ca42  1  0.92443749  0.16882716  0.15856742  1
  Ca2+  Ca43  1  0.92227094  0.17347785  0.50331845  1
  Ca2+  Ca44  1  0.93008497  0.17443808  0.82610005  1
  Ca2+  Ca45  1  0.90448111  0.67358965  0.16198799  1
  Ca2+  Ca46  1  0.91560570  0.67496661  0.49329915  1
  Ca2+  Ca47  1  0.90909539  0.67536617  0.83067678  1
  Al0+  Al48  1  0.00002107  0.00038606  -0.00524114  1
  Al0+  Al49  1  -0.00146699  0.00047457  0.32975841  1
  Al0+  Al50  1  -0.00149881  0.00082764  0.66060152  1
  Al0+  Al51  1  0.00008173  0.50140484  0.00947199  1
  Al0+  Al52  1  0.00021317  0.49956833  0.33747836  1
  Al0+  Al53  1  0.00053898  0.50347500  0.66503843  1
  Al0+  Al54  1  0.49958978  -0.00043272  -0.00790980  1
  Al0+  Al55  1  0.49987744  -0.00012781  0.33094353  1
  Al0+  Al56  1  0.50046220  -0.00172501  0.67166495  1
  Al0+  Al57  1  0.50045041  0.49915453  0.00208971  1
  Al0+  Al58  1  0.49998682  0.49913718  0.33825043  1
  Al0+  Al59  1  0.50390178  0.49945983  0.66930735  1
  Al0+  Al60  1  0.25266592  0.24684378  -0.00228723  1
  Al0+  Al61  1  0.25004520  0.24960609  0.33271500  1
  Al0+  Al62  1  0.25370171  0.25049679  0.66649441  1
  Al0+  Al63  1  0.24570960  0.75256982  -0.00032815  1
  Al0+  Al64  1  0.24723566  0.74962758  0.33367793  1
  Al0+  Al65  1  0.25029481  0.75278803  0.67437185  1
  Al0+  Al66  1  0.75329472  0.24783015  0.00233036  1
  Al0+  Al67  1  0.75307063  0.24867639  0.32917784  1
  Al0+  Al68  1  0.75040606  0.24810928  0.66549388  1
  Al0+  Al69  1  0.74618474  0.75243901  -0.00542314  1
  Al0+  Al70  1  0.74816871  0.75048625  0.33925237  1
  Al0+  Al71  1  0.74738414  0.74968723  0.66175801  1
  Al0+  Al72  1  0.07165691  0.18019663  0.98664449  1
  Al0+  Al73  1  0.07407079  0.18115147  0.64973942  1
  Al0+  Al74  1  0.68314528  0.42724482  0.67925018  1
  Al0+  Al75  1  0.32405080  0.07190433  0.68312400  1
  Al0+  Al76  1  0.32057074  0.57130538  0.34704474  1
  Al0+  Al77  1  0.57471454  0.17868293  0.98322731  1
  Al0+  Al78  1  0.81983703  0.57417178  0.01359845  1
  Al0+  Al79  1  0.92782593  0.82020254  0.65029114  1
  Al0+  Al80  1  0.32077396  0.57276028  0.01609251  1
  Al0+  Al81  1  0.57096695  0.17995172  0.32131425  1
  Al0+  Al82  1  0.17594796  0.93117979  0.68281525  1
  Al0+  Al83  1  0.92784469  0.32382800  0.65237058  1
  Al0+  Al84  1  0.82017740  0.57115774  0.34916079  1
  Al0+  Al85  1  0.67852665  0.93140891  0.34628313  1
  Al0+  Al86  1  0.67883264  0.42601996  0.01684839  1
  Al0+  Al87  1  0.17953106  0.42510176  0.01596720  1
  Al0+  Al88  1  0.43122210  0.32129134  0.98438554  1
  Al0+  Al89  1  0.42423755  0.82127547  0.98273731  1
  Al0+  Al90  1  0.92834228  0.81883588  0.98692575  1
  Al0+  Al91  1  0.56894370  0.67877189  0.98529100  1
  Al0+  Al92  1  0.17782477  0.43006563  0.68075528  1
  Al0+  Al93  1  0.42699080  0.81916297  0.32257665  1
  Al0+  Al94  1  0.92834682  0.81939677  0.31847888  1
  Al0+  Al95  1  0.32306846  0.57234725  0.68248261  1
  Si0+  Si96  1  0.56936200  0.67785396  0.64899662  1
  Si0+  Si97  1  0.07141838  0.17963928  0.31805498  1
  Si0+  Si98  1  0.17848953  0.42532863  0.35105414  1
  Si0+  Si99  1  0.07118155  0.67637069  0.31619996  1
  Si0+  Si100  1  0.31989258  0.07031503  0.34569683  1
  Si0+  Si101  1  0.67819659  0.93163090  0.01387494  1
  Si0+  Si102  1  0.42973720  0.82139467  0.65153961  1
  Si0+  Si103  1  0.17569098  0.93068863  0.01682358  1
  Si0+  Si104  1  0.07453033  0.67980353  0.64991307  1
  Si0+  Si105  1  0.57134118  0.67628447  0.31893826  1
  Si0+  Si106  1  0.43178747  0.32226756  0.65047050  1
  Si0+  Si107  1  0.17646396  0.93009153  0.34627827  1
  Si0+  Si108  1  0.42721850  0.32268160  0.31793793  1
  Si0+  Si109  1  0.32209630  0.06810031  0.01678403  1
  Si0+  Si110  1  0.67856699  0.92680806  0.68348624  1
  Si0+  Si111  1  0.81912757  0.06945952  0.68084042  1
  Si0+  Si112  1  0.82473391  0.07305521  0.35129159  1
  Si0+  Si113  1  0.67967346  0.42465748  0.35011218  1
  Si0+  Si114  1  0.57138958  0.17644739  0.65099213  1
  Si0+  Si115  1  0.82158400  0.57427353  0.68171276  1
  Si0+  Si116  1  0.82364047  0.06911108  0.01443318  1
  Si0+  Si117  1  0.92998992  0.32436250  0.98678646  1
  Si0+  Si118  1  0.07152104  0.67657917  0.98373021  1
  Si0+  Si119  1  0.92977654  0.32274295  0.31674095  1
  O2-  O120  1  0.25168383  -0.00369032  0.05995212  1
  O2-  O121  1  0.24913957  -0.00051031  0.38831361  1
  O2-  O122  1  0.24669843  0.00490733  0.73248944  1
  O2-  O123  1  0.25040947  0.49847969  0.06603109  1
  O2-  O124  1  0.24737031  0.49462120  0.39318776  1
  O2-  O125  1  0.24959941  0.50157681  0.73069636  1
  O2-  O126  1  0.74808872  0.00336562  0.05700614  1
  O2-  O127  1  0.75371299  0.00581882  0.39439359  1
  O2-  O128  1  0.75125093  -0.00385407  0.72476195  1
  O2-  O129  1  0.74948419  0.50070847  0.06485560  1
  O2-  O130  1  0.74650282  0.49465972  0.39496943  1
  O2-  O131  1  0.76119522  0.49851115  0.72499103  1
  O2-  O132  1  0.00244310  0.25231343  0.27570975  1
  O2-  O133  1  0.00423473  0.25638704  0.60042262  1
  O2-  O134  1  0.00321208  0.26116181  0.94217191  1
  O2-  O135  1  -0.00070416  0.74173417  0.27130464  1
  O2-  O136  1  0.00416297  0.74679168  0.60427343  1
  O2-  O137  1  -0.00117784  0.74116513  0.93952767  1
  O2-  O138  1  0.49955381  0.25731081  0.27508277  1
  O2-  O139  1  0.50007131  0.24726398  0.60883202  1
  O2-  O140  1  0.50816944  0.25475496  0.93250879  1
  O2-  O141  1  0.49850453  0.74139525  0.27647471  1
  O2-  O142  1  0.49631215  0.74727792  0.60743541  1
  O2-  O143  1  0.49003036  0.74299921  0.93351484  1
  O2-  O144  1  0.06784860  0.17697603  0.10067132  1
  O2-  O145  1  0.07216735  0.17863142  0.42257692  1
  O2-  O146  1  0.06927288  0.17954893  0.76300611  1
  O2-  O147  1  0.07420792  0.68154261  0.08946982  1
  O2-  O148  1  0.07245726  0.67958386  0.42181219  1
  O2-  O149  1  0.07299211  0.68062573  0.75523965  1
  O2-  O150  1  0.57005079  0.17539843  0.09716255  1
  O2-  O151  1  0.56763460  0.17921397  0.43504876  1
  O2-  O152  1  0.57302628  0.17549975  0.75533537  1
  O2-  O153  1  0.57268928  0.68562334  0.09911324  1
  O2-  O154  1  0.57108281  0.67804783  0.42509326  1
  O2-  O155  1  0.57201707  0.67907436  0.75354944  1
  O2-  O156  1  0.17862623  0.42197491  0.24597077  1
  O2-  O157  1  0.18236855  0.43246012  0.56645056  1
  O2-  O158  1  0.17928780  0.42564214  0.90282706  1
  O2-  O159  1  0.17504268  0.93252722  0.24116644  1
  O2-  O160  1  0.17928035  0.93087228  0.56801739  1
  O2-  O161  1  0.17162728  0.93445332  0.91234783  1
  O2-  O162  1  0.68097091  0.42243263  0.24526717  1
  O2-  O163  1  0.68169080  0.42916955  0.56557628  1
  O2-  O164  1  0.68352525  0.42555497  0.90311109  1
  O2-  O165  1  0.67849208  0.93257121  0.23324048  1
  O2-  O166  1  0.67584015  0.92861706  0.57813801  1
  O2-  O167  1  0.68050287  0.93207055  0.90852257  1
  O2-  O168  1  0.43033485  0.31595112  0.09868811  1
  O2-  O169  1  0.42523862  0.31999831  0.42385667  1
  O2-  O170  1  0.43389946  0.32405276  0.75486218  1
  O2-  O171  1  0.42947014  0.82372584  0.09683544  1
  O2-  O172  1  0.42808558  0.82110983  0.43609901  1
  O2-  O173  1  0.43373199  0.82421963  0.75590088  1
  O2-  O174  1  0.92961764  0.31938486  0.09284055  1
  O2-  O175  1  0.92814071  0.32138276  0.42172218  1
  O2-  O176  1  0.92373432  0.31831907  0.76545694  1
  O2-  O177  1  0.92871002  0.82073072  0.10020275  1
  O2-  O178  1  0.93168893  0.82059220  0.43143944  1
  O2-  O179  1  0.92580102  0.81844575  0.76332572  1
  O2-  O180  1  0.31823118  0.07143616  0.24073081  1
  O2-  O181  1  0.32724936  0.06688829  0.56827099  1
  O2-  O182  1  0.32171279  0.06779956  0.91216739  1
  O2-  O183  1  0.31956978  0.57265961  0.23474314  1
  O2-  O184  1  0.32298387  0.57182696  0.56815032  1
  O2-  O185  1  0.31670223  0.57131872  0.90300455  1
  O2-  O186  1  0.82786801  0.07237731  0.24567767  1
  O2-  O187  1  0.81569631  0.07037946  0.57549972  1
  O2-  O188  1  0.82543925  0.06641913  0.90931231  1
  O2-  O189  1  0.81771269  0.57127158  0.23658420  1
  O2-  O190  1  0.81637595  0.57653600  0.57583330  1
  O2-  O191  1  0.81873729  0.57402945  0.89995230  1
  O2-  O192  1  0.04157229  0.08895894  0.26907158  1
  O2-  O193  1  0.03996432  0.08463436  0.59520012  1
  O2-  O194  1  0.03374288  0.08719170  0.93097047  1
  O2-  O195  1  0.05042959  0.58052515  0.27326769  1
  O2-  O196  1  0.05241642  0.58618559  0.60207964  1
  O2-  O197  1  0.05008421  0.58062693  0.94168713  1
  O2-  O198  1  0.53692436  0.08536475  0.26594911  1
  O2-  O199  1  0.54271042  0.08354110  0.60472754  1
  O2-  O200  1  0.54230529  0.08257524  0.92865495  1
  O2-  O201  1  0.55153595  0.58030463  0.27573363  1
  O2-  O202  1  0.54440131  0.58551810  0.60093332  1
  O2-  O203  1  0.54966241  0.57780686  0.93509164  1
  O2-  O204  1  0.16409698  0.20496462  0.27011892  1
  O2-  O205  1  0.17460067  0.20441547  0.59731985  1
  O2-  O206  1  0.17007304  0.20114644  0.93432618  1
  O2-  O207  1  0.16232706  0.70723794  0.26824811  1
  O2-  O208  1  0.16820510  0.70880655  0.60440188  1
  O2-  O209  1  0.16179134  0.70741170  0.93491373  1
  O2-  O210  1  0.67000441  0.20319770  0.26817568  1
  O2-  O211  1  0.66236236  0.20413501  0.60176361  1
  O2-  O212  1  0.67720079  0.19814700  0.93515807  1
  O2-  O213  1  0.66310229  0.70759604  0.27383163  1
  O2-  O214  1  0.65929576  0.70920753  0.59922266  1
  O2-  O215  1  0.66225395  0.71622424  0.92735515  1
  O2-  O216  1  0.08119230  0.45166228  0.07110469  1
  O2-  O217  1  0.08451500  0.44938707  0.39691631  1
  O2-  O218  1  0.07786261  0.45567067  0.73204455  1
  O2-  O219  1  0.08609508  0.96519536  0.06584497  1
  O2-  O220  1  0.08569461  0.96110587  0.39421757  1
  O2-  O221  1  0.07563227  0.95811517  0.73229979  1
  O2-  O222  1  0.57988947  0.45073096  0.06920947  1
  O2-  O223  1  0.58490449  0.44685507  0.39612803  1
  O2-  O224  1  0.58879688  0.46172124  0.73355399  1
  O2-  O225  1  0.58560724  0.95928408  0.05999051  1
  O2-  O226  1  0.58262396  0.96474485  0.40236859  1
  O2-  O227  1  0.58874562  0.95614537  0.73266237  1
  O2-  O228  1  0.20944094  0.32581452  0.06800265  1
  O2-  O229  1  0.20456184  0.33139127  0.39765621  1
  O2-  O230  1  0.20564201  0.33055408  0.72969807  1
  O2-  O231  1  0.19688979  0.83760825  0.06431621  1
  O2-  O232  1  0.20094013  0.83789076  0.39370965  1
  O2-  O233  1  0.20434818  0.83443839  0.73746789  1
  O2-  O234  1  0.70991337  0.32750570  0.06987976  1
  O2-  O235  1  0.70853132  0.33123950  0.39614257  1
  O2-  O236  1  0.70824629  0.32896974  0.73212853  1
  O2-  O237  1  0.70737171  0.84080834  0.06116879  1
  O2-  O238  1  0.70724762  0.83600602  0.40355487  1
  O2-  O239  1  0.70610121  0.83427739  0.72870188  1
  O2-  O240  1  0.45019097  0.41778198  0.27438081  1
  O2-  O241  1  0.46504734  0.41217801  0.60133504  1
  O2-  O242  1  0.45281205  0.42123201  0.93324062  1
  O2-  O243  1  0.45993870  0.91455341  0.26770275  1
  O2-  O244  1  0.46264472  0.91210470  0.60356526  1
  O2-  O245  1  0.46085263  0.91565471  0.92745487  1
  O2-  O246  1  0.95639926  0.41524712  0.27078271  1
  O2-  O247  1  0.95042825  0.42440140  0.59980597  1
  O2-  O248  1  0.94763810  0.42087165  0.94492984  1
  O2-  O249  1  0.95942551  0.91656953  0.26491225  1
  O2-  O250  1  0.95530533  0.91728566  0.59556621  1
  O2-  O251  1  0.96327092  0.91356125  0.93219956  1
  O2-  O252  1  0.33505247  0.29343792  0.27086289  1
  O2-  O253  1  0.34010986  0.29750303  0.60154629  1
  O2-  O254  1  0.33580133  0.28523657  0.93074273  1
  O2-  O255  1  0.32903033  0.79359340  0.26866885  1
  O2-  O256  1  0.33515286  0.79890006  0.60732653  1
  O2-  O257  1  0.32185606  0.80469082  0.93459001  1
  O2-  O258  1  0.83958810  0.29329202  0.26728749  1
  O2-  O259  1  0.83207427  0.28697368  0.59629895  1
  O2-  O260  1  0.83893966  0.29237558  0.93999672  1
  O2-  O261  1  0.82911751  0.79072959  0.26902834  1
  O2-  O262  1  0.83079202  0.78863007  0.59597037  1
  O2-  O263  1  0.83156527  0.79385284  0.93124003  1
  O2-  O264  1  0.41477095  0.03921609  0.06265288  1
  O2-  O265  1  0.41125135  0.04277410  0.39338387  1
  O2-  O266  1  0.41980727  0.03804509  0.73825338  1
  O2-  O267  1  0.42012189  0.54737930  0.06814965  1
  O2-  O268  1  0.41803956  0.54372132  0.40264037  1
  O2-  O269  1  0.42135054  0.54143195  0.73241531  1
  O2-  O270  1  0.91329342  0.03641713  0.06389742  1
  O2-  O271  1  0.91711892  0.04419308  0.39851045  1
  O2-  O272  1  0.91174272  0.04359990  0.72624339  1
  O2-  O273  1  0.91818741  0.55133456  0.06982432  1
  O2-  O274  1  0.91795013  0.54235989  0.40263139  1
  O2-  O275  1  0.91860474  0.56059814  0.72282265  1
  O2-  O276  1  0.29344516  0.15864685  0.06566380  1
  O2-  O277  1  0.29240725  0.16211289  0.39425075  1
  O2-  O278  1  0.30384185  0.17280434  0.73190979  1
  O2-  O279  1  0.28917384  0.67228071  0.06702268  1
  O2-  O280  1  0.28681625  0.66759008  0.40175961  1
  O2-  O281  1  0.29981602  0.67170291  0.73396996  1
  O2-  O282  1  0.80287096  0.16184491  0.06316386  1
  O2-  O283  1  0.80109805  0.16765172  0.39611756  1
  O2-  O284  1  0.78859719  0.15922957  0.72977355  1
  O2-  O285  1  0.78563174  0.67250659  0.06533482  1
  O2-  O286  1  0.78808832  0.66631075  0.40526122  1
  O2-  O287  1  0.78665435  0.66517240  0.72792042  1
