# generated using pymatgen
data_Ca2Al2SiO7
_symmetry_space_group_name_H-M   'P 1'
_cell_length_a   15.45737109
_cell_length_b   15.45820986
_cell_length_c   15.28398725
_cell_angle_alpha   90.00448614
_cell_angle_beta   89.99310804
_cell_angle_gamma   89.99210109
_symmetry_Int_Tables_number   1
_chemical_formula_structural   Ca2Al2SiO7
_chemical_formula_sum   'Ca48 Al48 Si24 O168'
_cell_volume   3652.00606680
_cell_formula_units_Z   24
loop_
 _symmetry_equiv_pos_site_id
 _symmetry_equiv_pos_as_xyz
  1  'x, y, z'
loop_
 _atom_type_symbol
 _atom_type_oxidation_number
  Ca2+  2.0
  Al0+  0.0
  Si0+  0.0
  O2-  -2.0
loop_
 _atom_site_type_symbol
 _atom_site_label
 _atom_site_symmetry_multiplicity
 _atom_site_fract_x
 _atom_site_fract_y
 _atom_site_fract_z
 _atom_site_occupancy
  Ca2+  Ca0  1  0.16898312  0.07292990  0.17028337  1
  Ca2+  Ca1  1  0.17331556  0.07365534  0.50687961  1
  Ca2+  Ca2  1  0.18217470  0.08031025  0.84120139  1
  Ca2+  Ca3  1  0.16790618  0.58180334  0.16600598  1
  Ca2+  Ca4  1  0.16262987  0.58660255  0.50377710  1
  Ca2+  Ca5  1  0.17152719  0.58056654  0.83943932  1
  Ca2+  Ca6  1  0.66613035  0.08978828  0.16932183  1
  Ca2+  Ca7  1  0.66533691  0.08156097  0.50979957  1
  Ca2+  Ca8  1  0.66301419  0.08336814  0.83057156  1
  Ca2+  Ca9  1  0.66894812  0.57348021  0.17599193  1
  Ca2+  Ca10  1  0.66892948  0.57927639  0.50885343  1
  Ca2+  Ca11  1  0.67093861  0.58687628  0.83333066  1
  Ca2+  Ca12  1  0.07825694  0.33584286  0.15855354  1
  Ca2+  Ca13  1  0.07597579  0.33093112  0.50071323  1
  Ca2+  Ca14  1  0.07598418  0.34139541  0.82974336  1
  Ca2+  Ca15  1  0.07915279  0.83774767  0.16416887  1
  Ca2+  Ca16  1  0.08139527  0.82265279  0.48918704  1
  Ca2+  Ca17  1  0.08330486  0.83136689  0.83083957  1
  Ca2+  Ca18  1  0.58247747  0.32544967  0.16555030  1
  Ca2+  Ca19  1  0.57582809  0.32551742  0.49393203  1
  Ca2+  Ca20  1  0.57385138  0.32098845  0.82441113  1
  Ca2+  Ca21  1  0.57348639  0.83651555  0.16448354  1
  Ca2+  Ca22  1  0.57454077  0.83953639  0.50187072  1
  Ca2+  Ca23  1  0.57747921  0.82877887  0.82059962  1
  Ca2+  Ca24  1  0.33547728  0.42161970  0.16987969  1
  Ca2+  Ca25  1  0.33563034  0.41165619  0.50466661  1
  Ca2+  Ca26  1  0.33019257  0.42161612  0.84163825  1
  Ca2+  Ca27  1  0.32406801  0.91786386  0.17110664  1
  Ca2+  Ca28  1  0.33466183  0.91597439  0.50548286  1
  Ca2+  Ca29  1  0.33484657  0.92520644  0.83775181  1
  Ca2+  Ca30  1  0.82824632  0.41413034  0.17257204  1
  Ca2+  Ca31  1  0.82649295  0.41998773  0.50871254  1
  Ca2+  Ca32  1  0.83973582  0.42023187  0.83415102  1
  Ca2+  Ca33  1  0.83650841  0.91497877  0.17225325  1
  Ca2+  Ca34  1  0.82736076  0.92120393  0.51035144  1
  Ca2+  Ca35  1  0.82846069  0.91850835  0.83452602  1
  Ca2+  Ca36  1  0.42780924  0.16368851  0.16191438  1
  Ca2+  Ca37  1  0.42339881  0.17035151  0.49787211  1
  Ca2+  Ca38  1  0.42027482  0.16331137  0.82444866  1
  Ca2+  Ca39  1  0.41170207  0.66990988  0.16613304  1
  Ca2+  Ca40  1  0.42129548  0.67862082  0.49863509  1
  Ca2+  Ca41  1  0.41821266  0.67114625  0.82371989  1
  Ca2+  Ca42  1  0.92006472  0.17281466  0.15822453  1
  Ca2+  Ca43  1  0.90725683  0.17013592  0.50148221  1
  Ca2+  Ca44  1  0.91643377  0.17758941  0.82767038  1
  Ca2+  Ca45  1  0.92148182  0.67890452  0.16379198  1
  Ca2+  Ca46  1  0.92432411  0.66797153  0.49727920  1
  Ca2+  Ca47  1  0.92264011  0.67032495  0.82506879  1
  Al0+  Al48  1  -0.00179275  0.00195959  -0.00304194  1
  Al0+  Al49  1  0.00097843  0.00059292  0.33687459  1
  Al0+  Al50  1  -0.00069881  0.00061621  0.67257984  1
  Al0+  Al51  1  -0.00025453  0.50309774  0.00169611  1
  Al0+  Al52  1  0.00150906  0.50089244  0.32983943  1
  Al0+  Al53  1  -0.00172134  0.49969129  0.66153692  1
  Al0+  Al54  1  0.50193724  -0.00165769  -0.00011630  1
  Al0+  Al55  1  0.50109914  0.00036603  0.32491836  1
  Al0+  Al56  1  0.49889155  -0.00048958  0.66750903  1
  Al0+  Al57  1  0.50236472  0.49897267  0.00459904  1
  Al0+  Al58  1  0.49944756  0.49888111  0.33600443  1
  Al0+  Al59  1  0.49931643  0.50002492  0.66157098  1
  Al0+  Al60  1  0.25131408  0.25030527  0.00984380  1
  Al0+  Al61  1  0.25031820  0.25127367  0.33110347  1
  Al0+  Al62  1  0.24699842  0.24861952  0.66822726  1
  Al0+  Al63  1  0.24973221  0.75023122  0.00647819  1
  Al0+  Al64  1  0.25005610  0.74817741  0.32936768  1
  Al0+  Al65  1  0.24897201  0.74762388  0.66015955  1
  Al0+  Al66  1  0.74989134  0.24960095  -0.00901793  1
  Al0+  Al67  1  0.74865617  0.25093767  0.33525821  1
  Al0+  Al68  1  0.74950420  0.25071867  0.66445275  1
  Al0+  Al69  1  0.75082419  0.75108561  -0.00174359  1
  Al0+  Al70  1  0.75122241  0.75019250  0.33194243  1
  Al0+  Al71  1  0.75103131  0.74829169  0.67165645  1
  Al0+  Al72  1  0.42478355  0.32118749  0.65398383  1
  Al0+  Al73  1  0.42716971  0.32266504  0.31566053  1
  Al0+  Al74  1  0.57424562  0.67772839  0.65248599  1
  Al0+  Al75  1  0.17959663  0.92850686  0.34911751  1
  Al0+  Al76  1  0.67914068  0.42874236  0.34861244  1
  Al0+  Al77  1  0.06956273  0.67972056  0.65419150  1
  Al0+  Al78  1  0.07179619  0.67757920  0.31411551  1
  Al0+  Al79  1  0.92804373  0.82327585  0.98326740  1
  Al0+  Al80  1  0.82141703  0.56921496  0.68056877  1
  Al0+  Al81  1  0.56976520  0.17848363  0.65124088  1
  Al0+  Al82  1  0.32543484  0.07107987  0.01767853  1
  Al0+  Al83  1  0.32393519  0.57077746  0.01526622  1
  Al0+  Al84  1  0.92973220  0.31997441  0.65189811  1
  Al0+  Al85  1  0.93094192  0.32239250  0.98688084  1
  Al0+  Al86  1  0.42882025  0.82095318  0.65337697  1
  Al0+  Al87  1  0.56946623  0.17841832  0.98266114  1
  Al0+  Al88  1  0.31905404  0.07006701  0.67822760  1
  Al0+  Al89  1  0.82210660  0.07399184  0.68423680  1
  Al0+  Al90  1  0.17706567  0.93052308  0.01482316  1
  Al0+  Al91  1  0.17721169  0.42983819  0.01511835  1
  Al0+  Al92  1  0.43018809  0.82050569  0.31751232  1
  Al0+  Al93  1  0.57153668  0.17997586  0.31698703  1
  Al0+  Al94  1  0.67868618  0.92918207  0.68174228  1
  Al0+  Al95  1  0.92891860  0.82291434  0.32023801  1
  Si0+  Si96  1  0.82118545  0.07134120  0.34646223  1
  Si0+  Si97  1  0.67589293  0.42871456  0.68489528  1
  Si0+  Si98  1  0.07420223  0.17859743  0.98452899  1
  Si0+  Si99  1  0.68202168  0.42800012  0.01367347  1
  Si0+  Si100  1  0.17803442  0.92394897  0.68212586  1
  Si0+  Si101  1  0.07198087  0.17606244  0.65097342  1
  Si0+  Si102  1  0.82264131  0.57191297  0.34962322  1
  Si0+  Si103  1  0.42788100  0.32333515  0.98487746  1
  Si0+  Si104  1  0.57271050  0.67737502  0.31726598  1
  Si0+  Si105  1  0.32087243  0.57093333  0.67822107  1
  Si0+  Si106  1  0.92966407  0.31964511  0.31944907  1
  Si0+  Si107  1  0.32028421  0.57010832  0.35142789  1
  Si0+  Si108  1  0.82066563  0.57323428  0.01638291  1
  Si0+  Si109  1  0.57192903  0.67703851  0.98720399  1
  Si0+  Si110  1  0.81849855  0.07239004  0.01462064  1
  Si0+  Si111  1  0.68080052  0.92740548  0.01677406  1
  Si0+  Si112  1  0.17718708  0.42781525  0.35057614  1
  Si0+  Si113  1  0.92809652  0.82380085  0.65184149  1
  Si0+  Si114  1  0.32308902  0.07119353  0.34997331  1
  Si0+  Si115  1  0.67825160  0.92832991  0.34585507  1
  Si0+  Si116  1  0.07190374  0.68040596  0.98261063  1
  Si0+  Si117  1  0.07161786  0.17885988  0.31963216  1
  Si0+  Si118  1  0.42894464  0.81813705  0.98587314  1
  Si0+  Si119  1  0.17811649  0.42934250  0.67893648  1
  O2-  O120  1  0.24951650  0.00190633  0.06594697  1
  O2-  O121  1  0.25617233  0.00136237  0.39557110  1
  O2-  O122  1  0.24541193  -0.00599310  0.72539091  1
  O2-  O123  1  0.25273276  0.49780826  0.06601913  1
  O2-  O124  1  0.24904379  0.49801608  0.39280932  1
  O2-  O125  1  0.25329929  0.49643372  0.71997107  1
  O2-  O126  1  0.75063489  -0.00033802  0.05931770  1
  O2-  O127  1  0.75158977  -0.00212854  0.38597677  1
  O2-  O128  1  0.75027647  0.00126697  0.73367771  1
  O2-  O129  1  0.75168361  0.49993291  0.05792571  1
  O2-  O130  1  0.75243832  0.50539488  0.39415007  1
  O2-  O131  1  0.74448893  0.49758724  0.72994118  1
  O2-  O132  1  0.00123515  0.25033009  0.27635924  1
  O2-  O133  1  -0.00111186  0.23983234  0.60535285  1
  O2-  O134  1  0.01137959  0.25332373  0.94097996  1
  O2-  O135  1  0.00111787  0.75266156  0.26739313  1
  O2-  O136  1  -0.00109942  0.75801157  0.60744934  1
  O2-  O137  1  0.00520044  0.75063015  0.93802024  1
  O2-  O138  1  0.49824170  0.24998410  0.26587948  1
  O2-  O139  1  0.49796889  0.25134592  0.60301939  1
  O2-  O140  1  0.48942824  0.24924055  0.93943998  1
  O2-  O141  1  0.50630319  0.74664358  0.27040022  1
  O2-  O142  1  0.50413306  0.75174219  0.60345437  1
  O2-  O143  1  0.49723405  0.74384632  0.94511019  1
  O2-  O144  1  0.06748825  0.17623556  0.09061549  1
  O2-  O145  1  0.07089868  0.18006932  0.42467496  1
  O2-  O146  1  0.07492352  0.18040313  0.75626719  1
  O2-  O147  1  0.06881633  0.67877774  0.08779959  1
  O2-  O148  1  0.06840568  0.67577423  0.42792646  1
  O2-  O149  1  0.07053849  0.67895124  0.76736776  1
  O2-  O150  1  0.57382832  0.18215771  0.09561048  1
  O2-  O151  1  0.57280777  0.17923933  0.42977343  1
  O2-  O152  1  0.56672303  0.18012172  0.76501780  1
  O2-  O153  1  0.57442584  0.67913917  0.09236528  1
  O2-  O154  1  0.57207241  0.67850221  0.42227029  1
  O2-  O155  1  0.56943461  0.67685362  0.76693236  1
  O2-  O156  1  0.17421607  0.42820121  0.24599150  1
  O2-  O157  1  0.17683155  0.42973095  0.57359344  1
  O2-  O158  1  0.17597022  0.43420057  0.90097817  1
  O2-  O159  1  0.17773220  0.93320085  0.23628363  1
  O2-  O160  1  0.17848555  0.92463291  0.57642049  1
  O2-  O161  1  0.17984723  0.93015350  0.90097858  1
  O2-  O162  1  0.68417310  0.42849389  0.23448045  1
  O2-  O163  1  0.67815571  0.43007966  0.57926002  1
  O2-  O164  1  0.68141502  0.43071918  0.90901419  1
  O2-  O165  1  0.67883916  0.92795382  0.24039639  1
  O2-  O166  1  0.68049121  0.92977919  0.56742847  1
  O2-  O167  1  0.68068315  0.92493469  0.91233351  1
  O2-  O168  1  0.43409806  0.32695680  0.08996982  1
  O2-  O169  1  0.42661494  0.32018088  0.42902399  1
  O2-  O170  1  0.42402787  0.32225992  0.76786362  1
  O2-  O171  1  0.43166029  0.81831807  0.09108866  1
  O2-  O172  1  0.43188458  0.82112825  0.43018494  1
  O2-  O173  1  0.42640980  0.81717614  0.76745641  1
  O2-  O174  1  0.92817323  0.31842027  0.10071014  1
  O2-  O175  1  0.93026069  0.31884869  0.42433762  1
  O2-  O176  1  0.93503598  0.32360203  0.76483107  1
  O2-  O177  1  0.92540889  0.82052716  0.09624067  1
  O2-  O178  1  0.92814240  0.82249218  0.43358619  1
  O2-  O179  1  0.92974712  0.82167155  0.75766479  1
  O2-  O180  1  0.32067304  0.06971023  0.24450790  1
  O2-  O181  1  0.31644998  0.07082986  0.56506059  1
  O2-  O182  1  0.32575335  0.06794707  0.90375719  1
  O2-  O183  1  0.32069081  0.56884826  0.24634551  1
  O2-  O184  1  0.31841732  0.57280239  0.57334969  1
  O2-  O185  1  0.32455033  0.57088718  0.90106107  1
  O2-  O186  1  0.82200850  0.07395895  0.24097107  1
  O2-  O187  1  0.82235109  0.07093827  0.56985172  1
  O2-  O188  1  0.81675126  0.07317326  0.91034422  1
  O2-  O189  1  0.82113203  0.57006379  0.24340630  1
  O2-  O190  1  0.82319711  0.56559220  0.56749978  1
  O2-  O191  1  0.82024251  0.57359041  0.91149003  1
  O2-  O192  1  0.04157857  0.08826984  0.27173775  1
  O2-  O193  1  0.05098755  0.08024854  0.60714586  1
  O2-  O194  1  0.04283959  0.08872594  0.93527133  1
  O2-  O195  1  0.04143244  0.57955950  0.26039453  1
  O2-  O196  1  0.03554336  0.58569555  0.59726667  1
  O2-  O197  1  0.04333872  0.58766122  0.93651914  1
  O2-  O198  1  0.54633932  0.08198067  0.26122760  1
  O2-  O199  1  0.54175924  0.08020671  0.59946731  1
  O2-  O200  1  0.54402040  0.07874899  0.93237660  1
  O2-  O201  1  0.54489730  0.58419136  0.27147533  1
  O2-  O202  1  0.54455819  0.58109023  0.59754550  1
  O2-  O203  1  0.54962192  0.58326866  0.94118509  1
  O2-  O204  1  0.16257549  0.20585562  0.27102007  1
  O2-  O205  1  0.16186706  0.20712597  0.60086665  1
  O2-  O206  1  0.17134324  0.19793794  0.94373294  1
  O2-  O207  1  0.17064551  0.70251732  0.26256060  1
  O2-  O208  1  0.16528998  0.70589081  0.59660068  1
  O2-  O209  1  0.16736078  0.70389751  0.93896295  1
  O2-  O210  1  0.67013210  0.21192764  0.26398398  1
  O2-  O211  1  0.66885443  0.20511408  0.59985976  1
  O2-  O212  1  0.66387100  0.21320944  0.92755536  1
  O2-  O213  1  0.66744567  0.69947341  0.27133939  1
  O2-  O214  1  0.67462863  0.70120498  0.60202251  1
  O2-  O215  1  0.66199755  0.70846995  0.93871316  1
  O2-  O216  1  0.07983156  0.46209356  0.07018545  1
  O2-  O217  1  0.08492421  0.45677172  0.39784217  1
  O2-  O218  1  0.08842929  0.46295204  0.72623438  1
  O2-  O219  1  0.07760592  0.96069721  0.06634316  1
  O2-  O220  1  0.08390005  0.96184469  0.40440917  1
  O2-  O221  1  0.08391776  0.94699575  0.72798266  1
  O2-  O222  1  0.59117213  0.45453294  0.06384711  1
  O2-  O223  1  0.58213627  0.45770752  0.40188984  1
  O2-  O224  1  0.58172906  0.45474881  0.73017492  1
  O2-  O225  1  0.58897677  0.95472922  0.06422336  1
  O2-  O226  1  0.58669078  0.95840682  0.39206092  1
  O2-  O227  1  0.58006561  0.95570254  0.73543797  1
  O2-  O228  1  0.19658521  0.32978573  0.06851099  1
  O2-  O229  1  0.20288188  0.33500224  0.39786909  1
  O2-  O230  1  0.19960690  0.33686180  0.72751732  1
  O2-  O231  1  0.20399589  0.83231434  0.06857222  1
  O2-  O232  1  0.20855951  0.82943315  0.39838190  1
  O2-  O233  1  0.20478235  0.83024263  0.72746484  1
  O2-  O234  1  0.71381609  0.33671687  0.05987223  1
  O2-  O235  1  0.71334155  0.33392880  0.40373672  1
  O2-  O236  1  0.70269030  0.33527257  0.72950321  1
  O2-  O237  1  0.70955502  0.83612289  0.06551353  1
  O2-  O238  1  0.70323717  0.83568025  0.39307787  1
  O2-  O239  1  0.70613577  0.83067603  0.73592149  1
  O2-  O240  1  0.45739724  0.42166574  0.26487209  1
  O2-  O241  1  0.45074790  0.41951800  0.60012574  1
  O2-  O242  1  0.45944953  0.41555282  0.93801324  1
  O2-  O243  1  0.46144300  0.91524665  0.26054756  1
  O2-  O244  1  0.45562114  0.91857981  0.59945239  1
  O2-  O245  1  0.46110110  0.90843346  0.93889174  1
  O2-  O246  1  0.95601780  0.41163078  0.27194895  1
  O2-  O247  1  0.96587481  0.41272061  0.59439119  1
  O2-  O248  1  0.95732196  0.42140907  0.93502997  1
  O2-  O249  1  0.95646219  0.92253856  0.26800873  1
  O2-  O250  1  0.94897713  0.91959530  0.60846532  1
  O2-  O251  1  0.95400867  0.92134179  0.93025248  1
  O2-  O252  1  0.32671872  0.29915974  0.26422986  1
  O2-  O253  1  0.32600419  0.29320365  0.60117834  1
  O2-  O254  1  0.32983782  0.30621958  0.94539696  1
  O2-  O255  1  0.33514313  0.78691858  0.26344923  1
  O2-  O256  1  0.33315240  0.78852283  0.59748982  1
  O2-  O257  1  0.33570115  0.79346849  0.94057476  1
  O2-  O258  1  0.83852653  0.29035717  0.27210721  1
  O2-  O259  1  0.83230380  0.29402089  0.59791579  1
  O2-  O260  1  0.83761298  0.28779862  0.93009365  1
  O2-  O261  1  0.83047000  0.79446295  0.26514159  1
  O2-  O262  1  0.83521656  0.79547149  0.60735310  1
  O2-  O263  1  0.83222053  0.78853607  0.92981311  1
  O2-  O264  1  0.42265882  0.03718877  0.07023981  1
  O2-  O265  1  0.41836128  0.04544191  0.39198226  1
  O2-  O266  1  0.41451387  0.03990084  0.73355929  1
  O2-  O267  1  0.42269095  0.54416346  0.07045955  1
  O2-  O268  1  0.41239381  0.54384381  0.39869140  1
  O2-  O269  1  0.41378416  0.54726753  0.72558228  1
  O2-  O270  1  0.91157015  0.04797655  0.06140821  1
  O2-  O271  1  0.91271164  0.04726806  0.39593344  1
  O2-  O272  1  0.92148504  0.04882096  0.73832253  1
  O2-  O273  1  0.91243802  0.54773945  0.06420802  1
  O2-  O274  1  0.91621697  0.54335058  0.39376655  1
  O2-  O275  1  0.91699576  0.53349477  0.73494185  1
  O2-  O276  1  0.30380228  0.17093643  0.07020651  1
  O2-  O277  1  0.29520271  0.16544590  0.39352708  1
  O2-  O278  1  0.28544468  0.16525777  0.73507569  1
  O2-  O279  1  0.29441448  0.66788094  0.07005658  1
  O2-  O280  1  0.29136877  0.66186610  0.39766182  1
  O2-  O281  1  0.28902797  0.66098052  0.72735955  1
  O2-  O282  1  0.78813954  0.16407002  0.06213658  1
  O2-  O283  1  0.79139604  0.16195468  0.39515218  1
  O2-  O284  1  0.79507884  0.17384682  0.73506785  1
  O2-  O285  1  0.78906403  0.66376742  0.06454310  1
  O2-  O286  1  0.79980108  0.66669105  0.39442401  1
  O2-  O287  1  0.79557826  0.66559056  0.73737321  1
