# generated using pymatgen
data_Ca2Al2SiO7
_symmetry_space_group_name_H-M   'P 1'
_cell_length_a   15.46466324
_cell_length_b   15.46394502
_cell_length_c   15.28812694
_cell_angle_alpha   89.99930187
_cell_angle_beta   89.99780394
_cell_angle_gamma   89.98240232
_symmetry_Int_Tables_number   1
_chemical_formula_structural   Ca2Al2SiO7
_chemical_formula_sum   'Ca48 Al48 Si24 O168'
_cell_volume   3656.07438804
_cell_formula_units_Z   24
loop_
 _symmetry_equiv_pos_site_id
 _symmetry_equiv_pos_as_xyz
  1  'x, y, z'
loop_
 _atom_type_symbol
 _atom_type_oxidation_number
  Ca2+  2.0
  Al0+  0.0
  Si0+  0.0
  O2-  -2.0
loop_
 _atom_site_type_symbol
 _atom_site_label
 _atom_site_symmetry_multiplicity
 _atom_site_fract_x
 _atom_site_fract_y
 _atom_site_fract_z
 _atom_site_occupancy
  Ca2+  Ca0  1  0.17420534  0.09168308  0.17137322  1
  Ca2+  Ca1  1  0.16142833  0.08040004  0.50716228  1
  Ca2+  Ca2  1  0.17061318  0.07920649  0.83600110  1
  Ca2+  Ca3  1  0.16187882  0.58246452  0.17483791  1
  Ca2+  Ca4  1  0.15814135  0.57560644  0.49752138  1
  Ca2+  Ca5  1  0.16568486  0.58477173  0.84186931  1
  Ca2+  Ca6  1  0.66591405  0.07594092  0.16678651  1
  Ca2+  Ca7  1  0.67114506  0.08201737  0.49891944  1
  Ca2+  Ca8  1  0.67591196  0.08120648  0.84513527  1
  Ca2+  Ca9  1  0.67788911  0.58414848  0.17361496  1
  Ca2+  Ca10  1  0.67098338  0.58735658  0.49623934  1
  Ca2+  Ca11  1  0.67336365  0.57318197  0.84543996  1
  Ca2+  Ca12  1  0.07387484  0.33408786  0.16922374  1
  Ca2+  Ca13  1  0.08201189  0.32115572  0.48848134  1
  Ca2+  Ca14  1  0.07509925  0.32410990  0.83259831  1
  Ca2+  Ca15  1  0.06929272  0.82308958  0.16237321  1
  Ca2+  Ca16  1  0.07700999  0.83091343  0.49184447  1
  Ca2+  Ca17  1  0.08023659  0.83368036  0.83385824  1
  Ca2+  Ca18  1  0.58943029  0.32259266  0.16129182  1
  Ca2+  Ca19  1  0.57581960  0.32558177  0.48772196  1
  Ca2+  Ca20  1  0.59380161  0.32570409  0.83660096  1
  Ca2+  Ca21  1  0.58727677  0.83333958  0.16123196  1
  Ca2+  Ca22  1  0.57910572  0.83407724  0.49102389  1
  Ca2+  Ca23  1  0.57201862  0.84743731  0.83635243  1
  Ca2+  Ca24  1  0.32506740  0.41245089  0.17670527  1
  Ca2+  Ca25  1  0.32917236  0.41269734  0.49627648  1
  Ca2+  Ca26  1  0.32867822  0.41882206  0.83919252  1
  Ca2+  Ca27  1  0.33693370  0.92073522  0.16561715  1
  Ca2+  Ca28  1  0.32442037  0.91479409  0.50707513  1
  Ca2+  Ca29  1  0.32931639  0.91436285  0.84138866  1
  Ca2+  Ca30  1  0.84054923  0.42473414  0.16850529  1
  Ca2+  Ca31  1  0.84383656  0.42336862  0.49591352  1
  Ca2+  Ca32  1  0.83076843  0.42031418  0.84761991  1
  Ca2+  Ca33  1  0.82702598  0.91180497  0.17109278  1
  Ca2+  Ca34  1  0.82988045  0.91967070  0.50131521  1
  Ca2+  Ca35  1  0.83095378  0.92858277  0.84419036  1
  Ca2+  Ca36  1  0.42656271  0.16730581  0.16370905  1
  Ca2+  Ca37  1  0.42280232  0.17191917  0.48847972  1
  Ca2+  Ca38  1  0.42229020  0.15873793  0.83798646  1
  Ca2+  Ca39  1  0.42589061  0.67166466  0.16255166  1
  Ca2+  Ca40  1  0.42381864  0.67373293  0.49466415  1
  Ca2+  Ca41  1  0.41731540  0.68094039  0.83071576  1
  Ca2+  Ca42  1  0.91262545  0.17686279  0.16057957  1
  Ca2+  Ca43  1  0.92596007  0.16664625  0.49288051  1
  Ca2+  Ca44  1  0.90974475  0.16830888  0.82937770  1
  Ca2+  Ca45  1  0.91662302  0.67064796  0.16146072  1
  Ca2+  Ca46  1  0.91956959  0.67486404  0.48485790  1
  Ca2+  Ca47  1  0.91423886  0.67080416  0.84062891  1
  Al0+  Al48  1  0.00263219  -0.00110157  0.00144480  1
  Al0+  Al49  1  0.00178648  -0.00059149  0.32521801  1
  Al0+  Al50  1  0.00028594  -0.00045060  0.67199663  1
  Al0+  Al51  1  0.00075909  0.49710358  -0.00624146  1
  Al0+  Al52  1  0.00242699  0.49816622  0.33916421  1
  Al0+  Al53  1  0.00012779  0.49989575  0.67031494  1
  Al0+  Al54  1  0.49882557  0.00174010  -0.00022424  1
  Al0+  Al55  1  0.49946377  0.00184626  0.33693581  1
  Al0+  Al56  1  0.49865971  0.00111434  0.65909790  1
  Al0+  Al57  1  0.49767087  0.49887053  0.00252617  1
  Al0+  Al58  1  0.49867996  0.50254699  0.32797731  1
  Al0+  Al59  1  0.49951815  0.50042894  0.66758451  1
  Al0+  Al60  1  0.25082449  0.24984924  0.00245407  1
  Al0+  Al61  1  0.25096031  0.25119316  0.33322212  1
  Al0+  Al62  1  0.24933346  0.25025192  0.66557282  1
  Al0+  Al63  1  0.25109442  0.74884472  -0.00486219  1
  Al0+  Al64  1  0.25088699  0.75132431  0.33216639  1
  Al0+  Al65  1  0.25017532  0.74961822  0.66569505  1
  Al0+  Al66  1  0.74978954  0.24898296  -0.00246412  1
  Al0+  Al67  1  0.75015562  0.24989753  0.32842035  1
  Al0+  Al68  1  0.74957403  0.25250002  0.66565322  1
  Al0+  Al69  1  0.75116320  0.74859468  -0.00091946  1
  Al0+  Al70  1  0.74721480  0.75096667  0.33780322  1
  Al0+  Al71  1  0.74888424  0.74884911  0.66927240  1
  Al0+  Al72  1  0.82482837  0.07175071  0.01614411  1
  Al0+  Al73  1  0.57194675  0.17763379  0.31724706  1
  Al0+  Al74  1  0.67937754  0.92984714  0.01341528  1
  Al0+  Al75  1  0.18055900  0.42995802  0.34821226  1
  Al0+  Al76  1  0.82041066  0.56978749  0.34800218  1
  Al0+  Al77  1  0.42893997  0.82150207  0.65137043  1
  Al0+  Al78  1  0.92664235  0.82132151  0.32011401  1
  Al0+  Al79  1  0.57068888  0.68082275  0.32002504  1
  Al0+  Al80  1  0.43178259  0.82028518  0.98765228  1
  Al0+  Al81  1  0.56946327  0.18069190  0.98495188  1
  Al0+  Al82  1  0.31881484  0.06991639  0.01426343  1
  Al0+  Al83  1  0.06999482  0.67849534  0.98436931  1
  Al0+  Al84  1  0.81914663  0.07052987  0.67783180  1
  Al0+  Al85  1  0.67683361  0.42741085  0.01623834  1
  Al0+  Al86  1  0.07209710  0.17692396  0.31767753  1
  Al0+  Al87  1  0.93017972  0.31708625  0.98522091  1
  Al0+  Al88  1  0.06952725  0.17885494  0.65491401  1
  Al0+  Al89  1  0.92913001  0.32103757  0.31934158  1
  Al0+  Al90  1  0.17989378  0.92799137  0.68066233  1
  Al0+  Al91  1  0.92661212  0.82294658  0.98287638  1
  Al0+  Al92  1  0.07206294  0.67869762  0.32174526  1
  Al0+  Al93  1  0.82201817  0.56888722  0.01555269  1
  Al0+  Al94  1  0.42919560  0.32178998  0.31834310  1
  Al0+  Al95  1  0.67894928  0.93042269  0.34836027  1
  Si0+  Si96  1  0.92835889  0.81994008  0.65323239  1
  Si0+  Si97  1  0.42833954  0.32300350  0.65249757  1
  Si0+  Si98  1  0.32050962  0.57312337  0.01518735  1
  Si0+  Si99  1  0.82455646  0.07331136  0.34850529  1
  Si0+  Si100  1  0.32086827  0.56970086  0.68192425  1
  Si0+  Si101  1  0.42747989  0.82357148  0.31697798  1
  Si0+  Si102  1  0.67587242  0.42741242  0.34976595  1
  Si0+  Si103  1  0.32374746  0.57520059  0.35120265  1
  Si0+  Si104  1  0.57269361  0.67519217  0.98287971  1
  Si0+  Si105  1  0.92728644  0.32334835  0.64947514  1
  Si0+  Si106  1  0.17904528  0.92437071  0.01903552  1
  Si0+  Si107  1  0.67562552  0.92760124  0.68246196  1
  Si0+  Si108  1  0.31941599  0.07067886  0.35011974  1
  Si0+  Si109  1  0.67762183  0.43090071  0.67990718  1
  Si0+  Si110  1  0.57187796  0.18078722  0.65092549  1
  Si0+  Si111  1  0.07083008  0.67765084  0.65134940  1
  Si0+  Si112  1  0.32293300  0.07372745  0.68223564  1
  Si0+  Si113  1  0.17893886  0.42800944  0.68379180  1
  Si0+  Si114  1  0.82232833  0.57176990  0.68286534  1
  Si0+  Si115  1  0.42532556  0.32278084  0.98179542  1
  Si0+  Si116  1  0.57122892  0.67609749  0.65056618  1
  Si0+  Si117  1  0.18074721  0.42962155  0.01432493  1
  Si0+  Si118  1  0.07624248  0.17739738  0.98341294  1
  Si0+  Si119  1  0.17889058  0.92819506  0.34728458  1
  O2-  O120  1  0.24257478  -0.00198112  0.06303397  1
  O2-  O121  1  0.24735148  0.00086106  0.39194656  1
  O2-  O122  1  0.25677836  0.00221900  0.72541664  1
  O2-  O123  1  0.25071753  0.50136755  0.05652488  1
  O2-  O124  1  0.25456021  0.50649166  0.39557320  1
  O2-  O125  1  0.24854613  0.50054290  0.72588610  1
  O2-  O126  1  0.75673185  -0.00471832  0.06442713  1
  O2-  O127  1  0.75541606  0.00473986  0.39360859  1
  O2-  O128  1  0.74391985  -0.00342209  0.72530055  1
  O2-  O129  1  0.74693295  0.50064336  0.06607154  1
  O2-  O130  1  0.74650360  0.49352314  0.39628036  1
  O2-  O131  1  0.75058938  0.50003734  0.72175509  1
  O2-  O132  1  -0.00390986  0.24468815  0.26908341  1
  O2-  O133  1  -0.00493038  0.25326650  0.60730704  1
  O2-  O134  1  -0.00001630  0.23718189  0.93838927  1
  O2-  O135  1  -0.00361735  0.74590867  0.27244239  1
  O2-  O136  1  -0.00253654  0.74667855  0.61045107  1
  O2-  O137  1  0.00029970  0.75174856  0.93247610  1
  O2-  O138  1  0.50488166  0.25486021  0.26851417  1
  O2-  O139  1  0.49749819  0.24988207  0.61122205  1
  O2-  O140  1  0.49713289  0.25818556  0.93643396  1
  O2-  O141  1  0.49711377  0.75625497  0.27367175  1
  O2-  O142  1  0.50763774  0.74997327  0.60689763  1
  O2-  O143  1  0.50766893  0.74749995  0.93828406  1
  O2-  O144  1  0.08176650  0.18510612  0.08811852  1
  O2-  O145  1  0.07180311  0.17668931  0.43213010  1
  O2-  O146  1  0.07225259  0.18223064  0.76763948  1
  O2-  O147  1  0.07159937  0.67835997  0.09735776  1
  O2-  O148  1  0.07099550  0.68224822  0.43643451  1
  O2-  O149  1  0.07156068  0.67574981  0.75593569  1
  O2-  O150  1  0.56616957  0.17926345  0.09705341  1
  O2-  O151  1  0.56846164  0.17856332  0.43223215  1
  O2-  O152  1  0.57270597  0.18085508  0.75570638  1
  O2-  O153  1  0.56896838  0.67383331  0.08815127  1
  O2-  O154  1  0.56837368  0.68218128  0.43400310  1
  O2-  O155  1  0.56822467  0.67016937  0.75555596  1
  O2-  O156  1  0.18207004  0.43040977  0.23519534  1
  O2-  O157  1  0.17927323  0.42790583  0.57918201  1
  O2-  O158  1  0.18397096  0.42931068  0.90832503  1
  O2-  O159  1  0.18313925  0.92559241  0.24290421  1
  O2-  O160  1  0.17996485  0.92828713  0.56716947  1
  O2-  O161  1  0.18263969  0.92359616  0.91286771  1
  O2-  O162  1  0.67460820  0.43027064  0.24513424  1
  O2-  O163  1  0.67410973  0.43135256  0.57521276  1
  O2-  O164  1  0.67875643  0.42984695  0.90101230  1
  O2-  O165  1  0.67660989  0.93012387  0.23615217  1
  O2-  O166  1  0.67645875  0.92688667  0.57689115  1
  O2-  O167  1  0.67659078  0.93535857  0.89905546  1
  O2-  O168  1  0.42102428  0.32088436  0.08641364  1
  O2-  O169  1  0.42940076  0.31834630  0.43331291  1
  O2-  O170  1  0.42769694  0.32625455  0.75721939  1
  O2-  O171  1  0.43078424  0.81734529  0.10036953  1
  O2-  O172  1  0.42644405  0.82158050  0.42312136  1
  O2-  O173  1  0.42883305  0.82049959  0.76434497  1
  O2-  O174  1  0.93425788  0.32166894  0.09740391  1
  O2-  O175  1  0.93260299  0.32025667  0.43382515  1
  O2-  O176  1  0.92742805  0.32455139  0.75492255  1
  O2-  O177  1  0.92694674  0.82008392  0.09589590  1
  O2-  O178  1  0.92992059  0.82245033  0.43513433  1
  O2-  O179  1  0.92832126  0.81828359  0.75771060  1
  O2-  O180  1  0.32057820  0.06919010  0.24524704  1
  O2-  O181  1  0.32231184  0.07546524  0.57663436  1
  O2-  O182  1  0.31754161  0.06915715  0.90048904  1
  O2-  O183  1  0.32291593  0.57716013  0.24584569  1
  O2-  O184  1  0.32258252  0.56755808  0.57726410  1
  O2-  O185  1  0.31992996  0.57196402  0.90929020  1
  O2-  O186  1  0.82436829  0.07303829  0.24375084  1
  O2-  O187  1  0.81808299  0.06979038  0.56461162  1
  O2-  O188  1  0.81951721  0.07264087  0.90158169  1
  O2-  O189  1  0.82104504  0.57011645  0.23592017  1
  O2-  O190  1  0.82428817  0.57291942  0.57798615  1
  O2-  O191  1  0.82044803  0.56578060  0.90070488  1
  O2-  O192  1  0.05443299  0.07762621  0.26407370  1
  O2-  O193  1  0.03982312  0.08119781  0.60213340  1
  O2-  O194  1  0.06254654  0.07944074  0.94332160  1
  O2-  O195  1  0.05059805  0.57767913  0.27462987  1
  O2-  O196  1  0.04427349  0.58392240  0.60608538  1
  O2-  O197  1  0.04263082  0.58070817  0.92831793  1
  O2-  O198  1  0.53567619  0.08149185  0.26623897  1
  O2-  O199  1  0.54679739  0.08898788  0.60217947  1
  O2-  O200  1  0.53336909  0.08662479  0.92904085  1
  O2-  O201  1  0.54038737  0.58596579  0.26412372  1
  O2-  O202  1  0.53979570  0.58502119  0.60168386  1
  O2-  O203  1  0.54124411  0.58284349  0.93585710  1
  O2-  O204  1  0.16889089  0.21125767  0.26705513  1
  O2-  O205  1  0.16665612  0.20991130  0.60059453  1
  O2-  O206  1  0.16597988  0.21260158  0.93367335  1
  O2-  O207  1  0.16983400  0.70793957  0.26869354  1
  O2-  O208  1  0.16258103  0.70481405  0.60440471  1
  O2-  O209  1  0.16898607  0.70610311  0.93014210  1
  O2-  O210  1  0.67137282  0.19917226  0.26593903  1
  O2-  O211  1  0.66159358  0.21283658  0.60181433  1
  O2-  O212  1  0.66501224  0.21092523  0.92804493  1
  O2-  O213  1  0.66657075  0.71091941  0.26733698  1
  O2-  O214  1  0.66727376  0.69749005  0.60710204  1
  O2-  O215  1  0.66733795  0.69485813  0.93760975  1
  O2-  O216  1  0.08869989  0.45682530  0.05898709  1
  O2-  O217  1  0.08633949  0.45849465  0.40874749  1
  O2-  O218  1  0.08685981  0.45515291  0.73172172  1
  O2-  O219  1  0.08354149  0.94289575  0.06209879  1
  O2-  O220  1  0.08578870  0.95372719  0.39388605  1
  O2-  O221  1  0.08521034  0.95949520  0.73728651  1
  O2-  O222  1  0.57547991  0.44944577  0.06548047  1
  O2-  O223  1  0.58223680  0.45661722  0.39591119  1
  O2-  O224  1  0.58674846  0.45904936  0.72968653  1
  O2-  O225  1  0.58222269  0.96211571  0.06592312  1
  O2-  O226  1  0.58253360  0.96299552  0.40468305  1
  O2-  O227  1  0.58055096  0.95490090  0.72467061  1
  O2-  O228  1  0.21058737  0.33936173  0.06224277  1
  O2-  O229  1  0.21578223  0.33452345  0.40447994  1
  O2-  O230  1  0.20961268  0.33732425  0.73197054  1
  O2-  O231  1  0.21238090  0.83279825  0.06384279  1
  O2-  O232  1  0.20947470  0.83779062  0.39779609  1
  O2-  O233  1  0.21102171  0.83101769  0.73431473  1
  O2-  O234  1  0.70546192  0.32878473  0.06479058  1
  O2-  O235  1  0.69821896  0.33187542  0.39451785  1
  O2-  O236  1  0.70459982  0.33885708  0.72738413  1
  O2-  O237  1  0.69996799  0.82793362  0.06142477  1
  O2-  O238  1  0.70711844  0.83476663  0.40641321  1
  O2-  O239  1  0.69795195  0.83274365  0.72764721  1
  O2-  O240  1  0.44629822  0.42296074  0.26862697  1
  O2-  O241  1  0.45786408  0.41392579  0.60407308  1
  O2-  O242  1  0.44575641  0.41865594  0.93696165  1
  O2-  O243  1  0.45172340  0.91803878  0.27449692  1
  O2-  O244  1  0.45387704  0.91895867  0.59539443  1
  O2-  O245  1  0.45978221  0.91678086  0.93189307  1
  O2-  O246  1  0.96460912  0.41756515  0.26867742  1
  O2-  O247  1  0.95604207  0.41737472  0.60537179  1
  O2-  O248  1  0.96631141  0.41029111  0.92689265  1
  O2-  O249  1  0.95624615  0.91685186  0.26469621  1
  O2-  O250  1  0.95852190  0.91115450  0.60708315  1
  O2-  O251  1  0.95671731  0.92222380  0.93069558  1
  O2-  O252  1  0.33310120  0.28903406  0.26555045  1
  O2-  O253  1  0.33613290  0.29658119  0.60515644  1
  O2-  O254  1  0.33355683  0.29252082  0.93294117  1
  O2-  O255  1  0.33503924  0.79763792  0.27005999  1
  O2-  O256  1  0.33367940  0.78580020  0.59707065  1
  O2-  O257  1  0.33733875  0.78608340  0.93072636  1
  O2-  O258  1  0.82913360  0.30179659  0.26767452  1
  O2-  O259  1  0.83267154  0.30188273  0.60379519  1
  O2-  O260  1  0.83304612  0.29089256  0.92952242  1
  O2-  O261  1  0.82768803  0.79412113  0.27138030  1
  O2-  O262  1  0.83489224  0.79367642  0.60712537  1
  O2-  O263  1  0.82904253  0.79270619  0.92754698  1
  O2-  O264  1  0.41367071  0.03678110  0.06864128  1
  O2-  O265  1  0.41001546  0.04249368  0.40026917  1
  O2-  O266  1  0.41841830  0.04983340  0.72542833  1
  O2-  O267  1  0.41242162  0.54765281  0.06259256  1
  O2-  O268  1  0.41697493  0.54857778  0.39859459  1
  O2-  O269  1  0.41161248  0.54015980  0.73115170  1
  O2-  O270  1  0.92719862  0.05379534  0.06437132  1
  O2-  O271  1  0.91909156  0.04585563  0.39323672  1
  O2-  O272  1  0.91444604  0.04062801  0.73391815  1
  O2-  O273  1  0.92076470  0.53584282  0.06409936  1
  O2-  O274  1  0.91640916  0.53918847  0.40499439  1
  O2-  O275  1  0.91377781  0.54387614  0.73124523  1
  O2-  O276  1  0.29042781  0.16727521  0.06846560  1
  O2-  O277  1  0.29290417  0.16268528  0.39778229  1
  O2-  O278  1  0.29601440  0.16677972  0.72934546  1
  O2-  O279  1  0.29257944  0.66416778  0.06282361  1
  O2-  O280  1  0.29847695  0.66906056  0.39835719  1
  O2-  O281  1  0.29306252  0.66152984  0.72889780  1
  O2-  O282  1  0.79111586  0.16876255  0.06631909  1
  O2-  O283  1  0.79894719  0.16732404  0.39527401  1
  O2-  O284  1  0.78917668  0.16905099  0.72981137  1
  O2-  O285  1  0.79761180  0.66888974  0.06502339  1
  O2-  O286  1  0.78640727  0.66470042  0.40487702  1
  O2-  O287  1  0.79422555  0.66318072  0.73129469  1
