# generated using pymatgen
data_Ca2Al2SiO7
_symmetry_space_group_name_H-M   'P 1'
_cell_length_a   15.46117967
_cell_length_b   15.46128868
_cell_length_c   15.28662589
_cell_angle_alpha   90.01002327
_cell_angle_beta   90.00844522
_cell_angle_gamma   89.98822639
_symmetry_Int_Tables_number   1
_chemical_formula_structural   Ca2Al2SiO7
_chemical_formula_sum   'Ca48 Al48 Si24 O168'
_cell_volume   3654.26411013
_cell_formula_units_Z   24
loop_
 _symmetry_equiv_pos_site_id
 _symmetry_equiv_pos_as_xyz
  1  'x, y, z'
loop_
 _atom_type_symbol
 _atom_type_oxidation_number
  Ca2+  2.0
  Al0+  0.0
  Si0+  0.0
  O2-  -2.0
loop_
 _atom_site_type_symbol
 _atom_site_label
 _atom_site_symmetry_multiplicity
 _atom_site_fract_x
 _atom_site_fract_y
 _atom_site_fract_z
 _atom_site_occupancy
  Ca2+  Ca0  1  0.15681256  0.07665296  0.17335798  1
  Ca2+  Ca1  1  0.15891827  0.08125357  0.50131906  1
  Ca2+  Ca2  1  0.16338471  0.08728355  0.83914496  1
  Ca2+  Ca3  1  0.16938011  0.57453075  0.16807590  1
  Ca2+  Ca4  1  0.17107779  0.57673340  0.49855262  1
  Ca2+  Ca5  1  0.16790445  0.58036667  0.84490155  1
  Ca2+  Ca6  1  0.66999419  0.09338689  0.16637014  1
  Ca2+  Ca7  1  0.66326281  0.08091797  0.50388504  1
  Ca2+  Ca8  1  0.67145018  0.08061996  0.84390514  1
  Ca2+  Ca9  1  0.67254962  0.57907122  0.16366241  1
  Ca2+  Ca10  1  0.66960986  0.57649576  0.50794794  1
  Ca2+  Ca11  1  0.67247475  0.56966755  0.84317561  1
  Ca2+  Ca12  1  0.07908397  0.33355091  0.15931795  1
  Ca2+  Ca13  1  0.08094335  0.32254518  0.48828549  1
  Ca2+  Ca14  1  0.08223265  0.32872541  0.83221173  1
  Ca2+  Ca15  1  0.08379764  0.82675683  0.15668081  1
  Ca2+  Ca16  1  0.08886129  0.82758280  0.49659613  1
  Ca2+  Ca17  1  0.07496946  0.82028118  0.83508663  1
  Ca2+  Ca18  1  0.58083887  0.32798830  0.16215076  1
  Ca2+  Ca19  1  0.57470237  0.33535408  0.49314580  1
  Ca2+  Ca20  1  0.58541651  0.33452345  0.83045070  1
  Ca2+  Ca21  1  0.56842826  0.83131559  0.16070863  1
  Ca2+  Ca22  1  0.57916944  0.83366355  0.49292061  1
  Ca2+  Ca23  1  0.58012968  0.83512302  0.83259682  1
  Ca2+  Ca24  1  0.32164001  0.42102778  0.17401594  1
  Ca2+  Ca25  1  0.33371301  0.41213200  0.50082762  1
  Ca2+  Ca26  1  0.32758225  0.42181947  0.84392686  1
  Ca2+  Ca27  1  0.33008294  0.91505302  0.17404056  1
  Ca2+  Ca28  1  0.33023048  0.91753241  0.49704770  1
  Ca2+  Ca29  1  0.33230646  0.91919256  0.84095213  1
  Ca2+  Ca30  1  0.83556008  0.41114106  0.16479434  1
  Ca2+  Ca31  1  0.82867113  0.41186260  0.50180741  1
  Ca2+  Ca32  1  0.82498480  0.41446127  0.84540205  1
  Ca2+  Ca33  1  0.84264896  0.92598512  0.16677761  1
  Ca2+  Ca34  1  0.82444151  0.92162232  0.50858873  1
  Ca2+  Ca35  1  0.83193681  0.92092550  0.84205990  1
  Ca2+  Ca36  1  0.42671140  0.16988505  0.16490194  1
  Ca2+  Ca37  1  0.42381899  0.18027656  0.49262947  1
  Ca2+  Ca38  1  0.42295022  0.17680018  0.83079444  1
  Ca2+  Ca39  1  0.40063269  0.67429288  0.16324693  1
  Ca2+  Ca40  1  0.41608024  0.67067782  0.49076596  1
  Ca2+  Ca41  1  0.41133092  0.66965275  0.83587401  1
  Ca2+  Ca42  1  0.92541506  0.17624821  0.15965247  1
  Ca2+  Ca43  1  0.92385322  0.17292576  0.49309510  1
  Ca2+  Ca44  1  0.92370597  0.16703706  0.83854562  1
  Ca2+  Ca45  1  0.92219642  0.67239039  0.15301492  1
  Ca2+  Ca46  1  0.92370805  0.66549853  0.49831069  1
  Ca2+  Ca47  1  0.92764154  0.65359715  0.83621675  1
  Al0+  Al48  1  -0.00116906  -0.00091504  -0.00361273  1
  Al0+  Al49  1  -0.00191814  -0.00055242  0.33998762  1
  Al0+  Al50  1  -0.00017031  -0.00198242  0.66430748  1
  Al0+  Al51  1  -0.00129658  0.49901639  -0.00102406  1
  Al0+  Al52  1  0.00077769  0.50090207  0.33583145  1
  Al0+  Al53  1  0.00185841  0.49982523  0.65937491  1
  Al0+  Al54  1  0.49889819  0.00062378  -0.00795526  1
  Al0+  Al55  1  0.49979231  -0.00239566  0.32727581  1
  Al0+  Al56  1  0.49824164  0.00099859  0.67085381  1
  Al0+  Al57  1  0.49971440  0.50342340  0.00928459  1
  Al0+  Al58  1  0.50240122  0.50141643  0.33223280  1
  Al0+  Al59  1  0.50013599  0.50262213  0.66762996  1
  Al0+  Al60  1  0.25286439  0.24890034  0.00178630  1
  Al0+  Al61  1  0.25177467  0.24714750  0.33033870  1
  Al0+  Al62  1  0.25084141  0.24954438  0.65914742  1
  Al0+  Al63  1  0.24828323  0.75230085  -0.00725437  1
  Al0+  Al64  1  0.24984300  0.75048838  0.33908502  1
  Al0+  Al65  1  0.24896772  0.75088285  0.66267776  1
  Al0+  Al66  1  0.75039157  0.24626427  0.00034819  1
  Al0+  Al67  1  0.75239815  0.25028287  0.33064469  1
  Al0+  Al68  1  0.75097408  0.24804882  0.67103378  1
  Al0+  Al69  1  0.74531043  0.75072109  0.00077511  1
  Al0+  Al70  1  0.75012171  0.75007958  0.33494298  1
  Al0+  Al71  1  0.74971337  0.75089991  0.67150414  1
  Al0+  Al72  1  0.82137059  0.57185656  0.01474970  1
  Al0+  Al73  1  0.43131053  0.32340999  0.65483895  1
  Al0+  Al74  1  0.67691445  0.92929270  0.68147052  1
  Al0+  Al75  1  0.07175121  0.67818994  0.64934721  1
  Al0+  Al76  1  0.32160790  0.57037107  0.34976841  1
  Al0+  Al77  1  0.17820323  0.93053456  0.34721682  1
  Al0+  Al78  1  0.57138736  0.17856490  0.31958375  1
  Al0+  Al79  1  0.42929846  0.81737629  0.32067368  1
  Al0+  Al80  1  0.07409781  0.17865671  0.98592080  1
  Al0+  Al81  1  0.17878442  0.42595427  0.01292093  1
  Al0+  Al82  1  0.92527601  0.82210945  0.98652841  1
  Al0+  Al83  1  0.07064682  0.17869357  0.65151883  1
  Al0+  Al84  1  0.93091053  0.32298401  0.31806800  1
  Al0+  Al85  1  0.42841666  0.81990641  0.98473230  1
  Al0+  Al86  1  0.06918582  0.67807998  0.98674490  1
  Al0+  Al87  1  0.31929027  0.57459196  0.01381776  1
  Al0+  Al88  1  0.57057394  0.18101554  0.98454646  1
  Al0+  Al89  1  0.82111411  0.06756389  0.01530941  1
  Al0+  Al90  1  0.17868046  0.42615178  0.35008193  1
  Al0+  Al91  1  0.92939173  0.32096191  0.98382729  1
  Al0+  Al92  1  0.67880075  0.42931455  0.67894169  1
  Al0+  Al93  1  0.07127690  0.17580422  0.31883898  1
  Al0+  Al94  1  0.42815533  0.32464359  0.31589994  1
  Al0+  Al95  1  0.67889603  0.42624376  0.01775148  1
  Si0+  Si96  1  0.07013453  0.68150906  0.31931989  1
  Si0+  Si97  1  0.67869951  0.92845933  0.34680850  1
  Si0+  Si98  1  0.68150556  0.42879948  0.34848078  1
  Si0+  Si99  1  0.18012557  0.93214234  0.01171729  1
  Si0+  Si100  1  0.67392822  0.92866430  0.01874622  1
  Si0+  Si101  1  0.32596247  0.07018040  0.34982274  1
  Si0+  Si102  1  0.92631180  0.82024255  0.32116141  1
  Si0+  Si103  1  0.31915127  0.07178414  0.68180709  1
  Si0+  Si104  1  0.57255175  0.17781134  0.65202896  1
  Si0+  Si105  1  0.81980386  0.07130196  0.35039057  1
  Si0+  Si106  1  0.57097429  0.68120408  0.65291390  1
  Si0+  Si107  1  0.32031253  0.57280822  0.68143486  1
  Si0+  Si108  1  0.42895340  0.82290535  0.65028171  1
  Si0+  Si109  1  0.82389266  0.57126622  0.68213453  1
  Si0+  Si110  1  0.92720569  0.82089970  0.64869521  1
  Si0+  Si111  1  0.17911301  0.92801362  0.68368826  1
  Si0+  Si112  1  0.82132479  0.57428467  0.34996515  1
  Si0+  Si113  1  0.57193905  0.67672927  0.98190383  1
  Si0+  Si114  1  0.18031873  0.42794385  0.67951953  1
  Si0+  Si115  1  0.42938381  0.32489395  0.98528550  1
  Si0+  Si116  1  0.92659965  0.32161671  0.64995899  1
  Si0+  Si117  1  0.82330627  0.07018621  0.68496159  1
  Si0+  Si118  1  0.57562826  0.67764074  0.31646915  1
  Si0+  Si119  1  0.32367979  0.07090907  0.01437750  1
  O2-  O120  1  0.24793396  0.00483349  0.05556515  1
  O2-  O121  1  0.25043501  0.00821561  0.39445507  1
  O2-  O122  1  0.24763547  0.00142952  0.72563109  1
  O2-  O123  1  0.25090394  0.49880351  0.06184245  1
  O2-  O124  1  0.25536166  0.49371889  0.40174275  1
  O2-  O125  1  0.24950029  0.50097551  0.72203975  1
  O2-  O126  1  0.74687144  -0.00793061  0.06365065  1
  O2-  O127  1  0.74647339  0.00140067  0.39129316  1
  O2-  O128  1  0.75167605  0.00351111  0.72755051  1
  O2-  O129  1  0.75321170  0.49722231  0.06682663  1
  O2-  O130  1  0.75155369  0.50131357  0.39122313  1
  O2-  O131  1  0.75734894  0.50020011  0.72463972  1
  O2-  O132  1  0.00743762  0.25486868  0.26992538  1
  O2-  O133  1  -0.00422176  0.25344598  0.60619570  1
  O2-  O134  1  0.00566753  0.25302372  0.93431218  1
  O2-  O135  1  -0.00164111  0.75182638  0.27817754  1
  O2-  O136  1  -0.00473811  0.75225607  0.60327876  1
  O2-  O137  1  -0.00944672  0.74394409  0.93673779  1
  O2-  O138  1  0.50042324  0.25107436  0.26915062  1
  O2-  O139  1  0.50965138  0.25150725  0.60839097  1
  O2-  O140  1  0.50093517  0.26056778  0.93834520  1
  O2-  O141  1  0.50097500  0.74035310  0.27373187  1
  O2-  O142  1  0.50184639  0.75346618  0.60895821  1
  O2-  O143  1  0.50219080  0.74480443  0.93745321  1
  O2-  O144  1  0.07101297  0.17434802  0.09868539  1
  O2-  O145  1  0.06376173  0.17408424  0.43287463  1
  O2-  O146  1  0.07208944  0.18005514  0.76403375  1
  O2-  O147  1  0.07260981  0.68360546  0.10041897  1
  O2-  O148  1  0.06815214  0.68327184  0.42499624  1
  O2-  O149  1  0.07278219  0.67832987  0.76177091  1
  O2-  O150  1  0.56675240  0.17848167  0.09721599  1
  O2-  O151  1  0.57104164  0.17843579  0.43411157  1
  O2-  O152  1  0.56970794  0.17607423  0.75720366  1
  O2-  O153  1  0.57506230  0.67955309  0.08725364  1
  O2-  O154  1  0.57986606  0.68196786  0.42278988  1
  O2-  O155  1  0.56869080  0.68082301  0.75738615  1
  O2-  O156  1  0.17455905  0.43186704  0.23733675  1
  O2-  O157  1  0.18178979  0.42825480  0.57471247  1
  O2-  O158  1  0.18229039  0.42555371  0.89809147  1
  O2-  O159  1  0.17816934  0.92798370  0.23412528  1
  O2-  O160  1  0.18140091  0.92726660  0.57848745  1
  O2-  O161  1  0.18266603  0.93209682  0.90619362  1
  O2-  O162  1  0.68276456  0.42873676  0.24420819  1
  O2-  O163  1  0.67907243  0.43258376  0.56529908  1
  O2-  O164  1  0.67816959  0.42899207  0.90348434  1
  O2-  O165  1  0.68080009  0.92487812  0.24264943  1
  O2-  O166  1  0.67703009  0.93051260  0.56745206  1
  O2-  O167  1  0.67264673  0.93268011  0.91274966  1
  O2-  O168  1  0.42887456  0.32041230  0.09025385  1
  O2-  O169  1  0.43355726  0.32376766  0.43041896  1
  O2-  O170  1  0.42973630  0.32152230  0.76776179  1
  O2-  O171  1  0.42762065  0.82062157  0.09770558  1
  O2-  O172  1  0.43351387  0.81910872  0.43447542  1
  O2-  O173  1  0.42733797  0.82206736  0.75510816  1
  O2-  O174  1  0.93014304  0.31826139  0.09702686  1
  O2-  O175  1  0.92649222  0.31876999  0.43248008  1
  O2-  O176  1  0.92634218  0.32320118  0.75484267  1
  O2-  O177  1  0.93285376  0.82413203  0.10070095  1
  O2-  O178  1  0.92316909  0.81717409  0.42649737  1
  O2-  O179  1  0.92828585  0.82281516  0.75351430  1
  O2-  O180  1  0.33103898  0.06373776  0.24462989  1
  O2-  O181  1  0.32165989  0.06879281  0.57700192  1
  O2-  O182  1  0.32444139  0.06913897  0.90865443  1
  O2-  O183  1  0.31398203  0.57504770  0.23727667  1
  O2-  O184  1  0.32145882  0.57420759  0.57666571  1
  O2-  O185  1  0.31778821  0.57352930  0.89908821  1
  O2-  O186  1  0.82225812  0.06877713  0.24593520  1
  O2-  O187  1  0.82233908  0.06907966  0.57880561  1
  O2-  O188  1  0.82027436  0.06543277  0.90185973  1
  O2-  O189  1  0.81957986  0.58120639  0.24605369  1
  O2-  O190  1  0.82106886  0.57334952  0.57587090  1
  O2-  O191  1  0.81789053  0.57024487  0.90065082  1
  O2-  O192  1  0.03496050  0.07815162  0.26875280  1
  O2-  O193  1  0.04085913  0.08038239  0.59940855  1
  O2-  O194  1  0.04103825  0.08193142  0.93115255  1
  O2-  O195  1  0.04274030  0.58961239  0.27430319  1
  O2-  O196  1  0.04200980  0.58241129  0.59234579  1
  O2-  O197  1  0.04521680  0.57969858  0.93178300  1
  O2-  O198  1  0.54439149  0.08039062  0.26589324  1
  O2-  O199  1  0.54056549  0.08566115  0.60551521  1
  O2-  O200  1  0.53483804  0.08705971  0.92804795  1
  O2-  O201  1  0.55880942  0.58233305  0.27293600  1
  O2-  O202  1  0.54183560  0.59081293  0.60322517  1
  O2-  O203  1  0.54579118  0.58274333  0.93676168  1
  O2-  O204  1  0.17489827  0.18723249  0.27334293  1
  O2-  O205  1  0.16682153  0.20750046  0.59595463  1
  O2-  O206  1  0.17509424  0.20150184  0.93422867  1
  O2-  O207  1  0.16113465  0.71261137  0.27475753  1
  O2-  O208  1  0.16678733  0.71379982  0.59439877  1
  O2-  O209  1  0.16249361  0.71519419  0.92867670  1
  O2-  O210  1  0.66991022  0.20631710  0.26827547  1
  O2-  O211  1  0.66906343  0.19578555  0.60891868  1
  O2-  O212  1  0.66821773  0.20505012  0.93072635  1
  O2-  O213  1  0.66625867  0.71070780  0.26886335  1
  O2-  O214  1  0.66397300  0.70713990  0.60572791  1
  O2-  O215  1  0.66375354  0.70352726  0.93277017  1
  O2-  O216  1  0.08015174  0.45356062  0.06365474  1
  O2-  O217  1  0.08155232  0.46043682  0.40507111  1
  O2-  O218  1  0.08653366  0.45463068  0.72334395  1
  O2-  O219  1  0.08777638  0.95617078  0.05898163  1
  O2-  O220  1  0.08133248  0.95692095  0.40542789  1
  O2-  O221  1  0.08524688  0.95232648  0.72793719  1
  O2-  O222  1  0.58208611  0.45788540  0.07203238  1
  O2-  O223  1  0.58973002  0.45661451  0.39631899  1
  O2-  O224  1  0.58404987  0.46470223  0.73385950  1
  O2-  O225  1  0.58126087  0.96064133  0.06304221  1
  O2-  O226  1  0.58602831  0.95448840  0.39408201  1
  O2-  O227  1  0.57992530  0.95835558  0.73577545  1
  O2-  O228  1  0.20785947  0.32827301  0.06738170  1
  O2-  O229  1  0.20319579  0.32439110  0.39957737  1
  O2-  O230  1  0.20992054  0.33608724  0.72530329  1
  O2-  O231  1  0.21095310  0.84125602  0.05822182  1
  O2-  O232  1  0.21340228  0.83696015  0.40536327  1
  O2-  O233  1  0.21115036  0.83711203  0.73022617  1
  O2-  O234  1  0.70550047  0.32697985  0.06792607  1
  O2-  O235  1  0.71109696  0.33764933  0.39712468  1
  O2-  O236  1  0.70431334  0.33075129  0.73171515  1
  O2-  O237  1  0.69006653  0.83246044  0.06180601  1
  O2-  O238  1  0.70903611  0.83809783  0.39772056  1
  O2-  O239  1  0.70583990  0.83246712  0.73603806  1
  O2-  O240  1  0.45714122  0.42333327  0.26503337  1
  O2-  O241  1  0.45985153  0.42073238  0.60047005  1
  O2-  O242  1  0.45023873  0.42138243  0.94346505  1
  O2-  O243  1  0.46166711  0.91146496  0.26418108  1
  O2-  O244  1  0.45578818  0.91580342  0.60447103  1
  O2-  O245  1  0.46062070  0.91469435  0.92752666  1
  O2-  O246  1  0.95250723  0.42441396  0.26898850  1
  O2-  O247  1  0.94979640  0.41517091  0.60239087  1
  O2-  O248  1  0.95072284  0.42061797  0.93095918  1
  O2-  O249  1  0.95239035  0.91355014  0.27798253  1
  O2-  O250  1  0.95336725  0.91373532  0.60075766  1
  O2-  O251  1  0.96139357  0.91536929  0.92886809  1
  O2-  O252  1  0.32967944  0.29688628  0.26481928  1
  O2-  O253  1  0.33784731  0.28817169  0.59766210  1
  O2-  O254  1  0.33796222  0.29425238  0.93727679  1
  O2-  O255  1  0.33106044  0.78924003  0.26897267  1
  O2-  O256  1  0.33799554  0.79366459  0.60232096  1
  O2-  O257  1  0.33344256  0.79093238  0.92636729  1
  O2-  O258  1  0.83426429  0.29069815  0.26552251  1
  O2-  O259  1  0.83284303  0.29343319  0.60385280  1
  O2-  O260  1  0.83261821  0.28622211  0.93150977  1
  O2-  O261  1  0.83558876  0.79251896  0.27225687  1
  O2-  O262  1  0.83229919  0.79558719  0.60360314  1
  O2-  O263  1  0.82264370  0.80475305  0.93877819  1
  O2-  O264  1  0.41291220  0.03580814  0.06154145  1
  O2-  O265  1  0.41610403  0.03506158  0.39899971  1
  O2-  O266  1  0.40988165  0.04320004  0.73158224  1
  O2-  O267  1  0.41930415  0.55711368  0.06661100  1
  O2-  O268  1  0.42502341  0.55155900  0.39873760  1
  O2-  O269  1  0.41246191  0.54735151  0.72899897  1
  O2-  O270  1  0.91742877  0.03425238  0.06915787  1
  O2-  O271  1  0.90821616  0.03955831  0.40260640  1
  O2-  O272  1  0.91602362  0.04017908  0.73016042  1
  O2-  O273  1  0.92122535  0.54974475  0.06624360  1
  O2-  O274  1  0.91291483  0.54779994  0.39859806  1
  O2-  O275  1  0.91949548  0.54691919  0.72394962  1
  O2-  O276  1  0.30387490  0.16377600  0.06172871  1
  O2-  O277  1  0.30898105  0.16632315  0.39325804  1
  O2-  O278  1  0.29135113  0.16410058  0.72809175  1
  O2-  O279  1  0.28582086  0.67303969  0.06385373  1
  O2-  O280  1  0.28855195  0.66694026  0.40593968  1
  O2-  O281  1  0.29133114  0.66541818  0.72709309  1
  O2-  O282  1  0.78914376  0.16268738  0.06971406  1
  O2-  O283  1  0.79238309  0.16301871  0.39858322  1
  O2-  O284  1  0.80121451  0.16427572  0.73082255  1
  O2-  O285  1  0.78985429  0.67062038  0.06762784  1
  O2-  O286  1  0.79059836  0.66441147  0.40151431  1
  O2-  O287  1  0.79798895  0.66433130  0.72799834  1
