# generated using pymatgen
data_Ca2Al2SiO7
_symmetry_space_group_name_H-M   'P 1'
_cell_length_a   15.45293825
_cell_length_b   15.45306194
_cell_length_c   15.28002006
_cell_angle_alpha   89.99454332
_cell_angle_beta   90.00130276
_cell_angle_gamma   89.99792526
_symmetry_Int_Tables_number   1
_chemical_formula_structural   Ca2Al2SiO7
_chemical_formula_sum   'Ca48 Al48 Si24 O168'
_cell_volume   3648.79560866
_cell_formula_units_Z   24
loop_
 _symmetry_equiv_pos_site_id
 _symmetry_equiv_pos_as_xyz
  1  'x, y, z'
loop_
 _atom_type_symbol
 _atom_type_oxidation_number
  Ca2+  2.0
  Al0+  0.0
  Si0+  0.0
  O2-  -2.0
loop_
 _atom_site_type_symbol
 _atom_site_label
 _atom_site_symmetry_multiplicity
 _atom_site_fract_x
 _atom_site_fract_y
 _atom_site_fract_z
 _atom_site_occupancy
  Ca2+  Ca0  1  0.16940869  0.08107610  0.17239005  1
  Ca2+  Ca1  1  0.16775741  0.08380620  0.50579606  1
  Ca2+  Ca2  1  0.17803691  0.09221398  0.83625581  1
  Ca2+  Ca3  1  0.17124459  0.58866925  0.16444628  1
  Ca2+  Ca4  1  0.17159607  0.57423319  0.51378309  1
  Ca2+  Ca5  1  0.17562064  0.58169196  0.83686747  1
  Ca2+  Ca6  1  0.67376690  0.08984252  0.16320297  1
  Ca2+  Ca7  1  0.66347298  0.07721819  0.51113131  1
  Ca2+  Ca8  1  0.66271953  0.08019108  0.84019992  1
  Ca2+  Ca9  1  0.66431212  0.57357021  0.17349476  1
  Ca2+  Ca10  1  0.67437497  0.58316494  0.50082402  1
  Ca2+  Ca11  1  0.67014523  0.57782180  0.84063491  1
  Ca2+  Ca12  1  0.07431479  0.32885221  0.16032186  1
  Ca2+  Ca13  1  0.08643136  0.32622289  0.50185997  1
  Ca2+  Ca14  1  0.07322956  0.33384478  0.82367075  1
  Ca2+  Ca15  1  0.07987272  0.82965659  0.15805287  1
  Ca2+  Ca16  1  0.08297418  0.83393268  0.49405612  1
  Ca2+  Ca17  1  0.08003938  0.82953805  0.83595886  1
  Ca2+  Ca18  1  0.58143450  0.33543479  0.15400206  1
  Ca2+  Ca19  1  0.58559476  0.33132817  0.49937590  1
  Ca2+  Ca20  1  0.58290246  0.32389435  0.83566040  1
  Ca2+  Ca21  1  0.58754762  0.81624193  0.16141721  1
  Ca2+  Ca22  1  0.57674322  0.83124317  0.49963015  1
  Ca2+  Ca23  1  0.58016077  0.82980038  0.82656231  1
  Ca2+  Ca24  1  0.33962958  0.42097749  0.16334146  1
  Ca2+  Ca25  1  0.32682759  0.42343119  0.51063196  1
  Ca2+  Ca26  1  0.33089767  0.42118069  0.83914280  1
  Ca2+  Ca27  1  0.32749019  0.92289744  0.16834779  1
  Ca2+  Ca28  1  0.32840892  0.91892003  0.50943029  1
  Ca2+  Ca29  1  0.34066428  0.92762894  0.83575254  1
  Ca2+  Ca30  1  0.82072775  0.41557121  0.16980231  1
  Ca2+  Ca31  1  0.83347402  0.42575370  0.50457710  1
  Ca2+  Ca32  1  0.83230267  0.41447475  0.83862966  1
  Ca2+  Ca33  1  0.84003192  0.92100093  0.16389680  1
  Ca2+  Ca34  1  0.82280015  0.91819313  0.50759602  1
  Ca2+  Ca35  1  0.82967209  0.92359456  0.83935289  1
  Ca2+  Ca36  1  0.42354530  0.17485708  0.15428215  1
  Ca2+  Ca37  1  0.41991476  0.16259672  0.50311576  1
  Ca2+  Ca38  1  0.42247658  0.16323402  0.82834168  1
  Ca2+  Ca39  1  0.42711255  0.66222588  0.15769482  1
  Ca2+  Ca40  1  0.41831219  0.66925851  0.49765482  1
  Ca2+  Ca41  1  0.41877138  0.66603749  0.82987149  1
  Ca2+  Ca42  1  0.92031267  0.16874392  0.15713666  1
  Ca2+  Ca43  1  0.92757733  0.17291835  0.49821416  1
  Ca2+  Ca44  1  0.91507882  0.17874021  0.82760343  1
  Ca2+  Ca45  1  0.92011917  0.67115298  0.15695101  1
  Ca2+  Ca46  1  0.91122449  0.66272624  0.49759795  1
  Ca2+  Ca47  1  0.91908258  0.66570667  0.83088150  1
  Al0+  Al48  1  -0.00026670  -0.00122728  -0.00088681  1
  Al0+  Al49  1  0.00159498  0.00027769  0.33426431  1
  Al0+  Al50  1  -0.00134340  -0.00080365  0.66265319  1
  Al0+  Al51  1  0.00156788  0.49983707  -0.00647442  1
  Al0+  Al52  1  0.00030518  0.50001535  0.33468721  1
  Al0+  Al53  1  -0.00119734  0.50114549  0.66931096  1
  Al0+  Al54  1  0.50038822  -0.00210070  0.00778286  1
  Al0+  Al55  1  0.49946616  0.00142332  0.32979339  1
  Al0+  Al56  1  0.49860702  -0.00295179  0.66471110  1
  Al0+  Al57  1  0.49953166  0.49949377  -0.00195651  1
  Al0+  Al58  1  0.50040479  0.49951481  0.33641853  1
  Al0+  Al59  1  0.50271048  0.49938552  0.66847739  1
  Al0+  Al60  1  0.25049512  0.25190922  0.00455055  1
  Al0+  Al61  1  0.25121788  0.25007406  0.32825307  1
  Al0+  Al62  1  0.24994025  0.24981541  0.67031220  1
  Al0+  Al63  1  0.25035336  0.74952704  0.00129487  1
  Al0+  Al64  1  0.24914790  0.75295065  0.33679030  1
  Al0+  Al65  1  0.24958964  0.75085540  0.66560072  1
  Al0+  Al66  1  0.75020026  0.24871678  0.00120142  1
  Al0+  Al67  1  0.75024222  0.25022587  0.33936808  1
  Al0+  Al68  1  0.75078647  0.25071633  0.65477733  1
  Al0+  Al69  1  0.75037490  0.75071925  -0.00813700  1
  Al0+  Al70  1  0.74934863  0.75127134  0.33170979  1
  Al0+  Al71  1  0.74935304  0.74957676  0.67470668  1
  Al0+  Al72  1  0.92862987  0.31920552  0.98847063  1
  Al0+  Al73  1  0.07294719  0.17856038  0.65270186  1
  Al0+  Al74  1  0.92868053  0.82260492  0.98295050  1
  Al0+  Al75  1  0.17934253  0.42821092  0.68248283  1
  Al0+  Al76  1  0.07288193  0.67845865  0.98374646  1
  Al0+  Al77  1  0.32010955  0.57070641  0.01458289  1
  Al0+  Al78  1  0.17954555  0.93055439  0.34756086  1
  Al0+  Al79  1  0.57046274  0.17764558  0.98695042  1
  Al0+  Al80  1  0.56930009  0.68046405  0.32094198  1
  Al0+  Al81  1  0.07084581  0.17913708  0.31746232  1
  Al0+  Al82  1  0.42914897  0.81915226  0.65347043  1
  Al0+  Al83  1  0.57097384  0.67725951  0.98537851  1
  Al0+  Al84  1  0.81938665  0.57025590  0.68318495  1
  Al0+  Al85  1  0.31898671  0.06853408  0.67907796  1
  Al0+  Al86  1  0.56908063  0.17830584  0.65287452  1
  Al0+  Al87  1  0.82045300  0.07006023  0.01182664  1
  Al0+  Al88  1  0.32272153  0.07291267  0.01590462  1
  Al0+  Al89  1  0.68138435  0.43046614  0.01121615  1
  Al0+  Al90  1  0.42743844  0.32173332  0.98409777  1
  Al0+  Al91  1  0.92844600  0.32451632  0.64803270  1
  Al0+  Al92  1  0.32312960  0.57286989  0.68137900  1
  Al0+  Al93  1  0.67673172  0.42773885  0.35097929  1
  Al0+  Al94  1  0.67810146  0.93065672  0.68010279  1
  Al0+  Al95  1  0.82142026  0.57242238  0.34568889  1
  Si0+  Si96  1  0.42568536  0.82301247  0.31493271  1
  Si0+  Si97  1  0.82380330  0.57349578  0.01527057  1
  Si0+  Si98  1  0.06981876  0.68107192  0.65045335  1
  Si0+  Si99  1  0.82198148  0.07087501  0.34959402  1
  Si0+  Si100  1  0.43025653  0.32072830  0.31929682  1
  Si0+  Si101  1  0.92890884  0.82084127  0.31995553  1
  Si0+  Si102  1  0.57267618  0.17764997  0.31792495  1
  Si0+  Si103  1  0.42838821  0.32321284  0.65008042  1
  Si0+  Si104  1  0.07240261  0.67824160  0.32064795  1
  Si0+  Si105  1  0.42849767  0.82107802  0.98563552  1
  Si0+  Si106  1  0.07278326  0.17715141  0.98508512  1
  Si0+  Si107  1  0.92791467  0.32226170  0.31575224  1
  Si0+  Si108  1  0.67770682  0.92549423  0.01914825  1
  Si0+  Si109  1  0.17878299  0.92922762  0.01592794  1
  Si0+  Si110  1  0.67884993  0.92978573  0.34684064  1
  Si0+  Si111  1  0.32225488  0.07329534  0.35052133  1
  Si0+  Si112  1  0.92693498  0.82043971  0.65017589  1
  Si0+  Si113  1  0.82190398  0.07243288  0.68027989  1
  Si0+  Si114  1  0.17410794  0.92693759  0.68452587  1
  Si0+  Si115  1  0.17925936  0.42840236  0.34650318  1
  Si0+  Si116  1  0.32073629  0.57124029  0.34774872  1
  Si0+  Si117  1  0.57388522  0.67665128  0.64963898  1
  Si0+  Si118  1  0.67871090  0.42446582  0.68478066  1
  Si0+  Si119  1  0.17559126  0.42846443  0.01910396  1
  O2-  O120  1  0.24497622  0.00015694  0.06098753  1
  O2-  O121  1  0.25475981  0.00388409  0.39492299  1
  O2-  O122  1  0.24067749  -0.00216423  0.72733500  1
  O2-  O123  1  0.24507331  0.49695437  0.06360367  1
  O2-  O124  1  0.24763216  0.50211687  0.38894432  1
  O2-  O125  1  0.25376328  0.49852618  0.73101474  1
  O2-  O126  1  0.74718074  -0.00534132  0.06201869  1
  O2-  O127  1  0.74684981  0.00318070  0.39056607  1
  O2-  O128  1  0.75064120  0.00762405  0.72559334  1
  O2-  O129  1  0.75470260  0.50619312  0.06007820  1
  O2-  O130  1  0.75086132  0.49972657  0.39734185  1
  O2-  O131  1  0.74676144  0.49356338  0.72857733  1
  O2-  O132  1  -0.00508735  0.25227126  0.27076059  1
  O2-  O133  1  0.00208937  0.25153569  0.60134235  1
  O2-  O134  1  0.00525083  0.24647986  0.94168850  1
  O2-  O135  1  -0.00106435  0.74753468  0.27968506  1
  O2-  O136  1  -0.00119091  0.75130921  0.60591474  1
  O2-  O137  1  -0.00240121  0.74730921  0.93379248  1
  O2-  O138  1  0.50392805  0.25154441  0.27811096  1
  O2-  O139  1  0.49681897  0.25483987  0.60402448  1
  O2-  O140  1  0.49463086  0.24451571  0.93579735  1
  O2-  O141  1  0.49358905  0.75352804  0.27166527  1
  O2-  O142  1  0.50064874  0.74126835  0.60593327  1
  O2-  O143  1  0.49760906  0.75396095  0.94058893  1
  O2-  O144  1  0.07017829  0.17745354  0.09139518  1
  O2-  O145  1  0.07135691  0.18028122  0.43014057  1
  O2-  O146  1  0.07074683  0.17767938  0.76608273  1
  O2-  O147  1  0.07271511  0.68161180  0.09862246  1
  O2-  O148  1  0.07418319  0.67943120  0.42582182  1
  O2-  O149  1  0.07004688  0.68330413  0.75489444  1
  O2-  O150  1  0.57144915  0.18162604  0.10133861  1
  O2-  O151  1  0.56971494  0.17303428  0.42296680  1
  O2-  O152  1  0.56854351  0.17701128  0.76527001  1
  O2-  O153  1  0.57010181  0.67773833  0.09923439  1
  O2-  O154  1  0.56783733  0.68382511  0.43402689  1
  O2-  O155  1  0.57454913  0.67856739  0.75499778  1
  O2-  O156  1  0.17886249  0.42909465  0.24160322  1
  O2-  O157  1  0.18179859  0.43052241  0.56731899  1
  O2-  O158  1  0.17504308  0.42833965  0.91414338  1
  O2-  O159  1  0.17999296  0.92987133  0.23457289  1
  O2-  O160  1  0.17531078  0.92608902  0.57843536  1
  O2-  O161  1  0.17920709  0.92868307  0.91064063  1
  O2-  O162  1  0.67558924  0.42733127  0.23726099  1
  O2-  O163  1  0.67790408  0.42672796  0.57896593  1
  O2-  O164  1  0.68335862  0.42910230  0.89844138  1
  O2-  O165  1  0.68098786  0.92852946  0.24213504  1
  O2-  O166  1  0.68001648  0.93026111  0.56578138  1
  O2-  O167  1  0.67539550  0.92669939  0.91374515  1
  O2-  O168  1  0.43098405  0.32201050  0.09884510  1
  O2-  O169  1  0.42720068  0.31952237  0.42437188  1
  O2-  O170  1  0.42922003  0.32312958  0.75493587  1
  O2-  O171  1  0.42870621  0.81924654  0.09177227  1
  O2-  O172  1  0.42589912  0.82367877  0.42054480  1
  O2-  O173  1  0.43233728  0.82129545  0.76626993  1
  O2-  O174  1  0.92920054  0.31753335  0.10221557  1
  O2-  O175  1  0.93045698  0.32217515  0.42092420  1
  O2-  O176  1  0.92697611  0.32136838  0.76174365  1
  O2-  O177  1  0.93157121  0.82271913  0.09767455  1
  O2-  O178  1  0.92832052  0.82155568  0.42531653  1
  O2-  O179  1  0.92839290  0.82135068  0.75450412  1
  O2-  O180  1  0.32164047  0.07230776  0.24504968  1
  O2-  O181  1  0.31964976  0.06564999  0.56548551  1
  O2-  O182  1  0.32338657  0.07003811  0.90292440  1
  O2-  O183  1  0.32127608  0.57065500  0.24267948  1
  O2-  O184  1  0.31928549  0.57210190  0.56647511  1
  O2-  O185  1  0.31877351  0.57121345  0.90222834  1
  O2-  O186  1  0.82243002  0.07027271  0.24438750  1
  O2-  O187  1  0.82146124  0.06686400  0.57397334  1
  O2-  O188  1  0.81916808  0.06944953  0.89904086  1
  O2-  O189  1  0.82232387  0.57335253  0.23239392  1
  O2-  O190  1  0.81700919  0.57297782  0.56967235  1
  O2-  O191  1  0.82203991  0.57139972  0.90979642  1
  O2-  O192  1  0.03972351  0.08168640  0.26487056  1
  O2-  O193  1  0.04322050  0.07986739  0.59790647  1
  O2-  O194  1  0.04957401  0.08330996  0.94027971  1
  O2-  O195  1  0.04852740  0.58570788  0.27285837  1
  O2-  O196  1  0.04192953  0.58916303  0.60352383  1
  O2-  O197  1  0.04904556  0.58016319  0.92995861  1
  O2-  O198  1  0.54442992  0.08697171  0.26780150  1
  O2-  O199  1  0.53469242  0.08327028  0.59672073  1
  O2-  O200  1  0.54587214  0.07578691  0.93998859  1
  O2-  O201  1  0.53860269  0.58263837  0.26914019  1
  O2-  O202  1  0.55322738  0.58132352  0.60442311  1
  O2-  O203  1  0.53802740  0.58322980  0.93015164  1
  O2-  O204  1  0.16773651  0.20971836  0.26333925  1
  O2-  O205  1  0.17183478  0.20665381  0.59866137  1
  O2-  O206  1  0.16748584  0.20233310  0.94278398  1
  O2-  O207  1  0.16344830  0.70922397  0.27279809  1
  O2-  O208  1  0.16130573  0.70845195  0.60135192  1
  O2-  O209  1  0.16997136  0.71156241  0.93116141  1
  O2-  O210  1  0.66725864  0.20209095  0.27472742  1
  O2-  O211  1  0.66512911  0.20508910  0.59494173  1
  O2-  O212  1  0.66744751  0.20795412  0.93399590  1
  O2-  O213  1  0.66495454  0.71373527  0.26571612  1
  O2-  O214  1  0.66590939  0.70953294  0.60433483  1
  O2-  O215  1  0.66690663  0.70610967  0.93043366  1
  O2-  O216  1  0.08228039  0.45629312  0.06588617  1
  O2-  O217  1  0.08747488  0.45375825  0.39479750  1
  O2-  O218  1  0.08196788  0.45949333  0.73359671  1
  O2-  O219  1  0.08467735  0.95248064  0.06268224  1
  O2-  O220  1  0.08276944  0.95981309  0.40267084  1
  O2-  O221  1  0.07857516  0.94881514  0.72792443  1
  O2-  O222  1  0.58458911  0.46114544  0.06514807  1
  O2-  O223  1  0.57905844  0.45717600  0.40557137  1
  O2-  O224  1  0.58457402  0.44834041  0.72997388  1
  O2-  O225  1  0.58546369  0.94861801  0.06933153  1
  O2-  O226  1  0.58499815  0.95611490  0.39213683  1
  O2-  O227  1  0.58206630  0.96008166  0.73373956  1
  O2-  O228  1  0.20035752  0.33540151  0.06749016  1
  O2-  O229  1  0.21130728  0.33732402  0.39304752  1
  O2-  O230  1  0.20359040  0.32982291  0.73562191  1
  O2-  O231  1  0.20704318  0.83696132  0.06412997  1
  O2-  O232  1  0.20833421  0.83385018  0.40433692  1
  O2-  O233  1  0.20159568  0.83396356  0.72954780  1
  O2-  O234  1  0.71299456  0.33494764  0.06756788  1
  O2-  O235  1  0.70355792  0.32876315  0.40436752  1
  O2-  O236  1  0.70568169  0.32950759  0.72643893  1
  O2-  O237  1  0.70705729  0.83171778  0.06382243  1
  O2-  O238  1  0.70911757  0.83988210  0.39618052  1
  O2-  O239  1  0.70972947  0.83610000  0.73582420  1
  O2-  O240  1  0.45630819  0.41337910  0.27278449  1
  O2-  O241  1  0.45465811  0.41691386  0.60241530  1
  O2-  O242  1  0.45890127  0.41760522  0.93041780  1
  O2-  O243  1  0.45151867  0.91705151  0.26927810  1
  O2-  O244  1  0.46393906  0.91222260  0.59452040  1
  O2-  O245  1  0.45474413  0.91525436  0.94197779  1
  O2-  O246  1  0.95528276  0.41580119  0.27008995  1
  O2-  O247  1  0.95822383  0.42345539  0.59642425  1
  O2-  O248  1  0.95622776  0.41566203  0.93369752  1
  O2-  O249  1  0.95959494  0.91156702  0.27221985  1
  O2-  O250  1  0.95204440  0.91224057  0.60034574  1
  O2-  O251  1  0.96034910  0.91951674  0.92851604  1
  O2-  O252  1  0.34017442  0.29236492  0.26850083  1
  O2-  O253  1  0.33473144  0.29704020  0.60433299  1
  O2-  O254  1  0.32594608  0.29950204  0.93595861  1
  O2-  O255  1  0.33122770  0.79816191  0.27018546  1
  O2-  O256  1  0.33131767  0.79235309  0.59770461  1
  O2-  O257  1  0.33521721  0.79659002  0.93982807  1
  O2-  O258  1  0.83251487  0.29616903  0.27344403  1
  O2-  O259  1  0.83218369  0.29578076  0.59049150  1
  O2-  O260  1  0.83463035  0.28494420  0.93316548  1
  O2-  O261  1  0.83742756  0.79620711  0.27072967  1
  O2-  O262  1  0.83474961  0.79011241  0.60423333  1
  O2-  O263  1  0.82991447  0.80022137  0.92938108  1
  O2-  O264  1  0.41694854  0.03894138  0.07402479  1
  O2-  O265  1  0.41745748  0.04823515  0.39442840  1
  O2-  O266  1  0.41357563  0.03221310  0.73251081  1
  O2-  O267  1  0.41583504  0.53725256  0.06934647  1
  O2-  O268  1  0.41059749  0.54143408  0.39693798  1
  O2-  O269  1  0.42366508  0.54884512  0.73088488  1
  O2-  O270  1  0.91705688  0.03826634  0.06781993  1
  O2-  O271  1  0.91194528  0.03869553  0.39733241  1
  O2-  O272  1  0.91422026  0.04326684  0.72637292  1
  O2-  O273  1  0.91909419  0.54929177  0.05855510  1
  O2-  O274  1  0.92086651  0.54592099  0.39991214  1
  O2-  O275  1  0.91710736  0.54377893  0.73566455  1
  O2-  O276  1  0.29398200  0.16985920  0.07104846  1
  O2-  O277  1  0.29597327  0.16735586  0.39515458  1
  O2-  O278  1  0.29440692  0.16603140  0.73334323  1
  O2-  O279  1  0.28964070  0.66725421  0.07085953  1
  O2-  O280  1  0.29524897  0.66436030  0.39376100  1
  O2-  O281  1  0.29182555  0.67083749  0.73270528  1
  O2-  O282  1  0.78828388  0.16396886  0.07073794  1
  O2-  O283  1  0.79821066  0.16309050  0.39761564  1
  O2-  O284  1  0.79988505  0.16882395  0.71989584  1
  O2-  O285  1  0.80018205  0.66945724  0.05749365  1
  O2-  O286  1  0.79169782  0.67120392  0.39935576  1
  O2-  O287  1  0.78907859  0.66578260  0.73900212  1
