# generated using pymatgen
data_Ca2Al2SiO7
_symmetry_space_group_name_H-M   'P 1'
_cell_length_a   15.46228151
_cell_length_b   15.46295033
_cell_length_c   15.28628675
_cell_angle_alpha   90.00177484
_cell_angle_beta   89.98428641
_cell_angle_gamma   90.02583182
_symmetry_Int_Tables_number   1
_chemical_formula_structural   Ca2Al2SiO7
_chemical_formula_sum   'Ca48 Al48 Si24 O168'
_cell_volume   3654.83586667
_cell_formula_units_Z   24
loop_
 _symmetry_equiv_pos_site_id
 _symmetry_equiv_pos_as_xyz
  1  'x, y, z'
loop_
 _atom_type_symbol
 _atom_type_oxidation_number
  Ca2+  2.0
  Al0+  0.0
  Si0+  0.0
  O2-  -2.0
loop_
 _atom_site_type_symbol
 _atom_site_label
 _atom_site_symmetry_multiplicity
 _atom_site_fract_x
 _atom_site_fract_y
 _atom_site_fract_z
 _atom_site_occupancy
  Ca2+  Ca0  1  0.16028955  0.07847645  0.16809403  1
  Ca2+  Ca1  1  0.16210643  0.07968278  0.50415427  1
  Ca2+  Ca2  1  0.16853129  0.07202960  0.83990599  1
  Ca2+  Ca3  1  0.17449662  0.57571182  0.17170522  1
  Ca2+  Ca4  1  0.17555252  0.57002149  0.50361607  1
  Ca2+  Ca5  1  0.17530332  0.58019246  0.83458267  1
  Ca2+  Ca6  1  0.67757221  0.09334653  0.16640679  1
  Ca2+  Ca7  1  0.68017585  0.08747540  0.50350416  1
  Ca2+  Ca8  1  0.67684478  0.08896842  0.84003694  1
  Ca2+  Ca9  1  0.67428114  0.57956655  0.16363051  1
  Ca2+  Ca10  1  0.67166319  0.57680426  0.51132318  1
  Ca2+  Ca11  1  0.67260987  0.57443296  0.83535230  1
  Ca2+  Ca12  1  0.07419082  0.33388903  0.16394201  1
  Ca2+  Ca13  1  0.07600239  0.33531566  0.49122038  1
  Ca2+  Ca14  1  0.07117379  0.33881023  0.82700369  1
  Ca2+  Ca15  1  0.07965844  0.83130354  0.15718732  1
  Ca2+  Ca16  1  0.08709629  0.83147000  0.49895873  1
  Ca2+  Ca17  1  0.08337419  0.83733321  0.83343930  1
  Ca2+  Ca18  1  0.57916174  0.33159384  0.16025207  1
  Ca2+  Ca19  1  0.57803242  0.33873403  0.49748892  1
  Ca2+  Ca20  1  0.58968601  0.33479995  0.83351997  1
  Ca2+  Ca21  1  0.57682925  0.83278055  0.16295497  1
  Ca2+  Ca22  1  0.57672047  0.82244214  0.49434591  1
  Ca2+  Ca23  1  0.58137368  0.82319006  0.82504957  1
  Ca2+  Ca24  1  0.33182146  0.42478274  0.17736625  1
  Ca2+  Ca25  1  0.32401609  0.41648250  0.50485744  1
  Ca2+  Ca26  1  0.33043112  0.42624410  0.83603232  1
  Ca2+  Ca27  1  0.33240012  0.92176296  0.16734766  1
  Ca2+  Ca28  1  0.32931604  0.91491232  0.50366825  1
  Ca2+  Ca29  1  0.32113328  0.91855097  0.84102182  1
  Ca2+  Ca30  1  0.82962364  0.40584635  0.16595915  1
  Ca2+  Ca31  1  0.83094732  0.41571000  0.51093776  1
  Ca2+  Ca32  1  0.82712495  0.41865595  0.83968230  1
  Ca2+  Ca33  1  0.83990359  0.92933345  0.16807429  1
  Ca2+  Ca34  1  0.83763403  0.93201549  0.50473561  1
  Ca2+  Ca35  1  0.83777304  0.92916054  0.84097564  1
  Ca2+  Ca36  1  0.41970107  0.17235322  0.15719813  1
  Ca2+  Ca37  1  0.41947025  0.17566137  0.49052808  1
  Ca2+  Ca38  1  0.42399221  0.15958062  0.83348786  1
  Ca2+  Ca39  1  0.40725713  0.66873997  0.16368682  1
  Ca2+  Ca40  1  0.41685006  0.66194636  0.49553585  1
  Ca2+  Ca41  1  0.42004151  0.65821991  0.82615963  1
  Ca2+  Ca42  1  0.91683741  0.17251984  0.16376850  1
  Ca2+  Ca43  1  0.91907911  0.17550031  0.49419057  1
  Ca2+  Ca44  1  0.90859467  0.17685486  0.82977298  1
  Ca2+  Ca45  1  0.91703277  0.67278716  0.15442788  1
  Ca2+  Ca46  1  0.91780899  0.66439107  0.49808720  1
  Ca2+  Ca47  1  0.90549164  0.67195855  0.82980807  1
  Al0+  Al48  1  -0.00043463  -0.00098415  0.00341056  1
  Al0+  Al49  1  -0.00030056  0.00064864  0.33626638  1
  Al0+  Al50  1  0.00049415  0.00118052  0.67401064  1
  Al0+  Al51  1  0.00142845  0.50242537  -0.00256885  1
  Al0+  Al52  1  0.00011853  0.50100723  0.33074416  1
  Al0+  Al53  1  0.00022367  0.50367524  0.66785380  1
  Al0+  Al54  1  0.49906580  -0.00023701  -0.00311816  1
  Al0+  Al55  1  0.50075202  -0.00365860  0.33081460  1
  Al0+  Al56  1  0.50141146  -0.00041084  0.66185660  1
  Al0+  Al57  1  0.50044833  0.50023280  0.00805264  1
  Al0+  Al58  1  0.50407103  0.50109526  0.33076253  1
  Al0+  Al59  1  0.50147664  0.49892898  0.66757699  1
  Al0+  Al60  1  0.24989537  0.25031667  -0.00074521  1
  Al0+  Al61  1  0.24944276  0.24804218  0.32831810  1
  Al0+  Al62  1  0.24996462  0.24843465  0.67141048  1
  Al0+  Al63  1  0.24808249  0.75000847  0.00584159  1
  Al0+  Al64  1  0.25101920  0.74992235  0.33218903  1
  Al0+  Al65  1  0.24841673  0.75168527  0.67308112  1
  Al0+  Al66  1  0.74848170  0.24972824  0.00019801  1
  Al0+  Al67  1  0.75068722  0.24983206  0.33693952  1
  Al0+  Al68  1  0.75026513  0.24986052  0.66799153  1
  Al0+  Al69  1  0.74839939  0.75011651  -0.00178899  1
  Al0+  Al70  1  0.74853839  0.75046932  0.33331405  1
  Al0+  Al71  1  0.74787126  0.75197392  0.66007109  1
  Al0+  Al72  1  0.42949088  0.32150647  0.32064798  1
  Al0+  Al73  1  0.67976606  0.42832621  0.68123690  1
  Al0+  Al74  1  0.17672021  0.42578884  0.68226619  1
  Al0+  Al75  1  0.56987706  0.67776131  0.65236863  1
  Al0+  Al76  1  0.81932135  0.07066095  0.01446046  1
  Al0+  Al77  1  0.68117257  0.42875153  0.01789320  1
  Al0+  Al78  1  0.32225345  0.57124254  0.34883678  1
  Al0+  Al79  1  0.81955411  0.06979772  0.68171553  1
  Al0+  Al80  1  0.56886141  0.17975607  0.98601940  1
  Al0+  Al81  1  0.32077622  0.56944860  0.68023890  1
  Al0+  Al82  1  0.07113823  0.17634488  0.31846773  1
  Al0+  Al83  1  0.92826352  0.82081718  0.98595498  1
  Al0+  Al84  1  0.82014740  0.07021216  0.34880782  1
  Al0+  Al85  1  0.82209214  0.57483824  0.67923639  1
  Al0+  Al86  1  0.18032867  0.93019246  0.67978210  1
  Al0+  Al87  1  0.32047456  0.56877140  0.01492122  1
  Al0+  Al88  1  0.82226653  0.57292891  0.01471465  1
  Al0+  Al89  1  0.32308813  0.07173476  0.01505750  1
  Al0+  Al90  1  0.92824030  0.32251579  0.31813979  1
  Al0+  Al91  1  0.17818110  0.42608212  0.34689418  1
  Al0+  Al92  1  0.42834801  0.81923265  0.31794420  1
  Al0+  Al93  1  0.17915454  0.93049630  0.01856465  1
  Al0+  Al94  1  0.93016479  0.32063834  0.98467952  1
  Al0+  Al95  1  0.92997051  0.32226036  0.65372467  1
  Si0+  Si96  1  0.17974221  0.92968250  0.34880493  1
  Si0+  Si97  1  0.42643863  0.82171816  0.65085778  1
  Si0+  Si98  1  0.57406886  0.67794930  0.31274949  1
  Si0+  Si99  1  0.42744025  0.81998277  0.98376830  1
  Si0+  Si100  1  0.92956581  0.82341302  0.65091108  1
  Si0+  Si101  1  0.42828973  0.31962110  0.65335704  1
  Si0+  Si102  1  0.67642017  0.92652478  0.01509523  1
  Si0+  Si103  1  0.57157504  0.17761935  0.64990909  1
  Si0+  Si104  1  0.68156831  0.42930413  0.34897599  1
  Si0+  Si105  1  0.32578190  0.07271242  0.68111601  1
  Si0+  Si106  1  0.07228054  0.17739491  0.65258232  1
  Si0+  Si107  1  0.07309238  0.67944078  0.98128076  1
  Si0+  Si108  1  0.67647414  0.92866531  0.68178143  1
  Si0+  Si109  1  0.82138157  0.57438039  0.34739700  1
  Si0+  Si110  1  0.92885488  0.82077413  0.32059556  1
  Si0+  Si111  1  0.07063664  0.68004908  0.31875921  1
  Si0+  Si112  1  0.57170037  0.17734223  0.31831714  1
  Si0+  Si113  1  0.17620110  0.42674405  0.01638781  1
  Si0+  Si114  1  0.56955997  0.67839317  0.98452642  1
  Si0+  Si115  1  0.07314628  0.68103981  0.65085276  1
  Si0+  Si116  1  0.32400428  0.07053569  0.34744001  1
  Si0+  Si117  1  0.42724885  0.32459261  0.98262610  1
  Si0+  Si118  1  0.07282433  0.17694464  0.98165314  1
  Si0+  Si119  1  0.67661451  0.92572990  0.35161096  1
  O2-  O120  1  0.24917021  0.00415889  0.06876698  1
  O2-  O121  1  0.25073797  0.00142509  0.39023044  1
  O2-  O122  1  0.25676637  0.00396672  0.72365748  1
  O2-  O123  1  0.24904350  0.49101693  0.06052190  1
  O2-  O124  1  0.25431532  0.49453637  0.39675059  1
  O2-  O125  1  0.24965218  0.49749066  0.73116503  1
  O2-  O126  1  0.74501943  -0.00548536  0.06046954  1
  O2-  O127  1  0.74458791  -0.00463773  0.39514279  1
  O2-  O128  1  0.74442172  -0.00441166  0.72834490  1
  O2-  O129  1  0.75674601  0.49728452  0.06829848  1
  O2-  O130  1  0.75443439  0.49950241  0.38907814  1
  O2-  O131  1  0.75439232  0.49900427  0.72877462  1
  O2-  O132  1  0.00198788  0.25146177  0.26927189  1
  O2-  O133  1  0.00866617  0.25044043  0.60804394  1
  O2-  O134  1  0.00645194  0.24740035  0.93707598  1
  O2-  O135  1  -0.00289284  0.74865689  0.27694393  1
  O2-  O136  1  -0.00182585  0.74964014  0.60873961  1
  O2-  O137  1  0.00025726  0.74432538  0.93739099  1
  O2-  O138  1  0.50113555  0.24357587  0.27419199  1
  O2-  O139  1  0.49823531  0.24718558  0.60997304  1
  O2-  O140  1  0.49252962  0.25263309  0.93779446  1
  O2-  O141  1  0.50162187  0.74361439  0.26979263  1
  O2-  O142  1  0.49266583  0.75099551  0.60633465  1
  O2-  O143  1  0.49708006  0.74805110  0.94165546  1
  O2-  O144  1  0.07135153  0.17691190  0.08716939  1
  O2-  O145  1  0.06766461  0.17175738  0.43235748  1
  O2-  O146  1  0.07060498  0.17451328  0.75778169  1
  O2-  O147  1  0.07396720  0.68214922  0.08738503  1
  O2-  O148  1  0.07025230  0.68203790  0.42418733  1
  O2-  O149  1  0.07735509  0.68397907  0.75535414  1
  O2-  O150  1  0.56833640  0.18106898  0.09937096  1
  O2-  O151  1  0.57095483  0.17840003  0.42448424  1
  O2-  O152  1  0.57063972  0.17378693  0.75457354  1
  O2-  O153  1  0.57041755  0.68139323  0.08968604  1
  O2-  O154  1  0.57684351  0.68009475  0.41828756  1
  O2-  O155  1  0.56909357  0.68046195  0.76565646  1
  O2-  O156  1  0.17709573  0.43116597  0.23341789  1
  O2-  O157  1  0.17863326  0.42531583  0.56859928  1
  O2-  O158  1  0.17654262  0.42946944  0.91079232  1
  O2-  O159  1  0.17828326  0.92899037  0.24439837  1
  O2-  O160  1  0.18053650  0.93043259  0.56593886  1
  O2-  O161  1  0.18103539  0.92989807  0.90487133  1
  O2-  O162  1  0.68111836  0.42822873  0.24427213  1
  O2-  O163  1  0.67871177  0.42919978  0.56687120  1
  O2-  O164  1  0.67968793  0.43093238  0.90465049  1
  O2-  O165  1  0.67720648  0.92271943  0.24627533  1
  O2-  O166  1  0.67649948  0.93139366  0.57609420  1
  O2-  O167  1  0.67681553  0.92630871  0.90938960  1
  O2-  O168  1  0.42994802  0.32458308  0.08833650  1
  O2-  O169  1  0.43195853  0.31972045  0.43451656  1
  O2-  O170  1  0.42834200  0.31853735  0.75815564  1
  O2-  O171  1  0.42926527  0.82002933  0.08901109  1
  O2-  O172  1  0.42927751  0.82015827  0.43124084  1
  O2-  O173  1  0.42887870  0.82429101  0.75629996  1
  O2-  O174  1  0.93086320  0.31793698  0.09774374  1
  O2-  O175  1  0.92673889  0.32200067  0.43198163  1
  O2-  O176  1  0.92780778  0.31905437  0.76663213  1
  O2-  O177  1  0.93023522  0.82010094  0.09983316  1
  O2-  O178  1  0.93100881  0.82040883  0.42609791  1
  O2-  O179  1  0.92962288  0.82438911  0.75565637  1
  O2-  O180  1  0.32722335  0.06740470  0.24308569  1
  O2-  O181  1  0.32714532  0.07299325  0.57515896  1
  O2-  O182  1  0.32386077  0.06549464  0.90107987  1
  O2-  O183  1  0.31722069  0.57221792  0.23533371  1
  O2-  O184  1  0.31955471  0.56837421  0.56690513  1
  O2-  O185  1  0.32087347  0.56904457  0.90184306  1
  O2-  O186  1  0.81861142  0.06892504  0.23594826  1
  O2-  O187  1  0.81988889  0.06863707  0.56831697  1
  O2-  O188  1  0.81752997  0.06982085  0.90135419  1
  O2-  O189  1  0.81863523  0.58065892  0.24296055  1
  O2-  O190  1  0.81964181  0.57457139  0.56478371  1
  O2-  O191  1  0.81631053  0.57531177  0.90177886  1
  O2-  O192  1  0.03821633  0.07858933  0.26502580  1
  O2-  O193  1  0.04158530  0.08478471  0.60579431  1
  O2-  O194  1  0.04529899  0.08294343  0.93773585  1
  O2-  O195  1  0.04516713  0.58905226  0.26947070  1
  O2-  O196  1  0.04797771  0.58949883  0.60161952  1
  O2-  O197  1  0.05448027  0.58470866  0.93571131  1
  O2-  O198  1  0.55108706  0.08211580  0.27420114  1
  O2-  O199  1  0.54611853  0.08590171  0.59945858  1
  O2-  O200  1  0.53981492  0.08259559  0.92984434  1
  O2-  O201  1  0.55435114  0.58345162  0.26723648  1
  O2-  O202  1  0.54102165  0.58083231  0.59747070  1
  O2-  O203  1  0.54091237  0.58583033  0.93988054  1
  O2-  O204  1  0.17131270  0.19549030  0.26562036  1
  O2-  O205  1  0.16912284  0.19524135  0.60866034  1
  O2-  O206  1  0.16846159  0.19777327  0.93645974  1
  O2-  O207  1  0.16066504  0.71150558  0.27068337  1
  O2-  O208  1  0.16272426  0.71530111  0.60185033  1
  O2-  O209  1  0.16502613  0.71176340  0.93500162  1
  O2-  O210  1  0.66434126  0.20694230  0.27358844  1
  O2-  O211  1  0.66200847  0.20821617  0.60181910  1
  O2-  O212  1  0.66430816  0.21199199  0.93109589  1
  O2-  O213  1  0.66596448  0.70958059  0.26538913  1
  O2-  O214  1  0.66397281  0.71210439  0.59371348  1
  O2-  O215  1  0.65988419  0.70786442  0.93551788  1
  O2-  O216  1  0.08485352  0.45757353  0.06340724  1
  O2-  O217  1  0.08061309  0.46073073  0.39942159  1
  O2-  O218  1  0.08017769  0.45883273  0.73450140  1
  O2-  O219  1  0.08058514  0.95705521  0.07149233  1
  O2-  O220  1  0.08825157  0.95622518  0.39799930  1
  O2-  O221  1  0.08577752  0.96136091  0.73653357  1
  O2-  O222  1  0.58444981  0.46034345  0.07240105  1
  O2-  O223  1  0.59050079  0.45953400  0.39649666  1
  O2-  O224  1  0.58240199  0.45704543  0.73475316  1
  O2-  O225  1  0.58270698  0.95211215  0.06036568  1
  O2-  O226  1  0.58249218  0.94996075  0.39772261  1
  O2-  O227  1  0.58202572  0.95247620  0.72720268  1
  O2-  O228  1  0.19557881  0.33097432  0.05952104  1
  O2-  O229  1  0.20239085  0.32540399  0.39741597  1
  O2-  O230  1  0.20314872  0.32731042  0.73614298  1
  O2-  O231  1  0.20833649  0.83283653  0.07177359  1
  O2-  O232  1  0.20946551  0.83840571  0.39629064  1
  O2-  O233  1  0.20899696  0.83573019  0.73795979  1
  O2-  O234  1  0.70731726  0.33000373  0.07059279  1
  O2-  O235  1  0.70576727  0.33743551  0.39806514  1
  O2-  O236  1  0.70513816  0.32964838  0.73364883  1
  O2-  O237  1  0.70030640  0.83335057  0.06218272  1
  O2-  O238  1  0.70385158  0.83276856  0.39913279  1
  O2-  O239  1  0.70074279  0.83435171  0.72541464  1
  O2-  O240  1  0.46376281  0.41686651  0.26621568  1
  O2-  O241  1  0.45830751  0.40991993  0.60477332  1
  O2-  O242  1  0.45823189  0.41749133  0.93807112  1
  O2-  O243  1  0.46090583  0.91517492  0.26250935  1
  O2-  O244  1  0.45384293  0.91435673  0.60180246  1
  O2-  O245  1  0.45548525  0.91073611  0.93490609  1
  O2-  O246  1  0.95247513  0.42230711  0.26521311  1
  O2-  O247  1  0.95541408  0.42168845  0.60176573  1
  O2-  O248  1  0.95862873  0.41932045  0.93276920  1
  O2-  O249  1  0.95893508  0.91167724  0.27392770  1
  O2-  O250  1  0.96310844  0.91421374  0.60392567  1
  O2-  O251  1  0.96174829  0.91706858  0.93244598  1
  O2-  O252  1  0.33318801  0.29390168  0.26573840  1
  O2-  O253  1  0.33603688  0.29170690  0.60576484  1
  O2-  O254  1  0.33176743  0.30445625  0.93782087  1
  O2-  O255  1  0.33158896  0.79060478  0.26293966  1
  O2-  O256  1  0.33123425  0.79890883  0.60690562  1
  O2-  O257  1  0.33431451  0.79242767  0.93949835  1
  O2-  O258  1  0.82985009  0.28946607  0.26726695  1
  O2-  O259  1  0.83378036  0.28734369  0.59999256  1
  O2-  O260  1  0.83327337  0.28754965  0.93315381  1
  O2-  O261  1  0.83572533  0.79616710  0.27461376  1
  O2-  O262  1  0.83725752  0.80038655  0.60157657  1
  O2-  O263  1  0.83033130  0.79357761  0.93181409  1
  O2-  O264  1  0.42043717  0.03938673  0.06810043  1
  O2-  O265  1  0.41514200  0.04041895  0.39621002  1
  O2-  O266  1  0.41967323  0.04583852  0.72605785  1
  O2-  O267  1  0.41676347  0.54299161  0.07119627  1
  O2-  O268  1  0.42501229  0.54945060  0.39508117  1
  O2-  O269  1  0.41850717  0.54012548  0.73289890  1
  O2-  O270  1  0.91488173  0.03877937  0.06853286  1
  O2-  O271  1  0.91525422  0.03563272  0.40402596  1
  O2-  O272  1  0.91445138  0.03835116  0.73686188  1
  O2-  O273  1  0.92472234  0.55431347  0.06248271  1
  O2-  O274  1  0.91534507  0.55175190  0.39215324  1
  O2-  O275  1  0.92285062  0.55788520  0.72972694  1
  O2-  O276  1  0.30208213  0.17364819  0.06309899  1
  O2-  O277  1  0.29885124  0.16294676  0.39424615  1
  O2-  O278  1  0.30283622  0.16499468  0.72981720  1
  O2-  O279  1  0.28692801  0.66441334  0.06860996  1
  O2-  O280  1  0.28994202  0.66920138  0.40094068  1
  O2-  O281  1  0.29338630  0.66800161  0.73317670  1
  O2-  O282  1  0.78536380  0.16518074  0.06881136  1
  O2-  O283  1  0.78763755  0.16576349  0.40440307  1
  O2-  O284  1  0.78588657  0.16487558  0.73466740  1
  O2-  O285  1  0.78789571  0.67015769  0.06842154  1
  O2-  O286  1  0.79098799  0.66496471  0.39706553  1
  O2-  O287  1  0.78958752  0.67365785  0.72899020  1
