# generated using pymatgen
data_Ca2Al2SiO7
_symmetry_space_group_name_H-M   'P 1'
_cell_length_a   15.45801950
_cell_length_b   15.45803097
_cell_length_c   15.28423632
_cell_angle_alpha   90.01069928
_cell_angle_beta   89.99921785
_cell_angle_gamma   89.98838110
_symmetry_Int_Tables_number   1
_chemical_formula_structural   Ca2Al2SiO7
_chemical_formula_sum   'Ca48 Al48 Si24 O168'
_cell_volume   3652.17644528
_cell_formula_units_Z   24
loop_
 _symmetry_equiv_pos_site_id
 _symmetry_equiv_pos_as_xyz
  1  'x, y, z'
loop_
 _atom_type_symbol
 _atom_type_oxidation_number
  Ca2+  2.0
  Al0+  0.0
  Si0+  0.0
  O2-  -2.0
loop_
 _atom_site_type_symbol
 _atom_site_label
 _atom_site_symmetry_multiplicity
 _atom_site_fract_x
 _atom_site_fract_y
 _atom_site_fract_z
 _atom_site_occupancy
  Ca2+  Ca0  1  0.16748985  0.07715271  0.17702382  1
  Ca2+  Ca1  1  0.15688427  0.08220940  0.49997478  1
  Ca2+  Ca2  1  0.16310491  0.08245545  0.83385310  1
  Ca2+  Ca3  1  0.17184512  0.57774043  0.17322906  1
  Ca2+  Ca4  1  0.16768152  0.58441225  0.49611900  1
  Ca2+  Ca5  1  0.16881499  0.57622186  0.84712403  1
  Ca2+  Ca6  1  0.66460234  0.08121784  0.17378742  1
  Ca2+  Ca7  1  0.67499447  0.06988810  0.50683195  1
  Ca2+  Ca8  1  0.67059412  0.08322307  0.83554034  1
  Ca2+  Ca9  1  0.66910367  0.57669699  0.17499537  1
  Ca2+  Ca10  1  0.67094055  0.57969105  0.50631413  1
  Ca2+  Ca11  1  0.67257886  0.58988692  0.82946328  1
  Ca2+  Ca12  1  0.08605521  0.33793427  0.16857604  1
  Ca2+  Ca13  1  0.07393668  0.32533481  0.49115140  1
  Ca2+  Ca14  1  0.08080423  0.33052210  0.82463714  1
  Ca2+  Ca15  1  0.09331961  0.81899965  0.16909298  1
  Ca2+  Ca16  1  0.07032795  0.83175575  0.48800087  1
  Ca2+  Ca17  1  0.07847487  0.82369214  0.82851527  1
  Ca2+  Ca18  1  0.57240498  0.33635008  0.16329373  1
  Ca2+  Ca19  1  0.58010633  0.33496449  0.48969082  1
  Ca2+  Ca20  1  0.57767014  0.33303837  0.83461359  1
  Ca2+  Ca21  1  0.57156333  0.83769870  0.16498880  1
  Ca2+  Ca22  1  0.58671546  0.83002471  0.49436896  1
  Ca2+  Ca23  1  0.57929743  0.82937722  0.82625901  1
  Ca2+  Ca24  1  0.32945838  0.42383689  0.17661066  1
  Ca2+  Ca25  1  0.32924570  0.41768670  0.49661656  1
  Ca2+  Ca26  1  0.32622579  0.42297546  0.84687516  1
  Ca2+  Ca27  1  0.33283159  0.91505840  0.17650449  1
  Ca2+  Ca28  1  0.32635376  0.91120115  0.49615028  1
  Ca2+  Ca29  1  0.33424651  0.91662427  0.83927888  1
  Ca2+  Ca30  1  0.82743701  0.41461780  0.17639454  1
  Ca2+  Ca31  1  0.83530726  0.41741672  0.50309037  1
  Ca2+  Ca32  1  0.84064090  0.42279390  0.83329282  1
  Ca2+  Ca33  1  0.82669862  0.91723930  0.17747791  1
  Ca2+  Ca34  1  0.82866294  0.91299374  0.50923697  1
  Ca2+  Ca35  1  0.83167926  0.91684634  0.82916984  1
  Ca2+  Ca36  1  0.41988972  0.18144637  0.16231947  1
  Ca2+  Ca37  1  0.41941885  0.17415904  0.49211006  1
  Ca2+  Ca38  1  0.42068482  0.17158128  0.83524320  1
  Ca2+  Ca39  1  0.40277380  0.67496672  0.16551312  1
  Ca2+  Ca40  1  0.42287054  0.66856274  0.49217941  1
  Ca2+  Ca41  1  0.41913975  0.66807074  0.83265252  1
  Ca2+  Ca42  1  0.92151803  0.17082203  0.17117566  1
  Ca2+  Ca43  1  0.92112066  0.17009860  0.49587294  1
  Ca2+  Ca44  1  0.92154800  0.17334047  0.81991638  1
  Ca2+  Ca45  1  0.92977434  0.66840470  0.16808689  1
  Ca2+  Ca46  1  0.91560352  0.67480968  0.49426258  1
  Ca2+  Ca47  1  0.92098117  0.66741362  0.82504057  1
  Al0+  Al48  1  -0.00262289  0.00073166  0.00154688  1
  Al0+  Al49  1  -0.00072134  0.00177036  0.32847818  1
  Al0+  Al50  1  -0.00023106  -0.00173739  0.66639340  1
  Al0+  Al51  1  0.00024199  0.50086211  0.00086810  1
  Al0+  Al52  1  0.00026561  0.49988600  0.33015739  1
  Al0+  Al53  1  0.00082189  0.49851228  0.66736504  1
  Al0+  Al54  1  0.50008734  -0.00027206  -0.00789647  1
  Al0+  Al55  1  0.50129038  -0.00100789  0.33638989  1
  Al0+  Al56  1  0.49689946  0.00066609  0.67028935  1
  Al0+  Al57  1  0.50123296  0.50259802  -0.00128558  1
  Al0+  Al58  1  0.50126116  0.50021965  0.33763708  1
  Al0+  Al59  1  0.49926354  0.50165822  0.66462371  1
  Al0+  Al60  1  0.24910250  0.24808184  -0.00068420  1
  Al0+  Al61  1  0.25195587  0.25088213  0.32943166  1
  Al0+  Al62  1  0.25034440  0.24910823  0.66465830  1
  Al0+  Al63  1  0.24848357  0.74951004  -0.00830431  1
  Al0+  Al64  1  0.25129320  0.75138391  0.33724192  1
  Al0+  Al65  1  0.25161532  0.75007196  0.66897242  1
  Al0+  Al66  1  0.75184352  0.24929930  -0.00309364  1
  Al0+  Al67  1  0.75105766  0.24887452  0.33511329  1
  Al0+  Al68  1  0.74724365  0.24944796  0.66787501  1
  Al0+  Al69  1  0.74936648  0.75224729  0.00282310  1
  Al0+  Al70  1  0.74960612  0.74929341  0.33113328  1
  Al0+  Al71  1  0.74838511  0.74695957  0.66868053  1
  Al0+  Al72  1  0.92579982  0.82247949  0.31755409  1
  Al0+  Al73  1  0.42747445  0.32347465  0.98491180  1
  Al0+  Al74  1  0.82154168  0.07098167  0.68251860  1
  Al0+  Al75  1  0.92794057  0.32144149  0.31737847  1
  Al0+  Al76  1  0.07245988  0.17944914  0.31596118  1
  Al0+  Al77  1  0.32223186  0.57243738  0.01463093  1
  Al0+  Al78  1  0.06851016  0.67963963  0.98500000  1
  Al0+  Al79  1  0.42878190  0.81949413  0.98569405  1
  Al0+  Al80  1  0.43053343  0.32296039  0.32059754  1
  Al0+  Al81  1  0.56887477  0.68028389  0.65249524  1
  Al0+  Al82  1  0.67976994  0.42812486  0.34573673  1
  Al0+  Al83  1  0.17775991  0.42720527  0.35086014  1
  Al0+  Al84  1  0.82130643  0.56816069  0.67927678  1
  Al0+  Al85  1  0.07187907  0.17861930  0.65187771  1
  Al0+  Al86  1  0.32072005  0.57237329  0.35079465  1
  Al0+  Al87  1  0.07231305  0.67983577  0.31974947  1
  Al0+  Al88  1  0.93008851  0.81772101  0.65493741  1
  Al0+  Al89  1  0.67877293  0.92848852  0.34627105  1
  Al0+  Al90  1  0.17863279  0.93020686  0.34597911  1
  Al0+  Al91  1  0.43139176  0.82026020  0.32197069  1
  Al0+  Al92  1  0.57219490  0.17975424  0.98472514  1
  Al0+  Al93  1  0.67739028  0.92737517  0.68398430  1
  Al0+  Al94  1  0.17807589  0.42671055  0.01552264  1
  Al0+  Al95  1  0.92685486  0.32281603  0.65194879  1
  Si0+  Si96  1  0.32210000  0.57124469  0.68326382  1
  Si0+  Si97  1  0.32285860  0.07213275  0.34922005  1
  Si0+  Si98  1  0.32252650  0.06953788  0.01464038  1
  Si0+  Si99  1  0.67801688  0.93038242  0.01569100  1
  Si0+  Si100  1  0.57176632  0.17780123  0.32002805  1
  Si0+  Si101  1  0.82069936  0.07241518  0.01699488  1
  Si0+  Si102  1  0.07022364  0.17587416  0.98497675  1
  Si0+  Si103  1  0.17845635  0.93019269  0.01297771  1
  Si0+  Si104  1  0.92563546  0.82324031  0.98272716  1
  Si0+  Si105  1  0.67450516  0.42740405  0.68477805  1
  Si0+  Si106  1  0.57009146  0.17717216  0.65083404  1
  Si0+  Si107  1  0.92968308  0.32025410  0.98504875  1
  Si0+  Si108  1  0.43003940  0.32077826  0.65165187  1
  Si0+  Si109  1  0.82132361  0.57275402  0.01562211  1
  Si0+  Si110  1  0.17914998  0.92830799  0.68257900  1
  Si0+  Si111  1  0.68139615  0.42828591  0.01309006  1
  Si0+  Si112  1  0.18137825  0.42877446  0.68097232  1
  Si0+  Si113  1  0.32020249  0.07314796  0.68343078  1
  Si0+  Si114  1  0.82229890  0.57154741  0.34868448  1
  Si0+  Si115  1  0.57237834  0.67697842  0.31612549  1
  Si0+  Si116  1  0.82223683  0.07156375  0.35006435  1
  Si0+  Si117  1  0.07478301  0.67665045  0.65062391  1
  Si0+  Si118  1  0.57641110  0.67831051  0.98333424  1
  Si0+  Si119  1  0.42654492  0.82423264  0.64828443  1
  O2-  O120  1  0.25025492  -0.00017561  0.05619799  1
  O2-  O121  1  0.25057945  0.00744803  0.39415303  1
  O2-  O122  1  0.25002783  0.00021680  0.72469112  1
  O2-  O123  1  0.25479824  0.49538028  0.06304311  1
  O2-  O124  1  0.24845448  0.50057061  0.40160369  1
  O2-  O125  1  0.24869499  0.50263604  0.72473431  1
  O2-  O126  1  0.74878840  0.00161391  0.05809080  1
  O2-  O127  1  0.75792894  -0.00196374  0.39269153  1
  O2-  O128  1  0.74853933  0.00040839  0.73479837  1
  O2-  O129  1  0.74961011  0.50168950  0.05607064  1
  O2-  O130  1  0.75561778  0.50087338  0.39268492  1
  O2-  O131  1  0.74872584  0.49105632  0.72818125  1
  O2-  O132  1  0.00336660  0.25407505  0.26519175  1
  O2-  O133  1  -0.00350510  0.24774509  0.60401361  1
  O2-  O134  1  0.00392944  0.25179698  0.94420204  1
  O2-  O135  1  0.00123574  0.75329806  0.26890598  1
  O2-  O136  1  0.00554286  0.74459574  0.60765115  1
  O2-  O137  1  -0.00743787  0.75314672  0.93839884  1
  O2-  O138  1  0.50630486  0.24874085  0.27513927  1
  O2-  O139  1  0.50281415  0.25172208  0.60888654  1
  O2-  O140  1  0.50043495  0.25227311  0.93403905  1
  O2-  O141  1  0.50376477  0.74541895  0.27178747  1
  O2-  O142  1  0.49746294  0.75780855  0.60562285  1
  O2-  O143  1  0.50371042  0.74410334  0.94107572  1
  O2-  O144  1  0.06790431  0.16978896  0.08912226  1
  O2-  O145  1  0.06878333  0.17819148  0.42928343  1
  O2-  O146  1  0.07449216  0.18240458  0.76643746  1
  O2-  O147  1  0.06935338  0.68107357  0.09736255  1
  O2-  O148  1  0.07012361  0.68221780  0.43359500  1
  O2-  O149  1  0.07493833  0.67817570  0.75673916  1
  O2-  O150  1  0.57106271  0.17996929  0.09832203  1
  O2-  O151  1  0.56896250  0.17754612  0.42588548  1
  O2-  O152  1  0.56765144  0.17729410  0.75590781  1
  O2-  O153  1  0.58410296  0.68041875  0.08819083  1
  O2-  O154  1  0.57277247  0.67826089  0.42180539  1
  O2-  O155  1  0.56521452  0.67943978  0.76600512  1
  O2-  O156  1  0.18140491  0.42826672  0.23741818  1
  O2-  O157  1  0.18344092  0.42754997  0.57662105  1
  O2-  O158  1  0.17675155  0.42854834  0.90076072  1
  O2-  O159  1  0.18359198  0.92972703  0.23229358  1
  O2-  O160  1  0.18050195  0.92639416  0.57800077  1
  O2-  O161  1  0.17817949  0.93324953  0.90735490  1
  O2-  O162  1  0.67977502  0.43032022  0.23184846  1
  O2-  O163  1  0.67036800  0.43000219  0.57958854  1
  O2-  O164  1  0.68376004  0.42721341  0.90794992  1
  O2-  O165  1  0.67597547  0.93359943  0.23254743  1
  O2-  O166  1  0.67780966  0.92884459  0.57047759  1
  O2-  O167  1  0.67960112  0.92900513  0.91095521  1
  O2-  O168  1  0.43001847  0.32235017  0.09806248  1
  O2-  O169  1  0.43226309  0.31971837  0.43435571  1
  O2-  O170  1  0.42955273  0.31968052  0.75674115  1
  O2-  O171  1  0.42974534  0.82293663  0.09852097  1
  O2-  O172  1  0.43328295  0.82077580  0.43489565  1
  O2-  O173  1  0.42449393  0.82235350  0.75419071  1
  O2-  O174  1  0.92512963  0.31840612  0.08951437  1
  O2-  O175  1  0.92515288  0.31768628  0.43047998  1
  O2-  O176  1  0.93285915  0.32410803  0.76658848  1
  O2-  O177  1  0.92411018  0.82370850  0.08770193  1
  O2-  O178  1  0.92451982  0.81934653  0.43140453  1
  O2-  O179  1  0.93363186  0.81634631  0.76860835  1
  O2-  O180  1  0.32534378  0.06882724  0.24339211  1
  O2-  O181  1  0.32300172  0.07575623  0.57891929  1
  O2-  O182  1  0.32107248  0.06913212  0.90901254  1
  O2-  O183  1  0.32041594  0.57251096  0.23737499  1
  O2-  O184  1  0.32333431  0.57133948  0.57877468  1
  O2-  O185  1  0.31884140  0.57153479  0.90003809  1
  O2-  O186  1  0.81817172  0.07371761  0.24379635  1
  O2-  O187  1  0.81968942  0.06952774  0.56934499  1
  O2-  O188  1  0.82272181  0.07258769  0.91230276  1
  O2-  O189  1  0.81898854  0.57187912  0.24241197  1
  O2-  O190  1  0.81912754  0.56889680  0.56674919  1
  O2-  O191  1  0.82149559  0.57242956  0.91034570  1
  O2-  O192  1  0.04148656  0.08270114  0.26031043  1
  O2-  O193  1  0.04742297  0.07840838  0.60251623  1
  O2-  O194  1  0.03742214  0.08609059  0.93504186  1
  O2-  O195  1  0.04393509  0.58254706  0.26536830  1
  O2-  O196  1  0.05119673  0.58232448  0.60723411  1
  O2-  O197  1  0.03709354  0.58278238  0.93066258  1
  O2-  O198  1  0.54280835  0.08580864  0.27286488  1
  O2-  O199  1  0.53747638  0.08652183  0.60417792  1
  O2-  O200  1  0.54213161  0.08322957  0.92874412  1
  O2-  O201  1  0.54771702  0.58313029  0.27123491  1
  O2-  O202  1  0.53644178  0.58443720  0.59751560  1
  O2-  O203  1  0.55520810  0.58412481  0.93659705  1
  O2-  O204  1  0.17255141  0.20221575  0.26433533  1
  O2-  O205  1  0.17009031  0.20728783  0.59883161  1
  O2-  O206  1  0.16404270  0.19694881  0.93841916  1
  O2-  O207  1  0.17008963  0.71142895  0.26751278  1
  O2-  O208  1  0.16900286  0.70324731  0.60690372  1
  O2-  O209  1  0.16237491  0.71218856  0.92655563  1
  O2-  O210  1  0.66597736  0.19953642  0.27478763  1
  O2-  O211  1  0.66298114  0.20012236  0.60449403  1
  O2-  O212  1  0.67045818  0.20860197  0.93054486  1
  O2-  O213  1  0.66544735  0.70118342  0.26885076  1
  O2-  O214  1  0.66631260  0.70655016  0.59943001  1
  O2-  O215  1  0.66790675  0.70949080  0.93445379  1
  O2-  O216  1  0.08018860  0.45861767  0.06752657  1
  O2-  O217  1  0.07739453  0.45384344  0.40058767  1
  O2-  O218  1  0.08871258  0.45319971  0.72866027  1
  O2-  O219  1  0.08660419  0.95824248  0.05987595  1
  O2-  O220  1  0.08040145  0.95949754  0.39768860  1
  O2-  O221  1  0.08830766  0.95507325  0.73219519  1
  O2-  O222  1  0.58851657  0.45419253  0.05899170  1
  O2-  O223  1  0.58546257  0.45945586  0.40310949  1
  O2-  O224  1  0.58324166  0.46051823  0.73275660  1
  O2-  O225  1  0.58518572  0.95926696  0.06043468  1
  O2-  O226  1  0.58471198  0.96187734  0.40367705  1
  O2-  O227  1  0.57732616  0.95581286  0.73510604  1
  O2-  O228  1  0.19938576  0.32490412  0.06427421  1
  O2-  O229  1  0.21038102  0.32870343  0.40187934  1
  O2-  O230  1  0.21237102  0.33755113  0.72887989  1
  O2-  O231  1  0.20674925  0.83747698  0.05636480  1
  O2-  O232  1  0.21204343  0.83693483  0.40380553  1
  O2-  O233  1  0.20899609  0.83710922  0.73216451  1
  O2-  O234  1  0.71218996  0.33733626  0.06050190  1
  O2-  O235  1  0.70683194  0.33073980  0.40032087  1
  O2-  O236  1  0.69224866  0.33156894  0.72906628  1
  O2-  O237  1  0.70500504  0.83882132  0.06440166  1
  O2-  O238  1  0.70528673  0.82967452  0.39749208  1
  O2-  O239  1  0.70622177  0.82918848  0.73700023  1
  O2-  O240  1  0.46339893  0.41880861  0.26728458  1
  O2-  O241  1  0.45580786  0.41305816  0.60523679  1
  O2-  O242  1  0.45691693  0.42196003  0.93145920  1
  O2-  O243  1  0.46286164  0.91702605  0.26747279  1
  O2-  O244  1  0.44652285  0.92019596  0.60563807  1
  O2-  O245  1  0.45986647  0.91463498  0.92858499  1
  O2-  O246  1  0.94995546  0.42109915  0.26468529  1
  O2-  O247  1  0.95779551  0.42015847  0.59908506  1
  O2-  O248  1  0.95494106  0.41342976  0.93907093  1
  O2-  O249  1  0.94823377  0.92218358  0.26621659  1
  O2-  O250  1  0.95944757  0.91426120  0.60171321  1
  O2-  O251  1  0.95372718  0.91680407  0.93716732  1
  O2-  O252  1  0.33644198  0.29120788  0.26417494  1
  O2-  O253  1  0.33971579  0.28942388  0.60418571  1
  O2-  O254  1  0.32972300  0.29100334  0.93137387  1
  O2-  O255  1  0.33435365  0.79195648  0.26843643  1
  O2-  O256  1  0.33322118  0.79522016  0.60336815  1
  O2-  O257  1  0.33350396  0.79111105  0.92750453  1
  O2-  O258  1  0.83033151  0.28765651  0.26342016  1
  O2-  O259  1  0.82471321  0.30097041  0.60461218  1
  O2-  O260  1  0.84013124  0.29001441  0.93475563  1
  O2-  O261  1  0.82891810  0.79098802  0.26220023  1
  O2-  O262  1  0.83318481  0.78669998  0.60355122  1
  O2-  O263  1  0.83119758  0.79872562  0.93764001  1
  O2-  O264  1  0.41456354  0.04033813  0.05994423  1
  O2-  O265  1  0.41408773  0.04263389  0.39854243  1
  O2-  O266  1  0.41082389  0.04565777  0.73397529  1
  O2-  O267  1  0.42480430  0.55439947  0.06350847  1
  O2-  O268  1  0.41910329  0.54250559  0.40345266  1
  O2-  O269  1  0.41284984  0.54042515  0.73117062  1
  O2-  O270  1  0.91170350  0.04323715  0.06582131  1
  O2-  O271  1  0.91758295  0.05160682  0.39297270  1
  O2-  O272  1  0.92029259  0.04156418  0.73626470  1
  O2-  O273  1  0.91198628  0.54354534  0.06322791  1
  O2-  O274  1  0.91634157  0.54942224  0.39366861  1
  O2-  O275  1  0.91870638  0.53953035  0.73601869  1
  O2-  O276  1  0.29608082  0.16162484  0.06156203  1
  O2-  O277  1  0.30173277  0.16698873  0.39371166  1
  O2-  O278  1  0.29067217  0.16391704  0.73325288  1
  O2-  O279  1  0.28792088  0.67117636  0.06339184  1
  O2-  O280  1  0.29337804  0.67017580  0.40580978  1
  O2-  O281  1  0.29806942  0.66475665  0.73021101  1
  O2-  O282  1  0.79282582  0.16434326  0.06437996  1
  O2-  O283  1  0.79244586  0.16249236  0.39865823  1
  O2-  O284  1  0.79269500  0.17036423  0.73580364  1
  O2-  O285  1  0.79377391  0.66468448  0.06292082  1
  O2-  O286  1  0.79341641  0.66408954  0.39481265  1
  O2-  O287  1  0.78724891  0.66209184  0.73712596  1
