# generated using pymatgen
data_Ca2Al2SiO7
_symmetry_space_group_name_H-M   'P 1'
_cell_length_a   15.45706779
_cell_length_b   15.45796928
_cell_length_c   15.28369603
_cell_angle_alpha   90.01023019
_cell_angle_beta   89.99808386
_cell_angle_gamma   89.99690835
_symmetry_Int_Tables_number   1
_chemical_formula_structural   Ca2Al2SiO7
_chemical_formula_sum   'Ca48 Al48 Si24 O168'
_cell_volume   3651.80799766
_cell_formula_units_Z   24
loop_
 _symmetry_equiv_pos_site_id
 _symmetry_equiv_pos_as_xyz
  1  'x, y, z'
loop_
 _atom_type_symbol
 _atom_type_oxidation_number
  Ca2+  2.0
  Al0+  0.0
  Si0+  0.0
  O2-  -2.0
loop_
 _atom_site_type_symbol
 _atom_site_label
 _atom_site_symmetry_multiplicity
 _atom_site_fract_x
 _atom_site_fract_y
 _atom_site_fract_z
 _atom_site_occupancy
  Ca2+  Ca0  1  0.17003535  0.07247161  0.16357470  1
  Ca2+  Ca1  1  0.17177926  0.08180320  0.50738940  1
  Ca2+  Ca2  1  0.17722950  0.08539586  0.83705124  1
  Ca2+  Ca3  1  0.16748132  0.57054530  0.17184850  1
  Ca2+  Ca4  1  0.16842324  0.56996922  0.50761323  1
  Ca2+  Ca5  1  0.16586085  0.56947780  0.83739404  1
  Ca2+  Ca6  1  0.66873786  0.07080465  0.16888101  1
  Ca2+  Ca7  1  0.66769170  0.08027126  0.50987501  1
  Ca2+  Ca8  1  0.67635714  0.08316484  0.83941609  1
  Ca2+  Ca9  1  0.67069777  0.59440262  0.16664509  1
  Ca2+  Ca10  1  0.66084576  0.58552935  0.50288279  1
  Ca2+  Ca11  1  0.66784963  0.58779153  0.83884801  1
  Ca2+  Ca12  1  0.08772507  0.33446819  0.16184567  1
  Ca2+  Ca13  1  0.08753541  0.32948230  0.50299368  1
  Ca2+  Ca14  1  0.08021712  0.32909482  0.82341470  1
  Ca2+  Ca15  1  0.08043866  0.83958046  0.15747210  1
  Ca2+  Ca16  1  0.07599305  0.84206411  0.49685766  1
  Ca2+  Ca17  1  0.07146689  0.84467791  0.83117765  1
  Ca2+  Ca18  1  0.56775465  0.33303026  0.15893916  1
  Ca2+  Ca19  1  0.57288058  0.32441548  0.49744619  1
  Ca2+  Ca20  1  0.57051685  0.32515331  0.82458441  1
  Ca2+  Ca21  1  0.59437934  0.82799547  0.16209101  1
  Ca2+  Ca22  1  0.58077446  0.82814973  0.49758673  1
  Ca2+  Ca23  1  0.58609209  0.82626953  0.82827281  1
  Ca2+  Ca24  1  0.32652025  0.40931758  0.16990779  1
  Ca2+  Ca25  1  0.32801773  0.40724524  0.50543491  1
  Ca2+  Ca26  1  0.32445612  0.40467485  0.83676774  1
  Ca2+  Ca27  1  0.32583584  0.91962087  0.17080622  1
  Ca2+  Ca28  1  0.32884269  0.91805771  0.51037487  1
  Ca2+  Ca29  1  0.33524343  0.92761658  0.83881070  1
  Ca2+  Ca30  1  0.83204437  0.42702792  0.16770738  1
  Ca2+  Ca31  1  0.83236097  0.41741798  0.50944777  1
  Ca2+  Ca32  1  0.83322080  0.42206122  0.83833772  1
  Ca2+  Ca33  1  0.82539874  0.91557075  0.16298920  1
  Ca2+  Ca34  1  0.82727170  0.92061163  0.50730674  1
  Ca2+  Ca35  1  0.83303014  0.92413122  0.84040041  1
  Ca2+  Ca36  1  0.40784758  0.17507721  0.16194170  1
  Ca2+  Ca37  1  0.41094161  0.17238218  0.50404126  1
  Ca2+  Ca38  1  0.41474853  0.16906098  0.82599171  1
  Ca2+  Ca39  1  0.43010910  0.66725954  0.15959897  1
  Ca2+  Ca40  1  0.42566841  0.66978558  0.49842347  1
  Ca2+  Ca41  1  0.42705102  0.67515524  0.82592373  1
  Ca2+  Ca42  1  0.91846988  0.16459832  0.16037735  1
  Ca2+  Ca43  1  0.91947942  0.16704160  0.50461364  1
  Ca2+  Ca44  1  0.92159691  0.16579802  0.82117107  1
  Ca2+  Ca45  1  0.91787799  0.67392631  0.15531659  1
  Ca2+  Ca46  1  0.91762933  0.67410635  0.50097860  1
  Ca2+  Ca47  1  0.91304579  0.67828069  0.83199154  1
  Al0+  Al48  1  0.00073133  0.00161725  0.00244224  1
  Al0+  Al49  1  0.00044194  0.00234386  0.33491324  1
  Al0+  Al50  1  -0.00198743  0.00050683  0.65960923  1
  Al0+  Al51  1  -0.00045001  0.50050307  0.00820808  1
  Al0+  Al52  1  0.00031167  0.50074170  0.33782552  1
  Al0+  Al53  1  -0.00112269  0.50082180  0.66830623  1
  Al0+  Al54  1  0.50112145  0.00120167  0.01023771  1
  Al0+  Al55  1  0.50097672  0.00026018  0.33780375  1
  Al0+  Al56  1  0.49912321  -0.00250309  0.66443926  1
  Al0+  Al57  1  0.49829080  0.49915451  -0.01054857  1
  Al0+  Al58  1  0.50150498  0.50029310  0.32383393  1
  Al0+  Al59  1  0.49899237  0.50021537  0.66101589  1
  Al0+  Al60  1  0.24778689  0.24940966  0.00449035  1
  Al0+  Al61  1  0.24769255  0.24888289  0.33234023  1
  Al0+  Al62  1  0.24782494  0.24715357  0.66747094  1
  Al0+  Al63  1  0.25087056  0.74639232  0.00159116  1
  Al0+  Al64  1  0.24961249  0.74870474  0.33758026  1
  Al0+  Al65  1  0.24893194  0.74670869  0.66584958  1
  Al0+  Al66  1  0.74936734  0.25233636  0.00583566  1
  Al0+  Al67  1  0.75103162  0.25199446  0.33063875  1
  Al0+  Al68  1  0.74950737  0.25108408  0.66423078  1
  Al0+  Al69  1  0.75305336  0.75001417  -0.00182859  1
  Al0+  Al70  1  0.75187215  0.75254100  0.33550819  1
  Al0+  Al71  1  0.75203927  0.74935001  0.65809997  1
  Al0+  Al72  1  0.18041042  0.42953762  0.68150190  1
  Al0+  Al73  1  0.93264959  0.82113685  0.98684304  1
  Al0+  Al74  1  0.81866441  0.57002114  0.01248229  1
  Al0+  Al75  1  0.17895812  0.92794026  0.34828804  1
  Al0+  Al76  1  0.92827468  0.32369619  0.65346200  1
  Al0+  Al77  1  0.32076108  0.06788448  0.67982155  1
  Al0+  Al78  1  0.57101958  0.68231085  0.31679636  1
  Al0+  Al79  1  0.18036043  0.43043035  0.01417279  1
  Al0+  Al80  1  0.57189651  0.67950824  0.65060847  1
  Al0+  Al81  1  0.42707377  0.31762638  0.98453650  1
  Al0+  Al82  1  0.82285392  0.07451697  0.01452197  1
  Al0+  Al83  1  0.42700645  0.31899683  0.65207529  1
  Al0+  Al84  1  0.93122241  0.82109946  0.65176714  1
  Al0+  Al85  1  0.42936949  0.31764980  0.31806315  1
  Al0+  Al86  1  0.68053267  0.92951483  0.35034834  1
  Al0+  Al87  1  0.17961657  0.92681836  0.01136379  1
  Al0+  Al88  1  0.81958885  0.07155976  0.67907812  1
  Al0+  Al89  1  0.32217084  0.07161264  0.01582716  1
  Al0+  Al90  1  0.07056424  0.17890328  0.65152166  1
  Al0+  Al91  1  0.42630787  0.82178872  0.65308957  1
  Al0+  Al92  1  0.57143195  0.68169849  0.98520418  1
  Al0+  Al93  1  0.68012055  0.92835112  0.01246760  1
  Al0+  Al94  1  0.57251924  0.17688779  0.65395473  1
  Al0+  Al95  1  0.18002281  0.42899417  0.35022065  1
  Si0+  Si96  1  0.32501939  0.57176425  0.01625270  1
  Si0+  Si97  1  0.06791478  0.18077918  0.98609822  1
  Si0+  Si98  1  0.67914953  0.92600342  0.68239843  1
  Si0+  Si99  1  0.67465112  0.42861550  0.01619219  1
  Si0+  Si100  1  0.42595860  0.82354658  0.31638436  1
  Si0+  Si101  1  0.07114801  0.67706717  0.31881880  1
  Si0+  Si102  1  0.92771695  0.32391812  0.98804066  1
  Si0+  Si103  1  0.32417046  0.57256573  0.68461680  1
  Si0+  Si104  1  0.57532918  0.17637742  0.31462897  1
  Si0+  Si105  1  0.57404075  0.17676917  0.98589803  1
  Si0+  Si106  1  0.06879524  0.18016588  0.31519173  1
  Si0+  Si107  1  0.92807849  0.32418625  0.31612678  1
  Si0+  Si108  1  0.07351400  0.67450357  0.98454087  1
  Si0+  Si109  1  0.82055312  0.57115269  0.35021737  1
  Si0+  Si110  1  0.32493761  0.57078874  0.34966564  1
  Si0+  Si111  1  0.67691880  0.42952307  0.68040483  1
  Si0+  Si112  1  0.82006416  0.57184046  0.68149597  1
  Si0+  Si113  1  0.82195403  0.07486287  0.35158979  1
  Si0+  Si114  1  0.32073216  0.07134650  0.35104076  1
  Si0+  Si115  1  0.93226214  0.82121157  0.31683183  1
  Si0+  Si116  1  0.07162299  0.67574480  0.65031655  1
  Si0+  Si117  1  0.17593746  0.92510232  0.68198050  1
  Si0+  Si118  1  0.42560817  0.82433205  0.98629574  1
  Si0+  Si119  1  0.67866851  0.42937846  0.34738852  1
  O2-  O120  1  0.25555258  -0.00689871  0.06361864  1
  O2-  O121  1  0.25803426  -0.00296477  0.39499934  1
  O2-  O122  1  0.24827557  -0.01018811  0.72537051  1
  O2-  O123  1  0.25564525  0.50412180  0.06162869  1
  O2-  O124  1  0.25677307  0.50210310  0.39543193  1
  O2-  O125  1  0.25711834  0.50195224  0.72876939  1
  O2-  O126  1  0.74938704  0.00341154  0.06316630  1
  O2-  O127  1  0.75042322  0.00936777  0.39554223  1
  O2-  O128  1  0.74398239  -0.00163852  0.72620056  1
  O2-  O129  1  0.74213758  0.49836164  0.06167383  1
  O2-  O130  1  0.74954123  0.49992175  0.39173617  1
  O2-  O131  1  0.74786827  0.50138627  0.72242523  1
  O2-  O132  1  -0.00201400  0.25242460  0.27351387  1
  O2-  O133  1  -0.00079802  0.25218740  0.60123151  1
  O2-  O134  1  -0.00643303  0.24920117  0.94551458  1
  O2-  O135  1  0.00565339  0.75231710  0.27489548  1
  O2-  O136  1  0.00968385  0.75001443  0.60471184  1
  O2-  O137  1  0.01129699  0.74928230  0.94083292  1
  O2-  O138  1  0.50389081  0.24254390  0.27067176  1
  O2-  O139  1  0.49945747  0.24727365  0.60238828  1
  O2-  O140  1  0.50282109  0.24249630  0.94117278  1
  O2-  O141  1  0.49634978  0.75736826  0.27029068  1
  O2-  O142  1  0.49901159  0.75099840  0.60184102  1
  O2-  O143  1  0.49691495  0.75803798  0.94193246  1
  O2-  O144  1  0.06774446  0.18213592  0.09187870  1
  O2-  O145  1  0.06853534  0.17981977  0.41980852  1
  O2-  O146  1  0.07005249  0.17969659  0.76543386  1
  O2-  O147  1  0.06952570  0.67171109  0.09055014  1
  O2-  O148  1  0.06631728  0.67441209  0.42364308  1
  O2-  O149  1  0.06779323  0.67225537  0.75562090  1
  O2-  O150  1  0.57561591  0.18096386  0.09163066  1
  O2-  O151  1  0.57902981  0.17966296  0.41984585  1
  O2-  O152  1  0.57435218  0.18024720  0.76763488  1
  O2-  O153  1  0.57148062  0.68283323  0.09861113  1
  O2-  O154  1  0.57011664  0.68169550  0.42934948  1
  O2-  O155  1  0.57390539  0.68126057  0.76420135  1
  O2-  O156  1  0.17843643  0.43058412  0.23696507  1
  O2-  O157  1  0.18065846  0.43161246  0.56817526  1
  O2-  O158  1  0.17791331  0.42976116  0.90146744  1
  O2-  O159  1  0.17703854  0.93022313  0.23531211  1
  O2-  O160  1  0.17685876  0.92751213  0.57592347  1
  O2-  O161  1  0.17718426  0.93156024  0.89824619  1
  O2-  O162  1  0.68143516  0.42930055  0.24240789  1
  O2-  O163  1  0.67831311  0.43072020  0.57480571  1
  O2-  O164  1  0.67798056  0.42692832  0.91067447  1
  O2-  O165  1  0.68560101  0.92705562  0.23742192  1
  O2-  O166  1  0.68270846  0.92543710  0.57647872  1
  O2-  O167  1  0.68211827  0.92767642  0.89909118  1
  O2-  O168  1  0.42743695  0.31781816  0.09820895  1
  O2-  O169  1  0.43020375  0.31661878  0.43074072  1
  O2-  O170  1  0.42788697  0.31717560  0.76554118  1
  O2-  O171  1  0.42268255  0.82009194  0.09194660  1
  O2-  O172  1  0.42548387  0.82045396  0.42165932  1
  O2-  O173  1  0.42761012  0.82085814  0.76693074  1
  O2-  O174  1  0.93056560  0.32556048  0.09362422  1
  O2-  O175  1  0.92607984  0.32533686  0.42063222  1
  O2-  O176  1  0.92976795  0.32558133  0.76738896  1
  O2-  O177  1  0.93255875  0.81835697  0.10056455  1
  O2-  O178  1  0.93246727  0.81931198  0.42198939  1
  O2-  O179  1  0.92919707  0.82011066  0.76474208  1
  O2-  O180  1  0.31710558  0.07203171  0.24544253  1
  O2-  O181  1  0.31708095  0.06852360  0.56649756  1
  O2-  O182  1  0.31987481  0.07356989  0.90240294  1
  O2-  O183  1  0.32211264  0.57073612  0.24393936  1
  O2-  O184  1  0.32203940  0.57346177  0.57880785  1
  O2-  O185  1  0.32334571  0.57251831  0.91102971  1
  O2-  O186  1  0.82329716  0.07397781  0.24601897  1
  O2-  O187  1  0.81903107  0.06866121  0.56564191  1
  O2-  O188  1  0.82372413  0.07479324  0.90108930  1
  O2-  O189  1  0.82159665  0.57073253  0.24506298  1
  O2-  O190  1  0.82108828  0.57123787  0.57591063  1
  O2-  O191  1  0.81977990  0.56829417  0.89949145  1
  O2-  O192  1  0.03857136  0.08878969  0.26717936  1
  O2-  O193  1  0.04102187  0.08284739  0.59444722  1
  O2-  O194  1  0.04336103  0.08890140  0.93867397  1
  O2-  O195  1  0.03816769  0.58685220  0.27016307  1
  O2-  O196  1  0.03779332  0.58625285  0.60063080  1
  O2-  O197  1  0.03912489  0.58350547  0.93805180  1
  O2-  O198  1  0.55175496  0.08066392  0.27203355  1
  O2-  O199  1  0.54728446  0.07827900  0.60099005  1
  O2-  O200  1  0.55322729  0.08066948  0.94384869  1
  O2-  O201  1  0.54369007  0.58536866  0.26100293  1
  O2-  O202  1  0.54359619  0.58150940  0.59634401  1
  O2-  O203  1  0.54253515  0.58508742  0.93022284  1
  O2-  O204  1  0.15982879  0.20852971  0.26707717  1
  O2-  O205  1  0.16693674  0.20868308  0.59617896  1
  O2-  O206  1  0.15851440  0.21238881  0.93983751  1
  O2-  O207  1  0.16597352  0.69787792  0.27442631  1
  O2-  O208  1  0.16736644  0.69221041  0.60549355  1
  O2-  O209  1  0.17002749  0.69002520  0.94112874  1
  O2-  O210  1  0.66834787  0.20430702  0.26760615  1
  O2-  O211  1  0.66832405  0.20854320  0.59738551  1
  O2-  O212  1  0.66744886  0.20595686  0.94035361  1
  O2-  O213  1  0.67002143  0.71392661  0.26655181  1
  O2-  O214  1  0.66942589  0.70607439  0.59501741  1
  O2-  O215  1  0.66850444  0.71079121  0.93202428  1
  O2-  O216  1  0.08527912  0.46199456  0.07180876  1
  O2-  O217  1  0.08336879  0.46173517  0.40333643  1
  O2-  O218  1  0.08354991  0.46339408  0.73427025  1
  O2-  O219  1  0.08470128  0.96217391  0.06810916  1
  O2-  O220  1  0.08331236  0.96406146  0.40150438  1
  O2-  O221  1  0.08255349  0.95521366  0.72465718  1
  O2-  O222  1  0.57993549  0.45439006  0.05919254  1
  O2-  O223  1  0.58654059  0.45844056  0.39268038  1
  O2-  O224  1  0.58492032  0.45726241  0.72745756  1
  O2-  O225  1  0.58251700  0.95092327  0.07067864  1
  O2-  O226  1  0.58139311  0.95379054  0.40268193  1
  O2-  O227  1  0.58330398  0.94467016  0.72505190  1
  O2-  O228  1  0.21031764  0.33492810  0.07027824  1
  O2-  O229  1  0.20881032  0.33073831  0.40087841  1
  O2-  O230  1  0.20793223  0.33198233  0.73405878  1
  O2-  O231  1  0.19909618  0.82526437  0.06340164  1
  O2-  O232  1  0.20102245  0.82858342  0.40152421  1
  O2-  O233  1  0.19324608  0.82845424  0.72485051  1
  O2-  O234  1  0.70075186  0.33718960  0.06654408  1
  O2-  O235  1  0.70684615  0.33729228  0.39459157  1
  O2-  O236  1  0.70538913  0.33882690  0.72874891  1
  O2-  O237  1  0.71608800  0.83274992  0.06717971  1
  O2-  O238  1  0.71718310  0.83497967  0.40503750  1
  O2-  O239  1  0.71122874  0.83302507  0.72588881  1
  O2-  O240  1  0.46040815  0.41372903  0.26263839  1
  O2-  O241  1  0.45346173  0.41760593  0.59915327  1
  O2-  O242  1  0.45521468  0.41383350  0.92895521  1
  O2-  O243  1  0.44877700  0.91943567  0.27390459  1
  O2-  O244  1  0.45228431  0.91880602  0.59710553  1
  O2-  O245  1  0.44900621  0.92054838  0.94542908  1
  O2-  O246  1  0.95782109  0.41658342  0.27007624  1
  O2-  O247  1  0.95601449  0.42210733  0.59930293  1
  O2-  O248  1  0.95946107  0.41469993  0.94130446  1
  O2-  O249  1  0.95799862  0.91473117  0.27193968  1
  O2-  O250  1  0.95885057  0.91588627  0.59319632  1
  O2-  O251  1  0.96165564  0.91888358  0.93390645  1
  O2-  O252  1  0.33165117  0.28629984  0.26530342  1
  O2-  O253  1  0.32998656  0.28757896  0.59911004  1
  O2-  O254  1  0.32941468  0.28556335  0.93399108  1
  O2-  O255  1  0.33159622  0.79633291  0.27151027  1
  O2-  O256  1  0.32741806  0.79279884  0.59963364  1
  O2-  O257  1  0.33311202  0.79663041  0.93843399  1
  O2-  O258  1  0.83592996  0.29881822  0.26712699  1
  O2-  O259  1  0.83048473  0.29709854  0.59871350  1
  O2-  O260  1  0.83269857  0.30364064  0.94393533  1
  O2-  O261  1  0.84153100  0.78900144  0.27083508  1
  O2-  O262  1  0.83853086  0.78508622  0.59336507  1
  O2-  O263  1  0.83897134  0.78565475  0.93145581  1
  O2-  O264  1  0.42106850  0.05257118  0.07167593  1
  O2-  O265  1  0.41730975  0.05514787  0.39407544  1
  O2-  O266  1  0.41861913  0.04049966  0.73376148  1
  O2-  O267  1  0.41878441  0.54397863  0.06095061  1
  O2-  O268  1  0.41974650  0.54489438  0.39238602  1
  O2-  O269  1  0.41922248  0.54953398  0.72848857  1
  O2-  O270  1  0.91941117  0.04377220  0.06967964  1
  O2-  O271  1  0.91465051  0.04579389  0.39702923  1
  O2-  O272  1  0.91723326  0.03922732  0.73012772  1
  O2-  O273  1  0.91267869  0.53773692  0.07181490  1
  O2-  O274  1  0.91162328  0.54275087  0.39864962  1
  O2-  O275  1  0.91087621  0.54448359  0.73045759  1
  O2-  O276  1  0.28296605  0.16512947  0.07195664  1
  O2-  O277  1  0.28646797  0.16211372  0.39705772  1
  O2-  O278  1  0.28612374  0.16275336  0.73466918  1
  O2-  O279  1  0.30239384  0.66503728  0.06483440  1
  O2-  O280  1  0.29980804  0.66409764  0.39674672  1
  O2-  O281  1  0.29661964  0.66524875  0.73234559  1
  O2-  O282  1  0.79809576  0.17351937  0.06977252  1
  O2-  O283  1  0.80085410  0.17125757  0.39432760  1
  O2-  O284  1  0.79318541  0.17012919  0.73170067  1
  O2-  O285  1  0.79015858  0.66606294  0.06834396  1
  O2-  O286  1  0.79336378  0.66294398  0.39743835  1
  O2-  O287  1  0.79188009  0.66430340  0.72717229  1
