# generated using pymatgen
data_Ca2Al2SiO7
_symmetry_space_group_name_H-M   'P 1'
_cell_length_a   15.45888008
_cell_length_b   15.45915763
_cell_length_c   15.28454526
_cell_angle_alpha   89.99165568
_cell_angle_beta   90.00329779
_cell_angle_gamma   90.00733675
_symmetry_Int_Tables_number   1
_chemical_formula_structural   Ca2Al2SiO7
_chemical_formula_sum   'Ca48 Al48 Si24 O168'
_cell_volume   3652.71987050
_cell_formula_units_Z   24
loop_
 _symmetry_equiv_pos_site_id
 _symmetry_equiv_pos_as_xyz
  1  'x, y, z'
loop_
 _atom_type_symbol
 _atom_type_oxidation_number
  Ca2+  2.0
  Al0+  0.0
  Si0+  0.0
  O2-  -2.0
loop_
 _atom_site_type_symbol
 _atom_site_label
 _atom_site_symmetry_multiplicity
 _atom_site_fract_x
 _atom_site_fract_y
 _atom_site_fract_z
 _atom_site_occupancy
  Ca2+  Ca0  1  0.17072540  0.07845091  0.17576343  1
  Ca2+  Ca1  1  0.17613743  0.07750507  0.50419538  1
  Ca2+  Ca2  1  0.17054363  0.08964713  0.83355305  1
  Ca2+  Ca3  1  0.17101665  0.59024605  0.17268044  1
  Ca2+  Ca4  1  0.17424175  0.58064130  0.50372942  1
  Ca2+  Ca5  1  0.16303899  0.57955934  0.83753037  1
  Ca2+  Ca6  1  0.66768553  0.07497480  0.17628469  1
  Ca2+  Ca7  1  0.67380743  0.08067379  0.49977594  1
  Ca2+  Ca8  1  0.67092974  0.07840863  0.84160993  1
  Ca2+  Ca9  1  0.66603490  0.57240624  0.17864238  1
  Ca2+  Ca10  1  0.67301646  0.59394968  0.50009898  1
  Ca2+  Ca11  1  0.66922794  0.58350077  0.83676936  1
  Ca2+  Ca12  1  0.07991282  0.32556258  0.16027075  1
  Ca2+  Ca13  1  0.08632147  0.32950397  0.50051988  1
  Ca2+  Ca14  1  0.08607759  0.32409015  0.82455731  1
  Ca2+  Ca15  1  0.07023303  0.83506220  0.16326496  1
  Ca2+  Ca16  1  0.07594682  0.83856618  0.49111703  1
  Ca2+  Ca17  1  0.07666335  0.82841057  0.83420585  1
  Ca2+  Ca18  1  0.59345210  0.32306545  0.16516801  1
  Ca2+  Ca19  1  0.58865848  0.32602735  0.49037384  1
  Ca2+  Ca20  1  0.58751949  0.32997255  0.83535819  1
  Ca2+  Ca21  1  0.58481746  0.83533350  0.16785714  1
  Ca2+  Ca22  1  0.57686079  0.82727191  0.49156035  1
  Ca2+  Ca23  1  0.58147592  0.83143000  0.82519785  1
  Ca2+  Ca24  1  0.33077298  0.42469143  0.17370454  1
  Ca2+  Ca25  1  0.33204856  0.42357020  0.50133039  1
  Ca2+  Ca26  1  0.32726796  0.41544686  0.83276975  1
  Ca2+  Ca27  1  0.32386686  0.91820022  0.18083116  1
  Ca2+  Ca28  1  0.34052084  0.92216101  0.50007402  1
  Ca2+  Ca29  1  0.33892583  0.92132085  0.83298573  1
  Ca2+  Ca30  1  0.82404437  0.42207623  0.17434305  1
  Ca2+  Ca31  1  0.82678521  0.42838499  0.50091461  1
  Ca2+  Ca32  1  0.82918154  0.42481945  0.83682337  1
  Ca2+  Ca33  1  0.82669581  0.91605455  0.17500546  1
  Ca2+  Ca34  1  0.83051339  0.92218150  0.49826481  1
  Ca2+  Ca35  1  0.82923093  0.91953514  0.83829877  1
  Ca2+  Ca36  1  0.43042518  0.15692088  0.16892668  1
  Ca2+  Ca37  1  0.41795715  0.16463717  0.49235264  1
  Ca2+  Ca38  1  0.42365405  0.16354459  0.82871014  1
  Ca2+  Ca39  1  0.41808393  0.66982338  0.17021960  1
  Ca2+  Ca40  1  0.42521086  0.67332736  0.48972032  1
  Ca2+  Ca41  1  0.42688033  0.67652315  0.82082784  1
  Ca2+  Ca42  1  0.91968413  0.16330675  0.16245592  1
  Ca2+  Ca43  1  0.91915742  0.15770459  0.49530502  1
  Ca2+  Ca44  1  0.92785808  0.16252892  0.82585881  1
  Ca2+  Ca45  1  0.91210203  0.67860637  0.16559751  1
  Ca2+  Ca46  1  0.91357831  0.66885112  0.49122725  1
  Ca2+  Ca47  1  0.91258617  0.67168733  0.83090370  1
  Al0+  Al48  1  0.00183917  -0.00024622  -0.00986385  1
  Al0+  Al49  1  0.00101773  -0.00130703  0.33409839  1
  Al0+  Al50  1  0.00170864  -0.00029496  0.66691353  1
  Al0+  Al51  1  0.00085967  0.49955912  -0.00039831  1
  Al0+  Al52  1  -0.00139146  0.49734032  0.33445426  1
  Al0+  Al53  1  -0.00174741  0.49877965  0.67519608  1
  Al0+  Al54  1  0.50112748  0.00138751  -0.00114184  1
  Al0+  Al55  1  0.49952761  -0.00021356  0.33252600  1
  Al0+  Al56  1  0.49947021  0.00068478  0.66735886  1
  Al0+  Al57  1  0.49862672  0.49975123  0.00261998  1
  Al0+  Al58  1  0.49720304  0.49786108  0.33746280  1
  Al0+  Al59  1  0.50048055  0.49902457  0.66407646  1
  Al0+  Al60  1  0.25135141  0.25211954  -0.00134020  1
  Al0+  Al61  1  0.24991604  0.24938358  0.33391105  1
  Al0+  Al62  1  0.25045783  0.24842176  0.66939371  1
  Al0+  Al63  1  0.24948980  0.75138265  -0.00496491  1
  Al0+  Al64  1  0.24948225  0.74852948  0.33960867  1
  Al0+  Al65  1  0.24879225  0.75145951  0.66441598  1
  Al0+  Al66  1  0.75069548  0.25076005  -0.00259569  1
  Al0+  Al67  1  0.75202134  0.25079373  0.33581704  1
  Al0+  Al68  1  0.75265747  0.25109436  0.67173104  1
  Al0+  Al69  1  0.74880237  0.75155653  -0.00090911  1
  Al0+  Al70  1  0.74948235  0.74945286  0.33117086  1
  Al0+  Al71  1  0.75060008  0.75011379  0.66812161  1
  Al0+  Al72  1  0.81911425  0.57200637  0.68236928  1
  Al0+  Al73  1  0.32087185  0.06918000  0.68239572  1
  Al0+  Al74  1  0.57075560  0.67773061  0.31600555  1
  Al0+  Al75  1  0.67866769  0.42955770  0.01427633  1
  Al0+  Al76  1  0.67739836  0.92745425  0.34854261  1
  Al0+  Al77  1  0.82274212  0.07169663  0.68199624  1
  Al0+  Al78  1  0.92921314  0.82126461  0.32118978  1
  Al0+  Al79  1  0.07212826  0.18047434  0.98569243  1
  Al0+  Al80  1  0.57234955  0.17993492  0.32164505  1
  Al0+  Al81  1  0.82197757  0.07118142  0.34563924  1
  Al0+  Al82  1  0.82040993  0.57141321  0.34636879  1
  Al0+  Al83  1  0.57092682  0.17914471  0.98584485  1
  Al0+  Al84  1  0.67847715  0.92975871  0.01376620  1
  Al0+  Al85  1  0.42770390  0.82121511  0.31658841  1
  Al0+  Al86  1  0.07108661  0.17944034  0.64960373  1
  Al0+  Al87  1  0.57236736  0.67837198  0.65129660  1
  Al0+  Al88  1  0.67773379  0.42784354  0.34882038  1
  Al0+  Al89  1  0.18087821  0.43055727  0.68053447  1
  Al0+  Al90  1  0.07234871  0.67897858  0.98540569  1
  Al0+  Al91  1  0.17797982  0.92783370  0.34751087  1
  Al0+  Al92  1  0.92622274  0.82037229  0.98266414  1
  Al0+  Al93  1  0.32003899  0.57084833  0.34729120  1
  Al0+  Al94  1  0.32133056  0.07108834  0.34693264  1
  Al0+  Al95  1  0.42799170  0.82325019  0.65040099  1
  Si0+  Si96  1  0.93041113  0.81996673  0.65069605  1
  Si0+  Si97  1  0.07124931  0.67464949  0.32037508  1
  Si0+  Si98  1  0.07125024  0.17942740  0.31886689  1
  Si0+  Si99  1  0.18013552  0.92924291  0.01296653  1
  Si0+  Si100  1  0.92813465  0.32290101  0.64894689  1
  Si0+  Si101  1  0.32099971  0.07240366  0.01475788  1
  Si0+  Si102  1  0.56879553  0.67704725  0.98633034  1
  Si0+  Si103  1  0.06976717  0.67583377  0.65200429  1
  Si0+  Si104  1  0.42848882  0.32429627  0.98257155  1
  Si0+  Si105  1  0.57334107  0.18058799  0.65297120  1
  Si0+  Si106  1  0.42516998  0.32129412  0.31640680  1
  Si0+  Si107  1  0.42866347  0.31957030  0.65234617  1
  Si0+  Si108  1  0.67961627  0.93062464  0.68287865  1
  Si0+  Si109  1  0.92974107  0.32194692  0.31801921  1
  Si0+  Si110  1  0.67603578  0.42654898  0.68491900  1
  Si0+  Si111  1  0.92775094  0.32260631  0.98190710  1
  Si0+  Si112  1  0.82259158  0.57258017  0.01760313  1
  Si0+  Si113  1  0.17891992  0.42817880  0.01556080  1
  Si0+  Si114  1  0.42845812  0.82145667  0.98521977  1
  Si0+  Si115  1  0.32285223  0.57329525  0.68415101  1
  Si0+  Si116  1  0.17648255  0.42625563  0.34870408  1
  Si0+  Si117  1  0.17622645  0.92632270  0.68684878  1
  Si0+  Si118  1  0.31913595  0.57251865  0.01319737  1
  Si0+  Si119  1  0.82446555  0.07090346  0.01408767  1
  O2-  O120  1  0.24912693  0.00199609  0.05557579  1
  O2-  O121  1  0.25288124  -0.00351883  0.39760190  1
  O2-  O122  1  0.24809595  -0.00724496  0.73026484  1
  O2-  O123  1  0.24560780  0.50357369  0.05628822  1
  O2-  O124  1  0.24386932  0.49626118  0.39182230  1
  O2-  O125  1  0.25295954  0.50683642  0.73040359  1
  O2-  O126  1  0.75535068  0.00344149  0.05838696  1
  O2-  O127  1  0.74912668  0.00084235  0.39684674  1
  O2-  O128  1  0.74628588  -0.00000981  0.72950757  1
  O2-  O129  1  0.75326449  0.50421753  0.06059298  1
  O2-  O130  1  0.74391112  0.50513764  0.39825047  1
  O2-  O131  1  0.74158705  0.49914016  0.72769359  1
  O2-  O132  1  -0.00033277  0.24937735  0.27592157  1
  O2-  O133  1  -0.00624514  0.25182786  0.60308274  1
  O2-  O134  1  -0.00322007  0.25413967  0.93791874  1
  O2-  O135  1  0.00310545  0.74378575  0.27664225  1
  O2-  O136  1  0.00099984  0.74799323  0.60900589  1
  O2-  O137  1  -0.00382224  0.74515683  0.93335178  1
  O2-  O138  1  0.49614799  0.25411490  0.27393657  1
  O2-  O139  1  0.50417419  0.25340670  0.61110872  1
  O2-  O140  1  0.49709382  0.25516508  0.93879863  1
  O2-  O141  1  0.50073129  0.75130179  0.26418375  1
  O2-  O142  1  0.49678222  0.74725706  0.60306624  1
  O2-  O143  1  0.50126347  0.75157266  0.94402741  1
  O2-  O144  1  0.07276783  0.18183567  0.09917437  1
  O2-  O145  1  0.07246406  0.18182282  0.42367868  1
  O2-  O146  1  0.07120779  0.18259740  0.76309031  1
  O2-  O147  1  0.07676992  0.68320629  0.09859186  1
  O2-  O148  1  0.06882607  0.67152491  0.42616808  1
  O2-  O149  1  0.06878952  0.67721043  0.75722192  1
  O2-  O150  1  0.56963207  0.17830617  0.09849394  1
  O2-  O151  1  0.57244152  0.18260242  0.43514696  1
  O2-  O152  1  0.57162769  0.18133904  0.75850651  1
  O2-  O153  1  0.56582128  0.67371236  0.09058840  1
  O2-  O154  1  0.56896100  0.67879491  0.42931036  1
  O2-  O155  1  0.57141166  0.67989387  0.76631752  1
  O2-  O156  1  0.17696993  0.42459104  0.24270216  1
  O2-  O157  1  0.18323888  0.43225447  0.56748152  1
  O2-  O158  1  0.18168433  0.42587619  0.91060584  1
  O2-  O159  1  0.17568348  0.93211039  0.23293695  1
  O2-  O160  1  0.17215330  0.92818761  0.58183849  1
  O2-  O161  1  0.18290262  0.92781072  0.90794471  1
  O2-  O162  1  0.68272950  0.42617603  0.23495615  1
  O2-  O163  1  0.67774793  0.42156981  0.58016615  1
  O2-  O164  1  0.67868476  0.43307677  0.90086652  1
  O2-  O165  1  0.67989471  0.93014081  0.23448818  1
  O2-  O166  1  0.68064850  0.93129828  0.57789092  1
  O2-  O167  1  0.67653730  0.93145879  0.90022835  1
  O2-  O168  1  0.42494890  0.32646173  0.08749253  1
  O2-  O169  1  0.42130620  0.31915773  0.42215870  1
  O2-  O170  1  0.42832064  0.31897578  0.75787203  1
  O2-  O171  1  0.42410895  0.82019967  0.08953132  1
  O2-  O172  1  0.42808543  0.81873114  0.42967577  1
  O2-  O173  1  0.43175824  0.82265702  0.76543955  1
  O2-  O174  1  0.92973062  0.32256785  0.08778041  1
  O2-  O175  1  0.93248778  0.32515066  0.42269263  1
  O2-  O176  1  0.93044260  0.32271419  0.75483848  1
  O2-  O177  1  0.92814496  0.82211420  0.09595807  1
  O2-  O178  1  0.93189746  0.82191692  0.43456631  1
  O2-  O179  1  0.93069555  0.81886680  0.75595462  1
  O2-  O180  1  0.31672166  0.07319900  0.23263694  1
  O2-  O181  1  0.32041638  0.07138263  0.57015231  1
  O2-  O182  1  0.32124861  0.07141911  0.90941580  1
  O2-  O183  1  0.31709455  0.56971198  0.23322369  1
  O2-  O184  1  0.32144158  0.57044045  0.57898384  1
  O2-  O185  1  0.31956245  0.57036357  0.90813331  1
  O2-  O186  1  0.82355916  0.07155943  0.23169461  1
  O2-  O187  1  0.82140521  0.06975868  0.56945078  1
  O2-  O188  1  0.82293622  0.06942233  0.90822697  1
  O2-  O189  1  0.82407755  0.56689810  0.23278134  1
  O2-  O190  1  0.82184789  0.57136712  0.56997347  1
  O2-  O191  1  0.82108012  0.57129345  0.91157948  1
  O2-  O192  1  0.04390857  0.08807370  0.27105383  1
  O2-  O193  1  0.04238280  0.08124120  0.59853405  1
  O2-  O194  1  0.04558924  0.08462456  0.92863826  1
  O2-  O195  1  0.04763196  0.58070496  0.27252659  1
  O2-  O196  1  0.04109876  0.58344404  0.60731210  1
  O2-  O197  1  0.05086470  0.57706951  0.93562587  1
  O2-  O198  1  0.54115824  0.08442298  0.26584355  1
  O2-  O199  1  0.54409363  0.08915293  0.60748821  1
  O2-  O200  1  0.53695295  0.08436568  0.92907028  1
  O2-  O201  1  0.53776557  0.57788999  0.26679197  1
  O2-  O202  1  0.54894812  0.57759178  0.60112568  1
  O2-  O203  1  0.53728620  0.58703143  0.93678013  1
  O2-  O204  1  0.16204263  0.20930276  0.26971658  1
  O2-  O205  1  0.16751686  0.21433980  0.59815489  1
  O2-  O206  1  0.16842793  0.21449025  0.93196329  1
  O2-  O207  1  0.16546984  0.69909190  0.27626886  1
  O2-  O208  1  0.16329496  0.69990746  0.60626189  1
  O2-  O209  1  0.16859810  0.71060804  0.92776684  1
  O2-  O210  1  0.66881000  0.21223996  0.26722769  1
  O2-  O211  1  0.66638299  0.20763143  0.60802156  1
  O2-  O212  1  0.66776810  0.20913432  0.93106616  1
  O2-  O213  1  0.67020020  0.70152023  0.26354506  1
  O2-  O214  1  0.67037413  0.70989939  0.60034521  1
  O2-  O215  1  0.66177579  0.70202652  0.94013251  1
  O2-  O216  1  0.08514091  0.44949405  0.06216386  1
  O2-  O217  1  0.08326288  0.44942526  0.39558273  1
  O2-  O218  1  0.08468004  0.45778285  0.73723742  1
  O2-  O219  1  0.08680837  0.95667414  0.05715532  1
  O2-  O220  1  0.08289402  0.96147700  0.40285791  1
  O2-  O221  1  0.08471474  0.95573963  0.73501236  1
  O2-  O222  1  0.58097655  0.45810594  0.06725206  1
  O2-  O223  1  0.57628097  0.44474003  0.39824944  1
  O2-  O224  1  0.58044768  0.44790966  0.72976405  1
  O2-  O225  1  0.58197509  0.96215010  0.06706580  1
  O2-  O226  1  0.57929657  0.95542946  0.40031027  1
  O2-  O227  1  0.58580774  0.95563554  0.72913931  1
  O2-  O228  1  0.21131233  0.33855719  0.06516393  1
  O2-  O229  1  0.20431766  0.33420841  0.39617406  1
  O2-  O230  1  0.21587761  0.33563239  0.73570009  1
  O2-  O231  1  0.20993229  0.83809531  0.06036509  1
  O2-  O232  1  0.19802948  0.82844370  0.40050757  1
  O2-  O233  1  0.19863420  0.83084689  0.73165967  1
  O2-  O234  1  0.71027261  0.33182728  0.06578935  1
  O2-  O235  1  0.71415739  0.33343682  0.40395404  1
  O2-  O236  1  0.70617087  0.33555395  0.73480948  1
  O2-  O237  1  0.70544946  0.83155474  0.06608429  1
  O2-  O238  1  0.70636347  0.82954969  0.40005142  1
  O2-  O239  1  0.70746624  0.83775744  0.72973046  1
  O2-  O240  1  0.44723098  0.41567851  0.27115695  1
  O2-  O241  1  0.45025715  0.41319286  0.60557259  1
  O2-  O242  1  0.45440665  0.41732904  0.93421682  1
  O2-  O243  1  0.45134006  0.92106374  0.26431596  1
  O2-  O244  1  0.45873535  0.92139445  0.59902804  1
  O2-  O245  1  0.45632307  0.91346043  0.93802056  1
  O2-  O246  1  0.95991097  0.41147308  0.26627212  1
  O2-  O247  1  0.95808848  0.41601399  0.60444216  1
  O2-  O248  1  0.95335621  0.41652487  0.93637601  1
  O2-  O249  1  0.96344856  0.91616595  0.26469226  1
  O2-  O250  1  0.96030500  0.91126446  0.60447157  1
  O2-  O251  1  0.95889092  0.91636791  0.92693516  1
  O2-  O252  1  0.33203331  0.29518000  0.26772119  1
  O2-  O253  1  0.33911723  0.28753093  0.60434184  1
  O2-  O254  1  0.33554532  0.29743472  0.93498453  1
  O2-  O255  1  0.32773211  0.78912891  0.26643085  1
  O2-  O256  1  0.32655188  0.80116431  0.60151603  1
  O2-  O257  1  0.33856383  0.79278454  0.93427777  1
  O2-  O258  1  0.83876877  0.29426068  0.26957535  1
  O2-  O259  1  0.83271865  0.30064132  0.60567374  1
  O2-  O260  1  0.83463026  0.29898276  0.93442317  1
  O2-  O261  1  0.83398834  0.79119161  0.26491646  1
  O2-  O262  1  0.83805384  0.79306893  0.60550589  1
  O2-  O263  1  0.82742625  0.79316727  0.92821391  1
  O2-  O264  1  0.41268767  0.04365019  0.06058417  1
  O2-  O265  1  0.42027458  0.04763097  0.39912432  1
  O2-  O266  1  0.41811754  0.03973989  0.73803799  1
  O2-  O267  1  0.40899846  0.54190300  0.06222208  1
  O2-  O268  1  0.41328476  0.53691241  0.40458580  1
  O2-  O269  1  0.41623812  0.54481041  0.72994026  1
  O2-  O270  1  0.91973381  0.04595636  0.05704455  1
  O2-  O271  1  0.91918841  0.04111750  0.39943984  1
  O2-  O272  1  0.91913585  0.03845534  0.73506402  1
  O2-  O273  1  0.91705402  0.54701401  0.06176251  1
  O2-  O274  1  0.91731950  0.53759826  0.40063770  1
  O2-  O275  1  0.91340734  0.53848681  0.73996326  1
  O2-  O276  1  0.29441254  0.16518941  0.06027171  1
  O2-  O277  1  0.29038059  0.16889180  0.40023643  1
  O2-  O278  1  0.28848169  0.16475976  0.73797394  1
  O2-  O279  1  0.29200245  0.66502893  0.05959892  1
  O2-  O280  1  0.28966338  0.66444980  0.40558830  1
  O2-  O281  1  0.29869642  0.66826187  0.72827580  1
  O2-  O282  1  0.80187417  0.16649023  0.05676942  1
  O2-  O283  1  0.79757279  0.16955630  0.39998781  1
  O2-  O284  1  0.79640241  0.16951144  0.73653418  1
  O2-  O285  1  0.79764736  0.66713856  0.06025103  1
  O2-  O286  1  0.79709747  0.67049711  0.39866408  1
  O2-  O287  1  0.78938972  0.66853873  0.73811730  1
