# generated using pymatgen
data_Ca2Al2SiO7
_symmetry_space_group_name_H-M   'P 1'
_cell_length_a   15.45821997
_cell_length_b   15.45754945
_cell_length_c   15.28261233
_cell_angle_alpha   90.01195638
_cell_angle_beta   90.01097619
_cell_angle_gamma   89.98281298
_symmetry_Int_Tables_number   1
_chemical_formula_structural   Ca2Al2SiO7
_chemical_formula_sum   'Ca48 Al48 Si24 O168'
_cell_volume   3651.72182465
_cell_formula_units_Z   24
loop_
 _symmetry_equiv_pos_site_id
 _symmetry_equiv_pos_as_xyz
  1  'x, y, z'
loop_
 _atom_type_symbol
 _atom_type_oxidation_number
  Ca2+  2.0
  Al0+  0.0
  Si0+  0.0
  O2-  -2.0
loop_
 _atom_site_type_symbol
 _atom_site_label
 _atom_site_symmetry_multiplicity
 _atom_site_fract_x
 _atom_site_fract_y
 _atom_site_fract_z
 _atom_site_occupancy
  Ca2+  Ca0  1  0.16710886  0.06933220  0.17220178  1
  Ca2+  Ca1  1  0.16866862  0.07597939  0.51054067  1
  Ca2+  Ca2  1  0.16542404  0.07847976  0.83397040  1
  Ca2+  Ca3  1  0.16241392  0.58101947  0.16832578  1
  Ca2+  Ca4  1  0.16332859  0.58498700  0.50242586  1
  Ca2+  Ca5  1  0.16103409  0.57986994  0.84090294  1
  Ca2+  Ca6  1  0.66851152  0.08266650  0.17221411  1
  Ca2+  Ca7  1  0.67108963  0.08627673  0.50402199  1
  Ca2+  Ca8  1  0.66809240  0.07146265  0.83685663  1
  Ca2+  Ca9  1  0.66404883  0.58592592  0.17097167  1
  Ca2+  Ca10  1  0.66644533  0.57663658  0.50844695  1
  Ca2+  Ca11  1  0.66776224  0.57879441  0.83718340  1
  Ca2+  Ca12  1  0.07248209  0.33637454  0.15836248  1
  Ca2+  Ca13  1  0.07411090  0.32374219  0.49931078  1
  Ca2+  Ca14  1  0.07533663  0.33255976  0.82590767  1
  Ca2+  Ca15  1  0.09196576  0.82563270  0.16118982  1
  Ca2+  Ca16  1  0.08999298  0.82915682  0.49743002  1
  Ca2+  Ca17  1  0.08731763  0.82742145  0.82499938  1
  Ca2+  Ca18  1  0.57284319  0.32657715  0.16494212  1
  Ca2+  Ca19  1  0.57434880  0.33147746  0.49353731  1
  Ca2+  Ca20  1  0.57229872  0.33539401  0.82701287  1
  Ca2+  Ca21  1  0.58211404  0.82542853  0.15501789  1
  Ca2+  Ca22  1  0.58538150  0.83076167  0.49588191  1
  Ca2+  Ca23  1  0.58538248  0.83526563  0.83189471  1
  Ca2+  Ca24  1  0.33103122  0.41138235  0.16683627  1
  Ca2+  Ca25  1  0.33934951  0.41756116  0.50669424  1
  Ca2+  Ca26  1  0.32811086  0.41464062  0.84094997  1
  Ca2+  Ca27  1  0.32475767  0.90519882  0.16711899  1
  Ca2+  Ca28  1  0.32373211  0.92378846  0.50890345  1
  Ca2+  Ca29  1  0.32539463  0.92146305  0.83857185  1
  Ca2+  Ca30  1  0.83622919  0.41536147  0.17231879  1
  Ca2+  Ca31  1  0.82990321  0.41249911  0.50655811  1
  Ca2+  Ca32  1  0.83150229  0.41065162  0.83659831  1
  Ca2+  Ca33  1  0.82757217  0.92393259  0.17237086  1
  Ca2+  Ca34  1  0.82914615  0.92014188  0.50688125  1
  Ca2+  Ca35  1  0.82598003  0.90783587  0.83543534  1
  Ca2+  Ca36  1  0.41747118  0.17272602  0.16500283  1
  Ca2+  Ca37  1  0.41822819  0.17346510  0.49732589  1
  Ca2+  Ca38  1  0.40882108  0.17548544  0.82697097  1
  Ca2+  Ca39  1  0.42828300  0.67167649  0.16021219  1
  Ca2+  Ca40  1  0.42444840  0.66897617  0.49378004  1
  Ca2+  Ca41  1  0.41901777  0.67470707  0.83663050  1
  Ca2+  Ca42  1  0.91032470  0.17557945  0.16598912  1
  Ca2+  Ca43  1  0.91336885  0.17210623  0.49640095  1
  Ca2+  Ca44  1  0.92377069  0.17533480  0.82665611  1
  Ca2+  Ca45  1  0.92867042  0.66794089  0.16238690  1
  Ca2+  Ca46  1  0.92691758  0.67490423  0.50072325  1
  Ca2+  Ca47  1  0.92931626  0.67243313  0.82705262  1
  Al0+  Al48  1  -0.00055986  0.00099135  0.00658166  1
  Al0+  Al49  1  -0.00244504  -0.00022071  0.34267744  1
  Al0+  Al50  1  -0.00090365  -0.00057346  0.66536494  1
  Al0+  Al51  1  -0.00119150  0.50041646  -0.00366915  1
  Al0+  Al52  1  -0.00034839  0.50124711  0.32912331  1
  Al0+  Al53  1  -0.00030835  0.50202444  0.65866482  1
  Al0+  Al54  1  0.50050079  -0.00012137  0.00237751  1
  Al0+  Al55  1  0.49767925  -0.00004335  0.33011980  1
  Al0+  Al56  1  0.49979986  0.00154562  0.67409602  1
  Al0+  Al57  1  0.50076383  0.49931605  -0.00556889  1
  Al0+  Al58  1  0.49851739  0.50103521  0.32598189  1
  Al0+  Al59  1  0.50053655  0.50034649  0.66919450  1
  Al0+  Al60  1  0.24852375  0.24937608  0.00326784  1
  Al0+  Al61  1  0.24666330  0.24933692  0.33076826  1
  Al0+  Al62  1  0.24899382  0.25255248  0.66100774  1
  Al0+  Al63  1  0.25390745  0.74794584  -0.00360651  1
  Al0+  Al64  1  0.25073061  0.74635641  0.33516376  1
  Al0+  Al65  1  0.25393010  0.74972876  0.66567532  1
  Al0+  Al66  1  0.74868812  0.25092054  -0.00350719  1
  Al0+  Al67  1  0.74814840  0.25020797  0.33016515  1
  Al0+  Al68  1  0.74709254  0.24993371  0.67146737  1
  Al0+  Al69  1  0.75186580  0.74793205  0.00239791  1
  Al0+  Al70  1  0.75305630  0.74882572  0.33093084  1
  Al0+  Al71  1  0.75269901  0.74782536  0.66695705  1
  Al0+  Al72  1  0.17801757  0.92784185  0.68256607  1
  Al0+  Al73  1  0.68061725  0.92779211  0.67921862  1
  Al0+  Al74  1  0.07119506  0.17833545  0.65216244  1
  Al0+  Al75  1  0.07122128  0.68141898  0.31772023  1
  Al0+  Al76  1  0.18023010  0.92746837  0.01360302  1
  Al0+  Al77  1  0.92593763  0.32068290  0.65132221  1
  Al0+  Al78  1  0.42808867  0.31816880  0.98511486  1
  Al0+  Al79  1  0.57066343  0.17777363  0.31905552  1
  Al0+  Al80  1  0.57464122  0.67904596  0.98227089  1
  Al0+  Al81  1  0.57312961  0.68065739  0.32174121  1
  Al0+  Al82  1  0.43030670  0.82261764  0.98366273  1
  Al0+  Al83  1  0.81724979  0.07241026  0.34807336  1
  Al0+  Al84  1  0.92734110  0.82170262  0.65194112  1
  Al0+  Al85  1  0.42948739  0.32212640  0.65346555  1
  Al0+  Al86  1  0.92894077  0.32092601  0.98551689  1
  Al0+  Al87  1  0.07501706  0.68076945  0.65031380  1
  Al0+  Al88  1  0.17764052  0.42955835  0.01273918  1
  Al0+  Al89  1  0.07151391  0.68081534  0.98679037  1
  Al0+  Al90  1  0.93035277  0.31941854  0.31943354  1
  Al0+  Al91  1  0.67855299  0.42852079  0.68058514  1
  Al0+  Al92  1  0.42585907  0.32196099  0.31707541  1
  Al0+  Al93  1  0.31973506  0.07411488  0.68168166  1
  Al0+  Al94  1  0.18101406  0.92730817  0.34839515  1
  Al0+  Al95  1  0.67973160  0.92807885  0.01537007  1
  Si0+  Si96  1  0.67768709  0.42860453  0.01699607  1
  Si0+  Si97  1  0.57248766  0.17754514  0.98113886  1
  Si0+  Si98  1  0.32362921  0.57003636  0.01745264  1
  Si0+  Si99  1  0.07123751  0.17592231  0.98584029  1
  Si0+  Si100  1  0.32207688  0.07447494  0.35020307  1
  Si0+  Si101  1  0.17603352  0.42860038  0.34839458  1
  Si0+  Si102  1  0.57032628  0.17623134  0.65238236  1
  Si0+  Si103  1  0.32117528  0.56737010  0.34813951  1
  Si0+  Si104  1  0.67706950  0.92587947  0.34807380  1
  Si0+  Si105  1  0.92834647  0.82416067  0.31564394  1
  Si0+  Si106  1  0.32404699  0.57149796  0.68229586  1
  Si0+  Si107  1  0.07094516  0.17475238  0.31576027  1
  Si0+  Si108  1  0.82094801  0.56876879  0.01632383  1
  Si0+  Si109  1  0.42821272  0.82099346  0.31937332  1
  Si0+  Si110  1  0.17858222  0.43247827  0.67829368  1
  Si0+  Si111  1  0.67831409  0.43197692  0.34592275  1
  Si0+  Si112  1  0.32204299  0.07308377  0.01895286  1
  Si0+  Si113  1  0.57085902  0.67964929  0.65277634  1
  Si0+  Si114  1  0.82333629  0.57129341  0.34914867  1
  Si0+  Si115  1  0.43132131  0.82332665  0.65161715  1
  Si0+  Si116  1  0.82080403  0.07425751  0.01711955  1
  Si0+  Si117  1  0.82241027  0.07356133  0.68500352  1
  Si0+  Si118  1  0.82282427  0.57006792  0.68379503  1
  Si0+  Si119  1  0.92944587  0.82407392  0.98678337  1
  O2-  O120  1  0.25601912  0.00081088  0.06214862  1
  O2-  O121  1  0.25387240  0.00480061  0.39332379  1
  O2-  O122  1  0.24734398  0.00273543  0.73216070  1
  O2-  O123  1  0.25378552  0.50223201  0.06174989  1
  O2-  O124  1  0.25254502  0.49406482  0.39073130  1
  O2-  O125  1  0.24804171  0.50459685  0.72171174  1
  O2-  O126  1  0.75295834  0.00432551  0.06120245  1
  O2-  O127  1  0.74149229  -0.00248765  0.39349415  1
  O2-  O128  1  0.75739051  0.00008132  0.72738972  1
  O2-  O129  1  0.74877125  0.49910014  0.06002491  1
  O2-  O130  1  0.74898850  0.50277002  0.38988424  1
  O2-  O131  1  0.75760667  0.49819663  0.72849418  1
  O2-  O132  1  0.00447227  0.24529703  0.27071955  1
  O2-  O133  1  -0.00555113  0.24560256  0.60148034  1
  O2-  O134  1  0.00441606  0.24649351  0.94166120  1
  O2-  O135  1  0.00040264  0.75942382  0.27085578  1
  O2-  O136  1  0.00659986  0.75728096  0.60178802  1
  O2-  O137  1  0.00329111  0.76169563  0.94194644  1
  O2-  O138  1  0.49545273  0.24665741  0.26911946  1
  O2-  O139  1  0.50344374  0.24663423  0.60797927  1
  O2-  O140  1  0.50089977  0.24290506  0.93684347  1
  O2-  O141  1  0.50477008  0.76092519  0.27579774  1
  O2-  O142  1  0.50394671  0.75359515  0.60906585  1
  O2-  O143  1  0.50629137  0.75460903  0.93287499  1
  O2-  O144  1  0.06913517  0.17501817  0.09158865  1
  O2-  O145  1  0.07086531  0.17740590  0.42111076  1
  O2-  O146  1  0.07170549  0.18332403  0.76617327  1
  O2-  O147  1  0.06874039  0.67976737  0.10009036  1
  O2-  O148  1  0.07042858  0.68061192  0.43028549  1
  O2-  O149  1  0.07280294  0.67758660  0.76388512  1
  O2-  O150  1  0.57441940  0.18093591  0.08683852  1
  O2-  O151  1  0.57178264  0.18081142  0.43274916  1
  O2-  O152  1  0.56956052  0.17639999  0.75786815  1
  O2-  O153  1  0.57273718  0.67889995  0.09625675  1
  O2-  O154  1  0.57039304  0.67832387  0.43536156  1
  O2-  O155  1  0.56914121  0.67869006  0.75732829  1
  O2-  O156  1  0.17434910  0.43181592  0.24325314  1
  O2-  O157  1  0.17995008  0.43364409  0.57280785  1
  O2-  O158  1  0.17771033  0.43141948  0.89931738  1
  O2-  O159  1  0.18398113  0.92593513  0.23486129  1
  O2-  O160  1  0.18434720  0.92640533  0.56876089  1
  O2-  O161  1  0.17924893  0.92947485  0.90127620  1
  O2-  O162  1  0.67913546  0.43384614  0.24060714  1
  O2-  O163  1  0.67532523  0.43286792  0.56691585  1
  O2-  O164  1  0.67853422  0.42913638  0.91191509  1
  O2-  O165  1  0.68095265  0.92425944  0.24268483  1
  O2-  O166  1  0.67951069  0.92812830  0.56583113  1
  O2-  O167  1  0.68326591  0.92832929  0.90215481  1
  O2-  O168  1  0.43000416  0.31726607  0.09810687  1
  O2-  O169  1  0.43027057  0.32534717  0.43060210  1
  O2-  O170  1  0.42950809  0.32324849  0.76640839  1
  O2-  O171  1  0.42995250  0.81742744  0.09784521  1
  O2-  O172  1  0.42810226  0.81792317  0.42537965  1
  O2-  O173  1  0.43098918  0.82126615  0.75617099  1
  O2-  O174  1  0.92835545  0.32059264  0.09891829  1
  O2-  O175  1  0.92982117  0.31976615  0.43202829  1
  O2-  O176  1  0.92935322  0.32116125  0.76499458  1
  O2-  O177  1  0.92850179  0.82157324  0.09258080  1
  O2-  O178  1  0.92460703  0.82050933  0.42080764  1
  O2-  O179  1  0.92355203  0.81475530  0.76557350  1
  O2-  O180  1  0.32092735  0.07529234  0.24465278  1
  O2-  O181  1  0.32209135  0.07084068  0.56773199  1
  O2-  O182  1  0.31954730  0.07589938  0.91364470  1
  O2-  O183  1  0.32146303  0.56933170  0.24341932  1
  O2-  O184  1  0.32886020  0.57003115  0.57676680  1
  O2-  O185  1  0.32373289  0.56899041  0.91164283  1
  O2-  O186  1  0.81615865  0.07152159  0.23471872  1
  O2-  O187  1  0.81704384  0.07692590  0.57937750  1
  O2-  O188  1  0.82075493  0.07529773  0.91187290  1
  O2-  O189  1  0.82430597  0.57001749  0.24380386  1
  O2-  O190  1  0.81907111  0.57148148  0.57786306  1
  O2-  O191  1  0.82093193  0.56753731  0.91142436  1
  O2-  O192  1  0.04275510  0.08073106  0.27243847  1
  O2-  O193  1  0.04985823  0.07796038  0.60122549  1
  O2-  O194  1  0.04279712  0.08331539  0.93894406  1
  O2-  O195  1  0.03612144  0.58638376  0.26349540  1
  O2-  O196  1  0.04178907  0.58495435  0.59444197  1
  O2-  O197  1  0.03396233  0.58724172  0.93190282  1
  O2-  O198  1  0.54653444  0.07804851  0.26521680  1
  O2-  O199  1  0.54416470  0.08334885  0.60496242  1
  O2-  O200  1  0.55127565  0.08191301  0.93885736  1
  O2-  O201  1  0.53750303  0.58766566  0.26438406  1
  O2-  O202  1  0.53787173  0.58978059  0.60455715  1
  O2-  O203  1  0.54366526  0.58151952  0.92968697  1
  O2-  O204  1  0.16498782  0.19718614  0.26950739  1
  O2-  O205  1  0.16577968  0.21274791  0.59485267  1
  O2-  O206  1  0.16542919  0.19949098  0.94170484  1
  O2-  O207  1  0.17001416  0.70709015  0.26544337  1
  O2-  O208  1  0.17579680  0.70329641  0.59820485  1
  O2-  O209  1  0.17034894  0.70205087  0.93472397  1
  O2-  O210  1  0.66572628  0.21096702  0.26248202  1
  O2-  O211  1  0.66450884  0.20115511  0.60802791  1
  O2-  O212  1  0.66426373  0.20626849  0.93350378  1
  O2-  O213  1  0.67147537  0.70379970  0.26742657  1
  O2-  O214  1  0.66394546  0.70246765  0.60616626  1
  O2-  O215  1  0.67501697  0.70349291  0.93191109  1
  O2-  O216  1  0.08145359  0.46356465  0.06669651  1
  O2-  O217  1  0.08682347  0.46337683  0.39638923  1
  O2-  O218  1  0.08579940  0.45971584  0.72449350  1
  O2-  O219  1  0.08335753  0.95700863  0.06949045  1
  O2-  O220  1  0.08289729  0.95351943  0.40101260  1
  O2-  O221  1  0.07678001  0.94985834  0.73241024  1
  O2-  O222  1  0.58566807  0.45720676  0.06347842  1
  O2-  O223  1  0.58595872  0.46128465  0.39190748  1
  O2-  O224  1  0.58481846  0.46591790  0.73682825  1
  O2-  O225  1  0.58209048  0.95596649  0.06913529  1
  O2-  O226  1  0.58011992  0.94519383  0.39005831  1
  O2-  O227  1  0.58555917  0.95926595  0.73567564  1
  O2-  O228  1  0.20530062  0.33260368  0.06834836  1
  O2-  O229  1  0.19680458  0.33382393  0.39294786  1
  O2-  O230  1  0.20698697  0.34121721  0.72519204  1
  O2-  O231  1  0.21382817  0.82998061  0.06593487  1
  O2-  O232  1  0.21511110  0.83093473  0.40152728  1
  O2-  O233  1  0.21187667  0.82945663  0.73323602  1
  O2-  O234  1  0.70571933  0.33610623  0.06303623  1
  O2-  O235  1  0.70572706  0.34008697  0.39227851  1
  O2-  O236  1  0.70224060  0.33140392  0.73702286  1
  O2-  O237  1  0.71169863  0.83117268  0.06897217  1
  O2-  O238  1  0.70655174  0.83283338  0.39460168  1
  O2-  O239  1  0.71023422  0.83012099  0.73271600  1
  O2-  O240  1  0.45722312  0.41827589  0.26184515  1
  O2-  O241  1  0.46348897  0.41855910  0.59986430  1
  O2-  O242  1  0.45929305  0.41455537  0.93185948  1
  O2-  O243  1  0.44138099  0.91693644  0.27443335  1
  O2-  O244  1  0.45875882  0.91558657  0.60541436  1
  O2-  O245  1  0.45326281  0.92328557  0.93382037  1
  O2-  O246  1  0.96139928  0.41585346  0.26504384  1
  O2-  O247  1  0.95474908  0.41838384  0.59770362  1
  O2-  O248  1  0.95915889  0.41657559  0.93076212  1
  O2-  O249  1  0.94915441  0.92003891  0.27324845  1
  O2-  O250  1  0.94318218  0.92336886  0.60251230  1
  O2-  O251  1  0.94673279  0.92043977  0.94384309  1
  O2-  O252  1  0.32559657  0.29687356  0.26609545  1
  O2-  O253  1  0.33350379  0.29564228  0.59733779  1
  O2-  O254  1  0.32937918  0.28980515  0.93385291  1
  O2-  O255  1  0.33928165  0.78394561  0.27179475  1
  O2-  O256  1  0.34182778  0.79221377  0.60197514  1
  O2-  O257  1  0.33534282  0.78792299  0.92791680  1
  O2-  O258  1  0.83336534  0.29033531  0.26540077  1
  O2-  O259  1  0.82478142  0.29499236  0.60235299  1
  O2-  O260  1  0.83180231  0.29142448  0.93216751  1
  O2-  O261  1  0.83685011  0.79401952  0.26705932  1
  O2-  O262  1  0.83226804  0.78461393  0.59531313  1
  O2-  O263  1  0.83858371  0.79092661  0.94034920  1
  O2-  O264  1  0.41730937  0.05173944  0.06351612  1
  O2-  O265  1  0.41686473  0.05018576  0.39525952  1
  O2-  O266  1  0.41727183  0.04634034  0.73677014  1
  O2-  O267  1  0.41740579  0.54219153  0.06282294  1
  O2-  O268  1  0.41386422  0.54095638  0.39621557  1
  O2-  O269  1  0.41263574  0.53983506  0.73306936  1
  O2-  O270  1  0.91391835  0.05113344  0.06582215  1
  O2-  O271  1  0.91290439  0.04356667  0.40465481  1
  O2-  O272  1  0.91767874  0.05361049  0.72891847  1
  O2-  O273  1  0.91152808  0.53835339  0.06491726  1
  O2-  O274  1  0.91356312  0.54007613  0.39723497  1
  O2-  O275  1  0.91830087  0.54757684  0.72726792  1
  O2-  O276  1  0.29282301  0.16441505  0.06818948  1
  O2-  O277  1  0.29631785  0.16858868  0.39587894  1
  O2-  O278  1  0.29054277  0.17392607  0.73203454  1
  O2-  O279  1  0.29946318  0.66374559  0.06348463  1
  O2-  O280  1  0.29229172  0.65758643  0.39863351  1
  O2-  O281  1  0.30133930  0.66469150  0.72864500  1
  O2-  O282  1  0.79130590  0.16748207  0.06330123  1
  O2-  O283  1  0.78481668  0.16906215  0.40205535  1
  O2-  O284  1  0.79253456  0.16456221  0.73454652  1
  O2-  O285  1  0.79572536  0.66045537  0.06584361  1
  O2-  O286  1  0.79819268  0.66425613  0.39582989  1
  O2-  O287  1  0.79302093  0.66116414  0.73216020  1
