# generated using pymatgen
data_Ca2Al2SiO7
_symmetry_space_group_name_H-M   'P 1'
_cell_length_a   15.45936246
_cell_length_b   15.46042200
_cell_length_c   15.28570047
_cell_angle_alpha   89.99919616
_cell_angle_beta   90.00275605
_cell_angle_gamma   89.98938655
_symmetry_Int_Tables_number   1
_chemical_formula_structural   Ca2Al2SiO7
_chemical_formula_sum   'Ca48 Al48 Si24 O168'
_cell_volume   3653.40871775
_cell_formula_units_Z   24
loop_
 _symmetry_equiv_pos_site_id
 _symmetry_equiv_pos_as_xyz
  1  'x, y, z'
loop_
 _atom_type_symbol
 _atom_type_oxidation_number
  Ca2+  2.0
  Al0+  0.0
  Si0+  0.0
  O2-  -2.0
loop_
 _atom_site_type_symbol
 _atom_site_label
 _atom_site_symmetry_multiplicity
 _atom_site_fract_x
 _atom_site_fract_y
 _atom_site_fract_z
 _atom_site_occupancy
  Ca2+  Ca0  1  0.16678396  0.08262089  0.17651528  1
  Ca2+  Ca1  1  0.16579520  0.08007038  0.49440763  1
  Ca2+  Ca2  1  0.16692529  0.08329430  0.83860690  1
  Ca2+  Ca3  1  0.17407293  0.58608116  0.17525828  1
  Ca2+  Ca4  1  0.17004122  0.57188957  0.50065504  1
  Ca2+  Ca5  1  0.17293382  0.58003543  0.84195895  1
  Ca2+  Ca6  1  0.66776738  0.07523842  0.17863917  1
  Ca2+  Ca7  1  0.66733209  0.07908110  0.50026715  1
  Ca2+  Ca8  1  0.67527137  0.08354028  0.83652159  1
  Ca2+  Ca9  1  0.66894972  0.58303692  0.17217032  1
  Ca2+  Ca10  1  0.67094570  0.59514290  0.49788233  1
  Ca2+  Ca11  1  0.65978158  0.57986700  0.84205561  1
  Ca2+  Ca12  1  0.07904347  0.33038475  0.16565939  1
  Ca2+  Ca13  1  0.08335406  0.33112176  0.48738305  1
  Ca2+  Ca14  1  0.08251721  0.33204662  0.83114237  1
  Ca2+  Ca15  1  0.07396876  0.83508765  0.16212311  1
  Ca2+  Ca16  1  0.07529703  0.83696752  0.48998922  1
  Ca2+  Ca17  1  0.08218214  0.82610371  0.83715955  1
  Ca2+  Ca18  1  0.58720886  0.32974301  0.16507078  1
  Ca2+  Ca19  1  0.57597512  0.32630586  0.49451263  1
  Ca2+  Ca20  1  0.57608939  0.33927321  0.82817490  1
  Ca2+  Ca21  1  0.58121594  0.82286985  0.16931727  1
  Ca2+  Ca22  1  0.57581871  0.82891341  0.49036938  1
  Ca2+  Ca23  1  0.57680230  0.81843049  0.82569824  1
  Ca2+  Ca24  1  0.32568411  0.43036875  0.17536608  1
  Ca2+  Ca25  1  0.32459723  0.41525715  0.50163461  1
  Ca2+  Ca26  1  0.33090776  0.41996410  0.83847430  1
  Ca2+  Ca27  1  0.32513061  0.92045222  0.18223848  1
  Ca2+  Ca28  1  0.33690525  0.91653573  0.49690087  1
  Ca2+  Ca29  1  0.33587478  0.91446177  0.83548220  1
  Ca2+  Ca30  1  0.83365266  0.41745425  0.17273522  1
  Ca2+  Ca31  1  0.83666437  0.42212149  0.49783764  1
  Ca2+  Ca32  1  0.82403086  0.41684807  0.84332049  1
  Ca2+  Ca33  1  0.82997410  0.90971711  0.17632720  1
  Ca2+  Ca34  1  0.82649153  0.91803268  0.50009517  1
  Ca2+  Ca35  1  0.83712837  0.92086485  0.83699913  1
  Ca2+  Ca36  1  0.42038351  0.16115202  0.17077216  1
  Ca2+  Ca37  1  0.41590372  0.16987923  0.49080104  1
  Ca2+  Ca38  1  0.41874344  0.17570658  0.82597289  1
  Ca2+  Ca39  1  0.42097328  0.66188252  0.16380675  1
  Ca2+  Ca40  1  0.42632306  0.67309669  0.49121883  1
  Ca2+  Ca41  1  0.42482071  0.66290251  0.82742740  1
  Ca2+  Ca42  1  0.92881624  0.17585793  0.16309572  1
  Ca2+  Ca43  1  0.92040441  0.17262560  0.48900097  1
  Ca2+  Ca44  1  0.91940558  0.17030265  0.83309358  1
  Ca2+  Ca45  1  0.91912847  0.67404104  0.16516397  1
  Ca2+  Ca46  1  0.91674326  0.67032202  0.48793963  1
  Ca2+  Ca47  1  0.91980727  0.66918377  0.83572571  1
  Al0+  Al48  1  0.00079419  0.00220504  -0.00746890  1
  Al0+  Al49  1  -0.00082820  0.00224680  0.32957052  1
  Al0+  Al50  1  0.00100363  0.00059303  0.67236757  1
  Al0+  Al51  1  -0.00120887  0.49987476  -0.00701385  1
  Al0+  Al52  1  -0.00214835  0.50149448  0.33712171  1
  Al0+  Al53  1  -0.00032435  0.49876348  0.67263640  1
  Al0+  Al54  1  0.50196939  0.00012818  -0.00109950  1
  Al0+  Al55  1  0.49994465  -0.00056806  0.33380448  1
  Al0+  Al56  1  0.50104759  -0.00121972  0.66824799  1
  Al0+  Al57  1  0.49994517  0.49861103  0.00589566  1
  Al0+  Al58  1  0.50106658  0.49891333  0.33460618  1
  Al0+  Al59  1  0.50041805  0.49885269  0.65553614  1
  Al0+  Al60  1  0.25156401  0.24990062  -0.00199655  1
  Al0+  Al61  1  0.25058281  0.24960006  0.33484437  1
  Al0+  Al62  1  0.24840315  0.24851219  0.66756532  1
  Al0+  Al63  1  0.24948202  0.75251452  0.00093460  1
  Al0+  Al64  1  0.24995443  0.75082477  0.34172671  1
  Al0+  Al65  1  0.24962249  0.74880905  0.66469957  1
  Al0+  Al66  1  0.75084609  0.24829821  0.00157658  1
  Al0+  Al67  1  0.74884286  0.25069374  0.32712730  1
  Al0+  Al68  1  0.75167036  0.25098342  0.67184965  1
  Al0+  Al69  1  0.74796080  0.75025279  -0.00900039  1
  Al0+  Al70  1  0.74907705  0.74972760  0.33437763  1
  Al0+  Al71  1  0.75230514  0.75112504  0.66706475  1
  Al0+  Al72  1  0.92746220  0.82120109  0.98381482  1
  Al0+  Al73  1  0.17883623  0.43049240  0.34609951  1
  Al0+  Al74  1  0.17895736  0.42714492  0.68287234  1
  Al0+  Al75  1  0.57024440  0.17866694  0.32065648  1
  Al0+  Al76  1  0.92839422  0.32444103  0.31923077  1
  Al0+  Al77  1  0.67950832  0.92851222  0.34602011  1
  Al0+  Al78  1  0.92892990  0.82169956  0.32270538  1
  Al0+  Al79  1  0.32131937  0.07023319  0.34831931  1
  Al0+  Al80  1  0.67907277  0.42829382  0.01430580  1
  Al0+  Al81  1  0.07237492  0.17981250  0.31899361  1
  Al0+  Al82  1  0.82117424  0.07120473  0.68075179  1
  Al0+  Al83  1  0.07306261  0.18119581  0.98228265  1
  Al0+  Al84  1  0.07386445  0.67886743  0.98671421  1
  Al0+  Al85  1  0.17528743  0.92876999  0.34760041  1
  Al0+  Al86  1  0.42727346  0.82226186  0.65066830  1
  Al0+  Al87  1  0.56753456  0.67750392  0.98681880  1
  Al0+  Al88  1  0.81849121  0.57006811  0.34498725  1
  Al0+  Al89  1  0.42701737  0.31894408  0.65245978  1
  Al0+  Al90  1  0.57079541  0.67816585  0.31624257  1
  Al0+  Al91  1  0.57303104  0.67800458  0.64966602  1
  Al0+  Al92  1  0.42695647  0.82093259  0.31747589  1
  Al0+  Al93  1  0.32459256  0.57332544  0.35131693  1
  Al0+  Al94  1  0.31976947  0.57189031  0.01250265  1
  Al0+  Al95  1  0.92726576  0.32152658  0.98258545  1
  Si0+  Si96  1  0.67799152  0.42458164  0.35168526  1
  Si0+  Si97  1  0.17813482  0.92799663  0.68403296  1
  Si0+  Si98  1  0.82159514  0.57291868  0.68352099  1
  Si0+  Si99  1  0.67967496  0.43022857  0.67992609  1
  Si0+  Si100  1  0.82255785  0.06979659  0.01706780  1
  Si0+  Si101  1  0.17950969  0.93151086  0.01391044  1
  Si0+  Si102  1  0.17711692  0.42738715  0.01576934  1
  Si0+  Si103  1  0.57388469  0.17904099  0.65268233  1
  Si0+  Si104  1  0.06979850  0.17848473  0.65058443  1
  Si0+  Si105  1  0.32322859  0.07214086  0.01368301  1
  Si0+  Si106  1  0.42825412  0.82361456  0.98447353  1
  Si0+  Si107  1  0.93248790  0.82194845  0.65145982  1
  Si0+  Si108  1  0.82164835  0.57368682  0.01497318  1
  Si0+  Si109  1  0.07159549  0.67835068  0.32119114  1
  Si0+  Si110  1  0.92827300  0.32111907  0.65170248  1
  Si0+  Si111  1  0.06971161  0.67643428  0.65150522  1
  Si0+  Si112  1  0.57170916  0.17612461  0.98409898  1
  Si0+  Si113  1  0.68009230  0.92898131  0.01450181  1
  Si0+  Si114  1  0.32193380  0.56954134  0.68251237  1
  Si0+  Si115  1  0.43203891  0.31958129  0.98689928  1
  Si0+  Si116  1  0.42736233  0.32172368  0.31491006  1
  Si0+  Si117  1  0.32161987  0.06998817  0.68267704  1
  Si0+  Si118  1  0.67830316  0.92737711  0.68628860  1
  Si0+  Si119  1  0.82080837  0.07360144  0.34740502  1
  O2-  O120  1  0.25194349  0.00151966  0.05446539  1
  O2-  O121  1  0.24959500  -0.00187152  0.39900050  1
  O2-  O122  1  0.25423959  -0.00481807  0.72516659  1
  O2-  O123  1  0.23925213  0.50246457  0.05818575  1
  O2-  O124  1  0.25217189  0.49983384  0.39866429  1
  O2-  O125  1  0.25432888  0.50122879  0.72960737  1
  O2-  O126  1  0.75410658  -0.00384347  0.05814324  1
  O2-  O127  1  0.75331987  0.00453971  0.39275447  1
  O2-  O128  1  0.74602857  -0.00243203  0.73017347  1
  O2-  O129  1  0.75609621  0.50173931  0.05841212  1
  O2-  O130  1  0.74443251  0.49578714  0.39515679  1
  O2-  O131  1  0.74627173  0.50513007  0.72329215  1
  O2-  O132  1  0.00186412  0.25372373  0.27060032  1
  O2-  O133  1  0.00010203  0.25116277  0.60961082  1
  O2-  O134  1  0.00229228  0.25349233  0.93051524  1
  O2-  O135  1  0.00859280  0.75225805  0.27704488  1
  O2-  O136  1  -0.00002386  0.74844781  0.60866803  1
  O2-  O137  1  -0.00093251  0.74779666  0.93464976  1
  O2-  O138  1  0.49723244  0.25371954  0.27114929  1
  O2-  O139  1  0.50072750  0.24194515  0.60809689  1
  O2-  O140  1  0.50291520  0.24904001  0.94198621  1
  O2-  O141  1  0.49341998  0.74456054  0.26626631  1
  O2-  O142  1  0.50141185  0.75175181  0.60286834  1
  O2-  O143  1  0.49208344  0.75107716  0.93941824  1
  O2-  O144  1  0.07412120  0.18053656  0.09490334  1
  O2-  O145  1  0.06859863  0.17879523  0.43328801  1
  O2-  O146  1  0.06976687  0.17840904  0.75574757  1
  O2-  O147  1  0.07518294  0.68287352  0.09992508  1
  O2-  O148  1  0.06568871  0.67670021  0.42730647  1
  O2-  O149  1  0.06864886  0.67812871  0.75667519  1
  O2-  O150  1  0.56939190  0.17254788  0.08859625  1
  O2-  O151  1  0.57137054  0.18138186  0.43416823  1
  O2-  O152  1  0.57333974  0.18175716  0.75898909  1
  O2-  O153  1  0.56911510  0.67868812  0.09881767  1
  O2-  O154  1  0.57368587  0.68373993  0.42952210  1
  O2-  O155  1  0.57023645  0.67599285  0.76400123  1
  O2-  O156  1  0.17880574  0.43274413  0.23224726  1
  O2-  O157  1  0.17689439  0.42781086  0.57045215  1
  O2-  O158  1  0.18266684  0.42523673  0.90978528  1
  O2-  O159  1  0.17390666  0.93161999  0.23363667  1
  O2-  O160  1  0.17151923  0.93127370  0.57992660  1
  O2-  O161  1  0.18158587  0.93128620  0.90807492  1
  O2-  O162  1  0.67984252  0.42317946  0.24607622  1
  O2-  O163  1  0.68394681  0.42424732  0.57565017  1
  O2-  O164  1  0.67619028  0.43020037  0.90015784  1
  O2-  O165  1  0.68198809  0.92897501  0.23238541  1
  O2-  O166  1  0.67929348  0.92737553  0.58100532  1
  O2-  O167  1  0.67841346  0.93355009  0.90921159  1
  O2-  O168  1  0.43229476  0.31684888  0.09131578  1
  O2-  O169  1  0.42807766  0.31898041  0.42087963  1
  O2-  O170  1  0.43000813  0.31910180  0.76653047  1
  O2-  O171  1  0.43048929  0.82782828  0.08903582  1
  O2-  O172  1  0.43206797  0.82215207  0.43088196  1
  O2-  O173  1  0.42791040  0.82115737  0.76525308  1
  O2-  O174  1  0.92647292  0.31883749  0.09539697  1
  O2-  O175  1  0.92784757  0.32156263  0.43379695  1
  O2-  O176  1  0.92723990  0.31938970  0.75660509  1
  O2-  O177  1  0.92770044  0.82187033  0.09703036  1
  O2-  O178  1  0.92850352  0.82035161  0.43651811  1
  O2-  O179  1  0.93379069  0.82157950  0.75656242  1
  O2-  O180  1  0.32078286  0.06925067  0.23408947  1
  O2-  O181  1  0.32078215  0.07261392  0.57848640  1
  O2-  O182  1  0.32467235  0.07128312  0.90797289  1
  O2-  O183  1  0.32204869  0.57089657  0.23704297  1
  O2-  O184  1  0.31883992  0.56832180  0.57775064  1
  O2-  O185  1  0.32193424  0.56727299  0.89882558  1
  O2-  O186  1  0.81894620  0.07285881  0.24178872  1
  O2-  O187  1  0.82072591  0.07054630  0.56801247  1
  O2-  O188  1  0.81942827  0.07022372  0.91135270  1
  O2-  O189  1  0.81860360  0.57086419  0.23207100  1
  O2-  O190  1  0.82459188  0.57236116  0.57865571  1
  O2-  O191  1  0.81818663  0.57347457  0.90864216  1
  O2-  O192  1  0.04114694  0.08384298  0.26338032  1
  O2-  O193  1  0.03996335  0.08621535  0.60584226  1
  O2-  O194  1  0.04295731  0.08411451  0.92663999  1
  O2-  O195  1  0.03982065  0.58824077  0.27304712  1
  O2-  O196  1  0.03893825  0.58468357  0.60607544  1
  O2-  O197  1  0.05000314  0.58021570  0.93159451  1
  O2-  O198  1  0.53921229  0.08346877  0.26468133  1
  O2-  O199  1  0.55437062  0.08267942  0.61122712  1
  O2-  O200  1  0.54184965  0.08634033  0.93274450  1
  O2-  O201  1  0.55005141  0.57590720  0.26789460  1
  O2-  O202  1  0.54824373  0.58032849  0.59496683  1
  O2-  O203  1  0.53628733  0.57992837  0.93391804  1
  O2-  O204  1  0.17150259  0.20536188  0.26682619  1
  O2-  O205  1  0.16224458  0.20397409  0.60482935  1
  O2-  O206  1  0.17304231  0.20710885  0.92882917  1
  O2-  O207  1  0.16775650  0.69737359  0.27992113  1
  O2-  O208  1  0.16242446  0.70138149  0.60598225  1
  O2-  O209  1  0.16990310  0.71304953  0.92952281  1
  O2-  O210  1  0.66527345  0.20817672  0.26286247  1
  O2-  O211  1  0.66594303  0.20996220  0.60734853  1
  O2-  O212  1  0.66448165  0.20164093  0.93828611  1
  O2-  O213  1  0.66728477  0.71297346  0.26353866  1
  O2-  O214  1  0.67380020  0.70652632  0.60146422  1
  O2-  O215  1  0.66244700  0.70830732  0.92936933  1
  O2-  O216  1  0.07960645  0.44508211  0.05525205  1
  O2-  O217  1  0.08161717  0.45980213  0.40153246  1
  O2-  O218  1  0.08251238  0.45847950  0.73798822  1
  O2-  O219  1  0.08691702  0.96101915  0.05799268  1
  O2-  O220  1  0.07779921  0.96215929  0.40209865  1
  O2-  O221  1  0.08984193  0.96106017  0.73582738  1
  O2-  O222  1  0.58415127  0.45799926  0.07076908  1
  O2-  O223  1  0.58320151  0.44566961  0.39637528  1
  O2-  O224  1  0.58525433  0.45529741  0.72437328  1
  O2-  O225  1  0.58934842  0.96104616  0.06170293  1
  O2-  O226  1  0.58507075  0.96163599  0.40131070  1
  O2-  O227  1  0.58443236  0.95168197  0.73343189  1
  O2-  O228  1  0.21037256  0.33590981  0.06154955  1
  O2-  O229  1  0.20670658  0.33198771  0.39935414  1
  O2-  O230  1  0.20925341  0.32983533  0.73675957  1
  O2-  O231  1  0.20424473  0.83997299  0.06203067  1
  O2-  O232  1  0.19722845  0.83061058  0.40350382  1
  O2-  O233  1  0.20279309  0.83426985  0.73023400  1
  O2-  O234  1  0.70683313  0.32979831  0.06651374  1
  O2-  O235  1  0.70607374  0.33177814  0.39869775  1
  O2-  O236  1  0.70971033  0.34068659  0.73190819  1
  O2-  O237  1  0.70503103  0.83511482  0.05813584  1
  O2-  O238  1  0.71375955  0.83514944  0.40294711  1
  O2-  O239  1  0.70767797  0.83462887  0.73301881  1
  O2-  O240  1  0.45335157  0.41523493  0.26999408  1
  O2-  O241  1  0.45874733  0.41247200  0.59521732  1
  O2-  O242  1  0.46109184  0.41038136  0.93859097  1
  O2-  O243  1  0.45870937  0.91828080  0.26482038  1
  O2-  O244  1  0.45411848  0.92279989  0.60130364  1
  O2-  O245  1  0.45901410  0.91552158  0.93537224  1
  O2-  O246  1  0.95541443  0.42312406  0.26698275  1
  O2-  O247  1  0.95443396  0.41473102  0.60753833  1
  O2-  O248  1  0.94795545  0.42138585  0.92892541  1
  O2-  O249  1  0.95359754  0.91865513  0.26746350  1
  O2-  O250  1  0.96387152  0.91346803  0.60621227  1
  O2-  O251  1  0.95868027  0.91828699  0.92925004  1
  O2-  O252  1  0.33488772  0.29501183  0.26842859  1
  O2-  O253  1  0.33077085  0.28644146  0.59974984  1
  O2-  O254  1  0.34120045  0.29128547  0.93725678  1
  O2-  O255  1  0.32409019  0.80000827  0.27059252  1
  O2-  O256  1  0.32721689  0.79706240  0.60020058  1
  O2-  O257  1  0.33297120  0.80383438  0.93985593  1
  O2-  O258  1  0.83102279  0.29586842  0.26553407  1
  O2-  O259  1  0.83642824  0.29216951  0.60542564  1
  O2-  O260  1  0.82934168  0.28722952  0.92955612  1
  O2-  O261  1  0.83528317  0.78584940  0.26773731  1
  O2-  O262  1  0.83866403  0.79812974  0.60695617  1
  O2-  O263  1  0.83030829  0.79460253  0.92665162  1
  O2-  O264  1  0.41587829  0.04492914  0.05982318  1
  O2-  O265  1  0.41945388  0.04331076  0.40234920  1
  O2-  O266  1  0.41517327  0.04726568  0.73114688  1
  O2-  O267  1  0.41264442  0.53477848  0.06849219  1
  O2-  O268  1  0.42324457  0.54355397  0.40290971  1
  O2-  O269  1  0.41732595  0.54215804  0.72480963  1
  O2-  O270  1  0.91672997  0.04516886  0.06001465  1
  O2-  O271  1  0.91415410  0.04916182  0.39346234  1
  O2-  O272  1  0.91641587  0.03830116  0.73760530  1
  O2-  O273  1  0.91789507  0.55291916  0.05711944  1
  O2-  O274  1  0.91326949  0.54060125  0.40424542  1
  O2-  O275  1  0.91093720  0.54122685  0.73355355  1
  O2-  O276  1  0.29708615  0.16428638  0.06050804  1
  O2-  O277  1  0.29413419  0.16858613  0.40188245  1
  O2-  O278  1  0.28929107  0.15966394  0.73249806  1
  O2-  O279  1  0.29457361  0.67078644  0.06462777  1
  O2-  O280  1  0.29748498  0.67045759  0.40609306  1
  O2-  O281  1  0.29604482  0.66382993  0.72832097  1
  O2-  O282  1  0.79196820  0.16014589  0.06433871  1
  O2-  O283  1  0.79284851  0.16672453  0.39353654  1
  O2-  O284  1  0.78986824  0.16705621  0.73805752  1
  O2-  O285  1  0.79274609  0.66753624  0.05829791  1
  O2-  O286  1  0.78738230  0.66515661  0.40255867  1
  O2-  O287  1  0.79916954  0.66651915  0.73059493  1
