# generated using pymatgen
data_Ca2Al2SiO7
_symmetry_space_group_name_H-M   'P 1'
_cell_length_a   15.46456157
_cell_length_b   15.46317549
_cell_length_c   15.28878967
_cell_angle_alpha   90.00361619
_cell_angle_beta   89.99790186
_cell_angle_gamma   90.00155658
_symmetry_Int_Tables_number   1
_chemical_formula_structural   Ca2Al2SiO7
_chemical_formula_sum   'Ca48 Al48 Si24 O168'
_cell_volume   3656.02706078
_cell_formula_units_Z   24
loop_
 _symmetry_equiv_pos_site_id
 _symmetry_equiv_pos_as_xyz
  1  'x, y, z'
loop_
 _atom_type_symbol
 _atom_type_oxidation_number
  Ca2+  2.0
  Al0+  0.0
  Si0+  0.0
  O2-  -2.0
loop_
 _atom_site_type_symbol
 _atom_site_label
 _atom_site_symmetry_multiplicity
 _atom_site_fract_x
 _atom_site_fract_y
 _atom_site_fract_z
 _atom_site_occupancy
  Ca2+  Ca0  1  0.17160045  0.07932070  0.16289934  1
  Ca2+  Ca1  1  0.17421156  0.08204361  0.50912064  1
  Ca2+  Ca2  1  0.18082329  0.07595972  0.84124718  1
  Ca2+  Ca3  1  0.16341331  0.59232875  0.16825133  1
  Ca2+  Ca4  1  0.15860475  0.57859621  0.50443336  1
  Ca2+  Ca5  1  0.16485604  0.58096298  0.83786323  1
  Ca2+  Ca6  1  0.66900727  0.07769516  0.17458687  1
  Ca2+  Ca7  1  0.67704548  0.07338873  0.50653557  1
  Ca2+  Ca8  1  0.66397229  0.08097117  0.83212293  1
  Ca2+  Ca9  1  0.66651512  0.57563460  0.16643541  1
  Ca2+  Ca10  1  0.67110001  0.57852571  0.50789704  1
  Ca2+  Ca11  1  0.67336822  0.59021738  0.84051228  1
  Ca2+  Ca12  1  0.07366724  0.33258367  0.16550534  1
  Ca2+  Ca13  1  0.07665285  0.33251199  0.49556269  1
  Ca2+  Ca14  1  0.08445764  0.33352775  0.82741330  1
  Ca2+  Ca15  1  0.07365699  0.82829113  0.15844430  1
  Ca2+  Ca16  1  0.06817257  0.83060220  0.49214153  1
  Ca2+  Ca17  1  0.07513897  0.83442827  0.83348626  1
  Ca2+  Ca18  1  0.58453089  0.33037993  0.15414664  1
  Ca2+  Ca19  1  0.59261433  0.32476021  0.49702348  1
  Ca2+  Ca20  1  0.58424891  0.32423752  0.83379517  1
  Ca2+  Ca21  1  0.58826522  0.82899934  0.16094471  1
  Ca2+  Ca22  1  0.58714468  0.83630565  0.50450237  1
  Ca2+  Ca23  1  0.58543098  0.82527646  0.82282475  1
  Ca2+  Ca24  1  0.33582071  0.41688896  0.16722984  1
  Ca2+  Ca25  1  0.32261846  0.41908132  0.50740864  1
  Ca2+  Ca26  1  0.32913607  0.41149044  0.83742318  1
  Ca2+  Ca27  1  0.32831607  0.91702865  0.16624348  1
  Ca2+  Ca28  1  0.33218249  0.91909639  0.51083455  1
  Ca2+  Ca29  1  0.33634999  0.92308463  0.83916907  1
  Ca2+  Ca30  1  0.82330139  0.41988707  0.17071110  1
  Ca2+  Ca31  1  0.83236923  0.42149590  0.50334765  1
  Ca2+  Ca32  1  0.82619984  0.43381853  0.84050917  1
  Ca2+  Ca33  1  0.83182706  0.91858337  0.17403055  1
  Ca2+  Ca34  1  0.82963744  0.91765722  0.50778225  1
  Ca2+  Ca35  1  0.83410622  0.91596736  0.83318295  1
  Ca2+  Ca36  1  0.42486199  0.17365713  0.15313810  1
  Ca2+  Ca37  1  0.42436123  0.15961735  0.50333185  1
  Ca2+  Ca38  1  0.42530371  0.16133215  0.82990206  1
  Ca2+  Ca39  1  0.42570454  0.66828299  0.15787490  1
  Ca2+  Ca40  1  0.42136144  0.67210808  0.50175411  1
  Ca2+  Ca41  1  0.43134420  0.67157998  0.82650337  1
  Ca2+  Ca42  1  0.90543091  0.17271974  0.16681246  1
  Ca2+  Ca43  1  0.90653421  0.17007361  0.49414836  1
  Ca2+  Ca44  1  0.91617144  0.16761683  0.82672973  1
  Ca2+  Ca45  1  0.91955661  0.67744663  0.15770211  1
  Ca2+  Ca46  1  0.91336575  0.67674081  0.49762045  1
  Ca2+  Ca47  1  0.90989271  0.67675015  0.83013374  1
  Al0+  Al48  1  0.00060367  0.00111997  0.00168479  1
  Al0+  Al49  1  0.00379667  0.00173567  0.33262922  1
  Al0+  Al50  1  0.00137934  0.00058619  0.66530713  1
  Al0+  Al51  1  -0.00003709  0.50156475  0.00216860  1
  Al0+  Al52  1  0.00057251  0.49736554  0.32539444  1
  Al0+  Al53  1  -0.00163915  0.49836678  0.67540865  1
  Al0+  Al54  1  0.50123287  0.00221249  0.00305699  1
  Al0+  Al55  1  0.50050923  -0.00008650  0.33520261  1
  Al0+  Al56  1  0.50106786  0.00056564  0.66516485  1
  Al0+  Al57  1  0.49828196  0.49905472  -0.00589240  1
  Al0+  Al58  1  0.49835871  0.49973999  0.34000979  1
  Al0+  Al59  1  0.49747132  0.49801975  0.66194826  1
  Al0+  Al60  1  0.24933993  0.25067657  0.00336992  1
  Al0+  Al61  1  0.25049035  0.25139980  0.33357558  1
  Al0+  Al62  1  0.24937210  0.24893077  0.67329025  1
  Al0+  Al63  1  0.24765965  0.74949068  0.00061216  1
  Al0+  Al64  1  0.25227352  0.75105473  0.33184552  1
  Al0+  Al65  1  0.25002207  0.74694092  0.66400160  1
  Al0+  Al66  1  0.74925325  0.25114806  -0.00323720  1
  Al0+  Al67  1  0.74917822  0.24956903  0.33459852  1
  Al0+  Al68  1  0.75003268  0.25023685  0.66579729  1
  Al0+  Al69  1  0.75180506  0.75180920  -0.00177591  1
  Al0+  Al70  1  0.74821599  0.74820613  0.33218828  1
  Al0+  Al71  1  0.75087743  0.74925439  0.66386752  1
  Al0+  Al72  1  0.57291515  0.67707325  0.64932801  1
  Al0+  Al73  1  0.67814691  0.92596051  0.34883973  1
  Al0+  Al74  1  0.57181383  0.18026026  0.64984731  1
  Al0+  Al75  1  0.92649650  0.82258281  0.31779855  1
  Al0+  Al76  1  0.07188097  0.67808699  0.98224629  1
  Al0+  Al77  1  0.32340441  0.07144523  0.01743534  1
  Al0+  Al78  1  0.42713338  0.32146071  0.98434158  1
  Al0+  Al79  1  0.82282026  0.07010005  0.34644025  1
  Al0+  Al80  1  0.17949913  0.43054131  0.68021453  1
  Al0+  Al81  1  0.57077684  0.68014578  0.98836719  1
  Al0+  Al82  1  0.57285481  0.17762531  0.98450280  1
  Al0+  Al83  1  0.93112410  0.82188965  0.65164718  1
  Al0+  Al84  1  0.92793698  0.31806294  0.31935742  1
  Al0+  Al85  1  0.81840796  0.57004734  0.67913325  1
  Al0+  Al86  1  0.92916869  0.82366068  0.98310204  1
  Al0+  Al87  1  0.07165790  0.67954387  0.31924986  1
  Al0+  Al88  1  0.67752256  0.42948084  0.34770473  1
  Al0+  Al89  1  0.68123176  0.92971324  0.68303176  1
  Al0+  Al90  1  0.67831409  0.43013340  0.01292685  1
  Al0+  Al91  1  0.42867102  0.82132794  0.65278060  1
  Al0+  Al92  1  0.32113279  0.06843309  0.68024959  1
  Al0+  Al93  1  0.82146687  0.57423814  0.01773881  1
  Al0+  Al94  1  0.17856911  0.92801170  0.01607240  1
  Al0+  Al95  1  0.82318416  0.07255581  0.68302079  1
  Si0+  Si96  1  0.92864502  0.32147714  0.98373969  1
  Si0+  Si97  1  0.17747363  0.92491827  0.68145422  1
  Si0+  Si98  1  0.42783739  0.82250544  0.98670615  1
  Si0+  Si99  1  0.67513201  0.42665191  0.68291267  1
  Si0+  Si100  1  0.42982765  0.82192430  0.31735254  1
  Si0+  Si101  1  0.67962545  0.92965760  0.01344421  1
  Si0+  Si102  1  0.07223959  0.18006025  0.65309407  1
  Si0+  Si103  1  0.31992009  0.56994940  0.01406247  1
  Si0+  Si104  1  0.82171969  0.07274568  0.01393909  1
  Si0+  Si105  1  0.32043136  0.07230498  0.34883998  1
  Si0+  Si106  1  0.56881347  0.67596866  0.31858709  1
  Si0+  Si107  1  0.93050940  0.32099284  0.65331374  1
  Si0+  Si108  1  0.32103247  0.57250785  0.34898166  1
  Si0+  Si109  1  0.56868084  0.18038776  0.31891458  1
  Si0+  Si110  1  0.32303894  0.57246437  0.68451651  1
  Si0+  Si111  1  0.17898115  0.42920017  0.34709145  1
  Si0+  Si112  1  0.07043669  0.18066846  0.98525955  1
  Si0+  Si113  1  0.18174236  0.92824033  0.34956580  1
  Si0+  Si114  1  0.42749601  0.32199353  0.32007667  1
  Si0+  Si115  1  0.17735960  0.42792432  0.01834881  1
  Si0+  Si116  1  0.07060276  0.67469986  0.65159522  1
  Si0+  Si117  1  0.82324980  0.56967160  0.34869491  1
  Si0+  Si118  1  0.07731964  0.17861253  0.31587732  1
  Si0+  Si119  1  0.42455535  0.31972776  0.64775184  1
  O2-  O120  1  0.25325865  -0.00249045  0.06728871  1
  O2-  O121  1  0.24987702  0.00182901  0.39237002  1
  O2-  O122  1  0.25115023  -0.01149776  0.72499840  1
  O2-  O123  1  0.24806027  0.50026565  0.05873879  1
  O2-  O124  1  0.24564374  0.50443501  0.38909511  1
  O2-  O125  1  0.25426246  0.50382160  0.72841041  1
  O2-  O126  1  0.74999612  0.00200226  0.05461175  1
  O2-  O127  1  0.75732631  -0.00781472  0.39606311  1
  O2-  O128  1  0.75279862  0.00105333  0.73506717  1
  O2-  O129  1  0.74901668  0.50147549  0.06602873  1
  O2-  O130  1  0.75302106  0.50308300  0.39423135  1
  O2-  O131  1  0.73726017  0.50149151  0.72531331  1
  O2-  O132  1  0.00103329  0.24022735  0.27345541  1
  O2-  O133  1  -0.00235074  0.24656746  0.60980780  1
  O2-  O134  1  0.00042899  0.25144379  0.94107206  1
  O2-  O135  1  -0.00165587  0.74947916  0.26900845  1
  O2-  O136  1  0.00706553  0.74696587  0.60659633  1
  O2-  O137  1  -0.00118284  0.74873090  0.93345247  1
  O2-  O138  1  0.49902333  0.25279756  0.27711639  1
  O2-  O139  1  0.49755128  0.25654227  0.60217790  1
  O2-  O140  1  0.49764188  0.24762419  0.93604116  1
  O2-  O141  1  0.50295841  0.75245481  0.27647935  1
  O2-  O142  1  0.50050697  0.75000178  0.60031136  1
  O2-  O143  1  0.49783535  0.75646990  0.94216695  1
  O2-  O144  1  0.06999199  0.18286694  0.09057411  1
  O2-  O145  1  0.08638224  0.18410310  0.42112727  1
  O2-  O146  1  0.07339970  0.18312693  0.75818102  1
  O2-  O147  1  0.07182274  0.68045938  0.09587826  1
  O2-  O148  1  0.07261967  0.68007223  0.43311174  1
  O2-  O149  1  0.06959352  0.67345966  0.75657468  1
  O2-  O150  1  0.57328505  0.17869864  0.09893401  1
  O2-  O151  1  0.56648558  0.18076805  0.42387517  1
  O2-  O152  1  0.57123211  0.18187352  0.76235286  1
  O2-  O153  1  0.56741839  0.68046530  0.10234680  1
  O2-  O154  1  0.56444253  0.67200940  0.42300485  1
  O2-  O155  1  0.57081089  0.67788399  0.76296773  1
  O2-  O156  1  0.18242603  0.42491665  0.24243471  1
  O2-  O157  1  0.17835125  0.43099191  0.56638735  1
  O2-  O158  1  0.17760982  0.42566851  0.91333842  1
  O2-  O159  1  0.18493283  0.92754060  0.24492084  1
  O2-  O160  1  0.17729220  0.92921412  0.57525917  1
  O2-  O161  1  0.17950653  0.93152498  0.90246203  1
  O2-  O162  1  0.67456151  0.43056072  0.23501236  1
  O2-  O163  1  0.68022565  0.42527394  0.57677288  1
  O2-  O164  1  0.68145399  0.42897976  0.89974579  1
  O2-  O165  1  0.67256269  0.93047505  0.23478908  1
  O2-  O166  1  0.68335534  0.93131938  0.56946953  1
  O2-  O167  1  0.67801968  0.92903446  0.90898639  1
  O2-  O168  1  0.42784912  0.32168260  0.09897391  1
  O2-  O169  1  0.42317443  0.32031354  0.42476937  1
  O2-  O170  1  0.42194150  0.31771327  0.75274795  1
  O2-  O171  1  0.42916876  0.81962511  0.09316118  1
  O2-  O172  1  0.42537425  0.82105734  0.42188115  1
  O2-  O173  1  0.42786273  0.81876715  0.76630978  1
  O2-  O174  1  0.92878203  0.31860972  0.08906263  1
  O2-  O175  1  0.93214727  0.32065711  0.43274194  1
  O2-  O176  1  0.93388952  0.32091916  0.75840281  1
  O2-  O177  1  0.92920307  0.82546342  0.09673473  1
  O2-  O178  1  0.92875766  0.82099186  0.43156039  1
  O2-  O179  1  0.93306832  0.82325582  0.76404225  1
  O2-  O180  1  0.31977040  0.07293695  0.24425632  1
  O2-  O181  1  0.31644192  0.07065047  0.56623059  1
  O2-  O182  1  0.32174236  0.07035164  0.90409168  1
  O2-  O183  1  0.32483985  0.57059095  0.24390282  1
  O2-  O184  1  0.32144951  0.57138894  0.57838814  1
  O2-  O185  1  0.31872655  0.56883714  0.90936347  1
  O2-  O186  1  0.81574357  0.07326272  0.23245577  1
  O2-  O187  1  0.82261090  0.07333901  0.56968767  1
  O2-  O188  1  0.82402067  0.07388169  0.90930014  1
  O2-  O189  1  0.82152003  0.56790189  0.24350594  1
  O2-  O190  1  0.82227892  0.56524869  0.56558840  1
  O2-  O191  1  0.81998430  0.57276867  0.90406215  1
  O2-  O192  1  0.06139113  0.08249376  0.27257001  1
  O2-  O193  1  0.05092647  0.08736582  0.60486456  1
  O2-  O194  1  0.04321623  0.08937973  0.93816217  1
  O2-  O195  1  0.05118411  0.57893261  0.26734280  1
  O2-  O196  1  0.03980313  0.58156006  0.60632236  1
  O2-  O197  1  0.04872963  0.57641211  0.93360625  1
  O2-  O198  1  0.53902346  0.08878572  0.27196970  1
  O2-  O199  1  0.53855638  0.08502483  0.59531475  1
  O2-  O200  1  0.54474345  0.07874929  0.93253659  1
  O2-  O201  1  0.53325466  0.58617779  0.27106300  1
  O2-  O202  1  0.54276491  0.57797984  0.59655897  1
  O2-  O203  1  0.53805998  0.58581350  0.93282853  1
  O2-  O204  1  0.16653919  0.21381073  0.26543181  1
  O2-  O205  1  0.16207801  0.21291594  0.60411964  1
  O2-  O206  1  0.16215005  0.20928233  0.93867675  1
  O2-  O207  1  0.17130972  0.70855766  0.26744934  1
  O2-  O208  1  0.16663036  0.69212608  0.60683532  1
  O2-  O209  1  0.17113045  0.70554265  0.92999196  1
  O2-  O210  1  0.66041092  0.20726635  0.27231759  1
  O2-  O211  1  0.66851516  0.21239139  0.59523787  1
  O2-  O212  1  0.66968908  0.20816701  0.92955380  1
  O2-  O213  1  0.66209360  0.69724843  0.27197796  1
  O2-  O214  1  0.67043103  0.70449795  0.59523760  1
  O2-  O215  1  0.66658540  0.71084204  0.93514307  1
  O2-  O216  1  0.08571572  0.45454607  0.06642799  1
  O2-  O217  1  0.08565670  0.45286264  0.39347982  1
  O2-  O218  1  0.08468300  0.45901648  0.73804680  1
  O2-  O219  1  0.08263303  0.96355407  0.07079156  1
  O2-  O220  1  0.08934026  0.95407857  0.39643273  1
  O2-  O221  1  0.08716044  0.95714645  0.72875533  1
  O2-  O222  1  0.57795109  0.45675096  0.06369534  1
  O2-  O223  1  0.58130731  0.45850797  0.40420894  1
  O2-  O224  1  0.57734505  0.44307302  0.72260128  1
  O2-  O225  1  0.58814290  0.95517213  0.06335376  1
  O2-  O226  1  0.58094771  0.96017300  0.40226016  1
  O2-  O227  1  0.58194003  0.95779163  0.73312965  1
  O2-  O228  1  0.20526896  0.33731222  0.06814073  1
  O2-  O229  1  0.21142657  0.33961282  0.39726232  1
  O2-  O230  1  0.20992533  0.33485015  0.73611428  1
  O2-  O231  1  0.20575224  0.82926941  0.06976566  1
  O2-  O232  1  0.21334037  0.83784232  0.39758294  1
  O2-  O233  1  0.19646938  0.82863595  0.72382452  1
  O2-  O234  1  0.70955565  0.33154680  0.06581283  1
  O2-  O235  1  0.70995253  0.33345600  0.40095893  1
  O2-  O236  1  0.70721099  0.33591316  0.72941283  1
  O2-  O237  1  0.70829144  0.83912951  0.06262663  1
  O2-  O238  1  0.69695803  0.82397818  0.39831326  1
  O2-  O239  1  0.70829144  0.82998282  0.73239154  1
  O2-  O240  1  0.45293112  0.41554525  0.27502135  1
  O2-  O241  1  0.44242748  0.41561795  0.60277028  1
  O2-  O242  1  0.45295230  0.41850628  0.92849871  1
  O2-  O243  1  0.45519506  0.91477467  0.27053022  1
  O2-  O244  1  0.45497551  0.91948205  0.59833885  1
  O2-  O245  1  0.45090929  0.91751808  0.94430885  1
  O2-  O246  1  0.96227398  0.41133380  0.26136516  1
  O2-  O247  1  0.96382376  0.41097034  0.60557800  1
  O2-  O248  1  0.95757467  0.41347102  0.93868227  1
  O2-  O249  1  0.95639473  0.92240454  0.26789081  1
  O2-  O250  1  0.96273530  0.91857598  0.59690941  1
  O2-  O251  1  0.96036859  0.92228149  0.93163118  1
  O2-  O252  1  0.33641610  0.29391084  0.27068122  1
  O2-  O253  1  0.33179325  0.28877672  0.60147998  1
  O2-  O254  1  0.32636960  0.29563160  0.93485922  1
  O2-  O255  1  0.33991544  0.79121394  0.26765564  1
  O2-  O256  1  0.32985102  0.79167776  0.59750942  1
  O2-  O257  1  0.33462378  0.79650448  0.94198130  1
  O2-  O258  1  0.83143361  0.28775169  0.26417032  1
  O2-  O259  1  0.83805808  0.29751018  0.60553292  1
  O2-  O260  1  0.83849470  0.29293020  0.93493534  1
  O2-  O261  1  0.82676518  0.79583303  0.26609923  1
  O2-  O262  1  0.83603816  0.78843205  0.59749743  1
  O2-  O263  1  0.83082887  0.79631954  0.93041458  1
  O2-  O264  1  0.42201479  0.04583864  0.07190448  1
  O2-  O265  1  0.41199253  0.04365962  0.39571430  1
  O2-  O266  1  0.41844301  0.04232080  0.73274037  1
  O2-  O267  1  0.41078599  0.54027362  0.06278086  1
  O2-  O268  1  0.40876541  0.54012363  0.40111813  1
  O2-  O269  1  0.41686556  0.54588027  0.72911819  1
  O2-  O270  1  0.91312429  0.04719089  0.06303493  1
  O2-  O271  1  0.92703585  0.05701913  0.39410122  1
  O2-  O272  1  0.92394782  0.04746408  0.73320525  1
  O2-  O273  1  0.92002052  0.54396124  0.06925201  1
  O2-  O274  1  0.91693737  0.54013809  0.39262768  1
  O2-  O275  1  0.91075094  0.53312556  0.73694221  1
  O2-  O276  1  0.28969122  0.16888208  0.07066418  1
  O2-  O277  1  0.29234786  0.16446701  0.39604595  1
  O2-  O278  1  0.28491415  0.16201098  0.73555440  1
  O2-  O279  1  0.29425806  0.66172872  0.06334461  1
  O2-  O280  1  0.29689269  0.66543565  0.39583603  1
  O2-  O281  1  0.29822889  0.66592353  0.73063495  1
  O2-  O282  1  0.79311529  0.16476484  0.06066715  1
  O2-  O283  1  0.78838705  0.16642726  0.40032215  1
  O2-  O284  1  0.79541509  0.17233956  0.73398839  1
  O2-  O285  1  0.79239056  0.67283331  0.06947071  1
  O2-  O286  1  0.79821196  0.66381371  0.39334185  1
  O2-  O287  1  0.79200272  0.66726534  0.73218251  1
