# generated using pymatgen
data_Ca2Al2SiO7
_symmetry_space_group_name_H-M   'P 1'
_cell_length_a   15.46962890
_cell_length_b   15.46957100
_cell_length_c   15.29294401
_cell_angle_alpha   89.99019633
_cell_angle_beta   89.98115567
_cell_angle_gamma   90.02546176
_symmetry_Int_Tables_number   1
_chemical_formula_structural   Ca2Al2SiO7
_chemical_formula_sum   'Ca48 Al48 Si24 O168'
_cell_volume   3659.73122538
_cell_formula_units_Z   24
loop_
 _symmetry_equiv_pos_site_id
 _symmetry_equiv_pos_as_xyz
  1  'x, y, z'
loop_
 _atom_type_symbol
 _atom_type_oxidation_number
  Ca2+  2.0
  Al0+  0.0
  Si0+  0.0
  O2-  -2.0
loop_
 _atom_site_type_symbol
 _atom_site_label
 _atom_site_symmetry_multiplicity
 _atom_site_fract_x
 _atom_site_fract_y
 _atom_site_fract_z
 _atom_site_occupancy
  Ca2+  Ca0  1  0.16595679  0.08447382  0.17237519  1
  Ca2+  Ca1  1  0.16606983  0.08354682  0.51265833  1
  Ca2+  Ca2  1  0.16647283  0.07981078  0.82574233  1
  Ca2+  Ca3  1  0.17688833  0.59118969  0.17559909  1
  Ca2+  Ca4  1  0.16475795  0.58518440  0.50670315  1
  Ca2+  Ca5  1  0.16726538  0.58004604  0.83339297  1
  Ca2+  Ca6  1  0.67681591  0.07415627  0.17267538  1
  Ca2+  Ca7  1  0.68173044  0.07504352  0.50494729  1
  Ca2+  Ca8  1  0.67698517  0.07324463  0.83423433  1
  Ca2+  Ca9  1  0.68058066  0.58402294  0.17131972  1
  Ca2+  Ca10  1  0.68128289  0.57868488  0.50555193  1
  Ca2+  Ca11  1  0.67866298  0.58404842  0.82964662  1
  Ca2+  Ca12  1  0.07639658  0.32939812  0.17237015  1
  Ca2+  Ca13  1  0.08161130  0.32367329  0.49759488  1
  Ca2+  Ca14  1  0.08457713  0.32717931  0.82281422  1
  Ca2+  Ca15  1  0.07297853  0.82972867  0.17165622  1
  Ca2+  Ca16  1  0.07117311  0.82917685  0.50010336  1
  Ca2+  Ca17  1  0.07714211  0.82571473  0.81878207  1
  Ca2+  Ca18  1  0.58387325  0.33205099  0.16249661  1
  Ca2+  Ca19  1  0.58065288  0.33949663  0.50091908  1
  Ca2+  Ca20  1  0.57655331  0.33642209  0.82080595  1
  Ca2+  Ca21  1  0.58748202  0.83747487  0.16413983  1
  Ca2+  Ca22  1  0.57891356  0.84763287  0.50014815  1
  Ca2+  Ca23  1  0.58026149  0.84023886  0.82473149  1
  Ca2+  Ca24  1  0.33128090  0.42951487  0.17248369  1
  Ca2+  Ca25  1  0.32599207  0.42124701  0.50802550  1
  Ca2+  Ca26  1  0.32694362  0.41717532  0.83179666  1
  Ca2+  Ca27  1  0.32818625  0.91677384  0.17207669  1
  Ca2+  Ca28  1  0.32406127  0.92176614  0.51223900  1
  Ca2+  Ca29  1  0.32810501  0.91274577  0.82678734  1
  Ca2+  Ca30  1  0.83962130  0.42497719  0.17396832  1
  Ca2+  Ca31  1  0.84084382  0.42556011  0.50528626  1
  Ca2+  Ca32  1  0.83700335  0.43031928  0.83252529  1
  Ca2+  Ca33  1  0.82527155  0.92175235  0.17668148  1
  Ca2+  Ca34  1  0.83375868  0.91875514  0.50873519  1
  Ca2+  Ca35  1  0.83310684  0.92347907  0.83474823  1
  Ca2+  Ca36  1  0.42113883  0.16833398  0.16182689  1
  Ca2+  Ca37  1  0.41324334  0.17163696  0.50153501  1
  Ca2+  Ca38  1  0.41879491  0.17146308  0.81876333  1
  Ca2+  Ca39  1  0.41708306  0.66313494  0.16180847  1
  Ca2+  Ca40  1  0.41766866  0.67136854  0.49697815  1
  Ca2+  Ca41  1  0.41984298  0.67033756  0.82474861  1
  Ca2+  Ca42  1  0.91236624  0.16498426  0.16828324  1
  Ca2+  Ca43  1  0.92285173  0.16517326  0.49221958  1
  Ca2+  Ca44  1  0.91869712  0.16238803  0.82455831  1
  Ca2+  Ca45  1  0.91086808  0.66906526  0.16628568  1
  Ca2+  Ca46  1  0.91945547  0.67206504  0.49426671  1
  Ca2+  Ca47  1  0.91693373  0.67109962  0.82129094  1
  Al0+  Al48  1  0.00134875  -0.00071559  0.00279357  1
  Al0+  Al49  1  0.00073746  -0.00228085  0.32612747  1
  Al0+  Al50  1  0.00267516  -0.00203775  0.66802782  1
  Al0+  Al51  1  0.00148315  0.49697642  0.00380666  1
  Al0+  Al52  1  0.00379770  0.49728231  0.32906173  1
  Al0+  Al53  1  0.00328757  0.49810754  0.67319021  1
  Al0+  Al54  1  0.49841525  0.00052990  0.00105122  1
  Al0+  Al55  1  0.49826639  0.00197682  0.33349922  1
  Al0+  Al56  1  0.50119353  0.00297092  0.66728027  1
  Al0+  Al57  1  0.49819744  0.50087806  0.00100934  1
  Al0+  Al58  1  0.49826291  0.50303329  0.33534614  1
  Al0+  Al59  1  0.50002125  0.50068836  0.66336991  1
  Al0+  Al60  1  0.24910467  0.24993308  0.00084532  1
  Al0+  Al61  1  0.25130328  0.25279421  0.32613680  1
  Al0+  Al62  1  0.25086912  0.25241303  0.66645457  1
  Al0+  Al63  1  0.24994700  0.75036824  0.00343913  1
  Al0+  Al64  1  0.25197481  0.75300892  0.33419665  1
  Al0+  Al65  1  0.25245926  0.75099683  0.66319691  1
  Al0+  Al66  1  0.74985532  0.24930724  -0.00025516  1
  Al0+  Al67  1  0.74701430  0.24833546  0.33141328  1
  Al0+  Al68  1  0.74845209  0.25066537  0.67275372  1
  Al0+  Al69  1  0.74841398  0.74867923  0.00447351  1
  Al0+  Al70  1  0.74521613  0.74778880  0.33748847  1
  Al0+  Al71  1  0.74841570  0.74947501  0.66983102  1
  Al0+  Al72  1  0.42930174  0.32205054  0.65168864  1
  Al0+  Al73  1  0.92444695  0.81848931  0.31780188  1
  Al0+  Al74  1  0.82330329  0.57040763  0.68019931  1
  Al0+  Al75  1  0.07254576  0.67880376  0.31856574  1
  Al0+  Al76  1  0.82496325  0.07093736  0.68038942  1
  Al0+  Al77  1  0.92633845  0.31972107  0.31945620  1
  Al0+  Al78  1  0.82329223  0.56857883  0.34688298  1
  Al0+  Al79  1  0.07205583  0.17697661  0.31797280  1
  Al0+  Al80  1  0.32035212  0.57304799  0.34961732  1
  Al0+  Al81  1  0.31877890  0.57062479  0.01257009  1
  Al0+  Al82  1  0.67703918  0.42904595  0.68027553  1
  Al0+  Al83  1  0.67884855  0.92870653  0.68152174  1
  Al0+  Al84  1  0.43147074  0.82280860  0.65254085  1
  Al0+  Al85  1  0.67700255  0.92825759  0.35002645  1
  Al0+  Al86  1  0.06925402  0.17982354  0.65599928  1
  Al0+  Al87  1  0.17961178  0.92682138  0.68087369  1
  Al0+  Al88  1  0.82332132  0.07138298  0.01687980  1
  Al0+  Al89  1  0.82260614  0.07026583  0.34915450  1
  Al0+  Al90  1  0.18002139  0.42941275  0.67913023  1
  Al0+  Al91  1  0.07173348  0.67566150  0.65424357  1
  Al0+  Al92  1  0.92678801  0.82006764  0.65426937  1
  Al0+  Al93  1  0.82174892  0.56905885  0.01471435  1
  Al0+  Al94  1  0.67712435  0.92960812  0.01548482  1
  Al0+  Al95  1  0.32072404  0.07285141  0.67984430  1
  Si0+  Si96  1  0.92624609  0.32170386  0.65372997  1
  Si0+  Si97  1  0.42992704  0.32380369  0.31552117  1
  Si0+  Si98  1  0.57380523  0.17912493  0.64809600  1
  Si0+  Si99  1  0.07260511  0.67860712  0.98669196  1
  Si0+  Si100  1  0.42950534  0.32110347  0.98457333  1
  Si0+  Si101  1  0.92871791  0.32089203  0.98357078  1
  Si0+  Si102  1  0.57189500  0.67757612  0.64817976  1
  Si0+  Si103  1  0.67652821  0.42721884  0.34737922  1
  Si0+  Si104  1  0.17881870  0.42499784  0.02038835  1
  Si0+  Si105  1  0.56832777  0.67692732  0.31637229  1
  Si0+  Si106  1  0.18007255  0.92817651  0.01685499  1
  Si0+  Si107  1  0.57034263  0.67855272  0.98488718  1
  Si0+  Si108  1  0.56786212  0.17880541  0.31644497  1
  Si0+  Si109  1  0.07180185  0.17829900  0.98309300  1
  Si0+  Si110  1  0.18060239  0.42698327  0.35032817  1
  Si0+  Si111  1  0.32252890  0.57307680  0.68200527  1
  Si0+  Si112  1  0.18004093  0.93059296  0.34698416  1
  Si0+  Si113  1  0.31965061  0.07216801  0.01510871  1
  Si0+  Si114  1  0.31969252  0.07381580  0.34582767  1
  Si0+  Si115  1  0.42751892  0.82150635  0.98514106  1
  Si0+  Si116  1  0.57005508  0.17874928  0.98369972  1
  Si0+  Si117  1  0.43079947  0.82248664  0.31683953  1
  Si0+  Si118  1  0.67666233  0.42847812  0.01532564  1
  Si0+  Si119  1  0.92873939  0.81854057  0.98625793  1
  O2-  O120  1  0.24962164  0.00146753  0.05875846  1
  O2-  O121  1  0.24233950  0.01058842  0.38649773  1
  O2-  O122  1  0.25184231  -0.00107098  0.73159448  1
  O2-  O123  1  0.24386604  0.49809373  0.06258432  1
  O2-  O124  1  0.24304551  0.50129279  0.39427618  1
  O2-  O125  1  0.25225770  0.50654361  0.72631897  1
  O2-  O126  1  0.75145748  -0.00141672  0.06530773  1
  O2-  O127  1  0.75681842  -0.00790551  0.39801389  1
  O2-  O128  1  0.75455526  -0.00302199  0.73037935  1
  O2-  O129  1  0.74777537  0.49296523  0.06109775  1
  O2-  O130  1  0.75222212  0.48825516  0.39000305  1
  O2-  O131  1  0.75130968  0.49781594  0.73053584  1
  O2-  O132  1  -0.00466850  0.24443991  0.26794738  1
  O2-  O133  1  -0.01087014  0.24808138  0.60973631  1
  O2-  O134  1  -0.00249078  0.24672741  0.94265217  1
  O2-  O135  1  -0.00585004  0.74324369  0.26671951  1
  O2-  O136  1  -0.00368214  0.74453159  0.60594752  1
  O2-  O137  1  -0.00251570  0.74470777  0.94447609  1
  O2-  O138  1  0.50052907  0.25325328  0.27214304  1
  O2-  O139  1  0.50561702  0.24936731  0.60423571  1
  O2-  O140  1  0.50120495  0.25198856  0.94134914  1
  O2-  O141  1  0.50100823  0.75180980  0.27337551  1
  O2-  O142  1  0.50746861  0.75061305  0.60403711  1
  O2-  O143  1  0.50097801  0.75244959  0.94423418  1
  O2-  O144  1  0.07627399  0.18004647  0.08781035  1
  O2-  O145  1  0.07883491  0.18093980  0.43075604  1
  O2-  O146  1  0.07070454  0.18283947  0.76977738  1
  O2-  O147  1  0.07535680  0.68243478  0.09144915  1
  O2-  O148  1  0.07484617  0.68315291  0.43123658  1
  O2-  O149  1  0.07162807  0.67722631  0.76904024  1
  O2-  O150  1  0.56593780  0.18024749  0.08920510  1
  O2-  O151  1  0.56404460  0.17810102  0.42072330  1
  O2-  O152  1  0.57064933  0.17968762  0.75418433  1
  O2-  O153  1  0.56788631  0.67641564  0.09004983  1
  O2-  O154  1  0.56426671  0.67079341  0.42049038  1
  O2-  O155  1  0.56806301  0.67501932  0.75431377  1
  O2-  O156  1  0.18630436  0.42397868  0.24436908  1
  O2-  O157  1  0.18220528  0.42784615  0.56647538  1
  O2-  O158  1  0.18084802  0.42166358  0.91503041  1
  O2-  O159  1  0.18576492  0.92903475  0.24096014  1
  O2-  O160  1  0.18073415  0.92851389  0.56730029  1
  O2-  O161  1  0.18144554  0.92597984  0.91245177  1
  O2-  O162  1  0.67226098  0.43106037  0.24127476  1
  O2-  O163  1  0.67594017  0.43220766  0.56664814  1
  O2-  O164  1  0.67390411  0.43111362  0.91048030  1
  O2-  O165  1  0.67304545  0.93355681  0.23627540  1
  O2-  O166  1  0.67722924  0.93351662  0.56852874  1
  O2-  O167  1  0.67401870  0.93195565  0.90278005  1
  O2-  O168  1  0.43065913  0.31992847  0.09009178  1
  O2-  O169  1  0.42878774  0.32303918  0.42000968  1
  O2-  O170  1  0.42987116  0.32100598  0.76555176  1
  O2-  O171  1  0.42532321  0.82146192  0.09046808  1
  O2-  O172  1  0.43099450  0.82392696  0.42132148  1
  O2-  O173  1  0.43074692  0.81870729  0.76645427  1
  O2-  O174  1  0.92998350  0.32258890  0.08836114  1
  O2-  O175  1  0.92847636  0.32033645  0.43273472  1
  O2-  O176  1  0.93014806  0.32277773  0.75987151  1
  O2-  O177  1  0.92998121  0.81786022  0.09119610  1
  O2-  O178  1  0.92684921  0.81954623  0.43062081  1
  O2-  O179  1  0.92937390  0.81942195  0.76894727  1
  O2-  O180  1  0.32243641  0.07098708  0.23980933  1
  O2-  O181  1  0.31803202  0.07344898  0.56583369  1
  O2-  O182  1  0.31991763  0.07462575  0.91100534  1
  O2-  O183  1  0.32209877  0.57030303  0.23585290  1
  O2-  O184  1  0.32337527  0.57153814  0.57654640  1
  O2-  O185  1  0.31852416  0.57068541  0.89998826  1
  O2-  O186  1  0.81677559  0.07094498  0.23542141  1
  O2-  O187  1  0.82435404  0.07257299  0.56723695  1
  O2-  O188  1  0.82411985  0.07017884  0.90370696  1
  O2-  O189  1  0.81838837  0.56843357  0.23323142  1
  O2-  O190  1  0.82381480  0.56812585  0.56685953  1
  O2-  O191  1  0.82167540  0.56989232  0.90230604  1
  O2-  O192  1  0.05145945  0.07788989  0.26266810  1
  O2-  O193  1  0.04746064  0.08122810  0.60376758  1
  O2-  O194  1  0.04824168  0.08407250  0.93847336  1
  O2-  O195  1  0.05734207  0.57695383  0.26763478  1
  O2-  O196  1  0.04872726  0.57508223  0.60407842  1
  O2-  O197  1  0.05148872  0.58271886  0.94448109  1
  O2-  O198  1  0.53262769  0.09020656  0.26601847  1
  O2-  O199  1  0.54554891  0.08743731  0.60096975  1
  O2-  O200  1  0.53756210  0.08828986  0.93718150  1
  O2-  O201  1  0.53567147  0.58762382  0.26529263  1
  O2-  O202  1  0.54095957  0.58706967  0.59933551  1
  O2-  O203  1  0.53859733  0.58805722  0.93683751  1
  O2-  O204  1  0.16922009  0.21124339  0.26095684  1
  O2-  O205  1  0.16396653  0.21585120  0.60236322  1
  O2-  O206  1  0.16341766  0.20952796  0.93626158  1
  O2-  O207  1  0.16942408  0.71736897  0.26488945  1
  O2-  O208  1  0.16993915  0.70459589  0.60236692  1
  O2-  O209  1  0.16314151  0.71092588  0.93908100  1
  O2-  O210  1  0.65923791  0.20377580  0.26687267  1
  O2-  O211  1  0.66740825  0.20527199  0.60269085  1
  O2-  O212  1  0.66317208  0.20295766  0.93792329  1
  O2-  O213  1  0.66060840  0.70153693  0.26881613  1
  O2-  O214  1  0.66720510  0.69753404  0.60505164  1
  O2-  O215  1  0.66307141  0.70344412  0.93841351  1
  O2-  O216  1  0.08432044  0.44654405  0.06517229  1
  O2-  O217  1  0.08467406  0.44363043  0.39249421  1
  O2-  O218  1  0.08589612  0.45561988  0.74015848  1
  O2-  O219  1  0.08896140  0.95567679  0.06507609  1
  O2-  O220  1  0.08512678  0.94847006  0.38950567  1
  O2-  O221  1  0.08390960  0.95568953  0.73774852  1
  O2-  O222  1  0.58363620  0.45554443  0.06297215  1
  O2-  O223  1  0.58577443  0.46026280  0.39453457  1
  O2-  O224  1  0.57917780  0.46094952  0.73364434  1
  O2-  O225  1  0.57793590  0.95936945  0.06841430  1
  O2-  O226  1  0.57998883  0.96630921  0.40049935  1
  O2-  O227  1  0.58199495  0.96195899  0.73527212  1
  O2-  O228  1  0.20996422  0.33354898  0.06814377  1
  O2-  O229  1  0.21480383  0.33561771  0.39578982  1
  O2-  O230  1  0.21668310  0.33668396  0.73707820  1
  O2-  O231  1  0.21193498  0.83901724  0.06703658  1
  O2-  O232  1  0.21835463  0.84416063  0.39557924  1
  O2-  O233  1  0.21276117  0.82998396  0.73569076  1
  O2-  O234  1  0.69820123  0.33309873  0.05958162  1
  O2-  O235  1  0.69080556  0.33054375  0.38954452  1
  O2-  O236  1  0.69719079  0.32998984  0.73481772  1
  O2-  O237  1  0.70143596  0.82967857  0.06703094  1
  O2-  O238  1  0.68971318  0.82553441  0.39771511  1
  O2-  O239  1  0.69766663  0.82812476  0.73350114  1
  O2-  O240  1  0.45935498  0.41559008  0.26817007  1
  O2-  O241  1  0.45842090  0.41843163  0.59638242  1
  O2-  O242  1  0.45514236  0.41376397  0.93814229  1
  O2-  O243  1  0.45697520  0.91488582  0.26782710  1
  O2-  O244  1  0.45912213  0.92080432  0.59920256  1
  O2-  O245  1  0.45200942  0.91476874  0.93906322  1
  O2-  O246  1  0.96117255  0.41502706  0.26178304  1
  O2-  O247  1  0.95923560  0.41288607  0.60821258  1
  O2-  O248  1  0.96054741  0.41194728  0.93600286  1
  O2-  O249  1  0.95803582  0.91425699  0.26096802  1
  O2-  O250  1  0.96050668  0.91634217  0.60111527  1
  O2-  O251  1  0.96039492  0.91039809  0.94120334  1
  O2-  O252  1  0.34002419  0.29583952  0.26420546  1
  O2-  O253  1  0.33495823  0.28841442  0.59612003  1
  O2-  O254  1  0.33703505  0.29162620  0.93967657  1
  O2-  O255  1  0.33977356  0.79411737  0.26789163  1
  O2-  O256  1  0.33620696  0.79175541  0.59674551  1
  O2-  O257  1  0.33628204  0.79085348  0.93814259  1
  O2-  O258  1  0.82585377  0.29698836  0.26549030  1
  O2-  O259  1  0.82975653  0.30493903  0.61122617  1
  O2-  O260  1  0.83482156  0.29817628  0.93782114  1
  O2-  O261  1  0.82392296  0.79171992  0.26695149  1
  O2-  O262  1  0.82694770  0.79608455  0.60334144  1
  O2-  O263  1  0.83541980  0.79278562  0.94139193  1
  O2-  O264  1  0.41089074  0.04430916  0.06391187  1
  O2-  O265  1  0.40851557  0.04092212  0.39394504  1
  O2-  O266  1  0.41934683  0.04749158  0.73258204  1
  O2-  O267  1  0.41497934  0.53833627  0.06798101  1
  O2-  O268  1  0.41567972  0.53912470  0.40292869  1
  O2-  O269  1  0.41494386  0.54457384  0.72823418  1
  O2-  O270  1  0.92296103  0.04505952  0.06846493  1
  O2-  O271  1  0.92596233  0.04952112  0.39324467  1
  O2-  O272  1  0.92231941  0.04296444  0.73517819  1
  O2-  O273  1  0.91901554  0.53939070  0.06805127  1
  O2-  O274  1  0.92245880  0.54110316  0.39598505  1
  O2-  O275  1  0.91943625  0.54064162  0.73697533  1
  O2-  O276  1  0.29216241  0.16375390  0.06451284  1
  O2-  O277  1  0.29999393  0.16920086  0.38838016  1
  O2-  O278  1  0.29042152  0.16950309  0.73470193  1
  O2-  O279  1  0.29045484  0.66746421  0.06860021  1
  O2-  O280  1  0.29509136  0.67190791  0.40045898  1
  O2-  O281  1  0.30006835  0.66689164  0.72791159  1
  O2-  O282  1  0.79311711  0.17084281  0.06736974  1
  O2-  O283  1  0.78771223  0.16798681  0.39946630  1
  O2-  O284  1  0.79522267  0.16872374  0.73464701  1
  O2-  O285  1  0.78772019  0.66405317  0.06938588  1
  O2-  O286  1  0.78638081  0.66235557  0.40073261  1
  O2-  O287  1  0.79173937  0.66678548  0.73531866  1
