# generated using pymatgen
data_Ca2Al2SiO7
_symmetry_space_group_name_H-M   'P 1'
_cell_length_a   15.45622065
_cell_length_b   15.45667972
_cell_length_c   15.28334896
_cell_angle_alpha   90.00042091
_cell_angle_beta   89.99716307
_cell_angle_gamma   89.99933404
_symmetry_Int_Tables_number   1
_chemical_formula_structural   Ca2Al2SiO7
_chemical_formula_sum   'Ca48 Al48 Si24 O168'
_cell_volume   3651.22037034
_cell_formula_units_Z   24
loop_
 _symmetry_equiv_pos_site_id
 _symmetry_equiv_pos_as_xyz
  1  'x, y, z'
loop_
 _atom_type_symbol
 _atom_type_oxidation_number
  Ca2+  2.0
  Al0+  0.0
  Si0+  0.0
  O2-  -2.0
loop_
 _atom_site_type_symbol
 _atom_site_label
 _atom_site_symmetry_multiplicity
 _atom_site_fract_x
 _atom_site_fract_y
 _atom_site_fract_z
 _atom_site_occupancy
  Ca2+  Ca0  1  0.17185364  0.08647598  0.17011117  1
  Ca2+  Ca1  1  0.16947271  0.08194915  0.50895861  1
  Ca2+  Ca2  1  0.18003861  0.07974651  0.83506630  1
  Ca2+  Ca3  1  0.17118021  0.57486767  0.17139912  1
  Ca2+  Ca4  1  0.15880085  0.57289420  0.50383434  1
  Ca2+  Ca5  1  0.16886005  0.57356598  0.83883544  1
  Ca2+  Ca6  1  0.66536729  0.08146522  0.17836778  1
  Ca2+  Ca7  1  0.66741181  0.08654343  0.49455748  1
  Ca2+  Ca8  1  0.66515121  0.08519962  0.83956226  1
  Ca2+  Ca9  1  0.67368085  0.57552880  0.17856771  1
  Ca2+  Ca10  1  0.67643868  0.58069407  0.50377793  1
  Ca2+  Ca11  1  0.66885319  0.58908236  0.83197882  1
  Ca2+  Ca12  1  0.08329639  0.33651225  0.17196770  1
  Ca2+  Ca13  1  0.08286408  0.33154876  0.48815896  1
  Ca2+  Ca14  1  0.09023105  0.33800680  0.83008797  1
  Ca2+  Ca15  1  0.07631572  0.82553884  0.16136363  1
  Ca2+  Ca16  1  0.09018979  0.82062803  0.49528194  1
  Ca2+  Ca17  1  0.08138849  0.82839146  0.82595312  1
  Ca2+  Ca18  1  0.57791178  0.32863818  0.16189805  1
  Ca2+  Ca19  1  0.57023826  0.33247611  0.48878123  1
  Ca2+  Ca20  1  0.56784661  0.33015271  0.82905000  1
  Ca2+  Ca21  1  0.58180634  0.83401447  0.16174483  1
  Ca2+  Ca22  1  0.58769662  0.83042053  0.49845294  1
  Ca2+  Ca23  1  0.57393649  0.82776497  0.83056862  1
  Ca2+  Ca24  1  0.32791033  0.41032393  0.16838139  1
  Ca2+  Ca25  1  0.32401038  0.40739107  0.50391442  1
  Ca2+  Ca26  1  0.32664650  0.41590504  0.84100137  1
  Ca2+  Ca27  1  0.34244761  0.92408027  0.16788573  1
  Ca2+  Ca28  1  0.32569481  0.92764096  0.50915100  1
  Ca2+  Ca29  1  0.33411744  0.92346384  0.83927877  1
  Ca2+  Ca30  1  0.82677185  0.41819708  0.18144762  1
  Ca2+  Ca31  1  0.83417701  0.42247775  0.49849518  1
  Ca2+  Ca32  1  0.83288408  0.42614705  0.83516769  1
  Ca2+  Ca33  1  0.82802714  0.92144248  0.17597268  1
  Ca2+  Ca34  1  0.83050970  0.92219988  0.49729544  1
  Ca2+  Ca35  1  0.83278650  0.91477058  0.83891492  1
  Ca2+  Ca36  1  0.42456135  0.17618411  0.16114547  1
  Ca2+  Ca37  1  0.41438226  0.17653946  0.49370251  1
  Ca2+  Ca38  1  0.40813272  0.17326194  0.83286353  1
  Ca2+  Ca39  1  0.41533461  0.67203434  0.15828304  1
  Ca2+  Ca40  1  0.42382444  0.66598995  0.49755572  1
  Ca2+  Ca41  1  0.41524058  0.66750740  0.82963309  1
  Ca2+  Ca42  1  0.91817240  0.16777326  0.16939538  1
  Ca2+  Ca43  1  0.92460081  0.17203704  0.48619115  1
  Ca2+  Ca44  1  0.92076763  0.17172525  0.82951842  1
  Ca2+  Ca45  1  0.92030886  0.66514346  0.16671186  1
  Ca2+  Ca46  1  0.92483687  0.65752032  0.49536512  1
  Ca2+  Ca47  1  0.92092421  0.67102602  0.82534524  1
  Al0+  Al48  1  -0.00071781  0.00020037  -0.00504657  1
  Al0+  Al49  1  0.00026962  -0.00201997  0.33329103  1
  Al0+  Al50  1  -0.00158897  0.00033204  0.67096969  1
  Al0+  Al51  1  0.00010854  0.49953639  0.00354529  1
  Al0+  Al52  1  0.00264607  0.49961532  0.33049184  1
  Al0+  Al53  1  -0.00192079  0.50183984  0.67351343  1
  Al0+  Al54  1  0.50136611  -0.00275984  -0.00369521  1
  Al0+  Al55  1  0.49891381  0.00022423  0.33798756  1
  Al0+  Al56  1  0.50226097  0.00146973  0.67034182  1
  Al0+  Al57  1  0.50144354  0.49903555  -0.00063108  1
  Al0+  Al58  1  0.49908264  0.50284890  0.33145737  1
  Al0+  Al59  1  0.49994028  0.49918564  0.65699533  1
  Al0+  Al60  1  0.24906484  0.24727554  0.00574589  1
  Al0+  Al61  1  0.25010691  0.25039399  0.32917532  1
  Al0+  Al62  1  0.24897132  0.24936864  0.67089231  1
  Al0+  Al63  1  0.24880197  0.74885611  -0.00179669  1
  Al0+  Al64  1  0.25078392  0.74952663  0.32796727  1
  Al0+  Al65  1  0.24858472  0.74984033  0.66409753  1
  Al0+  Al66  1  0.75231091  0.25023737  -0.00552219  1
  Al0+  Al67  1  0.74953003  0.24946192  0.33662725  1
  Al0+  Al68  1  0.74843973  0.25112035  0.66816021  1
  Al0+  Al69  1  0.75173173  0.75134427  -0.00301839  1
  Al0+  Al70  1  0.75048271  0.75077671  0.34078056  1
  Al0+  Al71  1  0.74991544  0.75147389  0.66693021  1
  Al0+  Al72  1  0.42819964  0.81936529  0.98657582  1
  Al0+  Al73  1  0.32224600  0.06731601  0.01675145  1
  Al0+  Al74  1  0.56971412  0.17814928  0.32041324  1
  Al0+  Al75  1  0.82221406  0.57017193  0.34816631  1
  Al0+  Al76  1  0.07212936  0.17535270  0.31860442  1
  Al0+  Al77  1  0.17919561  0.43069851  0.67935354  1
  Al0+  Al78  1  0.07191246  0.67802311  0.31778803  1
  Al0+  Al79  1  0.92955725  0.82086029  0.98638394  1
  Al0+  Al80  1  0.18338645  0.43046741  0.34777572  1
  Al0+  Al81  1  0.67640915  0.92943518  0.34944096  1
  Al0+  Al82  1  0.81917172  0.57069329  0.68222777  1
  Al0+  Al83  1  0.32336632  0.57228719  0.01390363  1
  Al0+  Al84  1  0.92921593  0.32085550  0.32005427  1
  Al0+  Al85  1  0.42802320  0.32405140  0.31633792  1
  Al0+  Al86  1  0.82300590  0.07200834  0.34771153  1
  Al0+  Al87  1  0.42715467  0.31851586  0.65218492  1
  Al0+  Al88  1  0.17856589  0.42794621  0.01883514  1
  Al0+  Al89  1  0.17753778  0.92619634  0.68173380  1
  Al0+  Al90  1  0.32145357  0.07077603  0.68205975  1
  Al0+  Al91  1  0.57099302  0.68028170  0.65166754  1
  Al0+  Al92  1  0.57282581  0.17847846  0.98427002  1
  Al0+  Al93  1  0.06996026  0.67944269  0.65344475  1
  Al0+  Al94  1  0.67544720  0.42725736  0.34835563  1
  Al0+  Al95  1  0.42751897  0.32053531  0.98353576  1
  Si0+  Si96  1  0.57449804  0.17729152  0.64850903  1
  Si0+  Si97  1  0.42959709  0.82070535  0.31996919  1
  Si0+  Si98  1  0.92933773  0.32224449  0.98342345  1
  Si0+  Si99  1  0.32212149  0.57684891  0.35107377  1
  Si0+  Si100  1  0.57367313  0.67725027  0.98504464  1
  Si0+  Si101  1  0.17568614  0.92785882  0.01704101  1
  Si0+  Si102  1  0.68117051  0.42798472  0.01262798  1
  Si0+  Si103  1  0.42815691  0.82442999  0.64942067  1
  Si0+  Si104  1  0.17873203  0.92623994  0.34538241  1
  Si0+  Si105  1  0.82237033  0.07249812  0.01359966  1
  Si0+  Si106  1  0.81956622  0.57264634  0.01489216  1
  Si0+  Si107  1  0.92747458  0.82432114  0.64768198  1
  Si0+  Si108  1  0.06847259  0.18000543  0.65471406  1
  Si0+  Si109  1  0.67573878  0.42801537  0.68438179  1
  Si0+  Si110  1  0.68052895  0.92919934  0.68518281  1
  Si0+  Si111  1  0.32493281  0.57195819  0.67967304  1
  Si0+  Si112  1  0.92716387  0.82097674  0.31796999  1
  Si0+  Si113  1  0.07029080  0.17830338  0.98321834  1
  Si0+  Si114  1  0.07034296  0.67665899  0.98186747  1
  Si0+  Si115  1  0.82051413  0.07311193  0.68371100  1
  Si0+  Si116  1  0.68139935  0.92940096  0.01330724  1
  Si0+  Si117  1  0.57315288  0.68094034  0.31864656  1
  Si0+  Si118  1  0.31895587  0.06992383  0.34745956  1
  Si0+  Si119  1  0.92750739  0.32199161  0.65387129  1
  O2-  O120  1  0.24774936  -0.00852443  0.06367248  1
  O2-  O121  1  0.24417233  0.00190789  0.38825277  1
  O2-  O122  1  0.25320432  -0.00572899  0.73153060  1
  O2-  O123  1  0.25401859  0.49871150  0.06557363  1
  O2-  O124  1  0.25819812  0.50430474  0.39569205  1
  O2-  O125  1  0.25541875  0.50467359  0.72435036  1
  O2-  O126  1  0.74940028  0.00338183  0.05477022  1
  O2-  O127  1  0.74860566  0.00221093  0.39836886  1
  O2-  O128  1  0.74971865  0.00241935  0.72717005  1
  O2-  O129  1  0.74945310  0.50113608  0.05592993  1
  O2-  O130  1  0.74961994  0.49812721  0.39751708  1
  O2-  O131  1  0.74305042  0.49773313  0.73029959  1
  O2-  O132  1  -0.00198979  0.24582041  0.26889347  1
  O2-  O133  1  -0.00233612  0.25040075  0.61229271  1
  O2-  O134  1  0.00312230  0.25383452  0.94150911  1
  O2-  O135  1  -0.00500761  0.75191020  0.27311943  1
  O2-  O136  1  -0.00161864  0.75744930  0.60505633  1
  O2-  O137  1  0.00370936  0.74744552  0.93775376  1
  O2-  O138  1  0.50428030  0.25473099  0.26893602  1
  O2-  O139  1  0.50308080  0.24385100  0.60694543  1
  O2-  O140  1  0.49851561  0.24713951  0.93304926  1
  O2-  O141  1  0.50179851  0.75135279  0.27676979  1
  O2-  O142  1  0.49481322  0.75402578  0.60455195  1
  O2-  O143  1  0.49869660  0.73965373  0.94135233  1
  O2-  O144  1  0.06634756  0.17317109  0.08771692  1
  O2-  O145  1  0.07331346  0.17582076  0.43296244  1
  O2-  O146  1  0.06649251  0.18041489  0.76016253  1
  O2-  O147  1  0.06767958  0.67717015  0.08746184  1
  O2-  O148  1  0.07263796  0.67978010  0.43101295  1
  O2-  O149  1  0.06585249  0.67916545  0.76660089  1
  O2-  O150  1  0.57637844  0.18035781  0.09729779  1
  O2-  O151  1  0.56239172  0.17550730  0.43404968  1
  O2-  O152  1  0.57876429  0.17933381  0.75398969  1
  O2-  O153  1  0.57913313  0.68172173  0.09047737  1
  O2-  O154  1  0.57240436  0.68224842  0.42371984  1
  O2-  O155  1  0.57043340  0.68354014  0.76515860  1
  O2-  O156  1  0.18346937  0.43193139  0.23526586  1
  O2-  O157  1  0.17705311  0.42889504  0.56659438  1
  O2-  O158  1  0.17617908  0.43103912  0.90467165  1
  O2-  O159  1  0.18138791  0.92447990  0.24034683  1
  O2-  O160  1  0.17771931  0.92941144  0.56748002  1
  O2-  O161  1  0.17465613  0.93146798  0.91159101  1
  O2-  O162  1  0.67666642  0.43162470  0.23370918  1
  O2-  O163  1  0.67824909  0.42702947  0.57944549  1
  O2-  O164  1  0.68381239  0.42875637  0.90736822  1
  O2-  O165  1  0.67709923  0.92744497  0.23531381  1
  O2-  O166  1  0.68121741  0.92842136  0.58053499  1
  O2-  O167  1  0.68429288  0.92741904  0.90802926  1
  O2-  O168  1  0.43138294  0.32017343  0.09644669  1
  O2-  O169  1  0.42466682  0.31939258  0.43022280  1
  O2-  O170  1  0.42676902  0.31883590  0.76515693  1
  O2-  O171  1  0.43453569  0.82146363  0.09998235  1
  O2-  O172  1  0.42765469  0.81908328  0.42502231  1
  O2-  O173  1  0.43045946  0.82420717  0.75505184  1
  O2-  O174  1  0.92431605  0.32111991  0.08767577  1
  O2-  O175  1  0.93414258  0.32156869  0.43424134  1
  O2-  O176  1  0.92684183  0.31921566  0.75967307  1
  O2-  O177  1  0.92837286  0.81980737  0.09923511  1
  O2-  O178  1  0.92888342  0.82283587  0.42340067  1
  O2-  O179  1  0.92676143  0.82321307  0.75379152  1
  O2-  O180  1  0.32186934  0.06596903  0.24250642  1
  O2-  O181  1  0.31738832  0.07126099  0.56795787  1
  O2-  O182  1  0.31925231  0.06669499  0.90377278  1
  O2-  O183  1  0.31945790  0.58246034  0.24582977  1
  O2-  O184  1  0.32509146  0.57159261  0.57414762  1
  O2-  O185  1  0.32049856  0.57303700  0.89986086  1
  O2-  O186  1  0.82439965  0.06707351  0.23366852  1
  O2-  O187  1  0.82213277  0.07334393  0.57937944  1
  O2-  O188  1  0.82247526  0.07166721  0.90795517  1
  O2-  O189  1  0.81832533  0.57194362  0.23370864  1
  O2-  O190  1  0.82075138  0.56758364  0.56996656  1
  O2-  O191  1  0.81854265  0.57286591  0.90959955  1
  O2-  O192  1  0.04647644  0.07595660  0.26534590  1
  O2-  O193  1  0.04038298  0.08759914  0.60839443  1
  O2-  O194  1  0.03758286  0.08961008  0.93205884  1
  O2-  O195  1  0.04084126  0.58355976  0.26164401  1
  O2-  O196  1  0.03338341  0.58322768  0.60164607  1
  O2-  O197  1  0.04072489  0.58366290  0.93656710  1
  O2-  O198  1  0.53755211  0.07972294  0.26793162  1
  O2-  O199  1  0.55341185  0.08121555  0.60605164  1
  O2-  O200  1  0.54912825  0.07814707  0.93315258  1
  O2-  O201  1  0.54666551  0.58998707  0.26947953  1
  O2-  O202  1  0.54403993  0.58424313  0.59524292  1
  O2-  O203  1  0.55655247  0.58201402  0.93958627  1
  O2-  O204  1  0.16829896  0.20610543  0.26387069  1
  O2-  O205  1  0.16027753  0.20662139  0.60813582  1
  O2-  O206  1  0.16323047  0.20333929  0.93773592  1
  O2-  O207  1  0.16670921  0.71248792  0.26200138  1
  O2-  O208  1  0.16751110  0.70523714  0.59781141  1
  O2-  O209  1  0.16441256  0.69971220  0.93652305  1
  O2-  O210  1  0.67207296  0.19589756  0.27271332  1
  O2-  O211  1  0.66800704  0.20457865  0.60238363  1
  O2-  O212  1  0.67123885  0.20798811  0.92917075  1
  O2-  O213  1  0.66513661  0.70972654  0.27198192  1
  O2-  O214  1  0.66685047  0.71507930  0.59857543  1
  O2-  O215  1  0.66373714  0.71094998  0.93546510  1
  O2-  O216  1  0.07965115  0.45850067  0.07068704  1
  O2-  O217  1  0.08624849  0.46186511  0.39983903  1
  O2-  O218  1  0.08386462  0.46146388  0.73642465  1
  O2-  O219  1  0.08281083  0.95871693  0.06244723  1
  O2-  O220  1  0.08548998  0.94633979  0.39249515  1
  O2-  O221  1  0.07951267  0.95676837  0.73539687  1
  O2-  O222  1  0.58876533  0.45190495  0.05958415  1
  O2-  O223  1  0.57766999  0.45992706  0.40053831  1
  O2-  O224  1  0.58154038  0.45529482  0.72811058  1
  O2-  O225  1  0.58877572  0.95248727  0.06005446  1
  O2-  O226  1  0.57880114  0.95657360  0.40569352  1
  O2-  O227  1  0.58814387  0.95457630  0.73300707  1
  O2-  O228  1  0.20169164  0.32793040  0.06960646  1
  O2-  O229  1  0.21143482  0.33164392  0.40000146  1
  O2-  O230  1  0.20813073  0.33432654  0.73456909  1
  O2-  O231  1  0.19479491  0.83145077  0.05898342  1
  O2-  O232  1  0.21302408  0.83685860  0.39401804  1
  O2-  O233  1  0.20168652  0.82613630  0.73340511  1
  O2-  O234  1  0.71367986  0.33717351  0.05895300  1
  O2-  O235  1  0.69927241  0.32868079  0.40163111  1
  O2-  O236  1  0.70330346  0.33508770  0.73189534  1
  O2-  O237  1  0.71245030  0.83855165  0.06154312  1
  O2-  O238  1  0.70712257  0.83308070  0.40523419  1
  O2-  O239  1  0.71071743  0.83893498  0.73413440  1
  O2-  O240  1  0.45073482  0.42506764  0.26583052  1
  O2-  O241  1  0.45587624  0.41445777  0.59637368  1
  O2-  O242  1  0.45755338  0.41957004  0.93125324  1
  O2-  O243  1  0.45756459  0.91266360  0.27358250  1
  O2-  O244  1  0.45786686  0.91758655  0.60428401  1
  O2-  O245  1  0.46510718  0.91189042  0.92893088  1
  O2-  O246  1  0.96056307  0.41676823  0.26391345  1
  O2-  O247  1  0.95506827  0.41436621  0.60994497  1
  O2-  O248  1  0.95548870  0.41539795  0.93683115  1
  O2-  O249  1  0.95347024  0.91340412  0.27001782  1
  O2-  O250  1  0.95000522  0.92008784  0.60462072  1
  O2-  O251  1  0.95732184  0.91760733  0.92991679  1
  O2-  O252  1  0.33262796  0.28934632  0.26257807  1
  O2-  O253  1  0.33044605  0.28457607  0.59947845  1
  O2-  O254  1  0.32725234  0.29041134  0.93478878  1
  O2-  O255  1  0.33972308  0.79325499  0.26875480  1
  O2-  O256  1  0.33342675  0.80259282  0.60434142  1
  O2-  O257  1  0.32969520  0.79532370  0.93269253  1
  O2-  O258  1  0.82913345  0.29632709  0.26876549  1
  O2-  O259  1  0.83510131  0.29503820  0.60773196  1
  O2-  O260  1  0.84058865  0.29165147  0.93081881  1
  O2-  O261  1  0.83264696  0.79590045  0.27303095  1
  O2-  O262  1  0.83403160  0.79790330  0.60320312  1
  O2-  O263  1  0.83397510  0.78945602  0.92932978  1
  O2-  O264  1  0.41953062  0.03362458  0.06783145  1
  O2-  O265  1  0.40740828  0.03794450  0.39836754  1
  O2-  O266  1  0.42188825  0.04763956  0.73363064  1
  O2-  O267  1  0.42520888  0.55140872  0.06439414  1
  O2-  O268  1  0.41834510  0.55704495  0.39332143  1
  O2-  O269  1  0.41912070  0.54697292  0.72485584  1
  O2-  O270  1  0.91346914  0.04201102  0.06000701  1
  O2-  O271  1  0.92055011  0.03954770  0.40265532  1
  O2-  O272  1  0.91159156  0.04568824  0.73356486  1
  O2-  O273  1  0.91163846  0.54574213  0.06096671  1
  O2-  O274  1  0.92069613  0.54042343  0.39903613  1
  O2-  O275  1  0.91253613  0.53753252  0.74124036  1
  O2-  O276  1  0.28972867  0.16254092  0.07091812  1
  O2-  O277  1  0.29234460  0.16216274  0.39335542  1
  O2-  O278  1  0.28523703  0.16517553  0.73787929  1
  O2-  O279  1  0.29406022  0.67139052  0.06701145  1
  O2-  O280  1  0.29370821  0.66942212  0.39850308  1
  O2-  O281  1  0.30171365  0.66714495  0.72361424  1
  O2-  O282  1  0.79830270  0.16603108  0.05864171  1
  O2-  O283  1  0.79910612  0.17000221  0.40295995  1
  O2-  O284  1  0.79317775  0.16522580  0.73223663  1
  O2-  O285  1  0.79137273  0.66458980  0.06169453  1
  O2-  O286  1  0.79507976  0.66793748  0.40254759  1
  O2-  O287  1  0.78881361  0.66863039  0.73501107  1
