# generated using pymatgen
data_Ca2Al2SiO7
_symmetry_space_group_name_H-M   'P 1'
_cell_length_a   15.45288466
_cell_length_b   15.45274037
_cell_length_c   15.28003695
_cell_angle_alpha   90.00260341
_cell_angle_beta   90.00303143
_cell_angle_gamma   90.01424683
_symmetry_Int_Tables_number   1
_chemical_formula_structural   Ca2Al2SiO7
_chemical_formula_sum   'Ca48 Al48 Si24 O168'
_cell_volume   3648.71095846
_cell_formula_units_Z   24
loop_
 _symmetry_equiv_pos_site_id
 _symmetry_equiv_pos_as_xyz
  1  'x, y, z'
loop_
 _atom_type_symbol
 _atom_type_oxidation_number
  Ca2+  2.0
  Al0+  0.0
  Si0+  0.0
  O2-  -2.0
loop_
 _atom_site_type_symbol
 _atom_site_label
 _atom_site_symmetry_multiplicity
 _atom_site_fract_x
 _atom_site_fract_y
 _atom_site_fract_z
 _atom_site_occupancy
  Ca2+  Ca0  1  0.17299099  0.08384980  0.17048469  1
  Ca2+  Ca1  1  0.16972491  0.08144493  0.50461633  1
  Ca2+  Ca2  1  0.15394257  0.08048405  0.83461905  1
  Ca2+  Ca3  1  0.16958904  0.57265833  0.17841968  1
  Ca2+  Ca4  1  0.17219071  0.58050527  0.50386312  1
  Ca2+  Ca5  1  0.16556461  0.57018934  0.83492429  1
  Ca2+  Ca6  1  0.66939779  0.07870470  0.17429584  1
  Ca2+  Ca7  1  0.66081642  0.07163329  0.50303898  1
  Ca2+  Ca8  1  0.67731653  0.07828165  0.83717722  1
  Ca2+  Ca9  1  0.67072990  0.57998359  0.17893930  1
  Ca2+  Ca10  1  0.67279147  0.57771819  0.50464049  1
  Ca2+  Ca11  1  0.67297775  0.57984002  0.82829496  1
  Ca2+  Ca12  1  0.08834594  0.33074353  0.16035850  1
  Ca2+  Ca13  1  0.08245866  0.34261252  0.50075574  1
  Ca2+  Ca14  1  0.08613251  0.32444029  0.82466844  1
  Ca2+  Ca15  1  0.08003094  0.82251982  0.16167682  1
  Ca2+  Ca16  1  0.07875196  0.82852229  0.49727235  1
  Ca2+  Ca17  1  0.07060888  0.83702774  0.82343100  1
  Ca2+  Ca18  1  0.57829787  0.33297559  0.16489350  1
  Ca2+  Ca19  1  0.58793692  0.33155842  0.49175730  1
  Ca2+  Ca20  1  0.57901470  0.33799684  0.82782442  1
  Ca2+  Ca21  1  0.58150395  0.82910984  0.16685666  1
  Ca2+  Ca22  1  0.58781192  0.82755114  0.49118202  1
  Ca2+  Ca23  1  0.57857629  0.83530063  0.82890360  1
  Ca2+  Ca24  1  0.32372393  0.41452193  0.17268093  1
  Ca2+  Ca25  1  0.32504797  0.42870677  0.50465802  1
  Ca2+  Ca26  1  0.32565505  0.41751142  0.83692110  1
  Ca2+  Ca27  1  0.33876870  0.92212112  0.17187182  1
  Ca2+  Ca28  1  0.32791150  0.92349767  0.50448113  1
  Ca2+  Ca29  1  0.32528691  0.91545157  0.83577588  1
  Ca2+  Ca30  1  0.82667004  0.42406650  0.17846386  1
  Ca2+  Ca31  1  0.82753241  0.42561651  0.50664823  1
  Ca2+  Ca32  1  0.83592309  0.41576611  0.83096812  1
  Ca2+  Ca33  1  0.83362425  0.92100879  0.16756215  1
  Ca2+  Ca34  1  0.82165031  0.91014788  0.50579257  1
  Ca2+  Ca35  1  0.83450975  0.91680986  0.83798943  1
  Ca2+  Ca36  1  0.42130913  0.16923666  0.16474239  1
  Ca2+  Ca37  1  0.42155261  0.16718355  0.49070846  1
  Ca2+  Ca38  1  0.41548888  0.17629369  0.83133680  1
  Ca2+  Ca39  1  0.42179359  0.66471774  0.16519489  1
  Ca2+  Ca40  1  0.41888159  0.66283523  0.49216679  1
  Ca2+  Ca41  1  0.41453339  0.66883224  0.82933924  1
  Ca2+  Ca42  1  0.92261749  0.16718715  0.15761494  1
  Ca2+  Ca43  1  0.92136699  0.17418520  0.50143155  1
  Ca2+  Ca44  1  0.92584901  0.16870770  0.82470136  1
  Ca2+  Ca45  1  0.91905702  0.66764992  0.16695192  1
  Ca2+  Ca46  1  0.91519379  0.66474448  0.49486959  1
  Ca2+  Ca47  1  0.91254200  0.67625568  0.82559255  1
  Al0+  Al48  1  -0.00042787  -0.00144746  -0.00013916  1
  Al0+  Al49  1  -0.00042979  0.00183274  0.33179310  1
  Al0+  Al50  1  -0.00023979  0.00003185  0.65744736  1
  Al0+  Al51  1  -0.00021292  0.49908841  0.00568173  1
  Al0+  Al52  1  -0.00120850  0.50060844  0.33395508  1
  Al0+  Al53  1  0.00075788  0.50104380  0.67200073  1
  Al0+  Al54  1  0.50052574  -0.00192998  -0.00512331  1
  Al0+  Al55  1  0.50057524  0.00192555  0.33631428  1
  Al0+  Al56  1  0.49909422  0.00016047  0.67254656  1
  Al0+  Al57  1  0.50046067  0.50005248  -0.00501405  1
  Al0+  Al58  1  0.49829524  0.49965823  0.33304522  1
  Al0+  Al59  1  0.50080234  0.50166171  0.67334997  1
  Al0+  Al60  1  0.25121961  0.24888633  -0.00485452  1
  Al0+  Al61  1  0.24973706  0.24862233  0.34165183  1
  Al0+  Al62  1  0.25349520  0.25071991  0.66305831  1
  Al0+  Al63  1  0.25121146  0.74837166  -0.00375552  1
  Al0+  Al64  1  0.24742690  0.75083561  0.33003347  1
  Al0+  Al65  1  0.24962822  0.75390663  0.67446365  1
  Al0+  Al66  1  0.75086328  0.24911308  0.00540223  1
  Al0+  Al67  1  0.75140357  0.24855216  0.33006625  1
  Al0+  Al68  1  0.75007458  0.24869384  0.66590218  1
  Al0+  Al69  1  0.74941460  0.74908747  -0.00284215  1
  Al0+  Al70  1  0.74872149  0.75231359  0.33298496  1
  Al0+  Al71  1  0.74704010  0.74989039  0.67167279  1
  Al0+  Al72  1  0.43078813  0.31962976  0.98641431  1
  Al0+  Al73  1  0.17965853  0.42832473  0.68328691  1
  Al0+  Al74  1  0.42905113  0.82139976  0.98535205  1
  Al0+  Al75  1  0.82196823  0.57116727  0.68281591  1
  Al0+  Al76  1  0.92629150  0.81982942  0.65116757  1
  Al0+  Al77  1  0.92845885  0.32309503  0.65113241  1
  Al0+  Al78  1  0.68096306  0.93196180  0.34501875  1
  Al0+  Al79  1  0.07341169  0.17946904  0.64779999  1
  Al0+  Al80  1  0.07073508  0.67844829  0.32009833  1
  Al0+  Al81  1  0.17803899  0.42792539  0.34913364  1
  Al0+  Al82  1  0.81998731  0.57243872  0.34710453  1
  Al0+  Al83  1  0.93089850  0.81845728  0.98686136  1
  Al0+  Al84  1  0.18082196  0.42778627  0.01434770  1
  Al0+  Al85  1  0.68008485  0.42579106  0.68241561  1
  Al0+  Al86  1  0.57053844  0.67803076  0.32138468  1
  Al0+  Al87  1  0.67769115  0.42691431  0.34581422  1
  Al0+  Al88  1  0.07016670  0.18044742  0.98817252  1
  Al0+  Al89  1  0.32095478  0.57389195  0.34579613  1
  Al0+  Al90  1  0.17781606  0.93250927  0.67940724  1
  Al0+  Al91  1  0.67775329  0.92828351  0.68222480  1
  Al0+  Al92  1  0.32083637  0.06941407  0.34534532  1
  Al0+  Al93  1  0.82205407  0.06986252  0.01336082  1
  Al0+  Al94  1  0.57190949  0.17807463  0.31970156  1
  Al0+  Al95  1  0.32203993  0.57323138  0.68371280  1
  Si0+  Si96  1  0.57454927  0.17724823  0.98240899  1
  Si0+  Si97  1  0.67755120  0.42933771  0.01574600  1
  Si0+  Si98  1  0.82150085  0.07038125  0.68094179  1
  Si0+  Si99  1  0.32288281  0.07236223  0.68548733  1
  Si0+  Si100  1  0.42691637  0.32066416  0.31829243  1
  Si0+  Si101  1  0.82540978  0.07317229  0.35124428  1
  Si0+  Si102  1  0.56995242  0.17816408  0.65274479  1
  Si0+  Si103  1  0.43152283  0.32345043  0.64977274  1
  Si0+  Si104  1  0.17565768  0.92793044  0.34753826  1
  Si0+  Si105  1  0.42736293  0.82287449  0.65116551  1
  Si0+  Si106  1  0.07222757  0.67508868  0.98255541  1
  Si0+  Si107  1  0.81975303  0.57225300  0.01626216  1
  Si0+  Si108  1  0.07212826  0.17870664  0.31700980  1
  Si0+  Si109  1  0.32182562  0.06949977  0.01312537  1
  Si0+  Si110  1  0.17845545  0.92756738  0.01492366  1
  Si0+  Si111  1  0.57236691  0.67755601  0.98037754  1
  Si0+  Si112  1  0.56795647  0.68057608  0.65165542  1
  Si0+  Si113  1  0.32297080  0.57258930  0.01787107  1
  Si0+  Si114  1  0.67698554  0.92763805  0.01756881  1
  Si0+  Si115  1  0.07300111  0.67973848  0.65218072  1
  Si0+  Si116  1  0.92618246  0.32332626  0.98575070  1
  Si0+  Si117  1  0.42735811  0.82288022  0.31923885  1
  Si0+  Si118  1  0.92987734  0.32078280  0.31696375  1
  Si0+  Si119  1  0.92707835  0.82343663  0.31572996  1
  O2-  O120  1  0.25239805  -0.00336329  0.05618013  1
  O2-  O121  1  0.24562150  -0.00470504  0.39116994  1
  O2-  O122  1  0.24865681  0.00970203  0.72931971  1
  O2-  O123  1  0.25365356  0.50448759  0.06135253  1
  O2-  O124  1  0.24850820  0.50295193  0.39585714  1
  O2-  O125  1  0.25090369  0.50078358  0.73398691  1
  O2-  O126  1  0.74516511  -0.00280593  0.06072973  1
  O2-  O127  1  0.75616883  0.00479928  0.39415814  1
  O2-  O128  1  0.75546570  0.00006941  0.72721269  1
  O2-  O129  1  0.74998784  0.49914592  0.05718028  1
  O2-  O130  1  0.74669116  0.50123108  0.39567111  1
  O2-  O131  1  0.75528976  0.49393692  0.73349799  1
  O2-  O132  1  0.00218416  0.25041959  0.27451496  1
  O2-  O133  1  0.00444868  0.25556516  0.59918150  1
  O2-  O134  1  -0.00439219  0.25552300  0.94229018  1
  O2-  O135  1  -0.00392188  0.75404624  0.27307503  1
  O2-  O136  1  0.00041891  0.74380661  0.60625749  1
  O2-  O137  1  0.00450368  0.74415324  0.93789458  1
  O2-  O138  1  0.49926580  0.25524808  0.27356898  1
  O2-  O139  1  0.50281991  0.25197736  0.60894969  1
  O2-  O140  1  0.50790944  0.24747624  0.93777052  1
  O2-  O141  1  0.49264428  0.75054790  0.27513953  1
  O2-  O142  1  0.49600160  0.75050508  0.60845749  1
  O2-  O143  1  0.50274029  0.74632068  0.93766320  1
  O2-  O144  1  0.07124382  0.18080174  0.10186323  1
  O2-  O145  1  0.07044807  0.17519255  0.42125934  1
  O2-  O146  1  0.06930704  0.17744372  0.76182333  1
  O2-  O147  1  0.07106040  0.67646751  0.08842533  1
  O2-  O148  1  0.07193675  0.68181601  0.43298314  1
  O2-  O149  1  0.07278383  0.68386338  0.75806762  1
  O2-  O150  1  0.57254566  0.17616789  0.08805505  1
  O2-  O151  1  0.56823598  0.17558143  0.43294426  1
  O2-  O152  1  0.56731176  0.17740513  0.75809083  1
  O2-  O153  1  0.57333528  0.67697502  0.08614234  1
  O2-  O154  1  0.57173070  0.68102412  0.43434646  1
  O2-  O155  1  0.56709682  0.68248179  0.75711825  1
  O2-  O156  1  0.18109796  0.42521622  0.23490923  1
  O2-  O157  1  0.18246981  0.43131586  0.57006152  1
  O2-  O158  1  0.18197600  0.42731161  0.90187111  1
  O2-  O159  1  0.17490427  0.92994236  0.24145023  1
  O2-  O160  1  0.18248483  0.93073601  0.56620221  1
  O2-  O161  1  0.17716423  0.93016779  0.91000847  1
  O2-  O162  1  0.68043580  0.42789384  0.23130120  1
  O2-  O163  1  0.67740595  0.42786198  0.56928298  1
  O2-  O164  1  0.67759650  0.42908392  0.91096684  1
  O2-  O165  1  0.68089069  0.93267567  0.23165801  1
  O2-  O166  1  0.67510244  0.92952347  0.56910547  1
  O2-  O167  1  0.67677760  0.92878927  0.91200585  1
  O2-  O168  1  0.43142405  0.31714788  0.09960278  1
  O2-  O169  1  0.42667922  0.31825994  0.42376650  1
  O2-  O170  1  0.43169076  0.32097121  0.75534506  1
  O2-  O171  1  0.43132142  0.82341830  0.09857894  1
  O2-  O172  1  0.42833784  0.82468579  0.42482810  1
  O2-  O173  1  0.42972135  0.82324830  0.75642743  1
  O2-  O174  1  0.92578825  0.32222658  0.09166327  1
  O2-  O175  1  0.92854476  0.31964854  0.42147734  1
  O2-  O176  1  0.92705312  0.31707446  0.76520253  1
  O2-  O177  1  0.93216278  0.81753611  0.10011686  1
  O2-  O178  1  0.92751418  0.82516719  0.42104385  1
  O2-  O179  1  0.92805875  0.82052733  0.76470502  1
  O2-  O180  1  0.32006250  0.06890217  0.23141471  1
  O2-  O181  1  0.32760318  0.06764855  0.57996340  1
  O2-  O182  1  0.32192478  0.06909729  0.90835097  1
  O2-  O183  1  0.32040471  0.57226062  0.23185767  1
  O2-  O184  1  0.32331575  0.57309520  0.57022339  1
  O2-  O185  1  0.32232973  0.57224613  0.91252621  1
  O2-  O186  1  0.82728469  0.07098817  0.24521886  1
  O2-  O187  1  0.81749047  0.07082225  0.57539539  1
  O2-  O188  1  0.82100834  0.06857360  0.90035153  1
  O2-  O189  1  0.81902214  0.57032308  0.23248968  1
  O2-  O190  1  0.81672774  0.57356585  0.56967247  1
  O2-  O191  1  0.81939389  0.57337283  0.91163951  1
  O2-  O192  1  0.04410762  0.08698795  0.26763847  1
  O2-  O193  1  0.04183507  0.08309160  0.59217848  1
  O2-  O194  1  0.03806439  0.08380057  0.93534120  1
  O2-  O195  1  0.03884511  0.58257638  0.26406643  1
  O2-  O196  1  0.05309480  0.58407943  0.60943849  1
  O2-  O197  1  0.04471943  0.58100464  0.93879469  1
  O2-  O198  1  0.53629238  0.08340584  0.26375184  1
  O2-  O199  1  0.53690741  0.08689496  0.60625333  1
  O2-  O200  1  0.54817157  0.08422067  0.93569802  1
  O2-  O201  1  0.54205446  0.58143414  0.26457056  1
  O2-  O202  1  0.54180814  0.58747850  0.60636027  1
  O2-  O203  1  0.54708316  0.58467459  0.93280075  1
  O2-  O204  1  0.16562863  0.20553823  0.27206370  1
  O2-  O205  1  0.17502973  0.20185187  0.59821334  1
  O2-  O206  1  0.16622468  0.20759329  0.93208004  1
  O2-  O207  1  0.16566472  0.71035651  0.26135603  1
  O2-  O208  1  0.16555706  0.71202187  0.60727573  1
  O2-  O209  1  0.16665629  0.69813048  0.93791766  1
  O2-  O210  1  0.66956823  0.20386017  0.26426265  1
  O2-  O211  1  0.66285027  0.19997441  0.60566903  1
  O2-  O212  1  0.66933141  0.20219292  0.93861503  1
  O2-  O213  1  0.66505316  0.71333247  0.26437919  1
  O2-  O214  1  0.65916834  0.71065884  0.60559511  1
  O2-  O215  1  0.66493803  0.70479352  0.93318732  1
  O2-  O216  1  0.08279713  0.45497041  0.06873702  1
  O2-  O217  1  0.07925686  0.45577322  0.39905210  1
  O2-  O218  1  0.08116229  0.45349012  0.73726804  1
  O2-  O219  1  0.08866558  0.95721652  0.06444779  1
  O2-  O220  1  0.08295032  0.95578110  0.39402988  1
  O2-  O221  1  0.07940245  0.96181217  0.73118777  1
  O2-  O222  1  0.58567721  0.45911873  0.06206021  1
  O2-  O223  1  0.57774051  0.44963380  0.39602691  1
  O2-  O224  1  0.58448327  0.46045135  0.73781689  1
  O2-  O225  1  0.58273836  0.95351434  0.06242659  1
  O2-  O226  1  0.58566432  0.96312311  0.40083428  1
  O2-  O227  1  0.58296437  0.96262858  0.73825728  1
  O2-  O228  1  0.21517549  0.33080131  0.06646420  1
  O2-  O229  1  0.20594750  0.33091085  0.40370013  1
  O2-  O230  1  0.21146256  0.32888130  0.73290609  1
  O2-  O231  1  0.20505887  0.83401268  0.06001836  1
  O2-  O232  1  0.19944094  0.83457617  0.39329615  1
  O2-  O233  1  0.21004313  0.83926450  0.73874107  1
  O2-  O234  1  0.70199112  0.33647227  0.06304397  1
  O2-  O235  1  0.70760774  0.32811104  0.39648395  1
  O2-  O236  1  0.70317055  0.32568997  0.73527301  1
  O2-  O237  1  0.70347929  0.83315832  0.06140372  1
  O2-  O238  1  0.71042301  0.83601588  0.40019639  1
  O2-  O239  1  0.70504136  0.83267874  0.73838062  1
  O2-  O240  1  0.44807091  0.41458134  0.27088625  1
  O2-  O241  1  0.45985522  0.41616718  0.60544725  1
  O2-  O242  1  0.45963757  0.41628369  0.93109603  1
  O2-  O243  1  0.45895971  0.91449422  0.27195171  1
  O2-  O244  1  0.45695399  0.91536106  0.60584689  1
  O2-  O245  1  0.45926083  0.91699001  0.92791685  1
  O2-  O246  1  0.95571982  0.41278060  0.26874375  1
  O2-  O247  1  0.95303389  0.42436806  0.60190779  1
  O2-  O248  1  0.94971154  0.41822907  0.94180251  1
  O2-  O249  1  0.95433101  0.91726885  0.26918899  1
  O2-  O250  1  0.95656869  0.91490553  0.59484751  1
  O2-  O251  1  0.96242879  0.91445857  0.93276618  1
  O2-  O252  1  0.33446479  0.28829769  0.27269094  1
  O2-  O253  1  0.34088527  0.29554288  0.60097101  1
  O2-  O254  1  0.33750611  0.28431072  0.92899251  1
  O2-  O255  1  0.33264217  0.80391930  0.27220167  1
  O2-  O256  1  0.33381903  0.79878150  0.60602251  1
  O2-  O257  1  0.33180295  0.79278789  0.93031681  1
  O2-  O258  1  0.83929522  0.29153062  0.26677181  1
  O2-  O259  1  0.83067902  0.29015587  0.59760521  1
  O2-  O260  1  0.83193366  0.29786501  0.94082381  1
  O2-  O261  1  0.83413327  0.79843254  0.26830189  1
  O2-  O262  1  0.82772630  0.78939382  0.60085732  1
  O2-  O263  1  0.83301495  0.79004490  0.93363270  1
  O2-  O264  1  0.41482231  0.04206639  0.05955309  1
  O2-  O265  1  0.41539744  0.03869480  0.40244715  1
  O2-  O266  1  0.41289203  0.04152228  0.73607491  1
  O2-  O267  1  0.41836330  0.54665701  0.06045625  1
  O2-  O268  1  0.41883920  0.54572468  0.39901580  1
  O2-  O269  1  0.41942736  0.54462301  0.73870572  1
  O2-  O270  1  0.91685937  0.03554597  0.06987567  1
  O2-  O271  1  0.91895575  0.04819033  0.39749901  1
  O2-  O272  1  0.91620298  0.04567142  0.72381970  1
  O2-  O273  1  0.91198518  0.54662079  0.06436730  1
  O2-  O274  1  0.91726517  0.54328648  0.39957364  1
  O2-  O275  1  0.92138900  0.55112370  0.73688517  1
  O2-  O276  1  0.29230786  0.16025395  0.06087327  1
  O2-  O277  1  0.29104142  0.16329970  0.40379178  1
  O2-  O278  1  0.30434346  0.16882649  0.72710747  1
  O2-  O279  1  0.29980845  0.66776749  0.06229436  1
  O2-  O280  1  0.29470389  0.67368254  0.39720691  1
  O2-  O281  1  0.29543729  0.67203815  0.73697381  1
  O2-  O282  1  0.79447520  0.16677659  0.06984769  1
  O2-  O283  1  0.80038169  0.16704352  0.39500484  1
  O2-  O284  1  0.79351980  0.16216720  0.72925669  1
  O2-  O285  1  0.78951337  0.66348257  0.06384538  1
  O2-  O286  1  0.79451295  0.67181352  0.39743059  1
  O2-  O287  1  0.78417058  0.66576709  0.73863742  1
