# generated using pymatgen
data_Ca2Al2SiO7
_symmetry_space_group_name_H-M   'P 1'
_cell_length_a   15.45744807
_cell_length_b   15.45813535
_cell_length_c   15.28431743
_cell_angle_alpha   90.00213665
_cell_angle_beta   90.00771546
_cell_angle_gamma   89.99679597
_symmetry_Int_Tables_number   1
_chemical_formula_structural   Ca2Al2SiO7
_chemical_formula_sum   'Ca48 Al48 Si24 O168'
_cell_volume   3652.08557959
_cell_formula_units_Z   24
loop_
 _symmetry_equiv_pos_site_id
 _symmetry_equiv_pos_as_xyz
  1  'x, y, z'
loop_
 _atom_type_symbol
 _atom_type_oxidation_number
  Ca2+  2.0
  Al0+  0.0
  Si0+  0.0
  O2-  -2.0
loop_
 _atom_site_type_symbol
 _atom_site_label
 _atom_site_symmetry_multiplicity
 _atom_site_fract_x
 _atom_site_fract_y
 _atom_site_fract_z
 _atom_site_occupancy
  Ca2+  Ca0  1  0.17306441  0.08546582  0.16645775  1
  Ca2+  Ca1  1  0.16380836  0.08257584  0.50450538  1
  Ca2+  Ca2  1  0.16649041  0.07836468  0.84027099  1
  Ca2+  Ca3  1  0.16252499  0.57557113  0.16574797  1
  Ca2+  Ca4  1  0.16705354  0.58501320  0.51038576  1
  Ca2+  Ca5  1  0.16285713  0.57715015  0.83734531  1
  Ca2+  Ca6  1  0.67313940  0.06669622  0.17534755  1
  Ca2+  Ca7  1  0.67788851  0.08141508  0.50803970  1
  Ca2+  Ca8  1  0.67356720  0.08640999  0.83727536  1
  Ca2+  Ca9  1  0.66140595  0.58070261  0.16440808  1
  Ca2+  Ca10  1  0.67414366  0.57855492  0.51385171  1
  Ca2+  Ca11  1  0.66192683  0.57644471  0.83485482  1
  Ca2+  Ca12  1  0.08494683  0.32178404  0.15913475  1
  Ca2+  Ca13  1  0.07412792  0.32216637  0.49899521  1
  Ca2+  Ca14  1  0.08257408  0.32256983  0.82650679  1
  Ca2+  Ca15  1  0.07069303  0.84336881  0.16004219  1
  Ca2+  Ca16  1  0.07927166  0.83277567  0.49985427  1
  Ca2+  Ca17  1  0.08118209  0.83715852  0.82794380  1
  Ca2+  Ca18  1  0.58256248  0.33077185  0.15967773  1
  Ca2+  Ca19  1  0.58661700  0.32766430  0.50725774  1
  Ca2+  Ca20  1  0.58000797  0.33370141  0.82210419  1
  Ca2+  Ca21  1  0.58377162  0.83354916  0.15239275  1
  Ca2+  Ca22  1  0.59333410  0.82770905  0.49783307  1
  Ca2+  Ca23  1  0.58229586  0.82888658  0.83358394  1
  Ca2+  Ca24  1  0.32518487  0.41497153  0.16535512  1
  Ca2+  Ca25  1  0.33322997  0.41549790  0.50582274  1
  Ca2+  Ca26  1  0.33040342  0.41527291  0.83875411  1
  Ca2+  Ca27  1  0.33466981  0.92730629  0.16744268  1
  Ca2+  Ca28  1  0.32535255  0.92420394  0.50657737  1
  Ca2+  Ca29  1  0.32219053  0.91984019  0.84300963  1
  Ca2+  Ca30  1  0.82732910  0.41793714  0.16663045  1
  Ca2+  Ca31  1  0.83127443  0.42136982  0.51596920  1
  Ca2+  Ca32  1  0.82758915  0.41815520  0.83322385  1
  Ca2+  Ca33  1  0.82753858  0.91212823  0.17199085  1
  Ca2+  Ca34  1  0.83635318  0.92415512  0.49959723  1
  Ca2+  Ca35  1  0.83153245  0.92133938  0.83757508  1
  Ca2+  Ca36  1  0.41346192  0.16091329  0.16174608  1
  Ca2+  Ca37  1  0.41884039  0.16795552  0.50062817  1
  Ca2+  Ca38  1  0.42194172  0.17002792  0.82656270  1
  Ca2+  Ca39  1  0.42467893  0.67962383  0.15439620  1
  Ca2+  Ca40  1  0.42452328  0.66849586  0.50056215  1
  Ca2+  Ca41  1  0.42656581  0.67071368  0.83078117  1
  Ca2+  Ca42  1  0.92890285  0.15544397  0.16467373  1
  Ca2+  Ca43  1  0.92301058  0.15722454  0.49923880  1
  Ca2+  Ca44  1  0.92617676  0.16838030  0.82346140  1
  Ca2+  Ca45  1  0.91416886  0.68117179  0.16101007  1
  Ca2+  Ca46  1  0.91897425  0.66893623  0.49877379  1
  Ca2+  Ca47  1  0.91894666  0.67231648  0.82757229  1
  Al0+  Al48  1  0.00179174  0.00101797  -0.00677808  1
  Al0+  Al49  1  0.00022205  -0.00175432  0.32770222  1
  Al0+  Al50  1  -0.00097492  -0.00084739  0.67080298  1
  Al0+  Al51  1  -0.00178570  0.50058393  0.00723781  1
  Al0+  Al52  1  -0.00023477  0.49745759  0.33237171  1
  Al0+  Al53  1  0.00083669  0.50126350  0.66407251  1
  Al0+  Al54  1  0.50104057  0.00056382  0.00097977  1
  Al0+  Al55  1  0.49862843  -0.00114459  0.34324643  1
  Al0+  Al56  1  0.49865408  0.00032155  0.66252122  1
  Al0+  Al57  1  0.50047901  0.49996404  0.00273395  1
  Al0+  Al58  1  0.49813203  0.49940359  0.33226727  1
  Al0+  Al59  1  0.49894388  0.50245441  0.66114447  1
  Al0+  Al60  1  0.24986597  0.25080351  0.00305058  1
  Al0+  Al61  1  0.24979239  0.25064650  0.33397729  1
  Al0+  Al62  1  0.25016640  0.24998144  0.65852692  1
  Al0+  Al63  1  0.24893077  0.75027380  0.00226808  1
  Al0+  Al64  1  0.25224839  0.74773732  0.33165717  1
  Al0+  Al65  1  0.24912404  0.75055997  0.66696332  1
  Al0+  Al66  1  0.75150409  0.25255712  0.00729663  1
  Al0+  Al67  1  0.74888184  0.24947065  0.33463951  1
  Al0+  Al68  1  0.74875132  0.25053981  0.66821624  1
  Al0+  Al69  1  0.75188232  0.74971292  -0.00651311  1
  Al0+  Al70  1  0.75089096  0.74579461  0.33273425  1
  Al0+  Al71  1  0.75023230  0.75079271  0.66609267  1
  Al0+  Al72  1  0.07134805  0.18181098  0.98518852  1
  Al0+  Al73  1  0.67888642  0.92493444  0.34911043  1
  Al0+  Al74  1  0.57088004  0.68168206  0.65182370  1
  Al0+  Al75  1  0.92851725  0.32134931  0.65424449  1
  Al0+  Al76  1  0.93035205  0.82162418  0.98385693  1
  Al0+  Al77  1  0.93092990  0.81745710  0.32011882  1
  Al0+  Al78  1  0.81966179  0.07057417  0.68172784  1
  Al0+  Al79  1  0.07036727  0.18020740  0.31738872  1
  Al0+  Al80  1  0.18005314  0.92972133  0.67968646  1
  Al0+  Al81  1  0.57224723  0.17671738  0.65211572  1
  Al0+  Al82  1  0.67802034  0.43053745  0.68119471  1
  Al0+  Al83  1  0.06986374  0.17635223  0.65098220  1
  Al0+  Al84  1  0.07123753  0.67976458  0.65523297  1
  Al0+  Al85  1  0.68189643  0.92971164  0.00997338  1
  Al0+  Al86  1  0.17676850  0.92735776  0.01629726  1
  Al0+  Al87  1  0.31996050  0.07207164  0.35038902  1
  Al0+  Al88  1  0.17827357  0.42959173  0.01248399  1
  Al0+  Al89  1  0.32116139  0.07104762  0.01277650  1
  Al0+  Al90  1  0.67787127  0.42934729  0.01501209  1
  Al0+  Al91  1  0.42828417  0.32218889  0.65178854  1
  Al0+  Al92  1  0.42743031  0.82482937  0.98473532  1
  Al0+  Al93  1  0.57123501  0.67803508  0.98383812  1
  Al0+  Al94  1  0.82228576  0.07001570  0.34773204  1
  Al0+  Al95  1  0.82411801  0.57315970  0.68273717  1
  Si0+  Si96  1  0.92652779  0.32437593  0.98462633  1
  Si0+  Si97  1  0.07150944  0.67546217  0.98542768  1
  Si0+  Si98  1  0.42869395  0.82161417  0.31904083  1
  Si0+  Si99  1  0.92571772  0.32400632  0.31473282  1
  Si0+  Si100  1  0.67546173  0.92753048  0.68407022  1
  Si0+  Si101  1  0.32294530  0.57209989  0.01713636  1
  Si0+  Si102  1  0.17923442  0.42965437  0.35023963  1
  Si0+  Si103  1  0.17833543  0.92631177  0.34903587  1
  Si0+  Si104  1  0.82327477  0.07352925  0.01625052  1
  Si0+  Si105  1  0.42626862  0.82171707  0.64878882  1
  Si0+  Si106  1  0.56980382  0.67844931  0.31796013  1
  Si0+  Si107  1  0.07489981  0.67493030  0.31541696  1
  Si0+  Si108  1  0.82170035  0.57269205  0.01852845  1
  Si0+  Si109  1  0.82068896  0.56807016  0.34775852  1
  Si0+  Si110  1  0.57327616  0.17974997  0.98907552  1
  Si0+  Si111  1  0.67643795  0.42889760  0.34920034  1
  Si0+  Si112  1  0.32074738  0.57049474  0.34903417  1
  Si0+  Si113  1  0.92759941  0.82234663  0.64947835  1
  Si0+  Si114  1  0.43000365  0.32086006  0.31558474  1
  Si0+  Si115  1  0.32076618  0.57177269  0.68142644  1
  Si0+  Si116  1  0.43000362  0.32048505  0.98786721  1
  Si0+  Si117  1  0.17988543  0.42853230  0.67926077  1
  Si0+  Si118  1  0.32214416  0.07403286  0.68299662  1
  Si0+  Si119  1  0.57070458  0.17754514  0.31801298  1
  O2-  O120  1  0.25130969  -0.00234853  0.06500640  1
  O2-  O121  1  0.24501806  -0.00367708  0.39443012  1
  O2-  O122  1  0.25353939  0.00565154  0.72620413  1
  O2-  O123  1  0.25101620  0.50611335  0.06118256  1
  O2-  O124  1  0.24617061  0.50436284  0.39283875  1
  O2-  O125  1  0.25156133  0.49866867  0.72239579  1
  O2-  O126  1  0.75570925  0.00339834  0.05972283  1
  O2-  O127  1  0.74848939  -0.00033734  0.39795470  1
  O2-  O128  1  0.74143616  -0.00115864  0.72770028  1
  O2-  O129  1  0.75131961  0.50489418  0.06268665  1
  O2-  O130  1  0.75260814  0.49451784  0.38992521  1
  O2-  O131  1  0.75085711  0.50166151  0.73149592  1
  O2-  O132  1  -0.00821435  0.25243733  0.27129787  1
  O2-  O133  1  -0.00454572  0.24630729  0.60119794  1
  O2-  O134  1  -0.00506541  0.25588816  0.94098798  1
  O2-  O135  1  0.00803260  0.74494150  0.27189068  1
  O2-  O136  1  -0.00495855  0.75126982  0.60665263  1
  O2-  O137  1  0.00877220  0.74861712  0.94074198  1
  O2-  O138  1  0.49953713  0.24833238  0.27359362  1
  O2-  O139  1  0.49940761  0.24895895  0.60212584  1
  O2-  O140  1  0.50255201  0.25131376  0.94692919  1
  O2-  O141  1  0.50428222  0.75483034  0.27692765  1
  O2-  O142  1  0.50017730  0.75928659  0.60275067  1
  O2-  O143  1  0.49889162  0.75116623  0.93608805  1
  O2-  O144  1  0.07164186  0.18329248  0.09876953  1
  O2-  O145  1  0.07062192  0.18229003  0.43008516  1
  O2-  O146  1  0.07231844  0.17966468  0.76434224  1
  O2-  O147  1  0.06681062  0.67167910  0.09127149  1
  O2-  O148  1  0.07542930  0.67343175  0.42090885  1
  O2-  O149  1  0.07317168  0.67990297  0.76794681  1
  O2-  O150  1  0.57212513  0.18150003  0.09464905  1
  O2-  O151  1  0.57093462  0.18124911  0.42257264  1
  O2-  O152  1  0.56972635  0.17706598  0.76629251  1
  O2-  O153  1  0.56883021  0.67824959  0.09852913  1
  O2-  O154  1  0.56753918  0.67600102  0.42293587  1
  O2-  O155  1  0.56715566  0.67995970  0.76413569  1
  O2-  O156  1  0.18140636  0.43044471  0.24496686  1
  O2-  O157  1  0.18141217  0.43145849  0.57374250  1
  O2-  O158  1  0.18113538  0.43000755  0.89938199  1
  O2-  O159  1  0.18061265  0.92534629  0.24386442  1
  O2-  O160  1  0.18202461  0.92797931  0.56594114  1
  O2-  O161  1  0.17749928  0.92955039  0.90276872  1
  O2-  O162  1  0.67424192  0.43143755  0.24381136  1
  O2-  O163  1  0.67817019  0.43392471  0.56677917  1
  O2-  O164  1  0.67615173  0.42758669  0.90311386  1
  O2-  O165  1  0.67889772  0.92431795  0.23517434  1
  O2-  O166  1  0.67835702  0.92655425  0.57830955  1
  O2-  O167  1  0.68190034  0.93281283  0.89727854  1
  O2-  O168  1  0.43048316  0.32111033  0.09352730  1
  O2-  O169  1  0.43101589  0.32482266  0.42003058  1
  O2-  O170  1  0.42637987  0.32229372  0.76582659  1
  O2-  O171  1  0.43117232  0.82373160  0.09929256  1
  O2-  O172  1  0.42419273  0.81625126  0.42385361  1
  O2-  O173  1  0.42463492  0.81851484  0.75389797  1
  O2-  O174  1  0.92675333  0.32418179  0.09067179  1
  O2-  O175  1  0.92868751  0.33073907  0.41952416  1
  O2-  O176  1  0.93334447  0.32187619  0.76793204  1
  O2-  O177  1  0.92843981  0.81914386  0.09748940  1
  O2-  O178  1  0.93232922  0.81461510  0.43301944  1
  O2-  O179  1  0.92898494  0.82262929  0.75491961  1
  O2-  O180  1  0.32107785  0.07152170  0.23752949  1
  O2-  O181  1  0.32111204  0.07224549  0.57705069  1
  O2-  O182  1  0.32038930  0.07438316  0.89959665  1
  O2-  O183  1  0.32220304  0.56850365  0.24429299  1
  O2-  O184  1  0.31935863  0.57267091  0.57561971  1
  O2-  O185  1  0.32527724  0.56868976  0.91164673  1
  O2-  O186  1  0.82033137  0.06832018  0.23395371  1
  O2-  O187  1  0.82198468  0.06612505  0.56861167  1
  O2-  O188  1  0.81973178  0.07614365  0.91077371  1
  O2-  O189  1  0.81878260  0.56870677  0.24263659  1
  O2-  O190  1  0.82232563  0.57203423  0.56803940  1
  O2-  O191  1  0.82577293  0.57035505  0.91381215  1
  O2-  O192  1  0.04307017  0.08265271  0.26348463  1
  O2-  O193  1  0.04044088  0.07762774  0.59912352  1
  O2-  O194  1  0.04254031  0.08616817  0.93018413  1
  O2-  O195  1  0.04720161  0.58106571  0.27001180  1
  O2-  O196  1  0.04430915  0.58383155  0.59759117  1
  O2-  O197  1  0.04114698  0.58283631  0.93925653  1
  O2-  O198  1  0.54186565  0.08393693  0.27465332  1
  O2-  O199  1  0.54495289  0.07885844  0.59620887  1
  O2-  O200  1  0.54661315  0.08921139  0.94041161  1
  O2-  O201  1  0.53538521  0.58843331  0.26986330  1
  O2-  O202  1  0.53576434  0.58810610  0.59437250  1
  O2-  O203  1  0.53906328  0.57950484  0.93307713  1
  O2-  O204  1  0.16625757  0.21701030  0.26471002  1
  O2-  O205  1  0.16686523  0.20637209  0.59649010  1
  O2-  O206  1  0.16744809  0.21658698  0.93284958  1
  O2-  O207  1  0.17019468  0.69599457  0.27042933  1
  O2-  O208  1  0.16704231  0.71110168  0.59818297  1
  O2-  O209  1  0.16848454  0.69165919  0.94376919  1
  O2-  O210  1  0.66236153  0.20539696  0.26967096  1
  O2-  O211  1  0.66899505  0.20744033  0.59752022  1
  O2-  O212  1  0.66588927  0.20839954  0.94419068  1
  O2-  O213  1  0.66366416  0.69857331  0.27195928  1
  O2-  O214  1  0.66847172  0.70959650  0.59717385  1
  O2-  O215  1  0.66950925  0.70295261  0.93151840  1
  O2-  O216  1  0.08290396  0.45893405  0.07101174  1
  O2-  O217  1  0.08548124  0.45353121  0.39548376  1
  O2-  O218  1  0.08964028  0.45810338  0.72709090  1
  O2-  O219  1  0.07883572  0.96110405  0.06720434  1
  O2-  O220  1  0.08412598  0.95076917  0.39314557  1
  O2-  O221  1  0.08356586  0.95734032  0.73387255  1
  O2-  O222  1  0.58172238  0.45958783  0.07210729  1
  O2-  O223  1  0.58569253  0.46172541  0.39541808  1
  O2-  O224  1  0.57860666  0.46220011  0.73107685  1
  O2-  O225  1  0.58591646  0.95990215  0.06583075  1
  O2-  O226  1  0.57983407  0.94817321  0.40242531  1
  O2-  O227  1  0.57900561  0.94859071  0.72597133  1
  O2-  O228  1  0.21452896  0.33695072  0.07072237  1
  O2-  O229  1  0.21221412  0.34039307  0.39789191  1
  O2-  O230  1  0.20817454  0.33618878  0.72486033  1
  O2-  O231  1  0.19755454  0.82643031  0.06838390  1
  O2-  O232  1  0.20570586  0.83168269  0.39378586  1
  O2-  O233  1  0.21218144  0.83351794  0.73398001  1
  O2-  O234  1  0.71003940  0.33478892  0.07442595  1
  O2-  O235  1  0.69795011  0.33477635  0.39368228  1
  O2-  O236  1  0.70107168  0.33128842  0.73348368  1
  O2-  O237  1  0.71137475  0.83159059  0.06237175  1
  O2-  O238  1  0.70990114  0.82609972  0.40037424  1
  O2-  O239  1  0.70337140  0.83470503  0.72959978  1
  O2-  O240  1  0.45940919  0.41242972  0.26689485  1
  O2-  O241  1  0.45519419  0.42005856  0.59620025  1
  O2-  O242  1  0.45571289  0.41282959  0.94141050  1
  O2-  O243  1  0.45178200  0.91616761  0.27572958  1
  O2-  O244  1  0.44455900  0.91727551  0.60411428  1
  O2-  O245  1  0.45717173  0.92219522  0.93107713  1
  O2-  O246  1  0.95460535  0.41625256  0.26560415  1
  O2-  O247  1  0.96107399  0.41773373  0.59840490  1
  O2-  O248  1  0.95161652  0.41911679  0.94186966  1
  O2-  O249  1  0.95861187  0.91336969  0.26348535  1
  O2-  O250  1  0.95824000  0.91381661  0.60289752  1
  O2-  O251  1  0.95850665  0.91776445  0.92874770  1
  O2-  O252  1  0.33721398  0.29469202  0.26938716  1
  O2-  O253  1  0.33167490  0.29467157  0.59392062  1
  O2-  O254  1  0.33868529  0.29312446  0.94046412  1
  O2-  O255  1  0.33928347  0.78889645  0.26896519  1
  O2-  O256  1  0.33616873  0.78816977  0.60007383  1
  O2-  O257  1  0.32774016  0.79564306  0.93478588  1
  O2-  O258  1  0.82956696  0.30265505  0.27138341  1
  O2-  O259  1  0.82800959  0.30060601  0.60363436  1
  O2-  O260  1  0.83183397  0.29973326  0.94063404  1
  O2-  O261  1  0.83508309  0.78187193  0.26552627  1
  O2-  O262  1  0.83394621  0.79930885  0.60291160  1
  O2-  O263  1  0.83633940  0.78846772  0.92762866  1
  O2-  O264  1  0.41993821  0.04462444  0.06763878  1
  O2-  O265  1  0.41516731  0.04173185  0.40693435  1
  O2-  O266  1  0.41692457  0.04948557  0.72691966  1
  O2-  O267  1  0.41367646  0.54196008  0.06698604  1
  O2-  O268  1  0.41113681  0.53772275  0.39738959  1
  O2-  O269  1  0.41235297  0.54449716  0.72800071  1
  O2-  O270  1  0.91756544  0.04663609  0.05833540  1
  O2-  O271  1  0.92083440  0.03813836  0.39874803  1
  O2-  O272  1  0.91451574  0.03731913  0.73734417  1
  O2-  O273  1  0.91288850  0.54604506  0.07016211  1
  O2-  O274  1  0.91472806  0.54415757  0.39326041  1
  O2-  O275  1  0.92300548  0.54492243  0.73450657  1
  O2-  O276  1  0.29181603  0.16852902  0.06870938  1
  O2-  O277  1  0.29034322  0.17002758  0.40220692  1
  O2-  O278  1  0.29809337  0.16934474  0.72559246  1
  O2-  O279  1  0.30054127  0.66601417  0.06387131  1
  O2-  O280  1  0.29760746  0.66342352  0.39700127  1
  O2-  O281  1  0.29095988  0.66187358  0.72977238  1
  O2-  O282  1  0.79944637  0.16633212  0.06501767  1
  O2-  O283  1  0.79636888  0.17045671  0.39862073  1
  O2-  O284  1  0.79154193  0.16770451  0.73540607  1
  O2-  O285  1  0.79432576  0.66611581  0.06378407  1
  O2-  O286  1  0.79099704  0.65797779  0.39673542  1
  O2-  O287  1  0.79709740  0.67275102  0.73278571  1
