# generated using pymatgen
data_Ca2Al2SiO7
_symmetry_space_group_name_H-M   'P 1'
_cell_length_a   15.46624389
_cell_length_b   15.46628365
_cell_length_c   15.28926063
_cell_angle_alpha   89.99293146
_cell_angle_beta   90.00037138
_cell_angle_gamma   90.03565609
_symmetry_Int_Tables_number   1
_chemical_formula_structural   Ca2Al2SiO7
_chemical_formula_sum   'Ca48 Al48 Si24 O168'
_cell_volume   3657.27166690
_cell_formula_units_Z   24
loop_
 _symmetry_equiv_pos_site_id
 _symmetry_equiv_pos_as_xyz
  1  'x, y, z'
loop_
 _atom_type_symbol
 _atom_type_oxidation_number
  Ca2+  2.0
  Al0+  0.0
  Si0+  0.0
  O2-  -2.0
loop_
 _atom_site_type_symbol
 _atom_site_label
 _atom_site_symmetry_multiplicity
 _atom_site_fract_x
 _atom_site_fract_y
 _atom_site_fract_z
 _atom_site_occupancy
  Ca2+  Ca0  1  0.17295575  0.08885648  0.17593565  1
  Ca2+  Ca1  1  0.17204838  0.07597998  0.50431042  1
  Ca2+  Ca2  1  0.17562926  0.08082525  0.83944308  1
  Ca2+  Ca3  1  0.16075233  0.57235212  0.17052242  1
  Ca2+  Ca4  1  0.15361899  0.57203896  0.50064069  1
  Ca2+  Ca5  1  0.17014606  0.57020270  0.83905635  1
  Ca2+  Ca6  1  0.67549226  0.09000326  0.16949762  1
  Ca2+  Ca7  1  0.66969943  0.08934921  0.50549379  1
  Ca2+  Ca8  1  0.67765769  0.09201909  0.83359000  1
  Ca2+  Ca9  1  0.67647108  0.56979658  0.17218943  1
  Ca2+  Ca10  1  0.67825215  0.58134238  0.50129180  1
  Ca2+  Ca11  1  0.67676815  0.57873766  0.84332590  1
  Ca2+  Ca12  1  0.08543532  0.32739596  0.15907626  1
  Ca2+  Ca13  1  0.08620000  0.32957843  0.49246206  1
  Ca2+  Ca14  1  0.08455238  0.33303299  0.83542219  1
  Ca2+  Ca15  1  0.08311350  0.83019309  0.16984770  1
  Ca2+  Ca16  1  0.08028699  0.83222412  0.48775431  1
  Ca2+  Ca17  1  0.08609717  0.83076881  0.82770049  1
  Ca2+  Ca18  1  0.58695056  0.33478003  0.16445767  1
  Ca2+  Ca19  1  0.58349548  0.32296676  0.49217066  1
  Ca2+  Ca20  1  0.58306664  0.33064979  0.82851828  1
  Ca2+  Ca21  1  0.58098913  0.83038210  0.16231283  1
  Ca2+  Ca22  1  0.57488260  0.83647419  0.49752892  1
  Ca2+  Ca23  1  0.57491543  0.83171945  0.82502389  1
  Ca2+  Ca24  1  0.32115322  0.41775581  0.16816388  1
  Ca2+  Ca25  1  0.31908731  0.41380421  0.50191613  1
  Ca2+  Ca26  1  0.32247934  0.41631959  0.84058155  1
  Ca2+  Ca27  1  0.32405783  0.92904183  0.17325119  1
  Ca2+  Ca28  1  0.32374707  0.92287482  0.50547746  1
  Ca2+  Ca29  1  0.33399616  0.92358951  0.83211723  1
  Ca2+  Ca30  1  0.83104080  0.41881573  0.16989060  1
  Ca2+  Ca31  1  0.83391293  0.42733184  0.50184515  1
  Ca2+  Ca32  1  0.82995257  0.42385078  0.84373532  1
  Ca2+  Ca33  1  0.83863361  0.92165808  0.16964375  1
  Ca2+  Ca34  1  0.83593149  0.92212164  0.50387113  1
  Ca2+  Ca35  1  0.83512072  0.93173386  0.83602496  1
  Ca2+  Ca36  1  0.41872811  0.16198880  0.16500649  1
  Ca2+  Ca37  1  0.42406299  0.15689492  0.49540472  1
  Ca2+  Ca38  1  0.42051197  0.16086132  0.82682511  1
  Ca2+  Ca39  1  0.41391563  0.66482890  0.15844893  1
  Ca2+  Ca40  1  0.41144241  0.67598495  0.49587204  1
  Ca2+  Ca41  1  0.41382077  0.66990894  0.82671085  1
  Ca2+  Ca42  1  0.93083833  0.17139795  0.15604908  1
  Ca2+  Ca43  1  0.92377418  0.16676567  0.49244943  1
  Ca2+  Ca44  1  0.91670742  0.17119056  0.83347784  1
  Ca2+  Ca45  1  0.91439270  0.66598462  0.16783881  1
  Ca2+  Ca46  1  0.91809555  0.67159153  0.48920593  1
  Ca2+  Ca47  1  0.91370376  0.66263180  0.82957609  1
  Al0+  Al48  1  0.00035396  -0.00200679  -0.00160300  1
  Al0+  Al49  1  0.00052526  0.00050410  0.32805027  1
  Al0+  Al50  1  -0.00010741  -0.00027222  0.67438048  1
  Al0+  Al51  1  -0.00040293  0.50065943  0.00220835  1
  Al0+  Al52  1  -0.00090252  0.50159384  0.33754504  1
  Al0+  Al53  1  -0.00132174  0.49919268  0.67513445  1
  Al0+  Al54  1  0.49862321  -0.00144090  0.00198087  1
  Al0+  Al55  1  0.50186015  0.00049389  0.32933444  1
  Al0+  Al56  1  0.50002820  -0.00212102  0.66046102  1
  Al0+  Al57  1  0.50102077  0.49976585  0.00283475  1
  Al0+  Al58  1  0.50013803  0.49941387  0.33803992  1
  Al0+  Al59  1  0.50043869  0.49891282  0.66176335  1
  Al0+  Al60  1  0.25292729  0.24854412  0.00226420  1
  Al0+  Al61  1  0.25404307  0.25187844  0.33831694  1
  Al0+  Al62  1  0.24982687  0.24904853  0.67377822  1
  Al0+  Al63  1  0.25001955  0.75226726  -0.00023565  1
  Al0+  Al64  1  0.24857746  0.75128648  0.32905555  1
  Al0+  Al65  1  0.24888922  0.74836791  0.66318532  1
  Al0+  Al66  1  0.75171386  0.24843721  0.00350850  1
  Al0+  Al67  1  0.74869786  0.25010515  0.33315950  1
  Al0+  Al68  1  0.75072818  0.25189114  0.66487574  1
  Al0+  Al69  1  0.74863078  0.74995609  0.00027824  1
  Al0+  Al70  1  0.74814526  0.75204856  0.33238521  1
  Al0+  Al71  1  0.75061094  0.75076872  0.66943838  1
  Al0+  Al72  1  0.32136090  0.06956213  0.01451210  1
  Al0+  Al73  1  0.67902873  0.42701595  0.01415423  1
  Al0+  Al74  1  0.92660504  0.82235606  0.31773227  1
  Al0+  Al75  1  0.17909975  0.43021776  0.34709085  1
  Al0+  Al76  1  0.82102357  0.07307169  0.67872681  1
  Al0+  Al77  1  0.82191506  0.06986033  0.01493002  1
  Al0+  Al78  1  0.07453637  0.17765656  0.98308292  1
  Al0+  Al79  1  0.32260094  0.06882118  0.68212408  1
  Al0+  Al80  1  0.42829291  0.81855149  0.65094431  1
  Al0+  Al81  1  0.57102490  0.17907466  0.31678963  1
  Al0+  Al82  1  0.07317255  0.18095747  0.32296262  1
  Al0+  Al83  1  0.07083008  0.67775473  0.31733149  1
  Al0+  Al84  1  0.17795287  0.92635758  0.68218390  1
  Al0+  Al85  1  0.17746143  0.92974709  0.34717332  1
  Al0+  Al86  1  0.57065173  0.18128742  0.65378777  1
  Al0+  Al87  1  0.32318429  0.07140133  0.34934588  1
  Al0+  Al88  1  0.81987985  0.57216352  0.34952110  1
  Al0+  Al89  1  0.82184960  0.57334279  0.01692859  1
  Al0+  Al90  1  0.81904014  0.57173941  0.68149098  1
  Al0+  Al91  1  0.67767404  0.42670585  0.35190575  1
  Al0+  Al92  1  0.17945105  0.42891512  0.01583211  1
  Al0+  Al93  1  0.17890309  0.42821366  0.68169501  1
  Al0+  Al94  1  0.92907138  0.32133046  0.98494970  1
  Al0+  Al95  1  0.32086377  0.57300590  0.01213388  1
  Si0+  Si96  1  0.57431879  0.67731143  0.64874428  1
  Si0+  Si97  1  0.82096010  0.07044871  0.34666880  1
  Si0+  Si98  1  0.42917782  0.32402727  0.31549509  1
  Si0+  Si99  1  0.67798960  0.92836986  0.68185648  1
  Si0+  Si100  1  0.67763233  0.42833576  0.68238120  1
  Si0+  Si101  1  0.32348704  0.57130570  0.67966630  1
  Si0+  Si102  1  0.67760554  0.92884443  0.01562923  1
  Si0+  Si103  1  0.42497347  0.32300768  0.64937861  1
  Si0+  Si104  1  0.07141209  0.68033375  0.98344962  1
  Si0+  Si105  1  0.92636950  0.82017822  0.98185448  1
  Si0+  Si106  1  0.92908085  0.82241181  0.65352562  1
  Si0+  Si107  1  0.42934053  0.82110766  0.98382376  1
  Si0+  Si108  1  0.67853015  0.92916712  0.34773213  1
  Si0+  Si109  1  0.43081486  0.32152751  0.98525102  1
  Si0+  Si110  1  0.42895081  0.82076443  0.31509546  1
  Si0+  Si111  1  0.06821504  0.67753670  0.65366748  1
  Si0+  Si112  1  0.17702411  0.92715346  0.01729032  1
  Si0+  Si113  1  0.57019733  0.67862133  0.98462221  1
  Si0+  Si114  1  0.07128504  0.17795555  0.65310746  1
  Si0+  Si115  1  0.92834307  0.32205520  0.31937867  1
  Si0+  Si116  1  0.57072446  0.17715020  0.98511329  1
  Si0+  Si117  1  0.32249829  0.57384307  0.34962174  1
  Si0+  Si118  1  0.93049297  0.32145086  0.65160156  1
  Si0+  Si119  1  0.56970296  0.67877765  0.31789217  1
  O2-  O120  1  0.23974108  0.00197371  0.05945821  1
  O2-  O121  1  0.24848618  0.00179712  0.39787706  1
  O2-  O122  1  0.24916222  -0.00137953  0.73273121  1
  O2-  O123  1  0.24890936  0.50391488  0.06488980  1
  O2-  O124  1  0.25132310  0.50810977  0.39406710  1
  O2-  O125  1  0.25884495  0.49971880  0.72432663  1
  O2-  O126  1  0.74702380  -0.00479141  0.06149174  1
  O2-  O127  1  0.75024389  -0.00068475  0.38948715  1
  O2-  O128  1  0.74467269  -0.00087534  0.72518337  1
  O2-  O129  1  0.75377221  0.49635851  0.06348262  1
  O2-  O130  1  0.75024656  0.49846551  0.40056787  1
  O2-  O131  1  0.74090081  0.50089113  0.72744278  1
  O2-  O132  1  -0.00027347  0.25636250  0.27582423  1
  O2-  O133  1  0.00121170  0.24982456  0.60978350  1
  O2-  O134  1  0.00191212  0.25006053  0.93338983  1
  O2-  O135  1  -0.00226479  0.74934926  0.26776229  1
  O2-  O136  1  0.00025407  0.75176891  0.61184837  1
  O2-  O137  1  -0.00234880  0.74883743  0.94014201  1
  O2-  O138  1  0.49751881  0.25490533  0.27071020  1
  O2-  O139  1  0.49370530  0.25362060  0.60633836  1
  O2-  O140  1  0.50184011  0.25004903  0.94300764  1
  O2-  O141  1  0.49594429  0.74576256  0.27282892  1
  O2-  O142  1  0.50239483  0.74238973  0.60383234  1
  O2-  O143  1  0.49763994  0.74748325  0.94102456  1
  O2-  O144  1  0.07412341  0.17920596  0.09692447  1
  O2-  O145  1  0.06924806  0.18016753  0.43685364  1
  O2-  O146  1  0.07000212  0.17826193  0.75787163  1
  O2-  O147  1  0.07370338  0.68308908  0.08789194  1
  O2-  O148  1  0.06884994  0.67833975  0.43169367  1
  O2-  O149  1  0.06704036  0.67796061  0.75908882  1
  O2-  O150  1  0.56866059  0.17516065  0.08994885  1
  O2-  O151  1  0.57120620  0.17810486  0.43005066  1
  O2-  O152  1  0.57206455  0.18384406  0.76734902  1
  O2-  O153  1  0.56979464  0.68190513  0.08965509  1
  O2-  O154  1  0.56912714  0.68298295  0.42310789  1
  O2-  O155  1  0.57419565  0.67899435  0.75454220  1
  O2-  O156  1  0.18077408  0.42930481  0.23466483  1
  O2-  O157  1  0.17672454  0.42980064  0.56854812  1
  O2-  O158  1  0.18221891  0.43057906  0.90197601  1
  O2-  O159  1  0.18024970  0.92988388  0.23355230  1
  O2-  O160  1  0.17592973  0.92707257  0.56907151  1
  O2-  O161  1  0.18066855  0.92278638  0.91168911  1
  O2-  O162  1  0.67813542  0.42844566  0.23866150  1
  O2-  O163  1  0.68062858  0.42774646  0.57725011  1
  O2-  O164  1  0.67609975  0.43086005  0.90001903  1
  O2-  O165  1  0.67674239  0.92846367  0.24262783  1
  O2-  O166  1  0.68004542  0.92596391  0.57619489  1
  O2-  O167  1  0.67661959  0.92922251  0.90998546  1
  O2-  O168  1  0.43123082  0.32240344  0.09002983  1
  O2-  O169  1  0.42971346  0.32491348  0.42115269  1
  O2-  O170  1  0.42726063  0.32604006  0.75511311  1
  O2-  O171  1  0.43240910  0.82155890  0.08884121  1
  O2-  O172  1  0.43119020  0.82027238  0.42025527  1
  O2-  O173  1  0.43126564  0.81674971  0.76450189  1
  O2-  O174  1  0.92866850  0.31842928  0.09856355  1
  O2-  O175  1  0.92821960  0.31928663  0.42579325  1
  O2-  O176  1  0.92913937  0.32139160  0.75631880  1
  O2-  O177  1  0.92494280  0.82079975  0.08645952  1
  O2-  O178  1  0.92571504  0.82315895  0.43200312  1
  O2-  O179  1  0.92793441  0.82154936  0.75872829  1
  O2-  O180  1  0.32347972  0.06844772  0.23555178  1
  O2-  O181  1  0.32201323  0.06732753  0.56906289  1
  O2-  O182  1  0.32695153  0.06455782  0.90176007  1
  O2-  O183  1  0.32510879  0.57146217  0.24427622  1
  O2-  O184  1  0.32250681  0.57221109  0.57424666  1
  O2-  O185  1  0.31986527  0.57222355  0.89811580  1
  O2-  O186  1  0.81907301  0.06943541  0.24175036  1
  O2-  O187  1  0.82213131  0.07070987  0.56538850  1
  O2-  O188  1  0.81844081  0.06946199  0.90147526  1
  O2-  O189  1  0.81696012  0.57201071  0.23657409  1
  O2-  O190  1  0.81993882  0.57231928  0.56892497  1
  O2-  O191  1  0.81673548  0.57538292  0.90292476  1
  O2-  O192  1  0.04192525  0.08628078  0.26659344  1
  O2-  O193  1  0.04098220  0.08573960  0.60761078  1
  O2-  O194  1  0.04618096  0.07762474  0.93249320  1
  O2-  O195  1  0.04143980  0.57895951  0.26574797  1
  O2-  O196  1  0.03564745  0.58640897  0.60765273  1
  O2-  O197  1  0.04660396  0.58746178  0.93679221  1
  O2-  O198  1  0.54221454  0.08225030  0.26144613  1
  O2-  O199  1  0.54515536  0.08305175  0.59993714  1
  O2-  O200  1  0.54043882  0.08553968  0.93798570  1
  O2-  O201  1  0.54483793  0.58519463  0.27307972  1
  O2-  O202  1  0.55387865  0.58220653  0.60330718  1
  O2-  O203  1  0.54449600  0.58661488  0.93662260  1
  O2-  O204  1  0.17132217  0.21056757  0.27200105  1
  O2-  O205  1  0.16421563  0.20529456  0.60791049  1
  O2-  O206  1  0.17416477  0.20592465  0.93162108  1
  O2-  O207  1  0.16924489  0.70535523  0.26279258  1
  O2-  O208  1  0.16117172  0.69876046  0.60625792  1
  O2-  O209  1  0.16225498  0.71188248  0.93463924  1
  O2-  O210  1  0.66845546  0.20919586  0.26351467  1
  O2-  O211  1  0.66698956  0.21328429  0.59839838  1
  O2-  O212  1  0.66366410  0.20294905  0.93950042  1
  O2-  O213  1  0.65888178  0.71166583  0.26922022  1
  O2-  O214  1  0.66642247  0.70889550  0.60250524  1
  O2-  O215  1  0.66075623  0.70951753  0.93561179  1
  O2-  O216  1  0.08076124  0.45534275  0.06693230  1
  O2-  O217  1  0.08256849  0.45838004  0.40293049  1
  O2-  O218  1  0.08566399  0.46375304  0.73825504  1
  O2-  O219  1  0.08075837  0.94380975  0.05951817  1
  O2-  O220  1  0.07783111  0.95648291  0.39846064  1
  O2-  O221  1  0.08042900  0.95289430  0.73766850  1
  O2-  O222  1  0.58253177  0.45866341  0.06846195  1
  O2-  O223  1  0.57951821  0.45593689  0.40513741  1
  O2-  O224  1  0.58089827  0.44803314  0.72502549  1
  O2-  O225  1  0.58488982  0.95428383  0.06323158  1
  O2-  O226  1  0.58772699  0.95860905  0.39574484  1
  O2-  O227  1  0.58381475  0.95142633  0.72654127  1
  O2-  O228  1  0.21235981  0.33197066  0.06742199  1
  O2-  O229  1  0.21373589  0.33635682  0.40429288  1
  O2-  O230  1  0.20665580  0.33227580  0.73737922  1
  O2-  O231  1  0.20990418  0.83691069  0.06523403  1
  O2-  O232  1  0.20646177  0.83025263  0.39792304  1
  O2-  O233  1  0.20727887  0.82684954  0.73327328  1
  O2-  O234  1  0.70289014  0.32812720  0.06660360  1
  O2-  O235  1  0.70640910  0.32772734  0.40361756  1
  O2-  O236  1  0.70764845  0.33689755  0.72948327  1
  O2-  O237  1  0.70128916  0.83479018  0.06129907  1
  O2-  O238  1  0.70344202  0.83800245  0.39734363  1
  O2-  O239  1  0.70446911  0.83621934  0.73071454  1
  O2-  O240  1  0.45493240  0.41813456  0.26986986  1
  O2-  O241  1  0.44882335  0.41662195  0.60109082  1
  O2-  O242  1  0.45867064  0.41323056  0.93639117  1
  O2-  O243  1  0.46342630  0.90980875  0.26685788  1
  O2-  O244  1  0.46205892  0.91257493  0.59407233  1
  O2-  O245  1  0.46246540  0.91093167  0.93503408  1
  O2-  O246  1  0.95007433  0.41709436  0.27654170  1
  O2-  O247  1  0.96061612  0.41357103  0.60572732  1
  O2-  O248  1  0.95454107  0.42180041  0.93299929  1
  O2-  O249  1  0.95609720  0.91927394  0.26218158  1
  O2-  O250  1  0.95577469  0.91506838  0.60705745  1
  O2-  O251  1  0.95456063  0.91163442  0.93364074  1
  O2-  O252  1  0.33600583  0.29770050  0.26953852  1
  O2-  O253  1  0.33037118  0.29715687  0.60552857  1
  O2-  O254  1  0.33997333  0.29287034  0.93684416  1
  O2-  O255  1  0.33677719  0.79707338  0.26716507  1
  O2-  O256  1  0.33227916  0.78719988  0.59522329  1
  O2-  O257  1  0.33692214  0.79654122  0.93612739  1
  O2-  O258  1  0.83574826  0.29417022  0.27344649  1
  O2-  O259  1  0.83913355  0.29463072  0.60289883  1
  O2-  O260  1  0.83028799  0.28992093  0.93193363  1
  O2-  O261  1  0.82690184  0.79675558  0.26469091  1
  O2-  O262  1  0.83638187  0.79576555  0.60659131  1
  O2-  O263  1  0.83383283  0.79342478  0.93421433  1
  O2-  O264  1  0.41557195  0.03253565  0.06989690  1
  O2-  O265  1  0.42164140  0.03747097  0.39895429  1
  O2-  O266  1  0.42151763  0.03683800  0.73271583  1
  O2-  O267  1  0.41930201  0.54640192  0.06475984  1
  O2-  O268  1  0.41508326  0.54860331  0.39804185  1
  O2-  O269  1  0.41978537  0.55145421  0.72357900  1
  O2-  O270  1  0.91848852  0.03736135  0.06708438  1
  O2-  O271  1  0.91253107  0.04260036  0.39359258  1
  O2-  O272  1  0.91422309  0.04020676  0.73692337  1
  O2-  O273  1  0.92188737  0.55157172  0.06659693  1
  O2-  O274  1  0.91791498  0.54589675  0.40381734  1
  O2-  O275  1  0.91291862  0.53796457  0.73784072  1
  O2-  O276  1  0.29923890  0.16780590  0.06751713  1
  O2-  O277  1  0.30192987  0.17100371  0.40138331  1
  O2-  O278  1  0.29811396  0.16783650  0.73514502  1
  O2-  O279  1  0.29682641  0.67301225  0.06362074  1
  O2-  O280  1  0.29968911  0.66933907  0.39227029  1
  O2-  O281  1  0.29520561  0.66351400  0.72633849  1
  O2-  O282  1  0.79066394  0.16441340  0.07038323  1
  O2-  O283  1  0.79275847  0.16159047  0.39447969  1
  O2-  O284  1  0.78900493  0.16921167  0.73292992  1
  O2-  O285  1  0.78822835  0.67066645  0.06850190  1
  O2-  O286  1  0.78708654  0.67079878  0.40081498  1
  O2-  O287  1  0.79159490  0.66947571  0.73560941  1
