# generated using pymatgen
data_Ca2Al2SiO7
_symmetry_space_group_name_H-M   'P 1'
_cell_length_a   15.46132555
_cell_length_b   15.45954133
_cell_length_c   15.28512608
_cell_angle_alpha   89.98756905
_cell_angle_beta   90.01382926
_cell_angle_gamma   90.01733283
_symmetry_Int_Tables_number   1
_chemical_formula_structural   Ca2Al2SiO7
_chemical_formula_sum   'Ca48 Al48 Si24 O168'
_cell_volume   3653.52692190
_cell_formula_units_Z   24
loop_
 _symmetry_equiv_pos_site_id
 _symmetry_equiv_pos_as_xyz
  1  'x, y, z'
loop_
 _atom_type_symbol
 _atom_type_oxidation_number
  Ca2+  2.0
  Al0+  0.0
  Si0+  0.0
  O2-  -2.0
loop_
 _atom_site_type_symbol
 _atom_site_label
 _atom_site_symmetry_multiplicity
 _atom_site_fract_x
 _atom_site_fract_y
 _atom_site_fract_z
 _atom_site_occupancy
  Ca2+  Ca0  1  0.16930824  0.07497769  0.17338346  1
  Ca2+  Ca1  1  0.16657250  0.07879716  0.50829510  1
  Ca2+  Ca2  1  0.17158457  0.08963552  0.83169679  1
  Ca2+  Ca3  1  0.17415361  0.58383112  0.17425240  1
  Ca2+  Ca4  1  0.15385662  0.57287604  0.50249625  1
  Ca2+  Ca5  1  0.16721972  0.58047950  0.83811366  1
  Ca2+  Ca6  1  0.67015289  0.07637710  0.16944733  1
  Ca2+  Ca7  1  0.67933972  0.08035682  0.50095125  1
  Ca2+  Ca8  1  0.67576598  0.08063907  0.84548477  1
  Ca2+  Ca9  1  0.67258021  0.58034341  0.17511274  1
  Ca2+  Ca10  1  0.66715394  0.58494208  0.49997095  1
  Ca2+  Ca11  1  0.66691595  0.57958230  0.84535890  1
  Ca2+  Ca12  1  0.06949625  0.33964249  0.16592498  1
  Ca2+  Ca13  1  0.08104873  0.33051962  0.49233899  1
  Ca2+  Ca14  1  0.07559562  0.33112275  0.82715617  1
  Ca2+  Ca15  1  0.08340510  0.83083482  0.16641808  1
  Ca2+  Ca16  1  0.08580527  0.82352232  0.49207979  1
  Ca2+  Ca17  1  0.07941300  0.82474750  0.82711603  1
  Ca2+  Ca18  1  0.59745115  0.32836438  0.16021130  1
  Ca2+  Ca19  1  0.58285918  0.33417543  0.49280067  1
  Ca2+  Ca20  1  0.59007662  0.32806008  0.83553789  1
  Ca2+  Ca21  1  0.58724154  0.82789733  0.15862880  1
  Ca2+  Ca22  1  0.58715453  0.82475384  0.49312732  1
  Ca2+  Ca23  1  0.58809882  0.82348110  0.83381039  1
  Ca2+  Ca24  1  0.32929816  0.42411580  0.17014730  1
  Ca2+  Ca25  1  0.31866616  0.41646810  0.50453396  1
  Ca2+  Ca26  1  0.32385797  0.42266079  0.83732945  1
  Ca2+  Ca27  1  0.33187043  0.91212762  0.16920751  1
  Ca2+  Ca28  1  0.32796623  0.92075343  0.50138992  1
  Ca2+  Ca29  1  0.33504233  0.91556620  0.83633534  1
  Ca2+  Ca30  1  0.82720392  0.42023015  0.16896048  1
  Ca2+  Ca31  1  0.83406578  0.41907534  0.49299535  1
  Ca2+  Ca32  1  0.83011927  0.42304249  0.84451785  1
  Ca2+  Ca33  1  0.82315567  0.92643774  0.17226872  1
  Ca2+  Ca34  1  0.83227956  0.92405192  0.50102870  1
  Ca2+  Ca35  1  0.82961877  0.92803941  0.84100997  1
  Ca2+  Ca36  1  0.42516069  0.17106362  0.15837198  1
  Ca2+  Ca37  1  0.41371538  0.16668723  0.49807921  1
  Ca2+  Ca38  1  0.42324129  0.16343801  0.83041600  1
  Ca2+  Ca39  1  0.42897005  0.66942523  0.15728187  1
  Ca2+  Ca40  1  0.43009211  0.66328439  0.49462128  1
  Ca2+  Ca41  1  0.42530997  0.66614283  0.83501990  1
  Ca2+  Ca42  1  0.90362885  0.17676210  0.16293294  1
  Ca2+  Ca43  1  0.91562178  0.16850695  0.49448327  1
  Ca2+  Ca44  1  0.91372730  0.17131269  0.82917949  1
  Ca2+  Ca45  1  0.92049871  0.65362737  0.16586707  1
  Ca2+  Ca46  1  0.92560724  0.66239969  0.49212961  1
  Ca2+  Ca47  1  0.91665749  0.66693479  0.82876330  1
  Al0+  Al48  1  0.00237873  -0.00018439  0.00251394  1
  Al0+  Al49  1  0.00316067  -0.00114872  0.34053505  1
  Al0+  Al50  1  -0.00054636  0.00103345  0.66851660  1
  Al0+  Al51  1  -0.00068399  0.49690613  -0.00332741  1
  Al0+  Al52  1  0.00035834  0.49835619  0.33121011  1
  Al0+  Al53  1  -0.00274272  0.49905574  0.66816376  1
  Al0+  Al54  1  0.49877990  0.00069576  -0.00480769  1
  Al0+  Al55  1  0.50065395  0.00072784  0.33736455  1
  Al0+  Al56  1  0.49954932  -0.00085417  0.66836223  1
  Al0+  Al57  1  0.49645391  0.49822756  0.00329779  1
  Al0+  Al58  1  0.49957039  0.50011919  0.33189020  1
  Al0+  Al59  1  0.49839162  0.49914689  0.66294176  1
  Al0+  Al60  1  0.24910861  0.24845758  0.00139388  1
  Al0+  Al61  1  0.25049124  0.25146865  0.33319097  1
  Al0+  Al62  1  0.24823958  0.25010945  0.67230810  1
  Al0+  Al63  1  0.25117060  0.74882707  -0.00110838  1
  Al0+  Al64  1  0.25207342  0.75098645  0.33478162  1
  Al0+  Al65  1  0.25133324  0.74911548  0.66168509  1
  Al0+  Al66  1  0.75162406  0.25230013  -0.00522544  1
  Al0+  Al67  1  0.74983121  0.25100809  0.33799203  1
  Al0+  Al68  1  0.74886127  0.25067746  0.66832411  1
  Al0+  Al69  1  0.75371408  0.75105533  0.00199998  1
  Al0+  Al70  1  0.75266411  0.75091976  0.33677635  1
  Al0+  Al71  1  0.74962880  0.75026130  0.66193668  1
  Al0+  Al72  1  0.82085193  0.07157416  0.68269219  1
  Al0+  Al73  1  0.67775980  0.43018605  0.01235867  1
  Al0+  Al74  1  0.92955633  0.31801052  0.31928810  1
  Al0+  Al75  1  0.57309606  0.67961057  0.31798626  1
  Al0+  Al76  1  0.07057932  0.18060465  0.65320166  1
  Al0+  Al77  1  0.17975208  0.43086162  0.34550797  1
  Al0+  Al78  1  0.67754288  0.42975310  0.34957290  1
  Al0+  Al79  1  0.67740068  0.92789440  0.34981139  1
  Al0+  Al80  1  0.82115408  0.07228059  0.34877319  1
  Al0+  Al81  1  0.82283214  0.57284071  0.01344723  1
  Al0+  Al82  1  0.18048211  0.92801055  0.34736822  1
  Al0+  Al83  1  0.93038615  0.31943223  0.98474078  1
  Al0+  Al84  1  0.67739920  0.92935277  0.01334302  1
  Al0+  Al85  1  0.82209687  0.57094948  0.34924676  1
  Al0+  Al86  1  0.82286171  0.07224153  0.01480478  1
  Al0+  Al87  1  0.07068117  0.67919399  0.31820116  1
  Al0+  Al88  1  0.07021896  0.67825648  0.65362209  1
  Al0+  Al89  1  0.57004813  0.18155066  0.98667094  1
  Al0+  Al90  1  0.42781528  0.82078867  0.98407014  1
  Al0+  Al91  1  0.32045165  0.07014702  0.68142221  1
  Al0+  Al92  1  0.57403110  0.67775308  0.98691802  1
  Al0+  Al93  1  0.31918402  0.57138328  0.01335550  1
  Al0+  Al94  1  0.17665369  0.43044209  0.68162191  1
  Al0+  Al95  1  0.57012316  0.67844754  0.65190819  1
  Si0+  Si96  1  0.32347308  0.57151953  0.68230001  1
  Si0+  Si97  1  0.43010916  0.82375669  0.31762545  1
  Si0+  Si98  1  0.32125002  0.07132851  0.01485979  1
  Si0+  Si99  1  0.18013324  0.92739125  0.01350371  1
  Si0+  Si100  1  0.92581956  0.32158153  0.64773060  1
  Si0+  Si101  1  0.17849715  0.92552343  0.68437057  1
  Si0+  Si102  1  0.42630105  0.32130597  0.31799494  1
  Si0+  Si103  1  0.57149057  0.17834677  0.65071243  1
  Si0+  Si104  1  0.42802380  0.82398676  0.64711434  1
  Si0+  Si105  1  0.32193281  0.07332489  0.34864077  1
  Si0+  Si106  1  0.07059372  0.67940166  0.98604313  1
  Si0+  Si107  1  0.92981101  0.82463508  0.31607798  1
  Si0+  Si108  1  0.32241312  0.57270780  0.35136434  1
  Si0+  Si109  1  0.67572312  0.43015826  0.68175483  1
  Si0+  Si110  1  0.67882087  0.92687507  0.68421197  1
  Si0+  Si111  1  0.56936392  0.18040676  0.32047010  1
  Si0+  Si112  1  0.81898542  0.57116731  0.68055374  1
  Si0+  Si113  1  0.42248213  0.32181188  0.98200731  1
  Si0+  Si114  1  0.07458172  0.17603616  0.31696442  1
  Si0+  Si115  1  0.92845350  0.82256857  0.64982264  1
  Si0+  Si116  1  0.93050726  0.82431395  0.98586556  1
  Si0+  Si117  1  0.07408943  0.17495433  0.98359790  1
  Si0+  Si118  1  0.42878022  0.31931303  0.65234858  1
  Si0+  Si119  1  0.17768763  0.42669101  0.01712367  1
  O2-  O120  1  0.25135870  -0.00119268  0.05548384  1
  O2-  O121  1  0.25214486  0.00612751  0.39271748  1
  O2-  O122  1  0.24674918  -0.00555018  0.72927655  1
  O2-  O123  1  0.24600377  0.49550453  0.06077401  1
  O2-  O124  1  0.25149862  0.50658184  0.39585579  1
  O2-  O125  1  0.24867051  0.50907289  0.72633832  1
  O2-  O126  1  0.74915394  0.00162095  0.06327367  1
  O2-  O127  1  0.75158717  -0.00194234  0.39920095  1
  O2-  O128  1  0.74552157  -0.00277398  0.72836160  1
  O2-  O129  1  0.74321363  0.50829232  0.06156400  1
  O2-  O130  1  0.74604150  0.50399488  0.40121070  1
  O2-  O131  1  0.74565652  0.50260992  0.72226884  1
  O2-  O132  1  0.00264036  0.24052256  0.27249665  1
  O2-  O133  1  -0.00538538  0.25243759  0.60462827  1
  O2-  O134  1  0.00408759  0.24243157  0.94041046  1
  O2-  O135  1  -0.00437125  0.75313422  0.27044337  1
  O2-  O136  1  -0.00161391  0.75496929  0.60593288  1
  O2-  O137  1  -0.00300214  0.74791702  0.94421648  1
  O2-  O138  1  0.49956457  0.25226665  0.27729546  1
  O2-  O139  1  0.49937321  0.24839531  0.60821484  1
  O2-  O140  1  0.49527955  0.25679891  0.93878249  1
  O2-  O141  1  0.50080406  0.75780881  0.27360776  1
  O2-  O142  1  0.49629712  0.75425133  0.60458366  1
  O2-  O143  1  0.50307692  0.75109666  0.93553576  1
  O2-  O144  1  0.07932669  0.17388633  0.08885204  1
  O2-  O145  1  0.07810486  0.17913697  0.42257703  1
  O2-  O146  1  0.07072282  0.18353661  0.76634932  1
  O2-  O147  1  0.07280679  0.68108823  0.09096403  1
  O2-  O148  1  0.06928619  0.67967961  0.43147516  1
  O2-  O149  1  0.06786675  0.67960835  0.76741114  1
  O2-  O150  1  0.56721253  0.18170208  0.10017316  1
  O2-  O151  1  0.56609173  0.18085535  0.42606109  1
  O2-  O152  1  0.57174462  0.18020782  0.75562458  1
  O2-  O153  1  0.57191896  0.67879434  0.10012741  1
  O2-  O154  1  0.56808879  0.67861663  0.43167485  1
  O2-  O155  1  0.57027648  0.67654489  0.76462266  1
  O2-  O156  1  0.18350399  0.43117549  0.23253765  1
  O2-  O157  1  0.17837994  0.42957270  0.56851151  1
  O2-  O158  1  0.17857021  0.42769133  0.91116143  1
  O2-  O159  1  0.18293971  0.92858375  0.23367097  1
  O2-  O160  1  0.18031055  0.92594454  0.57892525  1
  O2-  O161  1  0.17920434  0.92671734  0.90850903  1
  O2-  O162  1  0.67839733  0.42745020  0.23673433  1
  O2-  O163  1  0.67400829  0.42893135  0.57698670  1
  O2-  O164  1  0.68121391  0.42970170  0.89783565  1
  O2-  O165  1  0.67416225  0.93200307  0.23658885  1
  O2-  O166  1  0.68041550  0.92730239  0.57871612  1
  O2-  O167  1  0.68050257  0.93052899  0.89926903  1
  O2-  O168  1  0.41489002  0.31637076  0.08731481  1
  O2-  O169  1  0.42309950  0.31838091  0.42347409  1
  O2-  O170  1  0.43100791  0.32014665  0.75718862  1
  O2-  O171  1  0.42362566  0.81832503  0.09744995  1
  O2-  O172  1  0.42937994  0.82368273  0.42337568  1
  O2-  O173  1  0.42730711  0.82441826  0.75234657  1
  O2-  O174  1  0.93193675  0.32078234  0.09766851  1
  O2-  O175  1  0.93194404  0.31701037  0.43267768  1
  O2-  O176  1  0.92601861  0.32191437  0.75335843  1
  O2-  O177  1  0.93535849  0.83060307  0.09019058  1
  O2-  O178  1  0.93393513  0.82566210  0.42191268  1
  O2-  O179  1  0.92826270  0.82015045  0.75594618  1
  O2-  O180  1  0.32268787  0.07368411  0.24290192  1
  O2-  O181  1  0.31922579  0.06970924  0.56815875  1
  O2-  O182  1  0.31906695  0.07402030  0.90996472  1
  O2-  O183  1  0.32138111  0.57145345  0.24570520  1
  O2-  O184  1  0.32741224  0.56635649  0.57696528  1
  O2-  O185  1  0.31475694  0.57135813  0.89979399  1
  O2-  O186  1  0.81697286  0.07325788  0.23553378  1
  O2-  O187  1  0.81901491  0.07182642  0.56984914  1
  O2-  O188  1  0.82299285  0.06938224  0.90084049  1
  O2-  O189  1  0.82285869  0.56685764  0.23617384  1
  O2-  O190  1  0.82050652  0.57016603  0.57591518  1
  O2-  O191  1  0.82564802  0.57007583  0.89901732  1
  O2-  O192  1  0.05478347  0.07950351  0.27497214  1
  O2-  O193  1  0.04442805  0.08126772  0.60181732  1
  O2-  O194  1  0.05212673  0.08053009  0.93707777  1
  O2-  O195  1  0.04169511  0.58264856  0.26381251  1
  O2-  O196  1  0.03542329  0.58222427  0.60082557  1
  O2-  O197  1  0.04585000  0.58666573  0.93899263  1
  O2-  O198  1  0.53996103  0.08893276  0.27328834  1
  O2-  O199  1  0.54407090  0.08583345  0.60469247  1
  O2-  O200  1  0.53730420  0.08685591  0.93005252  1
  O2-  O201  1  0.53878264  0.58305472  0.26571748  1
  O2-  O202  1  0.53723196  0.58226453  0.59696403  1
  O2-  O203  1  0.54110742  0.57870273  0.93575960  1
  O2-  O204  1  0.16749268  0.20416416  0.26951983  1
  O2-  O205  1  0.16801370  0.21163977  0.60058479  1
  O2-  O206  1  0.16696287  0.20344862  0.93616225  1
  O2-  O207  1  0.16898276  0.71130131  0.26728731  1
  O2-  O208  1  0.16847152  0.70360021  0.59996217  1
  O2-  O209  1  0.16005399  0.71100950  0.93649898  1
  O2-  O210  1  0.66105299  0.20842030  0.27452331  1
  O2-  O211  1  0.66219941  0.20925457  0.60287239  1
  O2-  O212  1  0.66481689  0.21327065  0.92949593  1
  O2-  O213  1  0.67252563  0.70626854  0.26892216  1
  O2-  O214  1  0.66692295  0.70846409  0.59749353  1
  O2-  O215  1  0.67398098  0.70447534  0.93427778  1
  O2-  O216  1  0.08431946  0.45335132  0.06104452  1
  O2-  O217  1  0.08382849  0.45957871  0.40025233  1
  O2-  O218  1  0.07960000  0.45942059  0.73599287  1
  O2-  O219  1  0.09005463  0.95545258  0.06370830  1
  O2-  O220  1  0.08544275  0.95460811  0.40546788  1
  O2-  O221  1  0.08435845  0.94973195  0.72956343  1
  O2-  O222  1  0.57504337  0.44222172  0.06170726  1
  O2-  O223  1  0.57660437  0.45373288  0.40082045  1
  O2-  O224  1  0.58317119  0.45601172  0.72843969  1
  O2-  O225  1  0.57772932  0.95738254  0.06357860  1
  O2-  O226  1  0.58005001  0.95870697  0.40499164  1
  O2-  O227  1  0.58382289  0.94970906  0.72749313  1
  O2-  O228  1  0.20316820  0.33293045  0.06261781  1
  O2-  O229  1  0.21291233  0.33448278  0.39980890  1
  O2-  O230  1  0.21175769  0.33661859  0.73752561  1
  O2-  O231  1  0.20851841  0.83659178  0.06195701  1
  O2-  O232  1  0.21432551  0.83339358  0.40386717  1
  O2-  O233  1  0.20540900  0.83136181  0.72962292  1
  O2-  O234  1  0.71389778  0.33409251  0.06423552  1
  O2-  O235  1  0.70750822  0.33284283  0.40504880  1
  O2-  O236  1  0.70437574  0.33827090  0.72851714  1
  O2-  O237  1  0.70745523  0.83201980  0.06609036  1
  O2-  O238  1  0.70573120  0.83030883  0.40347441  1
  O2-  O239  1  0.70710793  0.83320856  0.72926105  1
  O2-  O240  1  0.45035324  0.41393682  0.27143306  1
  O2-  O241  1  0.45581461  0.41001267  0.60226219  1
  O2-  O242  1  0.44216242  0.41718201  0.93820331  1
  O2-  O243  1  0.45119282  0.91952197  0.27295208  1
  O2-  O244  1  0.45358646  0.91794278  0.60079457  1
  O2-  O245  1  0.44921816  0.92096666  0.93158065  1
  O2-  O246  1  0.96399334  0.41268966  0.26450196  1
  O2-  O247  1  0.95228262  0.41529983  0.60320073  1
  O2-  O248  1  0.96425329  0.41424812  0.92673173  1
  O2-  O249  1  0.96084448  0.91710681  0.27004393  1
  O2-  O250  1  0.95309059  0.91666116  0.60515680  1
  O2-  O251  1  0.96474162  0.91294551  0.93456693  1
  O2-  O252  1  0.33673434  0.29096670  0.26697997  1
  O2-  O253  1  0.33705416  0.28957975  0.60591963  1
  O2-  O254  1  0.33110092  0.29070021  0.93305258  1
  O2-  O255  1  0.33682414  0.79677817  0.27169374  1
  O2-  O256  1  0.33408790  0.79991746  0.60038652  1
  O2-  O257  1  0.33036271  0.78888962  0.92860739  1
  O2-  O258  1  0.83133281  0.28850976  0.26743407  1
  O2-  O259  1  0.83152469  0.29589172  0.60280448  1
  O2-  O260  1  0.83538988  0.29125094  0.92661021  1
  O2-  O261  1  0.83446656  0.80396338  0.27309867  1
  O2-  O262  1  0.83568476  0.79694166  0.60254642  1
  O2-  O263  1  0.83869455  0.80081966  0.93685807  1
  O2-  O264  1  0.41279982  0.04553369  0.06254025  1
  O2-  O265  1  0.41401065  0.04730022  0.39746719  1
  O2-  O266  1  0.41818900  0.04152287  0.73506039  1
  O2-  O267  1  0.41427717  0.54144594  0.06991812  1
  O2-  O268  1  0.41415792  0.54214147  0.39770029  1
  O2-  O269  1  0.41385261  0.53810620  0.73080715  1
  O2-  O270  1  0.92193841  0.04456468  0.06657106  1
  O2-  O271  1  0.92090108  0.04687697  0.40053469  1
  O2-  O272  1  0.91808561  0.04197801  0.73632898  1
  O2-  O273  1  0.91967650  0.53657258  0.06528493  1
  O2-  O274  1  0.91875912  0.53582888  0.40223959  1
  O2-  O275  1  0.90915423  0.54149289  0.73001712  1
  O2-  O276  1  0.29218868  0.16195340  0.06462111  1
  O2-  O277  1  0.29784080  0.16711325  0.39486492  1
  O2-  O278  1  0.28917982  0.16540184  0.73761077  1
  O2-  O279  1  0.28552618  0.66629534  0.06861468  1
  O2-  O280  1  0.30163303  0.66725797  0.39641723  1
  O2-  O281  1  0.30402981  0.66814736  0.72393134  1
  O2-  O282  1  0.79291332  0.17122562  0.06278266  1
  O2-  O283  1  0.78812070  0.16757960  0.40491956  1
  O2-  O284  1  0.78845834  0.16888406  0.73491115  1
  O2-  O285  1  0.80906740  0.67438411  0.06403467  1
  O2-  O286  1  0.80243196  0.67140125  0.40119886  1
  O2-  O287  1  0.79491537  0.66515317  0.72569542  1
