# generated using pymatgen
data_Ca2Al2SiO7
_symmetry_space_group_name_H-M   'P 1'
_cell_length_a   15.45892508
_cell_length_b   15.45899968
_cell_length_c   15.28365528
_cell_angle_alpha   90.01700053
_cell_angle_beta   89.98399807
_cell_angle_gamma   90.01408448
_symmetry_Int_Tables_number   1
_chemical_formula_structural   Ca2Al2SiO7
_chemical_formula_sum   'Ca48 Al48 Si24 O168'
_cell_volume   3652.48015733
_cell_formula_units_Z   24
loop_
 _symmetry_equiv_pos_site_id
 _symmetry_equiv_pos_as_xyz
  1  'x, y, z'
loop_
 _atom_type_symbol
 _atom_type_oxidation_number
  Ca2+  2.0
  Al0+  0.0
  Si0+  0.0
  O2-  -2.0
loop_
 _atom_site_type_symbol
 _atom_site_label
 _atom_site_symmetry_multiplicity
 _atom_site_fract_x
 _atom_site_fract_y
 _atom_site_fract_z
 _atom_site_occupancy
  Ca2+  Ca0  1  0.17751280  0.07819244  0.17163315  1
  Ca2+  Ca1  1  0.17433174  0.07971079  0.50012473  1
  Ca2+  Ca2  1  0.17731318  0.08138728  0.83732565  1
  Ca2+  Ca3  1  0.17305407  0.57964489  0.17104210  1
  Ca2+  Ca4  1  0.17054928  0.58533289  0.49712985  1
  Ca2+  Ca5  1  0.17825108  0.57925930  0.83976986  1
  Ca2+  Ca6  1  0.66647107  0.07644499  0.16616506  1
  Ca2+  Ca7  1  0.67106385  0.07578353  0.50593288  1
  Ca2+  Ca8  1  0.66290433  0.06950966  0.83686504  1
  Ca2+  Ca9  1  0.67221372  0.57208567  0.16522284  1
  Ca2+  Ca10  1  0.66630323  0.57754079  0.49946325  1
  Ca2+  Ca11  1  0.67318996  0.57905667  0.84324744  1
  Ca2+  Ca12  1  0.07921334  0.34482508  0.16173108  1
  Ca2+  Ca13  1  0.07912346  0.33529032  0.49053705  1
  Ca2+  Ca14  1  0.08273008  0.33924816  0.83680996  1
  Ca2+  Ca15  1  0.08006669  0.83119306  0.16450152  1
  Ca2+  Ca16  1  0.07666726  0.83180725  0.48697981  1
  Ca2+  Ca17  1  0.07099568  0.83407127  0.82907439  1
  Ca2+  Ca18  1  0.58030797  0.33461429  0.15903125  1
  Ca2+  Ca19  1  0.57590291  0.33582085  0.49531114  1
  Ca2+  Ca20  1  0.57061007  0.33973638  0.83285165  1
  Ca2+  Ca21  1  0.57758989  0.83037199  0.15658190  1
  Ca2+  Ca22  1  0.57759250  0.83593783  0.50184848  1
  Ca2+  Ca23  1  0.57753170  0.83635787  0.83089495  1
  Ca2+  Ca24  1  0.32534822  0.42384465  0.17143833  1
  Ca2+  Ca25  1  0.33031782  0.42768397  0.50519908  1
  Ca2+  Ca26  1  0.33506679  0.42503714  0.84378278  1
  Ca2+  Ca27  1  0.33393077  0.92610147  0.17322634  1
  Ca2+  Ca28  1  0.32942920  0.92375213  0.50595228  1
  Ca2+  Ca29  1  0.34699878  0.92707799  0.83923060  1
  Ca2+  Ca30  1  0.82809611  0.41200132  0.17120529  1
  Ca2+  Ca31  1  0.82851372  0.41103849  0.49956238  1
  Ca2+  Ca32  1  0.82795942  0.42370594  0.84870470  1
  Ca2+  Ca33  1  0.83107660  0.90693963  0.16727574  1
  Ca2+  Ca34  1  0.83110684  0.90853842  0.50716562  1
  Ca2+  Ca35  1  0.82383966  0.90621173  0.83938752  1
  Ca2+  Ca36  1  0.41149973  0.17032291  0.15844929  1
  Ca2+  Ca37  1  0.41063268  0.16779227  0.50078428  1
  Ca2+  Ca38  1  0.40640874  0.17804270  0.83107912  1
  Ca2+  Ca39  1  0.41110630  0.66906220  0.15945693  1
  Ca2+  Ca40  1  0.40821201  0.66882768  0.49804767  1
  Ca2+  Ca41  1  0.41070729  0.67504373  0.82896166  1
  Ca2+  Ca42  1  0.92088543  0.17825968  0.16099043  1
  Ca2+  Ca43  1  0.92094385  0.17103858  0.49060359  1
  Ca2+  Ca44  1  0.91706029  0.17343920  0.83395160  1
  Ca2+  Ca45  1  0.92288482  0.67021744  0.16134388  1
  Ca2+  Ca46  1  0.92501916  0.67709156  0.49007675  1
  Ca2+  Ca47  1  0.91334878  0.67170150  0.83242563  1
  Al0+  Al48  1  -0.00002109  0.00067095  -0.00639303  1
  Al0+  Al49  1  -0.00064555  0.00275746  0.33024233  1
  Al0+  Al50  1  -0.00052801  0.00274334  0.66295281  1
  Al0+  Al51  1  0.00105493  0.50200701  -0.00103822  1
  Al0+  Al52  1  -0.00079426  0.50293398  0.32977699  1
  Al0+  Al53  1  -0.00073847  0.50026586  0.66541021  1
  Al0+  Al54  1  0.50212266  -0.00030042  0.00619100  1
  Al0+  Al55  1  0.50301182  0.00119523  0.33784128  1
  Al0+  Al56  1  0.50152964  0.00015885  0.66910098  1
  Al0+  Al57  1  0.50226164  0.50053179  0.00296226  1
  Al0+  Al58  1  0.50136242  0.49985612  0.34042726  1
  Al0+  Al59  1  0.49920155  0.50012052  0.66570497  1
  Al0+  Al60  1  0.25012479  0.24884253  0.00311580  1
  Al0+  Al61  1  0.25036163  0.25137191  0.34041300  1
  Al0+  Al62  1  0.24792705  0.24957193  0.66472773  1
  Al0+  Al63  1  0.24867986  0.75195840  -0.00413323  1
  Al0+  Al64  1  0.24901668  0.75248054  0.33528014  1
  Al0+  Al65  1  0.24831381  0.74961924  0.66699878  1
  Al0+  Al66  1  0.75063602  0.24648566  -0.00365266  1
  Al0+  Al67  1  0.74812255  0.24789384  0.33441173  1
  Al0+  Al68  1  0.74877011  0.24845613  0.66760138  1
  Al0+  Al69  1  0.74883316  0.74842249  0.00541845  1
  Al0+  Al70  1  0.74704676  0.74786955  0.33063902  1
  Al0+  Al71  1  0.74922700  0.74809776  0.66546538  1
  Al0+  Al72  1  0.32080521  0.06905558  0.01329722  1
  Al0+  Al73  1  0.32067445  0.57139108  0.68240031  1
  Al0+  Al74  1  0.32193020  0.57202176  0.34926181  1
  Al0+  Al75  1  0.42977721  0.32053913  0.98958774  1
  Al0+  Al76  1  0.68094293  0.42684683  0.34871937  1
  Al0+  Al77  1  0.17594704  0.43046835  0.34933700  1
  Al0+  Al78  1  0.92696441  0.82307987  0.31642799  1
  Al0+  Al79  1  0.68205002  0.92849633  0.68027002  1
  Al0+  Al80  1  0.68093923  0.92939626  0.01516645  1
  Al0+  Al81  1  0.31965508  0.06962364  0.68245650  1
  Al0+  Al82  1  0.92829130  0.81981575  0.98524223  1
  Al0+  Al83  1  0.07355771  0.68032318  0.31577087  1
  Al0+  Al84  1  0.32251791  0.57442059  0.01378735  1
  Al0+  Al85  1  0.92866588  0.81986233  0.65308013  1
  Al0+  Al86  1  0.17763786  0.93049500  0.34712223  1
  Al0+  Al87  1  0.18056076  0.42882677  0.01391655  1
  Al0+  Al88  1  0.42828954  0.32161055  0.65181577  1
  Al0+  Al89  1  0.32425559  0.07170148  0.35075698  1
  Al0+  Al90  1  0.82214033  0.57136071  0.01579534  1
  Al0+  Al91  1  0.42862135  0.82158198  0.98843634  1
  Al0+  Al92  1  0.92879039  0.32007498  0.32043225  1
  Al0+  Al93  1  0.67961311  0.42546542  0.01372500  1
  Al0+  Al94  1  0.42922803  0.82208290  0.65275929  1
  Al0+  Al95  1  0.92928929  0.32207734  0.98592136  1
  Si0+  Si96  1  0.07297815  0.67789031  0.97956609  1
  Si0+  Si97  1  0.82069123  0.57270901  0.35090271  1
  Si0+  Si98  1  0.07131530  0.67693758  0.64915319  1
  Si0+  Si99  1  0.82065257  0.56830515  0.67964854  1
  Si0+  Si100  1  0.57236577  0.17841766  0.64936484  1
  Si0+  Si101  1  0.92746166  0.32144428  0.65201984  1
  Si0+  Si102  1  0.68030617  0.92652434  0.34952723  1
  Si0+  Si103  1  0.42985360  0.32087249  0.32005706  1
  Si0+  Si104  1  0.57075812  0.17797683  0.31838877  1
  Si0+  Si105  1  0.17619258  0.42776220  0.68335452  1
  Si0+  Si106  1  0.17429296  0.92861157  0.01381852  1
  Si0+  Si107  1  0.57266757  0.17589939  0.98263832  1
  Si0+  Si108  1  0.81922782  0.07069341  0.34634986  1
  Si0+  Si109  1  0.07273203  0.17781385  0.98160688  1
  Si0+  Si110  1  0.07451896  0.17952909  0.31547363  1
  Si0+  Si111  1  0.07024266  0.17998203  0.64961212  1
  Si0+  Si112  1  0.57187432  0.67735111  0.64912611  1
  Si0+  Si113  1  0.82427375  0.07393171  0.68419922  1
  Si0+  Si114  1  0.57121312  0.67823981  0.98427535  1
  Si0+  Si115  1  0.17547253  0.92793346  0.68363842  1
  Si0+  Si116  1  0.82475912  0.07152547  0.01639062  1
  Si0+  Si117  1  0.67869585  0.42692615  0.68190234  1
  Si0+  Si118  1  0.56992830  0.67655516  0.31735725  1
  Si0+  Si119  1  0.43144975  0.82219138  0.32049361  1
  O2-  O120  1  0.24777098  -0.00778477  0.05777153  1
  O2-  O121  1  0.25154914  -0.00043270  0.39907700  1
  O2-  O122  1  0.24897526  -0.00923257  0.72923711  1
  O2-  O123  1  0.25249167  0.50079438  0.06331772  1
  O2-  O124  1  0.24880873  0.50105901  0.39982294  1
  O2-  O125  1  0.24700414  0.49439344  0.72657806  1
  O2-  O126  1  0.75867391  0.00103222  0.06181173  1
  O2-  O127  1  0.75704092  -0.00775055  0.38988009  1
  O2-  O128  1  0.75909219  0.00137300  0.72675325  1
  O2-  O129  1  0.75637763  0.49226393  0.06383565  1
  O2-  O130  1  0.75678643  0.49989736  0.39689175  1
  O2-  O131  1  0.75180378  0.49573975  0.72281641  1
  O2-  O132  1  0.00930632  0.25229472  0.27258004  1
  O2-  O133  1  -0.00198038  0.25101551  0.60891013  1
  O2-  O134  1  0.00505224  0.24868094  0.93787545  1
  O2-  O135  1  0.00077762  0.75298587  0.26726414  1
  O2-  O136  1  0.00632525  0.74969628  0.60558006  1
  O2-  O137  1  0.00277412  0.74634675  0.93641678  1
  O2-  O138  1  0.49679042  0.24595189  0.27748328  1
  O2-  O139  1  0.50415713  0.24727708  0.60464758  1
  O2-  O140  1  0.50601700  0.24752592  0.94026091  1
  O2-  O141  1  0.49760129  0.74719903  0.27711626  1
  O2-  O142  1  0.50079794  0.74419965  0.60513428  1
  O2-  O143  1  0.49904483  0.74326013  0.94019806  1
  O2-  O144  1  0.07077137  0.17432274  0.08676269  1
  O2-  O145  1  0.07005672  0.17775746  0.42156668  1
  O2-  O146  1  0.07000491  0.17928372  0.75455118  1
  O2-  O147  1  0.07461495  0.67911037  0.08468566  1
  O2-  O148  1  0.07016265  0.68178676  0.43015687  1
  O2-  O149  1  0.06768702  0.67394924  0.75449899  1
  O2-  O150  1  0.57218956  0.17455410  0.08866119  1
  O2-  O151  1  0.57378623  0.17739721  0.42347821  1
  O2-  O152  1  0.57575287  0.17975356  0.75447161  1
  O2-  O153  1  0.57217394  0.68042550  0.09010288  1
  O2-  O154  1  0.57323462  0.67835862  0.42266187  1
  O2-  O155  1  0.57517846  0.67719962  0.75435420  1
  O2-  O156  1  0.17943906  0.42949254  0.23633603  1
  O2-  O157  1  0.17278122  0.42898987  0.57803369  1
  O2-  O158  1  0.18217204  0.42958361  0.89959451  1
  O2-  O159  1  0.17988350  0.93279223  0.23329997  1
  O2-  O160  1  0.17377672  0.93193888  0.57827153  1
  O2-  O161  1  0.17053350  0.93262359  0.90809193  1
  O2-  O162  1  0.68072288  0.42598003  0.23639123  1
  O2-  O163  1  0.68057828  0.42622130  0.57656594  1
  O2-  O164  1  0.67926789  0.42942815  0.89937228  1
  O2-  O165  1  0.67648580  0.92853062  0.24479993  1
  O2-  O166  1  0.68364457  0.93072475  0.56659688  1
  O2-  O167  1  0.68051463  0.93046121  0.90192747  1
  O2-  O168  1  0.43043507  0.31792183  0.10283290  1
  O2-  O169  1  0.43326983  0.32045871  0.42542561  1
  O2-  O170  1  0.42965484  0.32197690  0.76501392  1
  O2-  O171  1  0.43188336  0.82317449  0.10200829  1
  O2-  O172  1  0.43566239  0.82364979  0.42578195  1
  O2-  O173  1  0.43387134  0.82321178  0.76562520  1
  O2-  O174  1  0.92809027  0.31804571  0.09873249  1
  O2-  O175  1  0.92681774  0.31411709  0.43444796  1
  O2-  O176  1  0.92718609  0.32174268  0.75677723  1
  O2-  O177  1  0.93083934  0.81969343  0.09769856  1
  O2-  O178  1  0.92578923  0.82047034  0.43062537  1
  O2-  O179  1  0.92707670  0.81626796  0.76604522  1
  O2-  O180  1  0.32631623  0.06973937  0.23712660  1
  O2-  O181  1  0.31691383  0.06929268  0.56967141  1
  O2-  O182  1  0.31976183  0.06995685  0.89998481  1
  O2-  O183  1  0.32554237  0.56947224  0.23619397  1
  O2-  O184  1  0.31949872  0.57046132  0.56963947  1
  O2-  O185  1  0.32085714  0.57351987  0.89985090  1
  O2-  O186  1  0.81413544  0.07464572  0.24179269  1
  O2-  O187  1  0.82253595  0.07790022  0.57832487  1
  O2-  O188  1  0.82334132  0.07231825  0.91064627  1
  O2-  O189  1  0.81639711  0.57385453  0.24601000  1
  O2-  O190  1  0.82052039  0.56643267  0.57461649  1
  O2-  O191  1  0.81780235  0.57167536  0.90090189  1
  O2-  O192  1  0.04437632  0.08862857  0.26690155  1
  O2-  O193  1  0.04186837  0.08949305  0.59921355  1
  O2-  O194  1  0.04467108  0.08675048  0.93062038  1
  O2-  O195  1  0.04440331  0.58245624  0.26277639  1
  O2-  O196  1  0.04088623  0.58486105  0.60126260  1
  O2-  O197  1  0.04750653  0.58502577  0.93181027  1
  O2-  O198  1  0.54659849  0.08474876  0.27098027  1
  O2-  O199  1  0.54663593  0.08509163  0.60288829  1
  O2-  O200  1  0.54325442  0.08335252  0.93700173  1
  O2-  O201  1  0.54379722  0.58365867  0.27177906  1
  O2-  O202  1  0.54864975  0.58326842  0.60255251  1
  O2-  O203  1  0.55185432  0.58341130  0.93818236  1
  O2-  O204  1  0.17054199  0.20088421  0.27316208  1
  O2-  O205  1  0.16052858  0.20809677  0.59999837  1
  O2-  O206  1  0.16599971  0.20405537  0.93524015  1
  O2-  O207  1  0.17228889  0.70918614  0.26330540  1
  O2-  O208  1  0.16598574  0.69865591  0.60455334  1
  O2-  O209  1  0.16495175  0.70561978  0.93051290  1
  O2-  O210  1  0.66064223  0.20834230  0.26909489  1
  O2-  O211  1  0.66667338  0.20341776  0.60178568  1
  O2-  O212  1  0.66711963  0.19516353  0.93540531  1
  O2-  O213  1  0.66005893  0.70593757  0.26795234  1
  O2-  O214  1  0.66383745  0.70556762  0.60006687  1
  O2-  O215  1  0.66315543  0.70856419  0.93728513  1
  O2-  O216  1  0.08143575  0.45683416  0.06383159  1
  O2-  O217  1  0.07616791  0.45793074  0.40134549  1
  O2-  O218  1  0.08237561  0.45543237  0.72960736  1
  O2-  O219  1  0.08285826  0.95927095  0.06131492  1
  O2-  O220  1  0.07872893  0.96131419  0.39957076  1
  O2-  O221  1  0.08328652  0.96079526  0.72965124  1
  O2-  O222  1  0.58413184  0.45790418  0.06938686  1
  O2-  O223  1  0.58698768  0.46126725  0.40572587  1
  O2-  O224  1  0.58752726  0.45707624  0.72794084  1
  O2-  O225  1  0.58781354  0.96429350  0.07322579  1
  O2-  O226  1  0.59221847  0.96134143  0.39999293  1
  O2-  O227  1  0.58716629  0.96259443  0.73490291  1
  O2-  O228  1  0.20507661  0.33013947  0.06701974  1
  O2-  O229  1  0.20197880  0.33158908  0.40315006  1
  O2-  O230  1  0.19829960  0.33282333  0.72708171  1
  O2-  O231  1  0.19490504  0.83336664  0.05644228  1
  O2-  O232  1  0.20330197  0.83272704  0.40155763  1
  O2-  O233  1  0.19233448  0.83163445  0.72634618  1
  O2-  O234  1  0.70283205  0.32422420  0.06269927  1
  O2-  O235  1  0.71085394  0.33021128  0.40432010  1
  O2-  O236  1  0.70376528  0.33417933  0.72825546  1
  O2-  O237  1  0.70833403  0.83327224  0.07044015  1
  O2-  O238  1  0.70206105  0.83290098  0.39609353  1
  O2-  O239  1  0.71028848  0.83064082  0.73311115  1
  O2-  O240  1  0.46294104  0.41183310  0.27505966  1
  O2-  O241  1  0.46178090  0.41722769  0.59703623  1
  O2-  O242  1  0.46126785  0.41748474  0.93522522  1
  O2-  O243  1  0.46550953  0.91286930  0.27401050  1
  O2-  O244  1  0.46487180  0.91740962  0.59841524  1
  O2-  O245  1  0.46720057  0.91680918  0.93597273  1
  O2-  O246  1  0.94974571  0.41951445  0.26954947  1
  O2-  O247  1  0.95397716  0.41341241  0.60397236  1
  O2-  O248  1  0.95808046  0.41902311  0.93090522  1
  O2-  O249  1  0.95000088  0.92395341  0.26606454  1
  O2-  O250  1  0.95263581  0.92002582  0.60211095  1
  O2-  O251  1  0.95613715  0.91741466  0.93012826  1
  O2-  O252  1  0.33601264  0.29646820  0.27581322  1
  O2-  O253  1  0.33136123  0.29035209  0.59888498  1
  O2-  O254  1  0.33395881  0.28724579  0.93486540  1
  O2-  O255  1  0.33766502  0.80119508  0.27566210  1
  O2-  O256  1  0.33005406  0.79510869  0.60145335  1
  O2-  O257  1  0.33070139  0.79950538  0.93261275  1
  O2-  O258  1  0.83362671  0.28163091  0.26820682  1
  O2-  O259  1  0.83499458  0.29286659  0.60528640  1
  O2-  O260  1  0.83380651  0.28807755  0.92960159  1
  O2-  O261  1  0.82741663  0.79240472  0.26653419  1
  O2-  O262  1  0.83307320  0.78565484  0.59864604  1
  O2-  O263  1  0.83049647  0.78658799  0.93449058  1
  O2-  O264  1  0.41675660  0.04044419  0.06885292  1
  O2-  O265  1  0.42291290  0.04306634  0.40418760  1
  O2-  O266  1  0.41827823  0.04338526  0.73390315  1
  O2-  O267  1  0.42201554  0.55015307  0.06481424  1
  O2-  O268  1  0.41927547  0.54247093  0.40474375  1
  O2-  O269  1  0.41924540  0.54246091  0.73355116  1
  O2-  O270  1  0.91959487  0.04921996  0.06040493  1
  O2-  O271  1  0.91384633  0.05277100  0.39198310  1
  O2-  O272  1  0.91944875  0.05361916  0.72843502  1
  O2-  O273  1  0.92289117  0.55099172  0.06426393  1
  O2-  O274  1  0.91575647  0.55274861  0.39504155  1
  O2-  O275  1  0.91256137  0.54233100  0.72791601  1
  O2-  O276  1  0.28787176  0.16359608  0.06889203  1
  O2-  O277  1  0.29576783  0.16960617  0.40401969  1
  O2-  O278  1  0.28385481  0.16630197  0.73393148  1
  O2-  O279  1  0.29292141  0.67370350  0.06440167  1
  O2-  O280  1  0.29513693  0.67159195  0.40048547  1
  O2-  O281  1  0.28963457  0.66868512  0.73547774  1
  O2-  O282  1  0.79630019  0.16375183  0.06331501  1
  O2-  O283  1  0.78346434  0.15740129  0.39918165  1
  O2-  O284  1  0.79493577  0.16621944  0.73200760  1
  O2-  O285  1  0.78699791  0.66526904  0.07192318  1
  O2-  O286  1  0.78750015  0.66400468  0.39885928  1
  O2-  O287  1  0.79022095  0.65903106  0.72709506  1
