# generated using pymatgen
data_Ca2Al2SiO7
_symmetry_space_group_name_H-M   'P 1'
_cell_length_a   15.45638267
_cell_length_b   15.45609750
_cell_length_c   15.28265820
_cell_angle_alpha   89.99152413
_cell_angle_beta   89.99043241
_cell_angle_gamma   89.98947381
_symmetry_Int_Tables_number   1
_chemical_formula_structural   Ca2Al2SiO7
_chemical_formula_sum   'Ca48 Al48 Si24 O168'
_cell_volume   3650.95594316
_cell_formula_units_Z   24
loop_
 _symmetry_equiv_pos_site_id
 _symmetry_equiv_pos_as_xyz
  1  'x, y, z'
loop_
 _atom_type_symbol
 _atom_type_oxidation_number
  Ca2+  2.0
  Al0+  0.0
  Si0+  0.0
  O2-  -2.0
loop_
 _atom_site_type_symbol
 _atom_site_label
 _atom_site_symmetry_multiplicity
 _atom_site_fract_x
 _atom_site_fract_y
 _atom_site_fract_z
 _atom_site_occupancy
  Ca2+  Ca0  1  0.17329470  0.08458177  0.17526345  1
  Ca2+  Ca1  1  0.17554463  0.08509234  0.49703979  1
  Ca2+  Ca2  1  0.17707788  0.09190124  0.83805345  1
  Ca2+  Ca3  1  0.17220241  0.58021845  0.17781944  1
  Ca2+  Ca4  1  0.17888217  0.59238741  0.50030394  1
  Ca2+  Ca5  1  0.17404352  0.58041046  0.83518932  1
  Ca2+  Ca6  1  0.66739735  0.08331931  0.16454475  1
  Ca2+  Ca7  1  0.66489406  0.08258962  0.50685278  1
  Ca2+  Ca8  1  0.66771530  0.08203313  0.84461337  1
  Ca2+  Ca9  1  0.66598933  0.59029206  0.16804821  1
  Ca2+  Ca10  1  0.66111721  0.57535197  0.50496245  1
  Ca2+  Ca11  1  0.66975228  0.57594247  0.84061081  1
  Ca2+  Ca12  1  0.08830661  0.31875010  0.16285625  1
  Ca2+  Ca13  1  0.07995039  0.32992206  0.49710770  1
  Ca2+  Ca14  1  0.07555962  0.32787443  0.83187480  1
  Ca2+  Ca15  1  0.08542621  0.83414994  0.17048356  1
  Ca2+  Ca16  1  0.07640495  0.83451276  0.48933628  1
  Ca2+  Ca17  1  0.07459991  0.83285928  0.82722800  1
  Ca2+  Ca18  1  0.56868202  0.32649427  0.16015982  1
  Ca2+  Ca19  1  0.57622392  0.33006545  0.50039187  1
  Ca2+  Ca20  1  0.57868308  0.32281011  0.82693330  1
  Ca2+  Ca21  1  0.58157726  0.82743062  0.16409924  1
  Ca2+  Ca22  1  0.57364773  0.82386000  0.48948179  1
  Ca2+  Ca23  1  0.59120858  0.82865932  0.83484068  1
  Ca2+  Ca24  1  0.33870749  0.41719920  0.17355378  1
  Ca2+  Ca25  1  0.34368075  0.42583613  0.50312501  1
  Ca2+  Ca26  1  0.34300580  0.41627716  0.83270502  1
  Ca2+  Ca27  1  0.33184566  0.92941812  0.17788663  1
  Ca2+  Ca28  1  0.33171063  0.92339224  0.50183379  1
  Ca2+  Ca29  1  0.33514557  0.93265347  0.83887111  1
  Ca2+  Ca30  1  0.83143523  0.42359282  0.16914589  1
  Ca2+  Ca31  1  0.82619515  0.41554146  0.51059180  1
  Ca2+  Ca32  1  0.82692177  0.41450545  0.83768836  1
  Ca2+  Ca33  1  0.82879431  0.91680159  0.16615204  1
  Ca2+  Ca34  1  0.83684104  0.91329951  0.50224448  1
  Ca2+  Ca35  1  0.82769308  0.92158618  0.84317166  1
  Ca2+  Ca36  1  0.41025371  0.17400489  0.15743659  1
  Ca2+  Ca37  1  0.41029636  0.17407483  0.49732502  1
  Ca2+  Ca38  1  0.42205868  0.17083343  0.82809614  1
  Ca2+  Ca39  1  0.42342280  0.66961407  0.16639560  1
  Ca2+  Ca40  1  0.41659180  0.66806057  0.48708484  1
  Ca2+  Ca41  1  0.42242297  0.66532649  0.83024931  1
  Ca2+  Ca42  1  0.92921229  0.15731237  0.16243508  1
  Ca2+  Ca43  1  0.92165318  0.17373555  0.49484269  1
  Ca2+  Ca44  1  0.92086866  0.16341498  0.82935195  1
  Ca2+  Ca45  1  0.91798688  0.67060683  0.16486108  1
  Ca2+  Ca46  1  0.92317793  0.67901861  0.49085194  1
  Ca2+  Ca47  1  0.91305029  0.67058795  0.82912318  1
  Al0+  Al48  1  0.00047579  -0.00152382  -0.00321804  1
  Al0+  Al49  1  -0.00096291  0.00140198  0.33039163  1
  Al0+  Al50  1  0.00025554  -0.00170260  0.66204551  1
  Al0+  Al51  1  0.00095091  0.50027624  0.00423210  1
  Al0+  Al52  1  -0.00180542  0.50139901  0.33275127  1
  Al0+  Al53  1  0.00221282  0.50069382  0.66249875  1
  Al0+  Al54  1  0.49863727  -0.00001056  0.00663931  1
  Al0+  Al55  1  0.50283393  0.00064926  0.33613840  1
  Al0+  Al56  1  0.50065441  -0.00220597  0.66847923  1
  Al0+  Al57  1  0.50041710  0.50224782  -0.00679521  1
  Al0+  Al58  1  0.50099422  0.49731599  0.32911407  1
  Al0+  Al59  1  0.50220269  0.49794317  0.67444778  1
  Al0+  Al60  1  0.24698082  0.25212004  -0.00659075  1
  Al0+  Al61  1  0.24842532  0.25145968  0.33149798  1
  Al0+  Al62  1  0.25033167  0.25163116  0.66750774  1
  Al0+  Al63  1  0.24986057  0.74926767  -0.00216612  1
  Al0+  Al64  1  0.24904112  0.75163381  0.33266519  1
  Al0+  Al65  1  0.25066117  0.74989832  0.67511774  1
  Al0+  Al66  1  0.74923743  0.25129515  0.00588120  1
  Al0+  Al67  1  0.74895958  0.25101738  0.33383119  1
  Al0+  Al68  1  0.75052335  0.24865180  0.66415011  1
  Al0+  Al69  1  0.74989373  0.74943221  0.00313581  1
  Al0+  Al70  1  0.75117885  0.75026552  0.32901672  1
  Al0+  Al71  1  0.75063191  0.74962398  0.66112365  1
  Al0+  Al72  1  0.32085476  0.56875880  0.34374231  1
  Al0+  Al73  1  0.06877539  0.18236976  0.32100000  1
  Al0+  Al74  1  0.06851456  0.17745438  0.98483595  1
  Al0+  Al75  1  0.82302193  0.07323078  0.01493380  1
  Al0+  Al76  1  0.92928890  0.81968878  0.65347043  1
  Al0+  Al77  1  0.32343004  0.07409250  0.34905660  1
  Al0+  Al78  1  0.68103009  0.42728264  0.68167070  1
  Al0+  Al79  1  0.07199381  0.67865029  0.31773408  1
  Al0+  Al80  1  0.92872232  0.32117449  0.65484242  1
  Al0+  Al81  1  0.32060908  0.07131880  0.68161723  1
  Al0+  Al82  1  0.56964966  0.67729289  0.31917659  1
  Al0+  Al83  1  0.92886280  0.82262310  0.31413047  1
  Al0+  Al84  1  0.82111148  0.56985111  0.01373445  1
  Al0+  Al85  1  0.57114455  0.17553939  0.65149845  1
  Al0+  Al86  1  0.32158427  0.57088990  0.68192102  1
  Al0+  Al87  1  0.43008699  0.31809125  0.32058933  1
  Al0+  Al88  1  0.17804413  0.93014039  0.34827890  1
  Al0+  Al89  1  0.42724929  0.82422650  0.31942662  1
  Al0+  Al90  1  0.42759821  0.32135825  0.98248316  1
  Al0+  Al91  1  0.31791729  0.07237252  0.01312630  1
  Al0+  Al92  1  0.42966978  0.32124353  0.64966810  1
  Al0+  Al93  1  0.57156991  0.17712414  0.98676481  1
  Al0+  Al94  1  0.57155614  0.68209754  0.98389921  1
  Al0+  Al95  1  0.67814002  0.92875355  0.01657708  1
  Si0+  Si96  1  0.82179277  0.06936392  0.67909877  1
  Si0+  Si97  1  0.17538353  0.42780550  0.68446761  1
  Si0+  Si98  1  0.17654733  0.92844946  0.68476605  1
  Si0+  Si99  1  0.68044010  0.42951798  0.34870831  1
  Si0+  Si100  1  0.07254987  0.67614837  0.98354346  1
  Si0+  Si101  1  0.82254850  0.57249597  0.68033156  1
  Si0+  Si102  1  0.17538594  0.42775439  0.35025201  1
  Si0+  Si103  1  0.92854758  0.32440382  0.98676055  1
  Si0+  Si104  1  0.57054483  0.67890476  0.65299776  1
  Si0+  Si105  1  0.07248379  0.17775748  0.64893463  1
  Si0+  Si106  1  0.67581820  0.42887714  0.01893117  1
  Si0+  Si107  1  0.82014757  0.07155718  0.34974597  1
  Si0+  Si108  1  0.42840420  0.82004662  0.65428860  1
  Si0+  Si109  1  0.07509398  0.67840547  0.65100743  1
  Si0+  Si110  1  0.68064421  0.92723286  0.35078973  1
  Si0+  Si111  1  0.42588065  0.82208260  0.98240475  1
  Si0+  Si112  1  0.17752686  0.92551445  0.01529082  1
  Si0+  Si113  1  0.82157867  0.57250111  0.35062169  1
  Si0+  Si114  1  0.67978379  0.92673312  0.67986779  1
  Si0+  Si115  1  0.17901532  0.43130147  0.01514510  1
  Si0+  Si116  1  0.57508461  0.17711119  0.31678897  1
  Si0+  Si117  1  0.93011876  0.81823983  0.98409091  1
  Si0+  Si118  1  0.32210991  0.57168007  0.01538164  1
  Si0+  Si119  1  0.92422273  0.32331636  0.31603213  1
  O2-  O120  1  0.24521502  -0.00499097  0.05839369  1
  O2-  O121  1  0.25371606  -0.00141912  0.39827060  1
  O2-  O122  1  0.24373997  -0.00180543  0.72891762  1
  O2-  O123  1  0.25283474  0.49933856  0.05705499  1
  O2-  O124  1  0.24314550  0.49800884  0.39328628  1
  O2-  O125  1  0.24672063  0.49499348  0.72772390  1
  O2-  O126  1  0.74786842  0.00438610  0.06527673  1
  O2-  O127  1  0.74969935  0.00047162  0.39333114  1
  O2-  O128  1  0.74991289  -0.00083758  0.72104689  1
  O2-  O129  1  0.74632706  0.49637674  0.06273162  1
  O2-  O130  1  0.75148966  0.50057546  0.39225950  1
  O2-  O131  1  0.75888919  0.50060761  0.72638656  1
  O2-  O132  1  -0.00515385  0.25728567  0.27232622  1
  O2-  O133  1  0.00368820  0.24764007  0.60670487  1
  O2-  O134  1  -0.01174979  0.24845203  0.94116179  1
  O2-  O135  1  0.00124711  0.75042109  0.26497631  1
  O2-  O136  1  0.00535049  0.74631243  0.60803207  1
  O2-  O137  1  0.00198547  0.74772106  0.94152234  1
  O2-  O138  1  0.49874929  0.23775694  0.27450326  1
  O2-  O139  1  0.49790543  0.24540899  0.60000293  1
  O2-  O140  1  0.49974617  0.24800470  0.93514736  1
  O2-  O141  1  0.49855676  0.75078514  0.27024986  1
  O2-  O142  1  0.49614223  0.74608597  0.61124563  1
  O2-  O143  1  0.49676442  0.75623130  0.93612076  1
  O2-  O144  1  0.07025153  0.17945165  0.09773875  1
  O2-  O145  1  0.06594226  0.18485842  0.43438752  1
  O2-  O146  1  0.06977170  0.17680326  0.75473651  1
  O2-  O147  1  0.07388027  0.67505858  0.08791776  1
  O2-  O148  1  0.06847822  0.67778970  0.43163932  1
  O2-  O149  1  0.07406011  0.67881439  0.75721277  1
  O2-  O150  1  0.57003657  0.18033656  0.10045716  1
  O2-  O151  1  0.58183721  0.18147375  0.42204443  1
  O2-  O152  1  0.57300427  0.17465128  0.76470517  1
  O2-  O153  1  0.56908629  0.68177708  0.09650360  1
  O2-  O154  1  0.56883032  0.67678176  0.43369208  1
  O2-  O155  1  0.57386983  0.68274752  0.75795295  1
  O2-  O156  1  0.17588895  0.42734394  0.24431770  1
  O2-  O157  1  0.17148627  0.42888694  0.57925884  1
  O2-  O158  1  0.17403631  0.43498005  0.91017700  1
  O2-  O159  1  0.17729487  0.93437105  0.23451516  1
  O2-  O160  1  0.17628028  0.92650017  0.57975019  1
  O2-  O161  1  0.17798713  0.92357688  0.90928977  1
  O2-  O162  1  0.68302274  0.42881024  0.24383519  1
  O2-  O163  1  0.68056173  0.43100476  0.56805163  1
  O2-  O164  1  0.67838479  0.42925421  0.91324841  1
  O2-  O165  1  0.68155751  0.92657621  0.24618098  1
  O2-  O166  1  0.68108488  0.92469907  0.57477722  1
  O2-  O167  1  0.68404133  0.92568199  0.90211434  1
  O2-  O168  1  0.42739000  0.32206676  0.09640017  1
  O2-  O169  1  0.43359916  0.32238132  0.43330441  1
  O2-  O170  1  0.43286807  0.32045209  0.76276322  1
  O2-  O171  1  0.42244448  0.81769012  0.08741360  1
  O2-  O172  1  0.43045917  0.82188503  0.43409857  1
  O2-  O173  1  0.43107019  0.82009188  0.75941228  1
  O2-  O174  1  0.93513523  0.32946481  0.09200093  1
  O2-  O175  1  0.92187346  0.32109984  0.42190354  1
  O2-  O176  1  0.92930361  0.31943960  0.76805165  1
  O2-  O177  1  0.93086515  0.81780620  0.08859694  1
  O2-  O178  1  0.92807353  0.81997307  0.42815332  1
  O2-  O179  1  0.92807976  0.81825158  0.76697266  1
  O2-  O180  1  0.31935687  0.07613774  0.23549352  1
  O2-  O181  1  0.31939714  0.06927946  0.56892437  1
  O2-  O182  1  0.31685730  0.07137650  0.89954113  1
  O2-  O183  1  0.32161997  0.56473402  0.23050528  1
  O2-  O184  1  0.32146336  0.57404216  0.56890484  1
  O2-  O185  1  0.31924331  0.57297746  0.91005236  1
  O2-  O186  1  0.81861742  0.07296802  0.24505006  1
  O2-  O187  1  0.82267473  0.06798935  0.57377093  1
  O2-  O188  1  0.82552615  0.06871761  0.90059351  1
  O2-  O189  1  0.82222136  0.57097599  0.24546199  1
  O2-  O190  1  0.81874185  0.57356902  0.57477985  1
  O2-  O191  1  0.82143484  0.56841071  0.90011810  1
  O2-  O192  1  0.03641470  0.08754470  0.26611642  1
  O2-  O193  1  0.04573912  0.08482831  0.60274642  1
  O2-  O194  1  0.04245406  0.08016802  0.92893683  1
  O2-  O195  1  0.04241018  0.57959577  0.26513260  1
  O2-  O196  1  0.05369512  0.58475644  0.60428203  1
  O2-  O197  1  0.04249467  0.58509468  0.93577605  1
  O2-  O198  1  0.56020423  0.07998438  0.27605704  1
  O2-  O199  1  0.54667544  0.07495798  0.60011708  1
  O2-  O200  1  0.54679895  0.07622736  0.93717304  1
  O2-  O201  1  0.54238087  0.58030720  0.26397688  1
  O2-  O202  1  0.54573184  0.58516090  0.60980557  1
  O2-  O203  1  0.54115947  0.58637164  0.92810595  1
  O2-  O204  1  0.16386667  0.21349654  0.26486275  1
  O2-  O205  1  0.16545827  0.20486500  0.60399068  1
  O2-  O206  1  0.16014902  0.21661722  0.92731268  1
  O2-  O207  1  0.17019439  0.70437053  0.26410412  1
  O2-  O208  1  0.16902401  0.70630370  0.60727187  1
  O2-  O209  1  0.16402936  0.70373025  0.93434366  1
  O2-  O210  1  0.66536924  0.21080056  0.26802532  1
  O2-  O211  1  0.66944116  0.20473584  0.59828047  1
  O2-  O212  1  0.67252261  0.20485512  0.93682868  1
  O2-  O213  1  0.66810976  0.70600305  0.26763718  1
  O2-  O214  1  0.66047890  0.70850433  0.60269248  1
  O2-  O215  1  0.66888853  0.71271264  0.93026325  1
  O2-  O216  1  0.08984197  0.46118228  0.06634210  1
  O2-  O217  1  0.08013114  0.45088208  0.39540617  1
  O2-  O218  1  0.08289394  0.45696835  0.73306630  1
  O2-  O219  1  0.08304449  0.94896405  0.05910200  1
  O2-  O220  1  0.07945202  0.96213216  0.40083544  1
  O2-  O221  1  0.08164878  0.95361890  0.72992870  1
  O2-  O222  1  0.58276086  0.45980502  0.06272116  1
  O2-  O223  1  0.58937837  0.45900989  0.39604805  1
  O2-  O224  1  0.58793652  0.46056811  0.73955826  1
  O2-  O225  1  0.57895621  0.95057427  0.07021758  1
  O2-  O226  1  0.58879890  0.95229127  0.39991217  1
  O2-  O227  1  0.58801436  0.95002207  0.72889719  1
  O2-  O228  1  0.20505842  0.33845507  0.06054916  1
  O2-  O229  1  0.20130186  0.33523191  0.39716456  1
  O2-  O230  1  0.19787923  0.33367774  0.73071856  1
  O2-  O231  1  0.20231955  0.83108267  0.06084130  1
  O2-  O232  1  0.20068474  0.83001357  0.40073186  1
  O2-  O233  1  0.20117585  0.83549135  0.73345421  1
  O2-  O234  1  0.69874044  0.33594159  0.06732624  1
  O2-  O235  1  0.70885780  0.33817136  0.39764729  1
  O2-  O236  1  0.71321528  0.33056405  0.73484885  1
  O2-  O237  1  0.71273217  0.83268482  0.07037430  1
  O2-  O238  1  0.71105146  0.83563522  0.39828410  1
  O2-  O239  1  0.71084000  0.83529893  0.72734747  1
  O2-  O240  1  0.46672152  0.41101179  0.26343075  1
  O2-  O241  1  0.46355188  0.42042558  0.60066648  1
  O2-  O242  1  0.45675944  0.41998055  0.93064490  1
  O2-  O243  1  0.45878998  0.92230990  0.26768320  1
  O2-  O244  1  0.45879970  0.90975361  0.60543282  1
  O2-  O245  1  0.44989249  0.91714237  0.93971283  1
  O2-  O246  1  0.94610430  0.41855812  0.27285840  1
  O2-  O247  1  0.95681364  0.41841716  0.59931836  1
  O2-  O248  1  0.96254954  0.41447840  0.93738424  1
  O2-  O249  1  0.95429300  0.92160353  0.26274710  1
  O2-  O250  1  0.95805977  0.91598948  0.59752007  1
  O2-  O251  1  0.95760981  0.90925504  0.93465922  1
  O2-  O252  1  0.33135137  0.29553740  0.26761080  1
  O2-  O253  1  0.32797722  0.29941553  0.60044185  1
  O2-  O254  1  0.32866081  0.29680173  0.92936500  1
  O2-  O255  1  0.32883797  0.79962440  0.26702413  1
  O2-  O256  1  0.33435586  0.79511734  0.61062586  1
  O2-  O257  1  0.33362295  0.79344196  0.93337822  1
  O2-  O258  1  0.83172170  0.29603023  0.26893101  1
  O2-  O259  1  0.83447760  0.28925194  0.59756359  1
  O2-  O260  1  0.83104207  0.30805549  0.94668021  1
  O2-  O261  1  0.83177420  0.79106537  0.26139095  1
  O2-  O262  1  0.83419843  0.78834446  0.59604415  1
  O2-  O263  1  0.83914388  0.78795528  0.93701092  1
  O2-  O264  1  0.41426647  0.04507384  0.06812879  1
  O2-  O265  1  0.42413252  0.05060989  0.40045413  1
  O2-  O266  1  0.41659314  0.03586251  0.73502026  1
  O2-  O267  1  0.41547733  0.54617285  0.05965503  1
  O2-  O268  1  0.41725950  0.53502935  0.39776514  1
  O2-  O269  1  0.41740018  0.54088938  0.73788281  1
  O2-  O270  1  0.92052653  0.03814439  0.06653449  1
  O2-  O271  1  0.91160272  0.04430697  0.39744770  1
  O2-  O272  1  0.91384448  0.04031378  0.72621580  1
  O2-  O273  1  0.91735208  0.53936139  0.06962612  1
  O2-  O274  1  0.91356477  0.54595144  0.39877620  1
  O2-  O275  1  0.91920362  0.55365446  0.72288866  1
  O2-  O276  1  0.28331127  0.16970609  0.06313870  1
  O2-  O277  1  0.28745915  0.17096210  0.40188809  1
  O2-  O278  1  0.29046361  0.16879932  0.73444167  1
  O2-  O279  1  0.29207933  0.66338665  0.06133234  1
  O2-  O280  1  0.29317319  0.66658122  0.39725692  1
  O2-  O281  1  0.29028571  0.66608813  0.74056461  1
  O2-  O282  1  0.80192511  0.17302770  0.06901589  1
  O2-  O283  1  0.79218979  0.16423951  0.39701988  1
  O2-  O284  1  0.79707030  0.16142465  0.72629043  1
  O2-  O285  1  0.79039021  0.66527705  0.06864271  1
  O2-  O286  1  0.79346915  0.66481191  0.39669303  1
  O2-  O287  1  0.79183977  0.66486955  0.72715036  1
