# generated using pymatgen
data_Ca2Al2SiO7
_symmetry_space_group_name_H-M   'P 1'
_cell_length_a   15.46718142
_cell_length_b   15.46615400
_cell_length_c   15.28976426
_cell_angle_alpha   90.01297731
_cell_angle_beta   89.98395820
_cell_angle_gamma   90.01831570
_symmetry_Int_Tables_number   1
_chemical_formula_structural   Ca2Al2SiO7
_chemical_formula_sum   'Ca48 Al48 Si24 O168'
_cell_volume   3657.58349588
_cell_formula_units_Z   24
loop_
 _symmetry_equiv_pos_site_id
 _symmetry_equiv_pos_as_xyz
  1  'x, y, z'
loop_
 _atom_type_symbol
 _atom_type_oxidation_number
  Ca2+  2.0
  Al0+  0.0
  Si0+  0.0
  O2-  -2.0
loop_
 _atom_site_type_symbol
 _atom_site_label
 _atom_site_symmetry_multiplicity
 _atom_site_fract_x
 _atom_site_fract_y
 _atom_site_fract_z
 _atom_site_occupancy
  Ca2+  Ca0  1  0.17284609  0.07681907  0.17840581  1
  Ca2+  Ca1  1  0.17769188  0.07466967  0.49733614  1
  Ca2+  Ca2  1  0.17475627  0.08351676  0.83012892  1
  Ca2+  Ca3  1  0.17314713  0.57547785  0.17892454  1
  Ca2+  Ca4  1  0.17536670  0.57886026  0.50740680  1
  Ca2+  Ca5  1  0.16879356  0.58862593  0.82734479  1
  Ca2+  Ca6  1  0.66850519  0.07948866  0.16924383  1
  Ca2+  Ca7  1  0.67829147  0.07770513  0.50780178  1
  Ca2+  Ca8  1  0.66707778  0.07077858  0.83470888  1
  Ca2+  Ca9  1  0.66991146  0.58071663  0.18080939  1
  Ca2+  Ca10  1  0.66116757  0.57836453  0.49848179  1
  Ca2+  Ca11  1  0.66185405  0.57577860  0.83196988  1
  Ca2+  Ca12  1  0.08523905  0.33369526  0.16784319  1
  Ca2+  Ca13  1  0.09120043  0.33469093  0.49633490  1
  Ca2+  Ca14  1  0.08420086  0.33313182  0.82411063  1
  Ca2+  Ca15  1  0.07174432  0.84094928  0.16694349  1
  Ca2+  Ca16  1  0.07564743  0.83371986  0.49544419  1
  Ca2+  Ca17  1  0.07109912  0.82977127  0.82153678  1
  Ca2+  Ca18  1  0.58018479  0.32925933  0.16702945  1
  Ca2+  Ca19  1  0.57480750  0.33909876  0.49358033  1
  Ca2+  Ca20  1  0.58161835  0.32521876  0.82337607  1
  Ca2+  Ca21  1  0.58227666  0.83069835  0.16810573  1
  Ca2+  Ca22  1  0.57478344  0.83220624  0.49471498  1
  Ca2+  Ca23  1  0.58387012  0.83546180  0.82551841  1
  Ca2+  Ca24  1  0.32984371  0.42049987  0.18114999  1
  Ca2+  Ca25  1  0.33394011  0.42618817  0.50565788  1
  Ca2+  Ca26  1  0.33416146  0.41980198  0.82599826  1
  Ca2+  Ca27  1  0.32705154  0.92215590  0.18111602  1
  Ca2+  Ca28  1  0.34160933  0.92228651  0.50595036  1
  Ca2+  Ca29  1  0.34302223  0.92273291  0.83220483  1
  Ca2+  Ca30  1  0.82502768  0.42641552  0.18059358  1
  Ca2+  Ca31  1  0.81994230  0.42266931  0.50162037  1
  Ca2+  Ca32  1  0.82697567  0.41623377  0.83181708  1
  Ca2+  Ca33  1  0.83073028  0.91620370  0.17429333  1
  Ca2+  Ca34  1  0.83406798  0.92139424  0.50638805  1
  Ca2+  Ca35  1  0.82570783  0.90915618  0.83443851  1
  Ca2+  Ca36  1  0.41871044  0.17023217  0.16697347  1
  Ca2+  Ca37  1  0.40592376  0.17676534  0.49573195  1
  Ca2+  Ca38  1  0.42341423  0.16926711  0.82315875  1
  Ca2+  Ca39  1  0.41872710  0.66600908  0.17402524  1
  Ca2+  Ca40  1  0.41608948  0.67210076  0.49185411  1
  Ca2+  Ca41  1  0.41721403  0.67412974  0.82134598  1
  Ca2+  Ca42  1  0.91462173  0.16547046  0.16795371  1
  Ca2+  Ca43  1  0.91419159  0.16273045  0.49398854  1
  Ca2+  Ca44  1  0.91741381  0.16594262  0.82582610  1
  Ca2+  Ca45  1  0.90963485  0.67838158  0.16666542  1
  Ca2+  Ca46  1  0.91787801  0.67476769  0.49416363  1
  Ca2+  Ca47  1  0.92170800  0.67730954  0.82288972  1
  Al0+  Al48  1  -0.00006129  0.00173185  -0.00679232  1
  Al0+  Al49  1  0.00115965  0.00112021  0.33509249  1
  Al0+  Al50  1  0.00238334  0.00256789  0.66629776  1
  Al0+  Al51  1  0.00055289  0.50031963  0.00025271  1
  Al0+  Al52  1  -0.00241140  0.49986046  0.33884559  1
  Al0+  Al53  1  0.00007809  0.49838982  0.66672621  1
  Al0+  Al54  1  0.50218895  0.00126140  0.00240803  1
  Al0+  Al55  1  0.50051897  0.00229025  0.33214888  1
  Al0+  Al56  1  0.50385947  0.00060850  0.67026779  1
  Al0+  Al57  1  0.49830120  0.50026548  0.00057597  1
  Al0+  Al58  1  0.49803184  0.49917397  0.32937850  1
  Al0+  Al59  1  0.49906790  0.49841068  0.67360461  1
  Al0+  Al60  1  0.24977207  0.25176505  -0.00053622  1
  Al0+  Al61  1  0.24917355  0.24711597  0.33209950  1
  Al0+  Al62  1  0.25067889  0.24968898  0.67160352  1
  Al0+  Al63  1  0.24994128  0.75035392  0.00183191  1
  Al0+  Al64  1  0.24617977  0.74905331  0.33411401  1
  Al0+  Al65  1  0.24977707  0.75028062  0.66364568  1
  Al0+  Al66  1  0.74950926  0.24899460  -0.00443640  1
  Al0+  Al67  1  0.75013616  0.24968654  0.33803172  1
  Al0+  Al68  1  0.75160559  0.24913549  0.67404685  1
  Al0+  Al69  1  0.74808931  0.74972823  -0.00089910  1
  Al0+  Al70  1  0.74974897  0.75027922  0.32942050  1
  Al0+  Al71  1  0.75052045  0.74901350  0.66572183  1
  Al0+  Al72  1  0.32115613  0.57370397  0.68304949  1
  Al0+  Al73  1  0.82434909  0.07062293  0.68366993  1
  Al0+  Al74  1  0.17792186  0.92761996  0.34690060  1
  Al0+  Al75  1  0.56926559  0.67976329  0.31880136  1
  Al0+  Al76  1  0.82032594  0.06949620  0.34454275  1
  Al0+  Al77  1  0.07135772  0.67728413  0.64964411  1
  Al0+  Al78  1  0.32362556  0.06902277  0.34704185  1
  Al0+  Al79  1  0.42589197  0.82406116  0.31824611  1
  Al0+  Al80  1  0.82036844  0.57486227  0.34877649  1
  Al0+  Al81  1  0.17784364  0.42703694  0.34718082  1
  Al0+  Al82  1  0.67741386  0.42871720  0.34642437  1
  Al0+  Al83  1  0.57059715  0.17924708  0.98491980  1
  Al0+  Al84  1  0.68115704  0.92741256  0.68039057  1
  Al0+  Al85  1  0.92828438  0.82211608  0.64924945  1
  Al0+  Al86  1  0.17878040  0.42921880  0.68324039  1
  Al0+  Al87  1  0.67959890  0.92816149  0.01684585  1
  Al0+  Al88  1  0.43036116  0.31900993  0.65281603  1
  Al0+  Al89  1  0.92840471  0.82067645  0.98527644  1
  Al0+  Al90  1  0.67804441  0.42947383  0.68159232  1
  Al0+  Al91  1  0.43148206  0.82262170  0.65512836  1
  Al0+  Al92  1  0.32082188  0.57122325  0.34804809  1
  Al0+  Al93  1  0.93093848  0.82205016  0.31925478  1
  Al0+  Al94  1  0.42810307  0.31910302  0.32005000  1
  Al0+  Al95  1  0.32172855  0.06999903  0.68088711  1
  Si0+  Si96  1  0.32101925  0.07152435  0.01474857  1
  Si0+  Si97  1  0.32100311  0.57272134  0.01652638  1
  Si0+  Si98  1  0.07016092  0.67455518  0.31561814  1
  Si0+  Si99  1  0.07246483  0.18053514  0.98381296  1
  Si0+  Si100  1  0.17857582  0.42910472  0.01574679  1
  Si0+  Si101  1  0.42851268  0.82036468  0.98684464  1
  Si0+  Si102  1  0.56992307  0.67761664  0.98434843  1
  Si0+  Si103  1  0.57181481  0.67551221  0.65204517  1
  Si0+  Si104  1  0.93003005  0.32213882  0.98557167  1
  Si0+  Si105  1  0.92654033  0.32164089  0.31951668  1
  Si0+  Si106  1  0.67880579  0.42737513  0.01497804  1
  Si0+  Si107  1  0.17812527  0.93033833  0.01261890  1
  Si0+  Si108  1  0.07258853  0.18050630  0.65007357  1
  Si0+  Si109  1  0.82008139  0.56933793  0.01349538  1
  Si0+  Si110  1  0.82227721  0.57100082  0.68423852  1
  Si0+  Si111  1  0.67736294  0.92746650  0.34876608  1
  Si0+  Si112  1  0.06916626  0.18037836  0.31785571  1
  Si0+  Si113  1  0.57411306  0.17845188  0.64885887  1
  Si0+  Si114  1  0.17886719  0.92794650  0.68385882  1
  Si0+  Si115  1  0.07291205  0.67733278  0.98416880  1
  Si0+  Si116  1  0.92749864  0.32001847  0.65074104  1
  Si0+  Si117  1  0.42690549  0.32268720  0.98152361  1
  Si0+  Si118  1  0.82356991  0.07251901  0.01673428  1
  Si0+  Si119  1  0.57618338  0.17877681  0.31743257  1
  O2-  O120  1  0.24962380  0.00052993  0.05571804  1
  O2-  O121  1  0.26086836  -0.01209563  0.39531813  1
  O2-  O122  1  0.25136178  -0.00795869  0.73006336  1
  O2-  O123  1  0.25010304  0.49987085  0.05626791  1
  O2-  O124  1  0.24803675  0.49967732  0.39676228  1
  O2-  O125  1  0.24765271  0.50331176  0.73475452  1
  O2-  O126  1  0.75738986  0.00178467  0.06077725  1
  O2-  O127  1  0.74667184  -0.00446979  0.39181958  1
  O2-  O128  1  0.75586121  -0.00436133  0.73320593  1
  O2-  O129  1  0.74904020  0.49878231  0.05671148  1
  O2-  O130  1  0.74617067  0.50386472  0.39585460  1
  O2-  O131  1  0.75210640  0.50431848  0.73030910  1
  O2-  O132  1  -0.00033069  0.25335767  0.27533251  1
  O2-  O133  1  -0.00107755  0.24937967  0.60896005  1
  O2-  O134  1  0.00077055  0.25125124  0.94232626  1
  O2-  O135  1  0.00358797  0.74552178  0.27050834  1
  O2-  O136  1  -0.00018475  0.74958185  0.60002312  1
  O2-  O137  1  0.00479297  0.74665871  0.94055986  1
  O2-  O138  1  0.50414474  0.24499881  0.27376573  1
  O2-  O139  1  0.50575296  0.24633854  0.60417982  1
  O2-  O140  1  0.49621827  0.25453549  0.93813290  1
  O2-  O141  1  0.49815878  0.75250944  0.26671362  1
  O2-  O142  1  0.50379315  0.74537832  0.61003301  1
  O2-  O143  1  0.49855014  0.74879762  0.94364931  1
  O2-  O144  1  0.07419104  0.18091718  0.08872429  1
  O2-  O145  1  0.06849500  0.17976624  0.42247948  1
  O2-  O146  1  0.07269279  0.18201959  0.75616259  1
  O2-  O147  1  0.07278741  0.67483114  0.08923464  1
  O2-  O148  1  0.06710382  0.67260430  0.42039523  1
  O2-  O149  1  0.06777846  0.68014507  0.76468676  1
  O2-  O150  1  0.57017100  0.18165838  0.09806385  1
  O2-  O151  1  0.58118626  0.18021519  0.42216625  1
  O2-  O152  1  0.57157966  0.17984457  0.75519502  1
  O2-  O153  1  0.57026153  0.67461348  0.08865048  1
  O2-  O154  1  0.56928659  0.68019205  0.43204946  1
  O2-  O155  1  0.57046312  0.67583676  0.75877388  1
  O2-  O156  1  0.17893172  0.42778173  0.23211344  1
  O2-  O157  1  0.18140239  0.42699598  0.57071446  1
  O2-  O158  1  0.17624532  0.42664779  0.91151058  1
  O2-  O159  1  0.17466962  0.93552751  0.23212633  1
  O2-  O160  1  0.17686737  0.93195181  0.57896349  1
  O2-  O161  1  0.17914330  0.93123889  0.90780749  1
  O2-  O162  1  0.68185418  0.42714423  0.23173725  1
  O2-  O163  1  0.67862392  0.42970412  0.56932984  1
  O2-  O164  1  0.68002369  0.42847154  0.90991555  1
  O2-  O165  1  0.67896299  0.92924260  0.24251653  1
  O2-  O166  1  0.67942890  0.93045002  0.56727041  1
  O2-  O167  1  0.67864023  0.92753835  0.90430335  1
  O2-  O168  1  0.42519746  0.32223590  0.08701133  1
  O2-  O169  1  0.42729830  0.31828545  0.43262722  1
  O2-  O170  1  0.43249686  0.31646594  0.76681454  1
  O2-  O171  1  0.42653400  0.81896663  0.09121475  1
  O2-  O172  1  0.43124413  0.82521099  0.43138625  1
  O2-  O173  1  0.43399700  0.82206509  0.76955194  1
  O2-  O174  1  0.93085689  0.32287291  0.09056397  1
  O2-  O175  1  0.92426335  0.31847894  0.42400420  1
  O2-  O176  1  0.92846498  0.31905464  0.75690251  1
  O2-  O177  1  0.92983640  0.82137473  0.09836325  1
  O2-  O178  1  0.93240557  0.82433225  0.43130951  1
  O2-  O179  1  0.92925429  0.81954655  0.76370932  1
  O2-  O180  1  0.31821234  0.07248969  0.23231946  1
  O2-  O181  1  0.31860837  0.07107648  0.56872602  1
  O2-  O182  1  0.32016340  0.07150455  0.90966248  1
  O2-  O183  1  0.31905178  0.56751056  0.23303619  1
  O2-  O184  1  0.32375684  0.57197191  0.57059921  1
  O2-  O185  1  0.32178282  0.57526942  0.91206517  1
  O2-  O186  1  0.81996775  0.07013651  0.23081141  1
  O2-  O187  1  0.82201783  0.07262381  0.57022123  1
  O2-  O188  1  0.82439446  0.07402584  0.91181187  1
  O2-  O189  1  0.82038836  0.57134389  0.23373611  1
  O2-  O190  1  0.82210895  0.56912115  0.57940162  1
  O2-  O191  1  0.82030654  0.56646562  0.90853580  1
  O2-  O192  1  0.03784114  0.09101265  0.26726723  1
  O2-  O193  1  0.04819256  0.08847382  0.60267772  1
  O2-  O194  1  0.04638412  0.08976366  0.93367374  1
  O2-  O195  1  0.04218027  0.58097661  0.26840622  1
  O2-  O196  1  0.04423281  0.57732857  0.60037253  1
  O2-  O197  1  0.04691025  0.58350532  0.93761938  1
  O2-  O198  1  0.55234196  0.08519721  0.27004871  1
  O2-  O199  1  0.55020301  0.08435943  0.60539694  1
  O2-  O200  1  0.53857462  0.08249303  0.93158165  1
  O2-  O201  1  0.54071587  0.58209699  0.26229417  1
  O2-  O202  1  0.54532154  0.58176428  0.60868550  1
  O2-  O203  1  0.54167304  0.58537010  0.93641659  1
  O2-  O204  1  0.15953379  0.20712240  0.26635782  1
  O2-  O205  1  0.16302242  0.21188673  0.60395092  1
  O2-  O206  1  0.16377467  0.20991749  0.93529525  1
  O2-  O207  1  0.16445126  0.69646253  0.26904211  1
  O2-  O208  1  0.17021296  0.70338588  0.59862872  1
  O2-  O209  1  0.16700842  0.70353636  0.93862680  1
  O2-  O210  1  0.66767483  0.20866589  0.26748729  1
  O2-  O211  1  0.66915049  0.20480343  0.60732311  1
  O2-  O212  1  0.66725113  0.20904887  0.92973861  1
  O2-  O213  1  0.66752814  0.70719314  0.26292191  1
  O2-  O214  1  0.66628074  0.69717240  0.60754713  1
  O2-  O215  1  0.66134077  0.70439398  0.93595402  1
  O2-  O216  1  0.08615999  0.45595539  0.06359130  1
  O2-  O217  1  0.07783760  0.44873850  0.39800517  1
  O2-  O218  1  0.07824815  0.45310530  0.73607750  1
  O2-  O219  1  0.08625477  0.96104409  0.05861195  1
  O2-  O220  1  0.08649240  0.97007567  0.40250158  1
  O2-  O221  1  0.08816278  0.96092254  0.73241721  1
  O2-  O222  1  0.58528663  0.45382684  0.05962066  1
  O2-  O223  1  0.57846421  0.45455463  0.39625440  1
  O2-  O224  1  0.58403297  0.45946779  0.74103366  1
  O2-  O225  1  0.58383636  0.96221044  0.07118223  1
  O2-  O226  1  0.58407795  0.95345844  0.39346772  1
  O2-  O227  1  0.58571871  0.96040795  0.73816224  1
  O2-  O228  1  0.20544216  0.33650898  0.06323389  1
  O2-  O229  1  0.20402258  0.32754481  0.39638013  1
  O2-  O230  1  0.21042898  0.33241554  0.73917418  1
  O2-  O231  1  0.20352780  0.83789736  0.06013131  1
  O2-  O232  1  0.18837770  0.82524091  0.39401233  1
  O2-  O233  1  0.19838532  0.83300267  0.72855647  1
  O2-  O234  1  0.70805123  0.33542678  0.06055179  1
  O2-  O235  1  0.71002446  0.33338035  0.40122302  1
  O2-  O236  1  0.71273207  0.33499111  0.73818845  1
  O2-  O237  1  0.70788279  0.82983642  0.06904292  1
  O2-  O238  1  0.70148016  0.83372339  0.39221602  1
  O2-  O239  1  0.70515321  0.82732941  0.73422211  1
  O2-  O240  1  0.45786981  0.41400761  0.26206061  1
  O2-  O241  1  0.46038738  0.41742871  0.60363355  1
  O2-  O242  1  0.45193444  0.41740844  0.93730470  1
  O2-  O243  1  0.45387389  0.92350128  0.26459245  1
  O2-  O244  1  0.46450776  0.91872742  0.60216181  1
  O2-  O245  1  0.45713367  0.91297873  0.94171814  1
  O2-  O246  1  0.95207856  0.41400138  0.27129133  1
  O2-  O247  1  0.95295991  0.41207016  0.60462088  1
  O2-  O248  1  0.95830933  0.41352321  0.93698098  1
  O2-  O249  1  0.96513038  0.91824457  0.26418556  1
  O2-  O250  1  0.95837052  0.92207341  0.60105523  1
  O2-  O251  1  0.95775326  0.91777481  0.93122623  1
  O2-  O252  1  0.33275583  0.28495369  0.26312233  1
  O2-  O253  1  0.33333663  0.28575048  0.60269537  1
  O2-  O254  1  0.33285643  0.29675482  0.93613868  1
  O2-  O255  1  0.32568331  0.79693439  0.26645658  1
  O2-  O256  1  0.33300810  0.79858716  0.60373137  1
  O2-  O257  1  0.33602631  0.79398393  0.93902335  1
  O2-  O258  1  0.83686936  0.29017828  0.26896109  1
  O2-  O259  1  0.83563837  0.29082030  0.60513314  1
  O2-  O260  1  0.83852561  0.29503157  0.93711104  1
  O2-  O261  1  0.83413233  0.79274446  0.26390491  1
  O2-  O262  1  0.82905666  0.79452311  0.59864616  1
  O2-  O263  1  0.83219455  0.78671781  0.93255716  1
  O2-  O264  1  0.41243200  0.04492895  0.06199727  1
  O2-  O265  1  0.42492135  0.05414368  0.39798786  1
  O2-  O266  1  0.41867981  0.04162313  0.73603310  1
  O2-  O267  1  0.41310081  0.54439912  0.06346625  1
  O2-  O268  1  0.41885235  0.54217797  0.39823405  1
  O2-  O269  1  0.41710711  0.54174881  0.74022945  1
  O2-  O270  1  0.91977817  0.05079292  0.06003615  1
  O2-  O271  1  0.91661934  0.04148406  0.39861710  1
  O2-  O272  1  0.92556048  0.04966234  0.73456783  1
  O2-  O273  1  0.91229370  0.54177461  0.06072618  1
  O2-  O274  1  0.91603096  0.54331114  0.40268582  1
  O2-  O275  1  0.91402354  0.54162062  0.73228517  1
  O2-  O276  1  0.29171699  0.16415473  0.06031056  1
  O2-  O277  1  0.28306191  0.16276275  0.39952433  1
  O2-  O278  1  0.28556050  0.16303837  0.73886734  1
  O2-  O279  1  0.29276583  0.66408919  0.06499723  1
  O2-  O280  1  0.29555859  0.67049154  0.39839402  1
  O2-  O281  1  0.29237207  0.67261665  0.73694931  1
  O2-  O282  1  0.79579471  0.16673224  0.06173762  1
  O2-  O283  1  0.79253920  0.16560338  0.39988955  1
  O2-  O284  1  0.79476040  0.16775629  0.73916237  1
  O2-  O285  1  0.79120147  0.66082048  0.05991126  1
  O2-  O286  1  0.79386920  0.67347721  0.39999010  1
  O2-  O287  1  0.79784888  0.66474463  0.73043611  1
