# generated using pymatgen
data_Ca2Al2SiO7
_symmetry_space_group_name_H-M   'P 1'
_cell_length_a   15.46283609
_cell_length_b   15.46316576
_cell_length_c   15.28750133
_cell_angle_alpha   89.99297266
_cell_angle_beta   90.00790271
_cell_angle_gamma   89.98837182
_symmetry_Int_Tables_number   1
_chemical_formula_structural   Ca2Al2SiO7
_chemical_formula_sum   'Ca48 Al48 Si24 O168'
_cell_volume   3655.30865729
_cell_formula_units_Z   24
loop_
 _symmetry_equiv_pos_site_id
 _symmetry_equiv_pos_as_xyz
  1  'x, y, z'
loop_
 _atom_type_symbol
 _atom_type_oxidation_number
  Ca2+  2.0
  Al0+  0.0
  Si0+  0.0
  O2-  -2.0
loop_
 _atom_site_type_symbol
 _atom_site_label
 _atom_site_symmetry_multiplicity
 _atom_site_fract_x
 _atom_site_fract_y
 _atom_site_fract_z
 _atom_site_occupancy
  Ca2+  Ca0  1  0.16902551  0.07612469  0.17586315  1
  Ca2+  Ca1  1  0.16868624  0.07985361  0.50893755  1
  Ca2+  Ca2  1  0.17256719  0.09268719  0.83285488  1
  Ca2+  Ca3  1  0.17312818  0.58456800  0.16934026  1
  Ca2+  Ca4  1  0.17368239  0.59153484  0.50423122  1
  Ca2+  Ca5  1  0.17078911  0.58392190  0.84040530  1
  Ca2+  Ca6  1  0.65909754  0.07768589  0.16991062  1
  Ca2+  Ca7  1  0.66726176  0.07664337  0.51010815  1
  Ca2+  Ca8  1  0.66545243  0.07898363  0.83354204  1
  Ca2+  Ca9  1  0.66804986  0.58138433  0.17177147  1
  Ca2+  Ca10  1  0.67440183  0.57421097  0.51233610  1
  Ca2+  Ca11  1  0.67414118  0.57706291  0.82881036  1
  Ca2+  Ca12  1  0.08487863  0.33673201  0.16160399  1
  Ca2+  Ca13  1  0.07956390  0.32962417  0.50480487  1
  Ca2+  Ca14  1  0.07935615  0.33297091  0.82466644  1
  Ca2+  Ca15  1  0.08771969  0.82344951  0.16559223  1
  Ca2+  Ca16  1  0.07304044  0.82736356  0.49330898  1
  Ca2+  Ca17  1  0.07824172  0.82070781  0.82221221  1
  Ca2+  Ca18  1  0.57122593  0.32403907  0.16031640  1
  Ca2+  Ca19  1  0.58343488  0.32221529  0.49412522  1
  Ca2+  Ca20  1  0.58178435  0.32429767  0.82545017  1
  Ca2+  Ca21  1  0.58562059  0.83646618  0.16311080  1
  Ca2+  Ca22  1  0.58642608  0.83654238  0.49728388  1
  Ca2+  Ca23  1  0.58603311  0.83761213  0.82947617  1
  Ca2+  Ca24  1  0.33594948  0.42126559  0.16872158  1
  Ca2+  Ca25  1  0.33824854  0.42569365  0.50466371  1
  Ca2+  Ca26  1  0.32729726  0.42557367  0.84229161  1
  Ca2+  Ca27  1  0.32634337  0.91774343  0.17395031  1
  Ca2+  Ca28  1  0.32451041  0.92173588  0.50491843  1
  Ca2+  Ca29  1  0.33404180  0.92518867  0.83142082  1
  Ca2+  Ca30  1  0.83232516  0.41972600  0.16993511  1
  Ca2+  Ca31  1  0.82900258  0.41990754  0.51354479  1
  Ca2+  Ca32  1  0.83314397  0.41340778  0.82906128  1
  Ca2+  Ca33  1  0.82327120  0.91422472  0.17442535  1
  Ca2+  Ca34  1  0.82634785  0.91441958  0.50898459  1
  Ca2+  Ca35  1  0.82717426  0.91643934  0.83209189  1
  Ca2+  Ca36  1  0.42451760  0.17516066  0.16053733  1
  Ca2+  Ca37  1  0.42737395  0.16675878  0.49506795  1
  Ca2+  Ca38  1  0.42450445  0.16998469  0.82627925  1
  Ca2+  Ca39  1  0.41111649  0.66478359  0.16480844  1
  Ca2+  Ca40  1  0.41478108  0.66307743  0.49663984  1
  Ca2+  Ca41  1  0.41283013  0.66466408  0.82922633  1
  Ca2+  Ca42  1  0.91867439  0.16740037  0.16546275  1
  Ca2+  Ca43  1  0.91282803  0.16667435  0.50543119  1
  Ca2+  Ca44  1  0.92142045  0.17040734  0.81980199  1
  Ca2+  Ca45  1  0.92841501  0.67263406  0.16332522  1
  Ca2+  Ca46  1  0.92190859  0.67345586  0.49717108  1
  Ca2+  Ca47  1  0.92680831  0.66716103  0.82117190  1
  Al0+  Al48  1  -0.00197388  0.00056061  0.00037933  1
  Al0+  Al49  1  -0.00273809  0.00030760  0.33300222  1
  Al0+  Al50  1  -0.00130386  -0.00268491  0.66410698  1
  Al0+  Al51  1  0.00091175  0.50095002  0.00050904  1
  Al0+  Al52  1  0.00236620  0.50024297  0.32992839  1
  Al0+  Al53  1  0.00174210  0.49949155  0.66004065  1
  Al0+  Al54  1  0.50042630  -0.00072453  0.00116118  1
  Al0+  Al55  1  0.50020919  -0.00133364  0.33273107  1
  Al0+  Al56  1  0.49691860  0.00017857  0.66942967  1
  Al0+  Al57  1  0.50080996  0.50131970  -0.00032260  1
  Al0+  Al58  1  0.50001623  0.49956212  0.33324149  1
  Al0+  Al59  1  0.49954297  0.50084492  0.67553840  1
  Al0+  Al60  1  0.25076729  0.25175134  0.00227335  1
  Al0+  Al61  1  0.24959912  0.25265407  0.33044683  1
  Al0+  Al62  1  0.25098501  0.25150270  0.66618220  1
  Al0+  Al63  1  0.25062853  0.75077799  -0.00200593  1
  Al0+  Al64  1  0.25035821  0.75001784  0.33815265  1
  Al0+  Al65  1  0.25155123  0.75152064  0.66730345  1
  Al0+  Al66  1  0.75095378  0.24899004  -0.00121266  1
  Al0+  Al67  1  0.75022675  0.24858159  0.32645324  1
  Al0+  Al68  1  0.74884627  0.24729230  0.66610970  1
  Al0+  Al69  1  0.74938060  0.75129923  0.00425944  1
  Al0+  Al70  1  0.75072008  0.75017898  0.33316732  1
  Al0+  Al71  1  0.74850207  0.74691980  0.67146195  1
  Al0+  Al72  1  0.31986871  0.57261048  0.68145476  1
  Al0+  Al73  1  0.82379200  0.56962463  0.68029571  1
  Al0+  Al74  1  0.68008856  0.93055777  0.01610047  1
  Al0+  Al75  1  0.57047576  0.17785136  0.98165367  1
  Al0+  Al76  1  0.07365091  0.17766620  0.65237085  1
  Al0+  Al77  1  0.07314940  0.67998966  0.31602714  1
  Al0+  Al78  1  0.92801561  0.32011490  0.65191324  1
  Al0+  Al79  1  0.32194361  0.57267898  0.01679172  1
  Al0+  Al80  1  0.67903169  0.92939505  0.34799655  1
  Al0+  Al81  1  0.92567852  0.81925013  0.65231242  1
  Al0+  Al82  1  0.31903758  0.07255559  0.67901597  1
  Al0+  Al83  1  0.07073816  0.68088267  0.98490197  1
  Al0+  Al84  1  0.82246990  0.06998197  0.68173620  1
  Al0+  Al85  1  0.92693516  0.82234409  0.31620112  1
  Al0+  Al86  1  0.67861089  0.42595378  0.68094718  1
  Al0+  Al87  1  0.57127282  0.17677962  0.31682731  1
  Al0+  Al88  1  0.42852815  0.32347899  0.31830826  1
  Al0+  Al89  1  0.07402822  0.67822244  0.65023967  1
  Al0+  Al90  1  0.17760848  0.92971569  0.34698349  1
  Al0+  Al91  1  0.67746921  0.92813739  0.68231204  1
  Al0+  Al92  1  0.56919515  0.17778373  0.65232746  1
  Al0+  Al93  1  0.42788424  0.32289935  0.98171214  1
  Al0+  Al94  1  0.32037103  0.56852390  0.34851435  1
  Al0+  Al95  1  0.17806943  0.42908507  0.01564160  1
  Si0+  Si96  1  0.92618263  0.82216469  0.98281696  1
  Si0+  Si97  1  0.68027298  0.42779699  0.01608174  1
  Si0+  Si98  1  0.57383489  0.67912723  0.98501527  1
  Si0+  Si99  1  0.92917406  0.32149971  0.31714472  1
  Si0+  Si100  1  0.68062445  0.42884163  0.34520176  1
  Si0+  Si101  1  0.17819460  0.93031555  0.01292178  1
  Si0+  Si102  1  0.17897730  0.42817075  0.68148438  1
  Si0+  Si103  1  0.42967992  0.82167650  0.65122770  1
  Si0+  Si104  1  0.82355499  0.07359021  0.01884298  1
  Si0+  Si105  1  0.42924075  0.82042255  0.98542214  1
  Si0+  Si106  1  0.82224543  0.56964898  0.34648653  1
  Si0+  Si107  1  0.07098658  0.17734763  0.98797569  1
  Si0+  Si108  1  0.82170098  0.07442803  0.35018251  1
  Si0+  Si109  1  0.32064030  0.07093356  0.01576786  1
  Si0+  Si110  1  0.17774746  0.92848230  0.68364812  1
  Si0+  Si111  1  0.56909856  0.67777712  0.65324428  1
  Si0+  Si112  1  0.92981611  0.32151886  0.98643300  1
  Si0+  Si113  1  0.82098611  0.57087085  0.01608544  1
  Si0+  Si114  1  0.32060429  0.07334388  0.34818050  1
  Si0+  Si115  1  0.42913819  0.32416571  0.65071119  1
  Si0+  Si116  1  0.57144094  0.67871544  0.32022262  1
  Si0+  Si117  1  0.07117956  0.17893488  0.31857977  1
  Si0+  Si118  1  0.17541030  0.42601075  0.35319249  1
  Si0+  Si119  1  0.42939428  0.81987573  0.31979075  1
  O2-  O120  1  0.24662308  0.00278723  0.05760591  1
  O2-  O121  1  0.24896624  0.00817848  0.39268582  1
  O2-  O122  1  0.24041684  0.00270677  0.72836083  1
  O2-  O123  1  0.25138390  0.49931151  0.06652634  1
  O2-  O124  1  0.24567957  0.49398510  0.39540074  1
  O2-  O125  1  0.24316420  0.50030298  0.72645651  1
  O2-  O126  1  0.75404225  0.00581981  0.06287940  1
  O2-  O127  1  0.75305290  0.00502804  0.39236085  1
  O2-  O128  1  0.75034671  -0.00126102  0.73264983  1
  O2-  O129  1  0.74994977  0.50000830  0.05977833  1
  O2-  O130  1  0.75313766  0.49710368  0.38853797  1
  O2-  O131  1  0.75504515  0.49427504  0.73061133  1
  O2-  O132  1  0.00133549  0.25112752  0.27547876  1
  O2-  O133  1  -0.00136451  0.24632710  0.60169430  1
  O2-  O134  1  0.00195936  0.25052596  0.94709345  1
  O2-  O135  1  0.00166930  0.75309154  0.26584354  1
  O2-  O136  1  -0.00083079  0.74849817  0.60262618  1
  O2-  O137  1  -0.00412156  0.75522047  0.93876790  1
  O2-  O138  1  0.49778859  0.24842954  0.26879419  1
  O2-  O139  1  0.49715035  0.25535399  0.60590688  1
  O2-  O140  1  0.50005819  0.25132108  0.93176655  1
  O2-  O141  1  0.50142809  0.75020447  0.27689869  1
  O2-  O142  1  0.50029179  0.75004105  0.60952311  1
  O2-  O143  1  0.49993156  0.74827267  0.94454290  1
  O2-  O144  1  0.06841685  0.17476784  0.09348748  1
  O2-  O145  1  0.07195161  0.17890728  0.42294877  1
  O2-  O146  1  0.07526068  0.18313603  0.76658042  1
  O2-  O147  1  0.07105065  0.68283544  0.09789634  1
  O2-  O148  1  0.07179574  0.68047459  0.42883077  1
  O2-  O149  1  0.07501735  0.68056782  0.76435661  1
  O2-  O150  1  0.56774803  0.17825124  0.09544736  1
  O2-  O151  1  0.57155854  0.17750000  0.43024568  1
  O2-  O152  1  0.56609446  0.17693804  0.76516676  1
  O2-  O153  1  0.57651878  0.68006762  0.09063423  1
  O2-  O154  1  0.57136799  0.67723628  0.42510356  1
  O2-  O155  1  0.56747022  0.67765952  0.75854937  1
  O2-  O156  1  0.17308126  0.42584034  0.24776370  1
  O2-  O157  1  0.18242774  0.42528636  0.57596092  1
  O2-  O158  1  0.17513577  0.43020868  0.90235149  1
  O2-  O159  1  0.18214894  0.93120923  0.23280428  1
  O2-  O160  1  0.18286037  0.92724650  0.57811684  1
  O2-  O161  1  0.17954907  0.93182093  0.90822668  1
  O2-  O162  1  0.68276288  0.43219336  0.23953878  1
  O2-  O163  1  0.67661532  0.43028892  0.56658158  1
  O2-  O164  1  0.68291873  0.42787952  0.91161324  1
  O2-  O165  1  0.67887337  0.92919744  0.23464315  1
  O2-  O166  1  0.67636443  0.92902960  0.56870180  1
  O2-  O167  1  0.68082058  0.92813407  0.90394111  1
  O2-  O168  1  0.42974955  0.32050653  0.09550512  1
  O2-  O169  1  0.43285412  0.32512939  0.43183462  1
  O2-  O170  1  0.42961318  0.32284684  0.75611020  1
  O2-  O171  1  0.42819507  0.82157473  0.09087253  1
  O2-  O172  1  0.42992582  0.82016561  0.42471817  1
  O2-  O173  1  0.42891127  0.82184244  0.75668462  1
  O2-  O174  1  0.92874568  0.32091077  0.09221296  1
  O2-  O175  1  0.92639595  0.32222654  0.42134186  1
  O2-  O176  1  0.93172922  0.32033748  0.76598728  1
  O2-  O177  1  0.92651312  0.82098108  0.08841408  1
  O2-  O178  1  0.92454669  0.81822799  0.42902969  1
  O2-  O179  1  0.92810271  0.81715426  0.76652135  1
  O2-  O180  1  0.31891973  0.07031197  0.24191213  1
  O2-  O181  1  0.32003116  0.06832725  0.56589965  1
  O2-  O182  1  0.32020042  0.06946375  0.91075808  1
  O2-  O183  1  0.32125117  0.56949598  0.23582773  1
  O2-  O184  1  0.32265257  0.57086503  0.56826095  1
  O2-  O185  1  0.31873786  0.57451755  0.90355179  1
  O2-  O186  1  0.82233168  0.07618183  0.24417995  1
  O2-  O187  1  0.81912620  0.06998635  0.56801988  1
  O2-  O188  1  0.82784569  0.07375711  0.91422580  1
  O2-  O189  1  0.82000612  0.56781515  0.24059405  1
  O2-  O190  1  0.81843169  0.56985665  0.56617193  1
  O2-  O191  1  0.82063625  0.57025860  0.91165680  1
  O2-  O192  1  0.04203644  0.08834993  0.26893439  1
  O2-  O193  1  0.04984708  0.07770526  0.60158366  1
  O2-  O194  1  0.04288837  0.08657300  0.93873604  1
  O2-  O195  1  0.04405665  0.58093837  0.26341832  1
  O2-  O196  1  0.05131108  0.57938212  0.59720745  1
  O2-  O197  1  0.03877585  0.58376955  0.93349773  1
  O2-  O198  1  0.54089272  0.07834276  0.26423461  1
  O2-  O199  1  0.53281297  0.08232307  0.59912706  1
  O2-  O200  1  0.53973331  0.07873153  0.93205624  1
  O2-  O201  1  0.54353526  0.58792860  0.27056948  1
  O2-  O202  1  0.53916344  0.58648874  0.60573236  1
  O2-  O203  1  0.54979946  0.58688300  0.93776250  1
  O2-  O204  1  0.16296582  0.20458380  0.26933347  1
  O2-  O205  1  0.17075746  0.20931602  0.59747932  1
  O2-  O206  1  0.16424056  0.20193968  0.94316508  1
  O2-  O207  1  0.17196164  0.71173880  0.26495527  1
  O2-  O208  1  0.17193268  0.71159502  0.59887737  1
  O2-  O209  1  0.16715679  0.71327212  0.93179505  1
  O2-  O210  1  0.66906548  0.20571326  0.26179145  1
  O2-  O211  1  0.66622343  0.20484562  0.59889270  1
  O2-  O212  1  0.67136035  0.20475237  0.93355102  1
  O2-  O213  1  0.66269466  0.70517655  0.27074566  1
  O2-  O214  1  0.66131957  0.70250107  0.60592373  1
  O2-  O215  1  0.66448442  0.71022202  0.93746922  1
  O2-  O216  1  0.07928464  0.45770484  0.06985557  1
  O2-  O217  1  0.08131240  0.45212071  0.39815715  1
  O2-  O218  1  0.08335881  0.44881268  0.72441838  1
  O2-  O219  1  0.08560642  0.95580378  0.06061848  1
  O2-  O220  1  0.07978504  0.95819811  0.39842071  1
  O2-  O221  1  0.08210577  0.94539153  0.72714664  1
  O2-  O222  1  0.58883994  0.45706943  0.06308752  1
  O2-  O223  1  0.59030409  0.45833764  0.39268077  1
  O2-  O224  1  0.58466650  0.46139012  0.73836575  1
  O2-  O225  1  0.58170636  0.95867205  0.06953247  1
  O2-  O226  1  0.58026332  0.95567226  0.40014684  1
  O2-  O227  1  0.57896060  0.95719943  0.73481233  1
  O2-  O228  1  0.20337763  0.32930295  0.06961778  1
  O2-  O229  1  0.19905806  0.33110053  0.39766205  1
  O2-  O230  1  0.20670816  0.33638386  0.73019201  1
  O2-  O231  1  0.21070935  0.84031289  0.06082779  1
  O2-  O232  1  0.21335100  0.83643074  0.40244669  1
  O2-  O233  1  0.21277979  0.83890955  0.73230084  1
  O2-  O234  1  0.71062860  0.33680759  0.06436723  1
  O2-  O235  1  0.70752687  0.33547872  0.38896725  1
  O2-  O236  1  0.70407711  0.32783173  0.73407690  1
  O2-  O237  1  0.70971943  0.83326986  0.07142600  1
  O2-  O238  1  0.70787238  0.83095508  0.39994088  1
  O2-  O239  1  0.70216479  0.82871754  0.73498891  1
  O2-  O240  1  0.46221637  0.41987295  0.26327781  1
  O2-  O241  1  0.45628516  0.41867431  0.60731392  1
  O2-  O242  1  0.45520749  0.42319359  0.93267772  1
  O2-  O243  1  0.45482508  0.91132775  0.27002541  1
  O2-  O244  1  0.45691582  0.91245953  0.60241811  1
  O2-  O245  1  0.45827258  0.91143918  0.93743747  1
  O2-  O246  1  0.95660523  0.41274177  0.26769291  1
  O2-  O247  1  0.95705279  0.41676862  0.59549277  1
  O2-  O248  1  0.95606994  0.41329816  0.93937576  1
  O2-  O249  1  0.94994990  0.92314877  0.26500188  1
  O2-  O250  1  0.95107688  0.91780431  0.59913389  1
  O2-  O251  1  0.94992440  0.91738268  0.93940351  1
  O2-  O252  1  0.32831251  0.29970384  0.26589204  1
  O2-  O253  1  0.33553953  0.30008985  0.60488356  1
  O2-  O254  1  0.32802523  0.29431229  0.93197920  1
  O2-  O255  1  0.33863919  0.79068541  0.27133384  1
  O2-  O256  1  0.33860614  0.79392365  0.60286280  1
  O2-  O257  1  0.33832811  0.79468042  0.93547175  1
  O2-  O258  1  0.83901734  0.29322519  0.26553316  1
  O2-  O259  1  0.82937484  0.29367635  0.59869464  1
  O2-  O260  1  0.83855105  0.29389664  0.93895084  1
  O2-  O261  1  0.82981691  0.78838190  0.26186302  1
  O2-  O262  1  0.82684668  0.78847963  0.60112829  1
  O2-  O263  1  0.83243541  0.79462136  0.93900451  1
  O2-  O264  1  0.41017064  0.03798249  0.06395204  1
  O2-  O265  1  0.41276616  0.04275643  0.39324863  1
  O2-  O266  1  0.41096270  0.03459609  0.73698156  1
  O2-  O267  1  0.42330012  0.54900629  0.06727774  1
  O2-  O268  1  0.41874104  0.53944700  0.40167993  1
  O2-  O269  1  0.41512343  0.54279340  0.73794755  1
  O2-  O270  1  0.91706857  0.04726300  0.06712638  1
  O2-  O271  1  0.91600253  0.05212420  0.39526502  1
  O2-  O272  1  0.92221134  0.04380324  0.73460323  1
  O2-  O273  1  0.91151022  0.54106463  0.06490942  1
  O2-  O274  1  0.91483696  0.54290304  0.39134818  1
  O2-  O275  1  0.92379114  0.54380587  0.73071989  1
  O2-  O276  1  0.29486223  0.16268739  0.06373768  1
  O2-  O277  1  0.29877858  0.16860882  0.39142437  1
  O2-  O278  1  0.29195116  0.16953205  0.73449059  1
  O2-  O279  1  0.29259462  0.67248269  0.06815403  1
  O2-  O280  1  0.29241444  0.66594959  0.40228977  1
  O2-  O281  1  0.29372019  0.67091316  0.73463790  1
  O2-  O282  1  0.79946592  0.16801609  0.06534762  1
  O2-  O283  1  0.79633757  0.16913127  0.39439485  1
  O2-  O284  1  0.79584653  0.16869617  0.73423709  1
  O2-  O285  1  0.79153798  0.66173788  0.06476916  1
  O2-  O286  1  0.79175160  0.66024632  0.39285729  1
  O2-  O287  1  0.78888246  0.66352726  0.73770468  1
